AV-unprocessed.smi:1116|AV-procd|sdf|4808|dock2
  -GOLD-   22720 3353D 1   1.00000     0.00000
 Structure written by MMmdl.
 36 37  0  0  0  0  0  0  0  0  1 V2000
  153.1835  143.2403  161.5916 C   0  0  0  0  0  0  0  0  0  0  0  0
  152.3484  143.4275  160.3714 C   0  0  0  0  0  0  0  0  0  0  0  0
  152.1955  142.4935  159.4291 N   0  0  0  0  0  0  0  0  0  0  0  0
  151.3605  142.9104  158.3876 C   0  0  0  0  0  0  0  0  0  0  0  0
  151.0762  141.9884  157.2406 C   0  0  0  0  0  0  0  0  0  0  0  0
  152.0780  140.8238  157.1655 C   0  0  0  0  0  0  0  0  0  0  0  0
  151.4709  139.6293  156.5892 N   0  0  0  0  0  0  0  0  0  0  0  0
  151.4557  139.3245  155.2826 C   0  0  0  0  0  0  0  0  0  0  0  0
  151.9550  140.0447  154.4176 O   0  0  0  0  0  0  0  0  0  0  0  0
  150.7842  137.9990  154.9079 C   0  0  0  0  0  0  0  0  0  0  0  0
  151.6217  136.7612  155.2862 C   0  0  0  0  0  0  0  0  0  0  0  0
  150.8174  135.4476  155.2330 C   0  0  1  0  0  0  0  0  0  0  0  0
  150.4545  135.0603  153.8802 N   0  0  0  0  0  0  0  0  0  0  0  0
  150.9510  133.8634  153.5391 C   0  0  0  0  0  0  0  0  0  0  0  0
  150.7931  133.2978  152.4600 O   0  0  0  0  0  0  0  0  0  0  0  0
  151.6481  133.3940  154.5793 N   0  0  0  0  0  0  0  0  0  0  0  0
  151.6472  134.2339  155.6130 C   0  0  0  0  0  0  0  0  0  0  0  0
  152.2120  134.0781  156.6938 O   0  0  0  0  0  0  0  0  0  0  0  0
  150.8806  144.1855  158.5568 C   0  0  0  0  0  0  0  0  0  0  0  0
  151.4615  144.9084  160.0317 S   0  0  0  0  0  0  0  0  0  0  0  0
  153.6552  142.2571  161.5883 H   0  0  0  0  0  0  0  0  0  0  0  0
  152.5634  143.3275  162.4839 H   0  0  0  0  0  0  0  0  0  0  0  0
  153.9628  144.0015  161.6299 H   0  0  0  0  0  0  0  0  0  0  0  0
  150.0618  141.5969  157.3275 H   0  0  0  0  0  0  0  0  0  0  0  0
  151.1001  142.5465  156.3039 H   0  0  0  0  0  0  0  0  0  0  0  0
  152.9254  141.1050  156.5398 H   0  0  0  0  0  0  0  0  0  0  0  0
  152.4831  140.5998  158.1540 H   0  0  0  0  0  0  0  0  0  0  0  0
  151.0368  138.9830  157.2322 H   0  0  0  0  0  0  0  0  0  0  0  0
  149.8153  137.9559  155.4064 H   0  0  0  0  0  0  0  0  0  0  0  0
  150.5851  137.9958  153.8354 H   0  0  0  0  0  0  0  0  0  0  0  0
  152.4895  136.6933  154.6271 H   0  0  0  0  0  0  0  0  0  0  0  0
  152.0160  136.8848  156.2963 H   0  0  0  0  0  0  0  0  0  0  0  0
  149.9257  135.5012  155.8590 H   0  0  0  0  0  0  0  0  0  0  0  0
  149.8818  135.6340  153.2782 H   0  0  0  0  0  0  0  0  0  0  0  0
  152.1288  132.5064  154.5783 H   0  0  0  0  0  0  0  0  0  0  0  0
  150.2230  144.7416  157.9054 H   0  0  0  0  0  0  0  0  0  0  0  0
  1  2  1  0  0  0  0
  1 21  1  0  0  0  0
  1 22  1  0  0  0  0
  1 23  1  0  0  0  0
  2 20  1  0  0  0  0
  2  3  2  0  0  0  0
  3  4  1  0  0  0  0
  4  5  1  0  0  0  0
  4 19  2  0  0  0  0
  5  6  1  0  0  0  0
  5 24  1  0  0  0  0
  5 25  1  0  0  0  0
  6  7  1  0  0  0  0
  6 26  1  0  0  0  0
  6 27  1  0  0  0  0
  7  8  1  0  0  0  0
  7 28  1  0  0  0  0
  8  9  2  0  0  0  0
  8 10  1  0  0  0  0
 10 11  1  0  0  0  0
 10 29  1  0  0  0  0
 10 30  1  0  0  0  0
 11 12  1  0  0  0  0
 11 31  1  0  0  0  0
 11 32  1  0  0  0  0
 12 17  1  0  0  0  0
 12 13  1  0  0  0  0
 12 33  1  0  0  0  0
 13 14  1  0  0  0  0
 13 34  1  0  0  0  0
 14 15  2  0  0  0  0
 14 16  1  0  0  0  0
 16 17  1  0  0  0  0
 16 35  1  0  0  0  0
 17 18  2  0  0  0  0
 19 20  1  0  0  0  0
 19 36  1  0  0  0  0
M  END
> <s_m_source_file>
AV-unprocessed.smi

> <i_m_source_file_index>
1116

> <i_lp_mmshare_version>
43012

> <i_f3d_flags>
0

> <s_epik_input>
W0NIM11jMW5jKFtjSF1zMSlbQ0gyXVtDSDJdW05IXUMoPU8pW0NIMl1bQ0gyXVtDQEBIXTJbTkhdQyg9TylbTkhdQzI9Tw==

> <s_epik_cmdline>
J2VwaWtfcHl0aG9uJywgJy1waCcsICc3LjAnLCAnLXRuJywgJzgnLCAnLW1hJywgJzIwMCcsICctbWV0YWxfYmluZGluZycsICctaW1hZScsICc8aW5maWxlLm1hZT4nLCAnLW9tYWUnLCAnPG91dGZpbGUubWFlPic=

> <r_lp_tautomer_probability>
1

> <r_epik_Ionization_Penalty>
0.00889251

> <r_epik_Ionization_Penalty_Charging>
0

> <r_epik_Ionization_Penalty_Neutral>
0.00889251

> <r_epik_State_Penalty>
0.00583796

> <r_epik_Charging_Adjusted_Penalty>
0.00583796

> <i_epik_Tot_Q>
0

> <i_epik_Tot_abs_Q>
0

> <r_epik_Metal_State_Penalty>
0.408839

> <b_epik_Metal_Only>
0

> <s_lp_Force_Field>
OPLS_2005

> <r_lp_Energy>
13.0769

> <b_lp_Chiralities_Consistent>
1

> <s_lp_Variant>
AV-unprocessed.smi:1116-2

> <Gold.Version>
5.8.1

> <Gold.Id.Protein>
6NUR|6NUR_protein|mol2

> <Gold.PLP.Fitness>
47.5558

> <Gold.PLP.PLP>
-37.2172

> <Gold.PLP.part.hbond>
-3.0000

> <Gold.PLP.part.metal>
0.0000

> <Gold.PLP.part.buried>
-6.9866

> <Gold.PLP.part.nonpolar>
-28.2713

> <Gold.PLP.part.repulsive>
0.3541

> <Gold.PLP.ligand.clash>
0.0000

> <Gold.PLP.ligand.torsion>
0.8241

> <Gold.PLP.Chemscore.Hbond>
2.9840

> <Gold.PLP.Chemscore.CHOScore>
0.9768

> <Gold.PLP.Chemscore.Metal>
0.0000

> <Gold.Chemscore.Hbonds>
donor molecule, donor type, donor heavy atom, donor atom, acceptor molecule, acceptor atom, score
      L1  H    13    34       P1  7948  0.30
      P1  H  7989  7998       L1     9  0.28
      L1  C    19    36       P1  8028  0.65
      L1  C    19    36       P1  8029  0.30

> <Gold.PLP.Chemscore.Internal.Correction>
0.1046

> <Gold.Rescore>
     Score         DG    S(hbond)    S(metal)    S(lipo)     H(rot)  DE(clash)    DE(int)     intcor
     16.92     -17.77       2.93        0.00      83.25       2.83       0.01       0.83       ----

> <Gold.Chemscore.Fitness>
16.9249

> <Gold.Chemscore.DG>
-17.7650

> <Gold.Chemscore.ZeroCoef>
-5.4800

> <Gold.Chemscore.Hbond>
2.9330

> <Gold.Chemscore.Metal>
0.0000

> <Gold.Chemscore.Lipo>
83.2451

> <Gold.Chemscore.Internal_Hbond>
0.0000

> <Gold.Chemscore.DEClash>
0.0106

> <Gold.Chemscore.DEInternal>
0.8295

> <Gold.Chemscore.Rot>
2.8324

> <Gold.Chemscore.Internal.Correction>
   9.000000E+99

> <Gold.Chemscore.Hbonds>
donor molecule, donor type, donor heavy atom, donor atom, acceptor molecule, acceptor atom, score
      P1  H  7989  7998       L1     9  0.28

> <Gold.Chemscore.Hbond.Weighted>
-9.7963

> <Gold.Chemscore.Metal.Weighted>
-0.0000

> <Gold.Chemscore.Lipo.Weighted>
-9.7397

> <Gold.Chemscore.Internal_Hbond.Weighted>
0.0000

> <Gold.Chemscore.DEClash.Weighted>
0.0106

> <Gold.Chemscore.DEInternal.Weighted>
0.8295

> <Gold.Chemscore.Rot.Weighted>
7.2510

> <Gold.Chemscore.Internal.Correction.Weighted>
   9.000000E+99

> <Gold.Protein.RotatedTorsions>
[ 6907 6896 6895 6894 ] final   12.66 input  -60.11 | X-H torsion
[ 7974 7965 7964 7962 ] final   -3.73 input  175.53 | X-H torsion
[ 8008 7997 7996 7995 ] final   71.00 input   59.86 | X-H torsion
[ 10167 10162 10161 10158 ] final   87.38 input  -65.29 | X-H torsion
[ 10718 10713 10712 10709 ] final  -32.64 input   66.30 | X-H torsion
[ 10763 10752 10751 10750 ] final    8.82 input  -60.55 | X-H torsion
[ 11005 11000 10999 10996 ] final   52.36 input  -57.11 | X-H torsion

> <Gold.Protein.ActiveResidues>
 VAL166  LYS551  ARG553  GLY616  TRP617  ASP618  TYR619  PRO620  LYS621  CYS622 
 ASP623  PHE694  ASN695  SER759  ASP760  ASP761  ALA762  ILE779  LEU786  VAL792 
 PHE793  MET794  SER795  GLU796  ALA797  LYS798  CYS799  TRP800  GLU811  SER814 

> <Gold.Protein.RotatedAtoms>
  151.7740  135.0779  160.0363 H   0  0  0  0  0  0  0  0  0  0  0  0  # atno 6907 bound_to 6896
  152.3269  133.5911  159.5791 H   0  0  0  0  0  0  0  0  0  0  0  0  # atno 6908 bound_to 6896
  150.7400  133.9843  159.3628 H   0  0  0  0  0  0  0  0  0  0  0  0  # atno 6909 bound_to 6896
  146.2384  140.1766  142.8332 H   0  0  0  0  0  0  0  0  0  0  0  0  # atno 7974 bound_to 7965
  155.7473  140.3489  155.5133 H   0  0  0  0  0  0  0  0  0  0  0  0  # atno 8008 bound_to 7997
  155.9038  140.1038  157.1352 H   0  0  0  0  0  0  0  0  0  0  0  0  # atno 8009 bound_to 7997
  154.4047  140.1281  156.4456 H   0  0  0  0  0  0  0  0  0  0  0  0  # atno 8010 bound_to 7997
  139.8780  144.6456  150.8875 H   0  0  0  0  0  0  0  0  0  0  0  0  # atno 10167 bound_to 10162
  156.3724  130.4342  149.7534 H   0  0  0  0  0  0  0  0  0  0  0  0  # atno 10718 bound_to 10713
  153.2208  135.6881  153.8002 H   0  0  0  0  0  0  0  0  0  0  0  0  # atno 10763 bound_to 10752
  153.7202  135.3268  155.3266 H   0  0  0  0  0  0  0  0  0  0  0  0  # atno 10764 bound_to 10752
  154.8268  135.4611  154.1054 H   0  0  0  0  0  0  0  0  0  0  0  0  # atno 10765 bound_to 10752
  140.0855  134.5279  155.8903 H   0  0  0  0  0  0  0  0  0  0  0  0  # atno 11005 bound_to 11000
  144.9968  140.8597  143.5305 LP  0  0  0  0  0  0  0  0  0  0  0  0  # atno 17320 bound_to 7965
  145.1779  139.2368  143.5307 LP  0  0  0  0  0  0  0  0  0  0  0  0  # atno 17321 bound_to 7965
  140.7749  143.3609  151.1830 LP  0  0  0  0  0  0  0  0  0  0  0  0  # atno 17342 bound_to 10162
  139.7222  143.9204  152.2990 LP  0  0  0  0  0  0  0  0  0  0  0  0  # atno 17343 bound_to 10162
  156.4656  130.7972  151.2992 LP  0  0  0  0  0  0  0  0  0  0  0  0  # atno 17370 bound_to 10713
  157.7485  131.0052  150.3104 LP  0  0  0  0  0  0  0  0  0  0  0  0  # atno 17371 bound_to 10713
  141.2061  133.6652  156.6222 LP  0  0  0  0  0  0  0  0  0  0  0  0  # atno 17394 bound_to 11000
  140.3426  134.7836  157.4408 LP  0  0  0  0  0  0  0  0  0  0  0  0  # atno 17395 bound_to 11000

$$$$
