AV-unprocessed.smi:155|AV-procd|sdf|1283|dock4
  -GOLD-   2262018553D 1   1.00000     0.00000
 Structure written by MMmdl.
 64 67  0  0  0  0  0  0  0  0  3 V2000
  143.8444  134.7595  152.6121 C   0  0  0  0  0  0  0  0  0  0  0  0
  144.2862  133.3541  152.4537 N   0  3  0  0  0  0  0  0  0  0  0  0
  144.1974  132.9175  151.0419 C   0  0  0  0  0  0  0  0  0  0  0  0
  145.6251  133.0877  153.0412 C   0  0  0  0  0  0  0  0  0  0  0  0
  146.7255  133.9924  152.4455 C   0  0  0  0  0  0  0  0  0  0  0  0
  147.8130  134.3038  153.4124 N   0  3  2  0  0  0  0  0  0  0  0  0
  148.7560  133.1654  153.6207 C   0  0  0  0  0  0  0  0  0  0  0  0
  149.6695  133.3073  154.8554 C   0  0  0  0  0  0  0  0  0  0  0  0
  150.4791  134.6136  154.8957 C   0  0  0  0  0  0  0  0  0  0  0  0
  149.6540  135.8177  154.7876 N   0  0  0  0  0  0  0  0  0  0  0  0
  150.3733  136.9662  154.8391 C   0  0  0  0  0  0  0  0  0  0  0  0
  151.6549  136.9835  154.3858 N   0  0  0  0  0  0  0  0  0  0  0  0
  152.3641  138.1164  154.4152 C   0  0  0  0  0  0  0  0  0  0  0  0
  151.9931  139.3223  154.8505 N   0  0  0  0  0  0  0  0  0  0  0  0
  150.7095  139.3083  155.3102 C   0  0  0  0  0  0  0  0  0  0  0  0
  149.8366  138.1846  155.3406 C   0  0  0  0  0  0  0  0  0  0  0  0
  148.6123  138.5492  155.8891 N   0  0  0  0  0  0  0  0  0  0  0  0
  148.7498  139.8199  156.1565 C   0  0  0  0  0  0  0  0  0  0  0  0
  149.9798  140.3540  155.8454 N   0  0  0  0  0  0  0  0  0  0  0  0
  150.4073  141.7277  156.0415 C   0  0  0  0  0  0  0  0  0  0  0  0
  150.2400  142.1906  157.5046 C   0  0  2  0  0  0  0  0  0  0  0  0
  148.9157  142.6274  157.7403 O   0  0  0  0  0  0  0  0  0  0  0  0
  151.2170  143.3047  157.9342 C   0  0  1  0  0  0  0  0  0  0  0  0
  150.7554  144.1062  159.1529 C   0  0  0  0  0  0  0  0  0  0  0  0
  152.0657  144.6470  159.6774 C   0  0  0  0  0  0  0  0  0  0  0  0
  153.0027  143.4662  159.4442 C   0  0  0  0  0  0  0  0  0  0  0  0
  152.4907  142.7784  158.3059 O   0  0  0  0  0  0  0  0  0  0  0  0
  148.3106  135.8378  155.3782 C   0  0  0  0  0  0  0  0  0  0  0  0
  147.2973  134.8947  154.6800 C   0  0  0  0  0  0  0  0  0  0  0  0
  144.5243  135.4435  152.1023 H   0  0  0  0  0  0  0  0  0  0  0  0
  143.7917  135.0491  153.6608 H   0  0  0  0  0  0  0  0  0  0  0  0
  142.8483  134.8974  152.1897 H   0  0  0  0  0  0  0  0  0  0  0  0
  144.8945  133.4751  150.4148 H   0  0  0  0  0  0  0  0  0  0  0  0
  143.1902  133.0706  150.6525 H   0  0  0  0  0  0  0  0  0  0  0  0
  144.4250  131.8551  150.9475 H   0  0  0  0  0  0  0  0  0  0  0  0
  145.5672  133.2686  154.1147 H   0  0  0  0  0  0  0  0  0  0  0  0
  145.8793  132.0337  152.9179 H   0  0  0  0  0  0  0  0  0  0  0  0
  147.1683  133.4869  151.5880 H   0  0  0  0  0  0  0  0  0  0  0  0
  146.2932  134.9210  152.0694 H   0  0  0  0  0  0  0  0  0  0  0  0
  148.1880  132.2392  153.7186 H   0  0  0  0  0  0  0  0  0  0  0  0
  149.3806  133.0595  152.7337 H   0  0  0  0  0  0  0  0  0  0  0  0
  149.0899  133.2023  155.7729 H   0  0  0  0  0  0  0  0  0  0  0  0
  150.3662  132.4687  154.8703 H   0  0  0  0  0  0  0  0  0  0  0  0
  151.0543  134.6567  155.8219 H   0  0  0  0  0  0  0  0  0  0  0  0
  151.2037  134.5955  154.0820 H   0  0  0  0  0  0  0  0  0  0  0  0
  153.3728  138.0470  154.0349 H   0  0  0  0  0  0  0  0  0  0  0  0
  147.9558  140.4056  156.5975 H   0  0  0  0  0  0  0  0  0  0  0  0
  151.4489  141.8056  155.7296 H   0  0  0  0  0  0  0  0  0  0  0  0
  149.8326  142.3655  155.3687 H   0  0  0  0  0  0  0  0  0  0  0  0
  150.3923  141.3359  158.1649 H   0  0  0  0  0  0  0  0  0  0  0  0
  148.8070  143.4780  157.3437 H   0  0  0  0  0  0  0  0  0  0  0  0
  151.3715  144.0075  157.1131 H   0  0  0  0  0  0  0  0  0  0  0  0
  150.0413  144.8900  158.8988 H   0  0  0  0  0  0  0  0  0  0  0  0
  150.2969  143.4580  159.9003 H   0  0  0  0  0  0  0  0  0  0  0  0
  152.3832  145.5032  159.0808 H   0  0  0  0  0  0  0  0  0  0  0  0
  152.0183  144.9549  160.7222 H   0  0  0  0  0  0  0  0  0  0  0  0
  154.0353  143.7795  159.2896 H   0  0  0  0  0  0  0  0  0  0  0  0
  152.9787  142.7865  160.2969 H   0  0  0  0  0  0  0  0  0  0  0  0
  148.3785  135.5950  156.4395 H   0  0  0  0  0  0  0  0  0  0  0  0
  147.9099  136.8514  155.3245 H   0  0  0  0  0  0  0  0  0  0  0  0
  146.3969  135.4782  154.4848 H   0  0  0  0  0  0  0  0  0  0  0  0
  146.9791  134.0975  155.3535 H   0  0  0  0  0  0  0  0  0  0  0  0
  143.6269  132.7801  152.9601 H   0  0  0  0  0  0  0  0  0  0  0  0
  148.3556  135.0445  152.9904 H   0  0  0  0  0  0  0  0  0  0  0  0
  1  2  1  0  0  0  0
  1 30  1  0  0  0  0
  1 31  1  0  0  0  0
  1 32  1  0  0  0  0
  2  3  1  0  0  0  0
  2  4  1  0  0  0  0
  2 63  1  0  0  0  0
  3 33  1  0  0  0  0
  3 34  1  0  0  0  0
  3 35  1  0  0  0  0
  4  5  1  0  0  0  0
  4 36  1  0  0  0  0
  4 37  1  0  0  0  0
  5  6  1  0  0  0  0
  5 38  1  0  0  0  0
  5 39  1  0  0  0  0
  6 29  1  0  0  0  0
  6  7  1  0  0  0  0
  6 64  1  0  0  0  0
  7  8  1  0  0  0  0
  7 40  1  0  0  0  0
  7 41  1  0  0  0  0
  8  9  1  0  0  0  0
  8 42  1  0  0  0  0
  8 43  1  0  0  0  0
  9 10  1  0  0  0  0
  9 44  1  0  0  0  0
  9 45  1  0  0  0  0
 10 11  1  0  0  0  0
 10 28  1  0  0  0  0
 11 16  1  0  0  0  0
 11 12  2  0  0  0  0
 12 13  1  0  0  0  0
 13 14  2  0  0  0  0
 13 46  1  0  0  0  0
 14 15  1  0  0  0  0
 15 19  1  0  0  0  0
 15 16  2  0  0  0  0
 16 17  1  0  0  0  0
 17 18  2  0  0  0  0
 18 19  1  0  0  0  0
 18 47  1  0  0  0  0
 19 20  1  0  0  0  0
 20 21  1  0  0  0  0
 20 48  1  0  0  0  0
 20 49  1  0  0  0  0
 21 22  1  0  0  0  0
 21 23  1  0  0  0  0
 21 50  1  0  0  0  0
 22 51  1  0  0  0  0
 23 27  1  0  0  0  0
 23 24  1  0  0  0  0
 23 52  1  0  0  0  0
 24 25  1  0  0  0  0
 24 53  1  0  0  0  0
 24 54  1  0  0  0  0
 25 26  1  0  0  0  0
 25 55  1  0  0  0  0
 25 56  1  0  0  0  0
 26 27  1  0  0  0  0
 26 57  1  0  0  0  0
 26 58  1  0  0  0  0
 28 29  1  0  0  0  0
 28 59  1  0  0  0  0
 28 60  1  0  0  0  0
 29 61  1  0  0  0  0
 29 62  1  0  0  0  0
M  CHG  1   2   1
M  CHG  1   6   1
M  END
> <s_m_source_file>
AV-unprocessed.smi

> <i_m_source_file_index>
155

> <i_lp_mmshare_version>
43012

> <i_f3d_flags>
0

> <s_epik_input>
W0NIM11OKFtDSDNdKVtDSDJdW0NIMl1OMVtDSDJdW0NIMl1bQ0gyXU4oW0NIMl1bQ0gyXTEpYyhuW2NIXW4yKWMoYzIzKW5bY0hdbjNbQ0gyXVtDQEhdKFtPSF0pW0NAQEhdNFtDSDJdW0NIMl1bQ0gyXU80

> <s_epik_cmdline>
J2VwaWtfcHl0aG9uJywgJy1waCcsICc3LjAnLCAnLXRuJywgJzgnLCAnLW1hJywgJzIwMCcsICctbWV0YWxfYmluZGluZycsICctaW1hZScsICc8aW5maWxlLm1hZT4nLCAnLW9tYWUnLCAnPG91dGZpbGUubWFlPic=

> <r_lp_tautomer_probability>
1

> <r_epik_Ionization_Penalty>
3.0333

> <r_epik_Ionization_Penalty_Charging>
3.03317

> <r_epik_Ionization_Penalty_Neutral>
0.000131872

> <r_epik_State_Penalty>
1.99939

> <r_epik_Charging_Adjusted_Penalty>
5.03256

> <i_epik_Tot_Q>
2

> <i_epik_Tot_abs_Q>
2

> <r_epik_Metal_State_Penalty>
2.00021

> <b_epik_Metal_Only>
0

> <s_lp_Force_Field>
OPLS_2005

> <r_lp_Energy>
67.9245

> <b_lp_Chiralities_Consistent>
1

> <s_lp_Variant>
AV-unprocessed.smi:155-17

> <Gold.Version>
5.8.1

> <Gold.Id.Protein>
6NUR|6NUR_protein|mol2

> <Gold.PLP.Fitness>
65.4209

> <Gold.PLP.PLP>
-47.3001

> <Gold.PLP.part.hbond>
-5.0000

> <Gold.PLP.part.metal>
0.0000

> <Gold.PLP.part.buried>
-4.8338

> <Gold.PLP.part.nonpolar>
-38.8310

> <Gold.PLP.part.repulsive>
0.2403

> <Gold.PLP.ligand.clash>
0.0000

> <Gold.PLP.ligand.torsion>
1.3022

> <Gold.PLP.Chemscore.Hbond>
6.7160

> <Gold.PLP.Chemscore.CHOScore>
0.0000

> <Gold.PLP.Chemscore.Metal>
0.0000

> <Gold.Chemscore.Hbonds>
donor molecule, donor type, donor heavy atom, donor atom, acceptor molecule, acceptor atom, score
      L1  H     2    63       P1 10957  0.75
      L1  H     6    64       P1  7948  2.00
      L1  H    22    51       P1  8028  0.85
      P1  H  7989  7998       L1    14  0.63
      P1  H 10752 10763       L1    12  1.00

> <Gold.PLP.Chemscore.Internal.Correction>
0.5772

> <Gold.Rescore>
     Score         DG    S(hbond)    S(metal)    S(lipo)     H(rot)  DE(clash)    DE(int)     intcor
     16.91     -20.04       3.08        0.00      96.59       2.75       0.36       2.76       ----

> <Gold.Chemscore.Fitness>
16.9140

> <Gold.Chemscore.DG>
-20.0432

> <Gold.Chemscore.ZeroCoef>
-5.4800

> <Gold.Chemscore.Hbond>
3.0839

> <Gold.Chemscore.Metal>
0.0000

> <Gold.Chemscore.Lipo>
96.5924

> <Gold.Chemscore.Internal_Hbond>
0.0000

> <Gold.Chemscore.DEClash>
0.3643

> <Gold.Chemscore.DEInternal>
2.7649

> <Gold.Chemscore.Rot>
2.7493

> <Gold.Chemscore.Internal.Correction>
   9.000000E+99

> <Gold.Chemscore.Hbonds>
donor molecule, donor type, donor heavy atom, donor atom, acceptor molecule, acceptor atom, score
      L1  H     2    63       P1 10957  0.09
      L1  H     6    64       P1  7948  0.82
      L1  H    22    51       P1  8028  0.18
      P1  H  7989  7998       L1    14  0.07
      P1  H 10752 10763       L1    12  0.45

> <Gold.Chemscore.Hbond.Weighted>
-10.3001

> <Gold.Chemscore.Metal.Weighted>
-0.0000

> <Gold.Chemscore.Lipo.Weighted>
-11.3013

> <Gold.Chemscore.Internal_Hbond.Weighted>
0.0000

> <Gold.Chemscore.DEClash.Weighted>
0.3643

> <Gold.Chemscore.DEInternal.Weighted>
2.7649

> <Gold.Chemscore.Rot.Weighted>
7.0383

> <Gold.Chemscore.Internal.Correction.Weighted>
   9.000000E+99

> <Gold.Protein.RotatedTorsions>
[ 6907 6896 6895 6894 ] final -165.03 input  -60.11 | X-H torsion
[ 7974 7965 7964 7962 ] final   71.54 input  175.53 | X-H torsion
[ 8008 7997 7996 7995 ] final  142.61 input   59.86 | X-H torsion
[ 10167 10162 10161 10158 ] final  116.49 input  -65.29 | X-H torsion
[ 10718 10713 10712 10709 ] final   57.02 input   66.30 | X-H torsion
[ 10763 10752 10751 10750 ] final   45.07 input  -60.55 | X-H torsion
[ 11005 11000 10999 10996 ] final -100.96 input  -57.11 | X-H torsion

> <Gold.Protein.ActiveResidues>
 VAL166  LYS551  ARG553  GLY616  TRP617  ASP618  TYR619  PRO620  LYS621  CYS622 
 ASP623  PHE694  ASN695  SER759  ASP760  ASP761  ALA762  ILE779  LEU786  VAL792 
 PHE793  MET794  SER795  GLU796  ALA797  LYS798  CYS799  TRP800  GLU811  SER814 

> <Gold.Protein.RotatedAtoms>
  151.4211  133.3698  159.2756 H   0  0  0  0  0  0  0  0  0  0  0  0  # atno 6907 bound_to 6896
  150.9293  134.8710  159.7551 H   0  0  0  0  0  0  0  0  0  0  0  0  # atno 6908 bound_to 6896
  152.5020  134.4155  159.9515 H   0  0  0  0  0  0  0  0  0  0  0  0  # atno 6909 bound_to 6896
  145.7646  139.2815  143.1356 H   0  0  0  0  0  0  0  0  0  0  0  0  # atno 7974 bound_to 7965
  156.2946  140.2284  156.4756 H   0  0  0  0  0  0  0  0  0  0  0  0  # atno 8008 bound_to 7997
  154.7897  140.0455  157.1213 H   0  0  0  0  0  0  0  0  0  0  0  0  # atno 8009 bound_to 7997
  154.9659  140.3060  155.5013 H   0  0  0  0  0  0  0  0  0  0  0  0  # atno 8010 bound_to 7997
  139.6244  144.7106  151.2566 H   0  0  0  0  0  0  0  0  0  0  0  0  # atno 10167 bound_to 10162
  157.5479  130.8744  149.8919 H   0  0  0  0  0  0  0  0  0  0  0  0  # atno 10718 bound_to 10713
  152.9830  135.6051  154.3376 H   0  0  0  0  0  0  0  0  0  0  0  0  # atno 10763 bound_to 10752
  154.3075  135.2771  155.2583 H   0  0  0  0  0  0  0  0  0  0  0  0  # atno 10764 bound_to 10752
  154.4808  135.5918  153.6444 H   0  0  0  0  0  0  0  0  0  0  0  0  # atno 10765 bound_to 10752
  141.1250  133.8440  157.1170 H   0  0  0  0  0  0  0  0  0  0  0  0  # atno 11005 bound_to 11000
  146.0230  140.8330  142.9913 LP  0  0  0  0  0  0  0  0  0  0  0  0  # atno 17320 bound_to 7965
  144.6824  140.2657  143.7313 LP  0  0  0  0  0  0  0  0  0  0  0  0  # atno 17321 bound_to 7965
  140.7402  143.6596  150.8176 LP  0  0  0  0  0  0  0  0  0  0  0  0  # atno 17342 bound_to 10162
  140.0212  143.5541  152.2800 LP  0  0  0  0  0  0  0  0  0  0  0  0  # atno 17343 bound_to 10162
  156.0552  130.3710  150.1109 LP  0  0  0  0  0  0  0  0  0  0  0  0  # atno 17370 bound_to 10713
  156.9284  130.9705  151.3537 LP  0  0  0  0  0  0  0  0  0  0  0  0  # atno 17371 bound_to 10713
  140.0240  134.9932  157.0649 LP  0  0  0  0  0  0  0  0  0  0  0  0  # atno 17394 bound_to 11000
  140.4393  134.1698  155.7173 LP  0  0  0  0  0  0  0  0  0  0  0  0  # atno 17395 bound_to 11000

$$$$
