AV-unprocessed.smi:2908|AV-procd|sdf|11169|dock2
  -GOLD-   2272016 63D 1   1.00000     0.00000
 Structure written by MMmdl.
 44 45  0  0  0  0  0  0  0  0  2 V2000
  147.6206  138.9862  157.4642 O   0  0  0  0  0  0  0  0  0  0  0  0
  147.6275  139.7135  156.4696 C   0  0  0  0  0  0  0  0  0  0  0  0
  148.6078  140.6059  156.2439 N   0  0  0  0  0  0  0  0  0  0  0  0
  149.7765  140.8274  157.0926 C   0  0  0  0  0  0  0  0  0  0  0  0
  150.6992  141.9377  156.5522 C   0  0  0  0  0  0  0  0  0  0  0  0
  151.4297  142.7084  157.6376 C   0  0  0  0  0  0  0  0  0  0  0  0
  152.3790  142.0976  158.4862 C   0  0  0  0  0  0  0  0  0  0  0  0
  153.0406  142.8801  159.4551 C   0  0  0  0  0  0  0  0  0  0  0  0
  152.7382  144.2538  159.5571 C   0  0  0  0  0  0  0  0  0  0  0  0
  151.7795  144.8109  158.6867 C   0  0  0  0  0  0  0  0  0  0  0  0
  151.1668  144.0285  157.7717 N   0  3  0  0  0  0  0  0  0  0  0  0
  146.6274  139.7273  155.5532 N   0  0  0  0  0  0  0  0  0  0  0  0
  146.6232  140.4669  154.2821 C   0  0  0  0  0  0  0  0  0  0  0  0
  146.8802  139.4743  153.1352 C   0  0  0  0  0  0  0  0  0  0  0  0
  145.8336  138.3299  153.1118 C   0  0  0  0  0  0  0  0  0  0  0  0
  146.1609  137.2869  152.0085 C   0  0  2  0  0  0  0  0  0  0  0  0
  146.0624  137.9224  150.7469 O   0  0  0  0  0  0  0  0  0  0  0  0
  145.2465  136.0399  151.9696 C   0  0  0  0  0  0  0  0  0  0  0  0
  145.3420  135.4492  150.7774 F   0  0  0  0  0  0  0  0  0  0  0  0
  145.6307  135.1454  152.8795 F   0  0  0  0  0  0  0  0  0  0  0  0
  143.9749  136.3707  152.1966 F   0  0  0  0  0  0  0  0  0  0  0  0
  145.6993  137.7086  154.5243 C   0  0  0  0  0  0  0  0  0  0  0  0
  145.5076  138.7830  155.6104 C   0  0  0  0  0  0  0  0  0  0  0  0
  148.5367  141.1767  155.4139 H   0  0  0  0  0  0  0  0  0  0  0  0
  149.4705  141.0547  158.1152 H   0  0  0  0  0  0  0  0  0  0  0  0
  150.3318  139.8909  157.1463 H   0  0  0  0  0  0  0  0  0  0  0  0
  151.4366  141.5022  155.8770 H   0  0  0  0  0  0  0  0  0  0  0  0
  150.1168  142.6372  155.9513 H   0  0  0  0  0  0  0  0  0  0  0  0
  152.6060  141.0458  158.3907 H   0  0  0  0  0  0  0  0  0  0  0  0
  153.7736  142.4328  160.1103 H   0  0  0  0  0  0  0  0  0  0  0  0
  153.2359  144.8712  160.2906 H   0  0  0  0  0  0  0  0  0  0  0  0
  151.4894  145.8514  158.6918 H   0  0  0  0  0  0  0  0  0  0  0  0
  145.6530  140.9470  154.1476 H   0  0  0  0  0  0  0  0  0  0  0  0
  147.3525  141.2755  154.2381 H   0  0  0  0  0  0  0  0  0  0  0  0
  146.8720  140.0161  152.1894 H   0  0  0  0  0  0  0  0  0  0  0  0
  147.8821  139.0557  153.2401 H   0  0  0  0  0  0  0  0  0  0  0  0
  144.8691  138.7795  152.8704 H   0  0  0  0  0  0  0  0  0  0  0  0
  147.1938  136.9552  152.1224 H   0  0  0  0  0  0  0  0  0  0  0  0
  145.2288  138.3654  150.7004 H   0  0  0  0  0  0  0  0  0  0  0  0
  144.8467  137.0317  154.5609 H   0  0  0  0  0  0  0  0  0  0  0  0
  146.5843  137.1132  154.7537 H   0  0  0  0  0  0  0  0  0  0  0  0
  145.4058  138.3118  156.5890 H   0  0  0  0  0  0  0  0  0  0  0  0
  144.5720  139.3194  155.4454 H   0  0  0  0  0  0  0  0  0  0  0  0
  150.4825  144.4551  157.1465 H   0  0  0  0  0  0  0  0  0  0  0  0
  1  2  2  0  0  0  0
  2  3  1  0  0  0  0
  2 12  1  0  0  0  0
  3  4  1  0  0  0  0
  3 24  1  0  0  0  0
  4  5  1  0  0  0  0
  4 25  1  0  0  0  0
  4 26  1  0  0  0  0
  5  6  1  0  0  0  0
  5 27  1  0  0  0  0
  5 28  1  0  0  0  0
  6 11  1  0  0  0  0
  6  7  2  0  0  0  0
  7  8  1  0  0  0  0
  7 29  1  0  0  0  0
  8  9  2  0  0  0  0
  8 30  1  0  0  0  0
  9 10  1  0  0  0  0
  9 31  1  0  0  0  0
 10 11  2  0  0  0  0
 10 32  1  0  0  0  0
 11 44  1  0  0  0  0
 12 23  1  0  0  0  0
 12 13  1  0  0  0  0
 13 14  1  0  0  0  0
 13 33  1  0  0  0  0
 13 34  1  0  0  0  0
 14 15  1  0  0  0  0
 14 35  1  0  0  0  0
 14 36  1  0  0  0  0
 15 16  1  0  0  0  0
 15 22  1  0  0  0  0
 15 37  1  0  0  0  0
 16 17  1  0  0  0  0
 16 18  1  0  0  0  0
 16 38  1  0  0  0  0
 17 39  1  0  0  0  0
 18 19  1  0  0  0  0
 18 20  1  0  0  0  0
 18 21  1  0  0  0  0
 22 23  1  0  0  0  0
 22 40  1  0  0  0  0
 22 41  1  0  0  0  0
 23 42  1  0  0  0  0
 23 43  1  0  0  0  0
M  CHG  1  11   1
M  END
> <s_m_source_file>
AV-unprocessed.smi

> <i_m_source_file_index>
2908

> <i_lp_mmshare_version>
43012

> <i_f3d_flags>
0

> <s_epik_input>
RkMoRikoRilbQ0BASF0oW09IXSlbQ0hdKFtDSDJdW0NIMl0xKVtDSDJdW0NIMl1OMUMoPU8pW05IXVtDSDJdW0NIMl1jMltjSF1bY0hdW2NIXVtjSF1uMg==

> <s_epik_cmdline>
J2VwaWtfcHl0aG9uJywgJy1waCcsICc3LjAnLCAnLXRuJywgJzgnLCAnLW1hJywgJzIwMCcsICctbWV0YWxfYmluZGluZycsICctaW1hZScsICc8aW5maWxlLm1hZT4nLCAnLW9tYWUnLCAnPG91dGZpbGUubWFlPic=

> <r_epik_Ionization_Penalty>
1.55054

> <r_epik_Ionization_Penalty_Charging>
1.55036

> <r_epik_Ionization_Penalty_Neutral>
0.00017404

> <r_epik_State_Penalty>
1.64453

> <r_epik_Charging_Adjusted_Penalty>
3.19489

> <i_epik_Tot_Q>
1

> <i_epik_Tot_abs_Q>
1

> <r_epik_Metal_State_Penalty>
1.68672

> <b_epik_Metal_Only>
0

> <s_lp_Force_Field>
OPLS_2005

> <r_lp_Energy>
42.7125

> <b_lp_Chiralities_Consistent>
1

> <s_lp_Variant>
AV-unprocessed.smi:2908-3

> <Gold.Version>
5.8.1

> <Gold.Id.Protein>
6NUR|6NUR_protein|mol2

> <Gold.PLP.Fitness>
50.0230

> <Gold.PLP.PLP>
-39.2065

> <Gold.PLP.part.hbond>
-3.8570

> <Gold.PLP.part.metal>
0.0000

> <Gold.PLP.part.buried>
-1.6264

> <Gold.PLP.part.nonpolar>
-33.3643

> <Gold.PLP.part.repulsive>
0.0327

> <Gold.PLP.ligand.clash>
0.0000

> <Gold.PLP.ligand.torsion>
0.8979

> <Gold.PLP.Chemscore.Hbond>
4.0000

> <Gold.PLP.Chemscore.CHOScore>
0.0000

> <Gold.PLP.Chemscore.Metal>
0.0000

> <Gold.Chemscore.Hbonds>
donor molecule, donor type, donor heavy atom, donor atom, acceptor molecule, acceptor atom, score
      L1  H    11    44       P1  8028  1.33
      L1  H    17    39       P1 10171  0.90
      P1  H  7954  7966       L1    17  0.41

> <Gold.PLP.Chemscore.Internal.Correction>
0.6122

> <Gold.Rescore>
     Score         DG    S(hbond)    S(metal)    S(lipo)     H(rot)  DE(clash)    DE(int)     intcor
     18.78     -21.17       2.88        0.00     104.42       2.40       1.50       0.89       ----

> <Gold.Chemscore.Fitness>
18.7828

> <Gold.Chemscore.DG>
-21.1715

> <Gold.Chemscore.ZeroCoef>
-5.4800

> <Gold.Chemscore.Hbond>
2.8817

> <Gold.Chemscore.Metal>
0.0000

> <Gold.Chemscore.Lipo>
104.4227

> <Gold.Chemscore.Internal_Hbond>
0.0000

> <Gold.Chemscore.DEClash>
1.4965

> <Gold.Chemscore.DEInternal>
0.8922

> <Gold.Chemscore.Rot>
2.4026

> <Gold.Chemscore.Internal.Correction>
   9.000000E+99

> <Gold.Chemscore.Hbonds>
donor molecule, donor type, donor heavy atom, donor atom, acceptor molecule, acceptor atom, score
      L1  H    11    44       P1  8028  0.52
      L1  H    17    39       P1 10171  0.88
      P1  H  7954  7966       L1    17  0.21

> <Gold.Chemscore.Hbond.Weighted>
-9.6248

> <Gold.Chemscore.Metal.Weighted>
-0.0000

> <Gold.Chemscore.Lipo.Weighted>
-12.2175

> <Gold.Chemscore.Internal_Hbond.Weighted>
0.0000

> <Gold.Chemscore.DEClash.Weighted>
1.4965

> <Gold.Chemscore.DEInternal.Weighted>
0.8922

> <Gold.Chemscore.Rot.Weighted>
6.1508

> <Gold.Chemscore.Internal.Correction.Weighted>
   9.000000E+99

> <Gold.Protein.RotatedTorsions>
[ 6907 6896 6895 6894 ] final  101.86 input  -60.11 | X-H torsion
[ 7974 7965 7964 7962 ] final   94.76 input  175.53 | X-H torsion
[ 8008 7997 7996 7995 ] final -104.13 input   59.86 | X-H torsion
[ 10167 10162 10161 10158 ] final   24.46 input  -65.29 | X-H torsion
[ 10718 10713 10712 10709 ] final   14.42 input   66.30 | X-H torsion
[ 10763 10752 10751 10750 ] final   24.34 input  -60.55 | X-H torsion
[ 11005 11000 10999 10996 ] final   86.91 input  -57.11 | X-H torsion

> <Gold.Protein.ActiveResidues>
 VAL166  LYS551  ARG553  GLY616  TRP617  ASP618  TYR619  PRO620  LYS621  CYS622 
 ASP623  PHE694  ASN695  SER759  ASP760  ASP761  ALA762  ILE779  LEU786  VAL792 
 PHE793  MET794  SER795  GLU796  ALA797  LYS798  CYS799  TRP800  GLU811  SER814 

> <Gold.Protein.RotatedAtoms>
  152.5339  134.0062  159.7917 H   0  0  0  0  0  0  0  0  0  0  0  0  # atno 6907 bound_to 6896
  151.0272  133.5815  159.2672 H   0  0  0  0  0  0  0  0  0  0  0  0  # atno 6908 bound_to 6896
  151.2832  135.0727  159.9231 H   0  0  0  0  0  0  0  0  0  0  0  0  # atno 6909 bound_to 6896
  145.4613  139.2287  143.2986 H   0  0  0  0  0  0  0  0  0  0  0  0  # atno 7974 bound_to 7965
  154.8808  140.0419  157.1781 H   0  0  0  0  0  0  0  0  0  0  0  0  # atno 8008 bound_to 7997
  154.8641  140.2948  155.5500 H   0  0  0  0  0  0  0  0  0  0  0  0  # atno 8009 bound_to 7997
  156.2999  140.2441  156.3619 H   0  0  0  0  0  0  0  0  0  0  0  0  # atno 8010 bound_to 7997
  140.5186  144.0040  150.6406 H   0  0  0  0  0  0  0  0  0  0  0  0  # atno 10167 bound_to 10162
  157.0389  130.6223  149.5747 H   0  0  0  0  0  0  0  0  0  0  0  0  # atno 10718 bound_to 10713
  153.0771  135.6607  154.0123 H   0  0  0  0  0  0  0  0  0  0  0  0  # atno 10763 bound_to 10752
  153.9754  135.2960  155.3426 H   0  0  0  0  0  0  0  0  0  0  0  0  # atno 10764 bound_to 10752
  154.7162  135.5184  153.8812 H   0  0  0  0  0  0  0  0  0  0  0  0  # atno 10765 bound_to 10752
  139.8932  134.8387  156.2786 H   0  0  0  0  0  0  0  0  0  0  0  0  # atno 11005 bound_to 11000
  146.2449  140.5382  142.8918 LP  0  0  0  0  0  0  0  0  0  0  0  0  # atno 17320 bound_to 7965
  144.8001  140.6197  143.6484 LP  0  0  0  0  0  0  0  0  0  0  0  0  # atno 17321 bound_to 7965
  140.3383  143.3035  152.0615 LP  0  0  0  0  0  0  0  0  0  0  0  0  # atno 17342 bound_to 10162
  139.4916  144.6461  151.6776 LP  0  0  0  0  0  0  0  0  0  0  0  0  # atno 17343 bound_to 10162
  156.0045  130.5129  150.7780 LP  0  0  0  0  0  0  0  0  0  0  0  0  # atno 17370 bound_to 10713
  157.5120  131.0926  151.0186 LP  0  0  0  0  0  0  0  0  0  0  0  0  # atno 17371 bound_to 10713
  141.0054  133.7127  156.1026 LP  0  0  0  0  0  0  0  0  0  0  0  0  # atno 17394 bound_to 11000
  140.7441  134.4117  157.5551 LP  0  0  0  0  0  0  0  0  0  0  0  0  # atno 17395 bound_to 11000

$$$$
