AV-unprocessed.smi:110|AV-procd|sdf|1063|dock3
  -GOLD-   2262018143D 1   1.00000     0.00000
 Structure written by MMmdl.
 46 50  0  0  0  0  0  0  0  0  1 V2000
  144.9867  141.4650  154.9856 O   0  0  0  0  0  0  0  0  0  0  0  0
  146.3780  141.6912  154.9152 C   0  0  0  0  0  0  0  0  0  0  0  0
  146.9065  141.3069  153.5188 C   0  0  1  0  0  0  0  0  0  0  0  0
  148.2749  141.6896  153.3732 O   0  0  0  0  0  0  0  0  0  0  0  0
  149.1445  140.6542  153.7313 C   0  0  1  0  0  0  0  0  0  0  0  0
  149.8119  141.0346  155.0176 N   0  0  0  0  0  0  0  0  0  0  0  0
  149.5568  142.1056  155.8475 C   0  0  0  0  0  0  0  0  0  0  0  0
  150.3217  142.1881  156.9017 N   0  0  0  0  0  0  0  0  0  0  0  0
  151.2046  141.1227  156.7710 C   0  0  0  0  0  0  0  0  0  0  0  0
  152.2941  140.6237  157.5414 C   0  0  0  0  0  0  0  0  0  0  0  0
  152.7299  141.1636  158.7035 N   0  0  0  0  0  0  0  0  0  0  0  0
  153.1890  140.2596  159.7683 C   0  0  0  0  0  0  0  0  0  0  0  0
  153.1173  141.0292  161.1005 C   0  0  0  0  0  0  0  0  0  0  0  0
  152.6724  142.3752  160.6288 C   0  0  0  0  0  0  0  0  0  0  0  0
  152.4732  143.5281  161.4079 C   0  0  0  0  0  0  0  0  0  0  0  0
  152.0711  144.7119  160.7532 C   0  0  0  0  0  0  0  0  0  0  0  0
  151.8875  144.7260  159.3511 C   0  0  0  0  0  0  0  0  0  0  0  0
  152.0947  143.5556  158.5884 C   0  0  0  0  0  0  0  0  0  0  0  0
  152.4739  142.3703  159.2518 C   0  0  0  0  0  0  0  0  0  0  0  0
  152.9080  139.4948  157.1041 N   0  0  0  0  0  0  0  0  0  0  0  0
  152.5152  138.9131  155.9677 C   0  0  0  0  0  0  0  0  0  0  0  0
  151.5345  139.2780  155.1401 N   0  0  0  0  0  0  0  0  0  0  0  0
  150.8894  140.3928  155.5904 C   0  0  0  0  0  0  0  0  0  0  0  0
  148.2897  139.3881  153.9138 C   0  0  2  0  0  0  0  0  0  0  0  0
  148.8338  138.2427  153.2852 O   0  0  0  0  0  0  0  0  0  0  0  0
  146.9512  139.7921  153.3027 C   0  0  2  0  0  0  0  0  0  0  0  0
  146.8762  139.5345  151.9110 O   0  0  0  0  0  0  0  0  0  0  0  0
  146.2931  141.7923  152.7575 H   0  0  0  0  0  0  0  0  0  0  0  0
  149.9565  140.5583  153.0091 H   0  0  0  0  0  0  0  0  0  0  0  0
  148.1530  139.1903  154.9783 H   0  0  0  0  0  0  0  0  0  0  0  0
  146.1176  139.2764  153.7808 H   0  0  0  0  0  0  0  0  0  0  0  0
  144.6725  141.2461  154.1216 H   0  0  0  0  0  0  0  0  0  0  0  0
  146.6099  142.7222  155.1791 H   0  0  0  0  0  0  0  0  0  0  0  0
  146.8431  141.0610  155.6736 H   0  0  0  0  0  0  0  0  0  0  0  0
  148.7748  142.8264  155.6569 H   0  0  0  0  0  0  0  0  0  0  0  0
  152.5686  139.3628  159.8058 H   0  0  0  0  0  0  0  0  0  0  0  0
  154.2129  139.9472  159.5610 H   0  0  0  0  0  0  0  0  0  0  0  0
  152.3838  140.6000  161.7837 H   0  0  0  0  0  0  0  0  0  0  0  0
  154.0864  141.0869  161.5966 H   0  0  0  0  0  0  0  0  0  0  0  0
  152.6271  143.5099  162.4767 H   0  0  0  0  0  0  0  0  0  0  0  0
  151.9107  145.6141  161.3249 H   0  0  0  0  0  0  0  0  0  0  0  0
  151.5900  145.6400  158.8588 H   0  0  0  0  0  0  0  0  0  0  0  0
  151.9653  143.5765  157.5166 H   0  0  0  0  0  0  0  0  0  0  0  0
  153.0632  138.0271  155.6828 H   0  0  0  0  0  0  0  0  0  0  0  0
  149.2498  138.5158  152.4810 H   0  0  0  0  0  0  0  0  0  0  0  0
  147.7403  139.6419  151.5427 H   0  0  0  0  0  0  0  0  0  0  0  0
  1  2  1  0  0  0  0
  1 32  1  0  0  0  0
  2  3  1  0  0  0  0
  2 33  1  0  0  0  0
  2 34  1  0  0  0  0
  3 28  1  0  0  0  0
  3 26  1  0  0  0  0
  3  4  1  0  0  0  0
  4  5  1  0  0  0  0
  5 29  1  0  0  0  0
  5  6  1  0  0  0  0
  5 24  1  0  0  0  0
  6 23  1  0  0  0  0
  6  7  1  0  0  0  0
  7  8  2  0  0  0  0
  7 35  1  0  0  0  0
  8  9  1  0  0  0  0
  9 23  2  0  0  0  0
  9 10  1  0  0  0  0
 10 11  1  0  0  0  0
 10 20  2  0  0  0  0
 11 19  1  0  0  0  0
 11 12  1  0  0  0  0
 12 13  1  0  0  0  0
 12 36  1  0  0  0  0
 12 37  1  0  0  0  0
 13 14  1  0  0  0  0
 13 38  1  0  0  0  0
 13 39  1  0  0  0  0
 14 19  2  0  0  0  0
 14 15  1  0  0  0  0
 15 16  2  0  0  0  0
 15 40  1  0  0  0  0
 16 17  1  0  0  0  0
 16 41  1  0  0  0  0
 17 18  2  0  0  0  0
 17 42  1  0  0  0  0
 18 19  1  0  0  0  0
 18 43  1  0  0  0  0
 20 21  1  0  0  0  0
 21 22  2  0  0  0  0
 21 44  1  0  0  0  0
 22 23  1  0  0  0  0
 24 30  1  0  0  0  0
 24 25  1  0  0  0  0
 24 26  1  0  0  0  0
 25 45  1  0  0  0  0
 26 31  1  0  0  0  0
 26 27  1  0  0  0  0
 27 46  1  0  0  0  0
M  END
> <s_m_source_file>
AV-unprocessed.smi

> <i_m_source_file_index>
110

> <i_lp_mmshare_version>
43012

> <i_f3d_flags>
0

> <s_epik_input>
W09IXVtDSDJdW0NASF0xT1tDQEhdKFtDQEhdKFtPSF0pW0NAQEhdMVtPSF0pbihbY0hdbjIpYyhjMjMpbltjSF1uYzNOKFtDSDJdW0NIMl00KWMoYzQ1KVtjSF1bY0hdW2NIXVtjSF01

> <s_epik_cmdline>
J2VwaWtfcHl0aG9uJywgJy1waCcsICc3LjAnLCAnLXRuJywgJzgnLCAnLW1hJywgJzIwMCcsICctbWV0YWxfYmluZGluZycsICctaW1hZScsICc8aW5maWxlLm1hZT4nLCAnLW9tYWUnLCAnPG91dGZpbGUubWFlPic=

> <r_lp_tautomer_probability>
1

> <r_epik_Ionization_Penalty>
0.00068475

> <r_epik_Ionization_Penalty_Charging>
0

> <r_epik_Ionization_Penalty_Neutral>
0.00068475

> <r_epik_State_Penalty>
0.000417442

> <r_epik_Charging_Adjusted_Penalty>
0.000417442

> <i_epik_Tot_Q>
0

> <i_epik_Tot_abs_Q>
0

> <r_epik_Metal_State_Penalty>
-0

> <b_epik_Metal_Only>
0

> <s_epik_Chemistry_Notes>
This compound contains an acetal/aminal-like group ( X-CH(R)-Y where X, Y are N, S, or O) that may be acid/base labile, releasing an aldehyde.

> <s_lp_Force_Field>
OPLS_2005

> <r_lp_Energy>
60.4478

> <b_lp_Chiralities_Consistent>
1

> <s_lp_Variant>
AV-unprocessed.smi:110-1

> <Gold.Version>
5.8.1

> <Gold.Id.Protein>
6NUR|6NUR_protein|mol2

> <Gold.PLP.Fitness>
65.2573

> <Gold.PLP.PLP>
-51.6901

> <Gold.PLP.part.hbond>
-5.9983

> <Gold.PLP.part.metal>
0.0000

> <Gold.PLP.part.buried>
3.8237

> <Gold.PLP.part.nonpolar>
-49.3766

> <Gold.PLP.part.repulsive>
0.6134

> <Gold.PLP.ligand.clash>
0.0000

> <Gold.PLP.ligand.torsion>
0.5826

> <Gold.PLP.Chemscore.Hbond>
4.1657

> <Gold.PLP.Chemscore.CHOScore>
0.6953

> <Gold.PLP.Chemscore.Metal>
0.0000

> <Gold.Chemscore.Hbonds>
donor molecule, donor type, donor heavy atom, donor atom, acceptor molecule, acceptor atom, score
      L1  H     1    32       P1 10175  0.96
      L1  H    25    45       P1  7957  0.98
      L1  H    27    46       P1  7957  1.00
      P1  H  7997  8010       L1    20  1.00
      P1  H  8011  8017       L1     4  0.21
      L1  C     7    35       P1  8028  0.64

> <Gold.PLP.Chemscore.Internal.Correction>
0.1494

> <Gold.Rescore>
     Score         DG    S(hbond)    S(metal)    S(lipo)     H(rot)  DE(clash)    DE(int)     intcor
     14.89     -19.53       2.77        0.00     115.14       3.38       2.82       1.82       ----

> <Gold.Chemscore.Fitness>
14.8931

> <Gold.Chemscore.DG>
-19.5337

> <Gold.Chemscore.ZeroCoef>
-5.4800

> <Gold.Chemscore.Hbond>
2.7680

> <Gold.Chemscore.Metal>
0.0000

> <Gold.Chemscore.Lipo>
115.1356

> <Gold.Chemscore.Internal_Hbond>
0.0000

> <Gold.Chemscore.DEClash>
2.8164

> <Gold.Chemscore.DEInternal>
1.8242

> <Gold.Chemscore.Rot>
3.3837

> <Gold.Chemscore.Internal.Correction>
   9.000000E+99

> <Gold.Chemscore.Hbonds>
donor molecule, donor type, donor heavy atom, donor atom, acceptor molecule, acceptor atom, score
      L1  H     1    32       P1 10175  0.60
      L1  H    25    45       P1  7957  0.56
      L1  H    27    46       P1  7957  0.99
      P1  H  7997  8010       L1    20  0.18

> <Gold.Chemscore.Hbond.Weighted>
-9.2450

> <Gold.Chemscore.Metal.Weighted>
-0.0000

> <Gold.Chemscore.Lipo.Weighted>
-13.4709

> <Gold.Chemscore.Internal_Hbond.Weighted>
0.0000

> <Gold.Chemscore.DEClash.Weighted>
2.8164

> <Gold.Chemscore.DEInternal.Weighted>
1.8242

> <Gold.Chemscore.Rot.Weighted>
8.6622

> <Gold.Chemscore.Internal.Correction.Weighted>
   9.000000E+99

> <Gold.Protein.RotatedTorsions>
[ 6907 6896 6895 6894 ] final  -57.31 input  -60.11 | X-H torsion
[ 7974 7965 7964 7962 ] final  -92.69 input  175.53 | X-H torsion
[ 8008 7997 7996 7995 ] final   44.89 input   59.86 | X-H torsion
[ 10167 10162 10161 10158 ] final  161.11 input  -65.29 | X-H torsion
[ 10718 10713 10712 10709 ] final  -86.92 input   66.30 | X-H torsion
[ 10763 10752 10751 10750 ] final   93.59 input  -60.55 | X-H torsion
[ 11005 11000 10999 10996 ] final  -35.17 input  -57.11 | X-H torsion

> <Gold.Protein.ActiveResidues>
 VAL166  LYS551  ARG553  GLY616  TRP617  ASP618  TYR619  PRO620  LYS621  CYS622 
 ASP623  PHE694  ASN695  SER759  ASP760  ASP761  ALA762  ILE779  LEU786  VAL792 
 PHE793  MET794  SER795  GLU796  ALA797  LYS798  CYS799  TRP800  GLU811  SER814 

> <Gold.Protein.RotatedAtoms>
  150.8097  134.7244  159.6675 H   0  0  0  0  0  0  0  0  0  0  0  0  # atno 6907 bound_to 6896
  152.4217  134.5940  159.9992 H   0  0  0  0  0  0  0  0  0  0  0  0  # atno 6908 bound_to 6896
  151.6154  133.3306  159.3112 H   0  0  0  0  0  0  0  0  0  0  0  0  # atno 6909 bound_to 6896
  145.3964  140.9533  143.2311 H   0  0  0  0  0  0  0  0  0  0  0  0  # atno 7974 bound_to 7965
  155.3268  140.3400  155.4240 H   0  0  0  0  0  0  0  0  0  0  0  0  # atno 8008 bound_to 7997
  156.1881  140.1688  156.8182 H   0  0  0  0  0  0  0  0  0  0  0  0  # atno 8009 bound_to 7997
  154.5410  140.0725  156.8493 H   0  0  0  0  0  0  0  0  0  0  0  0  # atno 8010 bound_to 7997
  139.4846  144.4569  151.8757 H   0  0  0  0  0  0  0  0  0  0  0  0  # atno 10167 bound_to 10162
  155.9987  130.4782  150.4788 H   0  0  0  0  0  0  0  0  0  0  0  0  # atno 10718 bound_to 10713
  153.2320  135.4320  155.0605 H   0  0  0  0  0  0  0  0  0  0  0  0  # atno 10763 bound_to 10752
  154.8301  135.3382  154.6774 H   0  0  0  0  0  0  0  0  0  0  0  0  # atno 10764 bound_to 10752
  153.7200  135.7017  153.5071 H   0  0  0  0  0  0  0  0  0  0  0  0  # atno 10765 bound_to 10752
  140.9775  133.7075  156.1627 H   0  0  0  0  0  0  0  0  0  0  0  0  # atno 11005 bound_to 11000
  144.8404  139.5481  143.6903 LP  0  0  0  0  0  0  0  0  0  0  0  0  # atno 17320 bound_to 7965
  146.2773  139.6785  142.9254 LP  0  0  0  0  0  0  0  0  0  0  0  0  # atno 17321 bound_to 7965
  140.4029  144.2470  150.5892 LP  0  0  0  0  0  0  0  0  0  0  0  0  # atno 17342 bound_to 10162
  140.5040  143.2309  151.8635 LP  0  0  0  0  0  0  0  0  0  0  0  0  # atno 17343 bound_to 10162
  157.2795  131.0604  151.2207 LP  0  0  0  0  0  0  0  0  0  0  0  0  # atno 17370 bound_to 10713
  157.3258  130.6960  149.6295 LP  0  0  0  0  0  0  0  0  0  0  0  0  # atno 17371 bound_to 10713
  140.7237  134.4330  157.5572 LP  0  0  0  0  0  0  0  0  0  0  0  0  # atno 17394 bound_to 11000
  139.8936  134.8726  156.2214 LP  0  0  0  0  0  0  0  0  0  0  0  0  # atno 17395 bound_to 11000

$$$$
