#       Name:                AV-unprocessed.smi:49
#       Creating user name   scv26
#       Creation time:       Thu Mar 26 16:34:54 2020


#       File generated by GOLD software.
#

@<TRIPOS>MOLECULE
AV-unprocessed.smi:49
    32    33     1
SMALL
NO_CHARGES


@<TRIPOS>ATOM
      1 ****        -4.5889   0.9614   0.5664 C.3            1 S1                 0.0000
      2 ****        -3.8028  -0.3099   0.9017 C.3            1 S1                 0.0000
      3 ****        -2.3078  -0.0778   0.8792 C.2            1 S1                 0.0000
      4 ****        -1.5185  -0.1877  -0.1849 N.2            1 S1                 0.0000
      5 ****        -0.2912   0.1463   0.2346 C.2            1 S1                 0.0000
      6 ****         0.9429   0.1268  -0.6427 C.3            1 S1                 0.0000
      7 ****         1.6882  -1.2093  -0.6140 C.3            1 S1                 0.0000
      8 ****         3.1027  -0.8040  -1.0141 C.3            1 S1                 0.0000
      9 ****         4.0671  -1.7437  -0.5893 O.3            1 S1                 0.0000
     10 ****         3.2806   0.5580  -0.3354 C.3            1 S1                 0.0000
     11 ****         1.9300   1.1465  -0.2358 N.4            1 S1                 1.0000
     12 ****        -0.3023   0.4536   1.5414 N.2            1 S1                 0.0000
     13 ****        -1.5568   0.3247   1.9198 N.pl3          1 S1                -1.0000
     14 ****         0.6508   0.3501  -1.6700 H              1 S1                 0.0000
     15 ****         3.1588  -0.6886  -2.0976 H              1 S1                 0.0000
     16 ****        -5.6620   0.7716   0.5866 H              1 S1                 0.0000
     17 ****        -4.3331   1.3300  -0.4274 H              1 S1                 0.0000
     18 ****        -4.3756   1.7542   1.2840 H              1 S1                 0.0000
     19 ****        -4.0884  -0.6753   1.8884 H              1 S1                 0.0000
     20 ****        -4.0485  -1.0991   0.1906 H              1 S1                 0.0000
     21 ****         1.6936  -1.6085   0.4023 H              1 S1                 0.0000
     22 ****         1.2447  -1.9608  -1.2680 H              1 S1                 0.0000
     23 ****         3.8886  -2.5717  -1.0092 H              1 S1                 0.0000
     24 ****         3.6656   0.4385   0.6784 H              1 S1                 0.0000
     25 ****         3.9643   1.2087  -0.8809 H              1 S1                 0.0000
     26 ****         1.8430   1.9593  -0.8283 H              1 S1                 0.0000
     27 ****         1.7549   1.4056   0.7250 H              1 S1                 0.0000
     28 ****        -1.7860  -0.4630  -1.1083 LP             1 S1                 0.0000
     29 ****         4.0169  -1.8520   0.4035 LP             1 S1                 0.0000
     30 ****         4.9807  -1.4270  -0.8443 LP             1 S1                 0.0000
     31 ****         0.4769   0.7232   2.1073 LP             1 S1                 0.0000
     32 ****        -1.8998   0.4999   2.8426 LP             1 S1                 0.0000
@<TRIPOS>BOND
    1    1    2 1     
    2    1   16 1     
    3    1   17 1     
    4    1   18 1     
    5    2    3 1     
    6    2   19 1     
    7    2   20 1     
    8    3   13 1     
    9    3    4 2     
   10    4    5 1     
   11    5    6 1     
   12    5   12 2     
   13    6   14 1     
   14    6   11 1     
   15    6    7 1     
   16    7    8 1     
   17    7   21 1     
   18    7   22 1     
   19    8   15 1     
   20    8    9 1     
   21    8   10 1     
   22    9   23 1     
   23   10   11 1     
   24   10   24 1     
   25   10   25 1     
   26   11   26 1     
   27   11   27 1     
   28   12   13 1     
   29    4   28 1     
   30    9   29 1     
   31    9   30 1     
   32   12   31 1     
   33   13   32 1     
@<TRIPOS>SUBSTRUCTURE
      1 S1             1
@<TRIPOS>SET
LONE_PAIRS      STATIC     ATOMS    <user>   **** ""
5 28 29 30 31 32
DONOR_HYDROGENS      STATIC     ATOMS    <user>   **** ""
3 23 26 27
ATOM$BLUE        STATIC     ATOMS    COLORGROUP SYSTEM
5 28 29 30 31 32
ATOM$RED        STATIC     ATOMS    COLORGROUP SYSTEM
3 23 26 27
