AV-unprocessed.smi:3331|AV-procd|sdf|12820|dock1
  -GOLD-   2272019193D 1   1.00000     0.00000
 Structure written by MMmdl.
 47 48  0  0  0  0  0  0  0  0  2 V2000
  143.8006  132.9754  150.8480 C   0  0  0  0  0  0  0  0  0  0  0  0
  145.1726  132.5056  150.3326 C   0  0  2  0  0  0  0  0  0  0  0  0
  145.5136  131.0728  150.8001 C   0  0  0  0  0  0  0  0  0  0  0  0
  145.9694  131.0130  152.2755 C   0  0  1  0  0  0  0  0  0  0  0  0
  146.4287  129.6007  152.6640 C   0  0  0  0  0  0  0  0  0  0  0  0
  147.0718  132.0600  152.5373 C   0  0  0  0  0  0  0  0  0  0  0  0
  146.5737  133.3905  152.1605 N   0  0  0  0  0  0  0  0  0  0  0  0
  146.3265  134.3623  153.0763 C   0  0  0  0  0  0  0  0  0  0  0  0
  146.5668  134.2026  154.2740 O   0  0  0  0  0  0  0  0  0  0  0  0
  145.7503  135.7178  152.6194 C   0  0  1  0  0  0  0  0  0  0  0  0
  144.3894  136.0204  153.2810 C   0  0  0  0  0  0  0  0  0  0  0  0
  146.7262  136.7924  152.9077 N   0  3  0  0  0  0  0  0  0  0  0  0
  146.3696  138.1251  152.3806 C   0  0  0  0  0  0  0  0  0  0  0  0
  146.3847  139.1773  153.4982 C   0  0  0  0  0  0  0  0  0  0  0  0
  147.7335  139.6033  153.8163 N   0  0  0  0  0  0  0  0  0  0  0  0
  148.8657  138.8301  153.9664 C   0  0  0  0  0  0  0  0  0  0  0  0
  149.8971  139.6750  154.2608 C   0  0  0  0  0  0  0  0  0  0  0  0
  149.2902  140.9621  154.2654 C   0  0  0  0  0  0  0  0  0  0  0  0
  147.9951  140.9158  153.9971 N   0  0  0  0  0  0  0  0  0  0  0  0
  146.3161  133.4707  150.7144 C   0  0  0  0  0  0  0  0  0  0  0  0
  143.7666  133.0250  151.9361 H   0  0  0  0  0  0  0  0  0  0  0  0
  143.0097  132.2978  150.5252 H   0  0  0  0  0  0  0  0  0  0  0  0
  143.5575  133.9661  150.4634 H   0  0  0  0  0  0  0  0  0  0  0  0
  145.1052  132.4869  149.2441 H   0  0  0  0  0  0  0  0  0  0  0  0
  144.6637  130.4087  150.6384 H   0  0  0  0  0  0  0  0  0  0  0  0
  146.3176  130.6885  150.1709 H   0  0  0  0  0  0  0  0  0  0  0  0
  145.1149  131.2603  152.9070 H   0  0  0  0  0  0  0  0  0  0  0  0
  147.2853  129.2838  152.0681 H   0  0  0  0  0  0  0  0  0  0  0  0
  145.6302  128.8736  152.5131 H   0  0  0  0  0  0  0  0  0  0  0  0
  146.7192  129.5567  153.7140 H   0  0  0  0  0  0  0  0  0  0  0  0
  147.3896  132.0077  153.5794 H   0  0  0  0  0  0  0  0  0  0  0  0
  147.9613  131.8280  151.9494 H   0  0  0  0  0  0  0  0  0  0  0  0
  145.5717  135.6652  151.5458 H   0  0  0  0  0  0  0  0  0  0  0  0
  143.6855  135.2010  153.1282 H   0  0  0  0  0  0  0  0  0  0  0  0
  143.9286  136.9130  152.8586 H   0  0  0  0  0  0  0  0  0  0  0  0
  144.4885  136.1781  154.3559 H   0  0  0  0  0  0  0  0  0  0  0  0
  146.8626  136.8492  153.9070 H   0  0  0  0  0  0  0  0  0  0  0  0
  147.0790  138.4008  151.5989 H   0  0  0  0  0  0  0  0  0  0  0  0
  145.3808  138.0900  151.9229 H   0  0  0  0  0  0  0  0  0  0  0  0
  145.8051  140.0531  153.2031 H   0  0  0  0  0  0  0  0  0  0  0  0
  145.9237  138.7823  154.4049 H   0  0  0  0  0  0  0  0  0  0  0  0
  148.8444  137.7560  153.8538 H   0  0  0  0  0  0  0  0  0  0  0  0
  150.9292  139.4139  154.4433 H   0  0  0  0  0  0  0  0  0  0  0  0
  149.7488  141.9217  154.4541 H   0  0  0  0  0  0  0  0  0  0  0  0
  147.2255  133.1813  150.1852 H   0  0  0  0  0  0  0  0  0  0  0  0
  146.0969  134.4738  150.3544 H   0  0  0  0  0  0  0  0  0  0  0  0
  147.6026  136.5269  152.4815 H   0  0  0  0  0  0  0  0  0  0  0  0
  1  2  1  0  0  0  0
  1 21  1  0  0  0  0
  1 22  1  0  0  0  0
  1 23  1  0  0  0  0
  2 20  1  0  0  0  0
  2  3  1  0  0  0  0
  2 24  1  0  0  0  0
  3  4  1  0  0  0  0
  3 25  1  0  0  0  0
  3 26  1  0  0  0  0
  4  5  1  0  0  0  0
  4  6  1  0  0  0  0
  4 27  1  0  0  0  0
  5 28  1  0  0  0  0
  5 29  1  0  0  0  0
  5 30  1  0  0  0  0
  6  7  1  0  0  0  0
  6 31  1  0  0  0  0
  6 32  1  0  0  0  0
  7  8  1  0  0  0  0
  7 20  1  0  0  0  0
  8  9  2  0  0  0  0
  8 10  1  0  0  0  0
 10 11  1  0  0  0  0
 10 12  1  0  0  0  0
 10 33  1  0  0  0  0
 11 34  1  0  0  0  0
 11 35  1  0  0  0  0
 11 36  1  0  0  0  0
 12 13  1  0  0  0  0
 12 37  1  0  0  0  0
 12 47  1  0  0  0  0
 13 14  1  0  0  0  0
 13 38  1  0  0  0  0
 13 39  1  0  0  0  0
 14 15  1  0  0  0  0
 14 40  1  0  0  0  0
 14 41  1  0  0  0  0
 15 19  1  0  0  0  0
 15 16  1  0  0  0  0
 16 17  2  0  0  0  0
 16 42  1  0  0  0  0
 17 18  1  0  0  0  0
 17 43  1  0  0  0  0
 18 19  2  0  0  0  0
 18 44  1  0  0  0  0
 20 45  1  0  0  0  0
 20 46  1  0  0  0  0
M  CHG  1  12   1
M  END
> <s_m_source_file>
AV-unprocessed.smi

> <i_m_source_file_index>
3331

> <i_lp_mmshare_version>
43012

> <i_f3d_flags>
0

> <s_epik_input>
W0NIM11bQ0BASF0xW0NIMl1bQ0BASF0oW0NIM10pW0NIMl1OKFtDSDJdMSlDKD1PKVtDQEhdKFtDSDNdKVtOSF1bQ0gyXVtDSDJdbjJbY0hdW2NIXVtjSF1uMg==

> <s_epik_cmdline>
J2VwaWtfcHl0aG9uJywgJy1waCcsICc3LjAnLCAnLXRuJywgJzgnLCAnLW1hJywgJzIwMCcsICctbWV0YWxfYmluZGluZycsICctaW1hZScsICc8aW5maWxlLm1hZT4nLCAnLW9tYWUnLCAnPG91dGZpbGUubWFlPic=

> <r_lp_tautomer_probability>
1

> <r_epik_Ionization_Penalty>
0.189706

> <r_epik_Ionization_Penalty_Charging>
0.189703

> <r_epik_Ionization_Penalty_Neutral>
2.45875e-06

> <r_epik_State_Penalty>
0.179341

> <r_epik_Charging_Adjusted_Penalty>
0.369044

> <i_epik_Tot_Q>
1

> <i_epik_Tot_abs_Q>
1

> <r_epik_Metal_State_Penalty>
0.179578

> <b_epik_Metal_Only>
0

> <s_lp_Force_Field>
OPLS_2005

> <r_lp_Energy>
29.8241

> <b_lp_Chiralities_Consistent>
1

> <s_lp_Variant>
AV-unprocessed.smi:3331-4

> <Gold.Version>
5.8.1

> <Gold.Id.Protein>
6NUR|6NUR_protein|mol2

> <Gold.PLP.Fitness>
42.1784

> <Gold.PLP.PLP>
-34.6504

> <Gold.PLP.part.hbond>
-1.0000

> <Gold.PLP.part.metal>
0.0000

> <Gold.PLP.part.buried>
-3.0489

> <Gold.PLP.part.nonpolar>
-31.4046

> <Gold.PLP.part.repulsive>
0.2313

> <Gold.PLP.ligand.clash>
0.0000

> <Gold.PLP.ligand.torsion>
0.6884

> <Gold.PLP.Chemscore.Hbond>
2.0000

> <Gold.PLP.Chemscore.CHOScore>
0.9308

> <Gold.PLP.Chemscore.Metal>
0.0000

> <Gold.Chemscore.Hbonds>
donor molecule, donor type, donor heavy atom, donor atom, acceptor molecule, acceptor atom, score
      L1  H    12    47       P1  7948  1.89
      L1  C    16    42       P1  7948  1.00

> <Gold.PLP.Chemscore.Internal.Correction>
0.1123

> <Gold.Rescore>
     Score         DG    S(hbond)    S(metal)    S(lipo)     H(rot)  DE(clash)    DE(int)     intcor
     15.03     -15.69       1.00        0.00      96.47       1.73       0.03       0.63       ----

> <Gold.Chemscore.Fitness>
15.0295

> <Gold.Chemscore.DG>
-15.6892

> <Gold.Chemscore.ZeroCoef>
-5.4800

> <Gold.Chemscore.Hbond>
0.9997

> <Gold.Chemscore.Metal>
0.0000

> <Gold.Chemscore.Lipo>
96.4716

> <Gold.Chemscore.Internal_Hbond>
0.0000

> <Gold.Chemscore.DEClash>
0.0260

> <Gold.Chemscore.DEInternal>
0.6337

> <Gold.Chemscore.Rot>
1.7254

> <Gold.Chemscore.Internal.Correction>
   9.000000E+99

> <Gold.Chemscore.Hbonds>
donor molecule, donor type, donor heavy atom, donor atom, acceptor molecule, acceptor atom, score
      L1  H    12    47       P1  7948  0.90

> <Gold.Chemscore.Hbond.Weighted>
-3.3391

> <Gold.Chemscore.Metal.Weighted>
-0.0000

> <Gold.Chemscore.Lipo.Weighted>
-11.2872

> <Gold.Chemscore.Internal_Hbond.Weighted>
0.0000

> <Gold.Chemscore.DEClash.Weighted>
0.0260

> <Gold.Chemscore.DEInternal.Weighted>
0.6337

> <Gold.Chemscore.Rot.Weighted>
4.4170

> <Gold.Chemscore.Internal.Correction.Weighted>
   9.000000E+99

> <Gold.Protein.RotatedTorsions>
[ 6907 6896 6895 6894 ] final  143.11 input  -60.11 | X-H torsion
[ 7974 7965 7964 7962 ] final -133.67 input  175.53 | X-H torsion
[ 8008 7997 7996 7995 ] final    4.20 input   59.86 | X-H torsion
[ 10167 10162 10161 10158 ] final   13.63 input  -65.29 | X-H torsion
[ 10718 10713 10712 10709 ] final  -91.93 input   66.30 | X-H torsion
[ 10763 10752 10751 10750 ] final  -51.07 input  -60.55 | X-H torsion
[ 11005 11000 10999 10996 ] final   21.35 input  -57.11 | X-H torsion

> <Gold.Protein.ActiveResidues>
 VAL166  LYS551  ARG553  GLY616  TRP617  ASP618  TYR619  PRO620  LYS621  CYS622 
 ASP623  PHE694  ASN695  SER759  ASP760  ASP761  ALA762  ILE779  LEU786  VAL792 
 PHE793  MET794  SER795  GLU796  ALA797  LYS798  CYS799  TRP800  GLU811  SER814 

> <Gold.Protein.RotatedAtoms>
  152.2103  133.4906  159.5106 H   0  0  0  0  0  0  0  0  0  0  0  0  # atno 6907 bound_to 6896
  150.6989  134.1475  159.4137 H   0  0  0  0  0  0  0  0  0  0  0  0  # atno 6908 bound_to 6896
  151.9395  135.0220  160.0585 H   0  0  0  0  0  0  0  0  0  0  0  0  # atno 6909 bound_to 6896
  144.9172  140.6969  143.4988 H   0  0  0  0  0  0  0  0  0  0  0  0  # atno 7974 bound_to 7965
  154.7130  140.2696  155.6611 H   0  0  0  0  0  0  0  0  0  0  0  0  # atno 8008 bound_to 7997
  156.2801  140.2749  156.1703 H   0  0  0  0  0  0  0  0  0  0  0  0  # atno 8009 bound_to 7997
  155.0608  140.0371  157.2566 H   0  0  0  0  0  0  0  0  0  0  0  0  # atno 8010 bound_to 7997
  140.5990  143.8643  150.6946 H   0  0  0  0  0  0  0  0  0  0  0  0  # atno 10167 bound_to 10162
  155.9998  130.4967  150.5549 H   0  0  0  0  0  0  0  0  0  0  0  0  # atno 10718 bound_to 10713
  154.1206  135.6535  153.4902 H   0  0  0  0  0  0  0  0  0  0  0  0  # atno 10763 bound_to 10752
  153.0226  135.5269  154.7100 H   0  0  0  0  0  0  0  0  0  0  0  0  # atno 10764 bound_to 10752
  154.6307  135.2976  155.0190 H   0  0  0  0  0  0  0  0  0  0  0  0  # atno 10765 bound_to 10752
  140.3926  134.1803  155.7663 H   0  0  0  0  0  0  0  0  0  0  0  0  # atno 11005 bound_to 11000
  145.3356  139.1747  143.4513 LP  0  0  0  0  0  0  0  0  0  0  0  0  # atno 17320 bound_to 7965
  146.3187  140.3391  142.8646 LP  0  0  0  0  0  0  0  0  0  0  0  0  # atno 17321 bound_to 7965
  140.2184  143.3828  152.1662 LP  0  0  0  0  0  0  0  0  0  0  0  0  # atno 17342 bound_to 10162
  139.5278  144.7123  151.5166 LP  0  0  0  0  0  0  0  0  0  0  0  0  # atno 17343 bound_to 10162
  157.3467  131.0726  151.1746 LP  0  0  0  0  0  0  0  0  0  0  0  0  # atno 17370 bound_to 10713
  157.2576  130.6643  149.5959 LP  0  0  0  0  0  0  0  0  0  0  0  0  # atno 17371 bound_to 10713
  141.1885  133.8258  157.0991 LP  0  0  0  0  0  0  0  0  0  0  0  0  # atno 17394 bound_to 11000
  140.0395  134.9861  157.0935 LP  0  0  0  0  0  0  0  0  0  0  0  0  # atno 17395 bound_to 11000

$$$$
