AV-unprocessed.smi:3237|AV-procd|sdf|12373|dock5
  -GOLD-   2272018233D 1   1.00000     0.00000
 Structure written by MMmdl.
 36 38  0  0  0  0  0  0  0  0  3 V2000
  152.0966  144.0267  161.1642 C   0  0  0  0  0  0  0  0  0  0  0  0
  152.0614  142.9908  160.0931 C   0  0  0  0  0  0  0  0  0  0  0  0
  151.4533  142.9396  158.8707 C   0  0  0  0  0  0  0  0  0  0  0  0
  151.8392  141.6664  158.3727 C   0  0  0  0  0  0  0  0  0  0  0  0
  151.4006  141.2254  157.0964 N   0  0  0  0  0  0  0  0  0  0  0  0
  151.8332  140.1770  156.3723 C   0  0  0  0  0  0  0  0  0  0  0  0
  152.7324  139.4463  156.8049 O   0  0  0  0  0  0  0  0  0  0  0  0
  151.1695  140.0588  155.1888 N   0  5  0  0  0  0  0  0  0  0  0  0
  149.7163  140.1507  155.0360 C   0  0  2  0  0  0  0  0  0  0  0  0
  149.1748  139.0223  154.1574 C   0  0  0  0  0  0  0  0  0  0  0  0
  147.8894  139.6166  153.5842 C   0  0  0  0  0  0  0  0  0  0  0  0
  148.1944  141.0463  153.3673 N   0  3  1  0  0  0  0  0  0  0  0  0
  147.0108  141.9317  153.4181 C   0  0  0  0  0  0  0  0  0  0  0  0
  146.8801  142.6922  154.7158 C   0  0  0  0  0  0  0  0  0  0  0  0
  145.9831  141.5051  154.4384 C   0  0  0  0  0  0  0  0  0  0  0  0
  149.2866  141.4293  154.2934 C   0  0  0  0  0  0  0  0  0  0  0  0
  152.6133  141.0008  159.2173 N   0  0  0  0  0  0  0  0  0  0  0  0
  152.7604  141.8463  160.3232 O   0  0  0  0  0  0  0  0  0  0  0  0
  151.1620  144.5868  161.1926 H   0  0  0  0  0  0  0  0  0  0  0  0
  152.9092  144.7320  160.9905 H   0  0  0  0  0  0  0  0  0  0  0  0
  152.2464  143.5713  162.1432 H   0  0  0  0  0  0  0  0  0  0  0  0
  150.8327  143.6930  158.4084 H   0  0  0  0  0  0  0  0  0  0  0  0
  150.6647  141.7730  156.6756 H   0  0  0  0  0  0  0  0  0  0  0  0
  149.1916  140.1114  155.9920 H   0  0  0  0  0  0  0  0  0  0  0  0
  149.8659  138.7997  153.3422 H   0  0  0  0  0  0  0  0  0  0  0  0
  149.0019  138.0997  154.7123 H   0  0  0  0  0  0  0  0  0  0  0  0
  147.5898  139.1335  152.6537 H   0  0  0  0  0  0  0  0  0  0  0  0
  147.0626  139.5060  154.2912 H   0  0  0  0  0  0  0  0  0  0  0  0
  146.7009  142.3822  152.4767 H   0  0  0  0  0  0  0  0  0  0  0  0
  147.6599  142.5693  155.4653 H   0  0  0  0  0  0  0  0  0  0  0  0
  146.4260  143.6802  154.6748 H   0  0  0  0  0  0  0  0  0  0  0  0
  144.9383  141.7108  154.2147 H   0  0  0  0  0  0  0  0  0  0  0  0
  146.1667  140.5927  155.0031 H   0  0  0  0  0  0  0  0  0  0  0  0
  148.9744  142.1986  155.0015 H   0  0  0  0  0  0  0  0  0  0  0  0
  150.0974  141.8485  153.6958 H   0  0  0  0  0  0  0  0  0  0  0  0
  148.5866  141.1150  152.4394 H   0  0  0  0  0  0  0  0  0  0  0  0
  1  2  1  0  0  0  0
  1 19  1  0  0  0  0
  1 20  1  0  0  0  0
  1 21  1  0  0  0  0
  2 18  1  0  0  0  0
  2  3  2  0  0  0  0
  3  4  1  0  0  0  0
  3 22  1  0  0  0  0
  4  5  1  0  0  0  0
  4 17  2  0  0  0  0
  5  6  1  0  0  0  0
  5 23  1  0  0  0  0
  6  7  2  0  0  0  0
  6  8  1  0  0  0  0
  8  9  1  0  0  0  0
  9 16  1  0  0  0  0
  9 10  1  0  0  0  0
  9 24  1  0  0  0  0
 10 11  1  0  0  0  0
 10 25  1  0  0  0  0
 10 26  1  0  0  0  0
 11 12  1  0  0  0  0
 11 27  1  0  0  0  0
 11 28  1  0  0  0  0
 12 13  1  0  0  0  0
 12 16  1  0  0  0  0
 12 36  1  0  0  0  0
 13 15  1  0  0  0  0
 13 14  1  0  0  0  0
 13 29  1  0  0  0  0
 14 15  1  0  0  0  0
 14 30  1  0  0  0  0
 14 31  1  0  0  0  0
 15 32  1  0  0  0  0
 15 33  1  0  0  0  0
 16 34  1  0  0  0  0
 16 35  1  0  0  0  0
 17 18  1  0  0  0  0
M  CHG  1   8  -1
M  CHG  1  12   1
M  END
> <s_m_source_file>
AV-unprocessed.smi

> <i_m_source_file_index>
3237

> <i_lp_mmshare_version>
43012

> <i_f3d_flags>
0

> <s_epik_input>
W0NIM11jMVtjSF1jKG5vMSlbTkhdQyg9TylbTkhdW0NAQEhdMltDSDJdW0NIMl1OKFtDSDJdMilbQ0hdM1tDSDJdW0NIMl0z

> <s_epik_cmdline>
J2VwaWtfcHl0aG9uJywgJy1waCcsICc3LjAnLCAnLXRuJywgJzgnLCAnLW1hJywgJzIwMCcsICctbWV0YWxfYmluZGluZycsICctaW1hZScsICc8aW5maWxlLm1hZT4nLCAnLW9tYWUnLCAnPG91dGZpbGUubWFlPic=

> <r_epik_Ionization_Penalty>
6.76456

> <r_epik_Ionization_Penalty_Charging>
6.76456

> <r_epik_Ionization_Penalty_Neutral>
5.76722e-06

> <r_epik_State_Penalty>
6.78919

> <r_epik_Charging_Adjusted_Penalty>
13.5538

> <i_epik_Tot_Q>
0

> <i_epik_Tot_abs_Q>
2

> <r_epik_Metal_State_Penalty>
2.728

> <b_epik_Metal_Only>
1

> <s_lp_Force_Field>
OPLS_2005

> <r_lp_Energy>
30.8833

> <b_lp_Chiralities_Consistent>
1

> <s_lp_Variant>
AV-unprocessed.smi:3237-11

> <Gold.Version>
5.8.1

> <Gold.Id.Protein>
6NUR|6NUR_protein|mol2

> <Gold.PLP.Fitness>
40.7949

> <Gold.PLP.PLP>
-33.6150

> <Gold.PLP.part.hbond>
-3.0000

> <Gold.PLP.part.metal>
0.0000

> <Gold.PLP.part.buried>
-4.3869

> <Gold.PLP.part.nonpolar>
-26.0908

> <Gold.PLP.part.repulsive>
0.2621

> <Gold.PLP.ligand.clash>
0.0000

> <Gold.PLP.ligand.torsion>
1.4126

> <Gold.PLP.Chemscore.Hbond>
2.9120

> <Gold.PLP.Chemscore.CHOScore>
0.0000

> <Gold.PLP.Chemscore.Metal>
0.0000

> <Gold.Chemscore.Hbonds>
donor molecule, donor type, donor heavy atom, donor atom, acceptor molecule, acceptor atom, score
      L1  H    12    36       P1  7957  0.83
      P1  H  7989  7998       L1     8  0.85
      P1  H  7997  8009       L1     7  1.00

> <Gold.PLP.Chemscore.Internal.Correction>
1.2691

> <Gold.Rescore>
     Score         DG    S(hbond)    S(metal)    S(lipo)     H(rot)  DE(clash)    DE(int)     intcor
     16.64     -19.65       2.49        0.00      77.37       1.25       0.29       2.72       ----

> <Gold.Chemscore.Fitness>
16.6437

> <Gold.Chemscore.DG>
-19.6539

> <Gold.Chemscore.ZeroCoef>
-5.4800

> <Gold.Chemscore.Hbond>
2.4889

> <Gold.Chemscore.Metal>
0.0000

> <Gold.Chemscore.Lipo>
77.3672

> <Gold.Chemscore.Internal_Hbond>
0.0000

> <Gold.Chemscore.DEClash>
0.2894

> <Gold.Chemscore.DEInternal>
2.7208

> <Gold.Chemscore.Rot>
1.2464

> <Gold.Chemscore.Internal.Correction>
   9.000000E+99

> <Gold.Chemscore.Hbonds>
donor molecule, donor type, donor heavy atom, donor atom, acceptor molecule, acceptor atom, score
      L1  H    12    36       P1  7957  0.81
      P1  H  7989  7998       L1     8  0.14
      P1  H  7997  8009       L1     7  0.85

> <Gold.Chemscore.Hbond.Weighted>
-8.3128

> <Gold.Chemscore.Metal.Weighted>
-0.0000

> <Gold.Chemscore.Lipo.Weighted>
-9.0520

> <Gold.Chemscore.Internal_Hbond.Weighted>
0.0000

> <Gold.Chemscore.DEClash.Weighted>
0.2894

> <Gold.Chemscore.DEInternal.Weighted>
2.7208

> <Gold.Chemscore.Rot.Weighted>
3.1909

> <Gold.Chemscore.Internal.Correction.Weighted>
   9.000000E+99

> <Gold.Protein.RotatedTorsions>
[ 6907 6896 6895 6894 ] final    5.90 input  -60.11 | X-H torsion
[ 7974 7965 7964 7962 ] final  110.88 input  175.53 | X-H torsion
[ 8008 7997 7996 7995 ] final -173.19 input   59.86 | X-H torsion
[ 10167 10162 10161 10158 ] final  -24.18 input  -65.29 | X-H torsion
[ 10718 10713 10712 10709 ] final   90.67 input   66.30 | X-H torsion
[ 10763 10752 10751 10750 ] final   62.98 input  -60.55 | X-H torsion
[ 11005 11000 10999 10996 ] final   48.31 input  -57.11 | X-H torsion

> <Gold.Protein.ActiveResidues>
 VAL166  LYS551  ARG553  GLY616  TRP617  ASP618  TYR619  PRO620  LYS621  CYS622 
 ASP623  PHE694  ASN695  SER759  ASP760  ASP761  ALA762  ILE779  LEU786  VAL792 
 PHE793  MET794  SER795  GLU796  ALA797  LYS798  CYS799  TRP800  GLU811  SER814 

> <Gold.Protein.RotatedAtoms>
  151.6650  135.0984  160.0186 H   0  0  0  0  0  0  0  0  0  0  0  0  # atno 6907 bound_to 6896
  152.3924  133.6694  159.6257 H   0  0  0  0  0  0  0  0  0  0  0  0  # atno 6908 bound_to 6896
  150.7837  133.8848  159.3337 H   0  0  0  0  0  0  0  0  0  0  0  0  # atno 6909 bound_to 6896
  145.2493  139.2746  143.4076 H   0  0  0  0  0  0  0  0  0  0  0  0  # atno 7974 bound_to 7965
  155.9542  140.1132  157.0951 H   0  0  0  0  0  0  0  0  0  0  0  0  # atno 8008 bound_to 7997
  154.4117  140.1194  156.5160 H   0  0  0  0  0  0  0  0  0  0  0  0  # atno 8009 bound_to 7997
  155.6803  140.3473  155.4855 H   0  0  0  0  0  0  0  0  0  0  0  0  # atno 8010 bound_to 7997
  140.7288  143.4376  151.0706 H   0  0  0  0  0  0  0  0  0  0  0  0  # atno 10167 bound_to 10162
  157.6959  131.0379  150.3613 H   0  0  0  0  0  0  0  0  0  0  0  0  # atno 10718 bound_to 10713
  153.0001  135.5445  154.6279 H   0  0  0  0  0  0  0  0  0  0  0  0  # atno 10763 bound_to 10752
  154.5563  135.2830  155.0963 H   0  0  0  0  0  0  0  0  0  0  0  0  # atno 10764 bound_to 10752
  154.2183  135.6455  153.5189 H   0  0  0  0  0  0  0  0  0  0  0  0  # atno 10765 bound_to 10752
  140.1202  134.4840  155.8604 H   0  0  0  0  0  0  0  0  0  0  0  0  # atno 11005 bound_to 11000
  146.3307  140.2879  142.8613 LP  0  0  0  0  0  0  0  0  0  0  0  0  # atno 17320 bound_to 7965
  144.9517  140.8185  143.5567 LP  0  0  0  0  0  0  0  0  0  0  0  0  # atno 17321 bound_to 7965
  139.8039  143.8044  152.3165 LP  0  0  0  0  0  0  0  0  0  0  0  0  # atno 17342 bound_to 10162
  139.8071  144.7351  150.9747 LP  0  0  0  0  0  0  0  0  0  0  0  0  # atno 17343 bound_to 10162
  156.4049  130.3923  149.6933 LP  0  0  0  0  0  0  0  0  0  0  0  0  # atno 17370 bound_to 10713
  156.4238  130.7781  151.2799 LP  0  0  0  0  0  0  0  0  0  0  0  0  # atno 17371 bound_to 10713
  141.2150  133.6758  156.6874 LP  0  0  0  0  0  0  0  0  0  0  0  0  # atno 17394 bound_to 11000
  140.2975  134.8190  157.4070 LP  0  0  0  0  0  0  0  0  0  0  0  0  # atno 17395 bound_to 11000

$$$$
