AV-unprocessed.smi:107|AV-procd|sdf|1023|dock3
  -GOLD-   2262018 23D 1   1.00000     0.00000
 Structure written by MMmdl.
 30 31  0  0  0  0  0  0  0  0  2 V2000
  152.6742  137.7651  160.1736 C   0  0  0  0  0  0  0  0  0  0  0  0
  152.5931  137.7081  158.6581 C   0  0  0  0  0  0  0  0  0  0  0  0
  152.3159  138.7988  157.9090 C   0  0  0  0  0  0  0  0  0  0  0  0
  152.2441  138.7416  156.5269 N   0  0  0  0  0  0  0  0  0  0  0  0
  151.9349  139.9679  155.6918 C   0  0  2  0  0  0  0  0  0  0  0  0
  151.6070  141.1672  156.5944 C   0  0  0  0  0  0  0  0  0  0  0  0
  150.3303  141.7007  155.9738 C   0  0  2  0  0  0  0  0  0  0  0  0
  149.5280  142.3486  156.9399 O   0  0  0  0  0  0  0  0  0  0  0  0
  149.6814  140.4275  155.4316 C   0  0  1  0  0  0  0  0  0  0  0  0
  148.6510  140.6859  154.3219 C   0  0  0  0  0  0  0  0  0  0  0  0
  149.2792  141.2699  153.2006 O   0  0  0  0  0  0  0  0  0  0  0  0
  150.8060  139.7338  154.8985 O   0  0  0  0  0  0  0  0  0  0  0  0
  152.4649  137.5050  155.8656 C   0  0  0  0  0  0  0  0  0  0  0  0
  152.3969  137.4873  154.6361 O   0  0  0  0  0  0  0  0  0  0  0  0
  152.7436  136.3994  156.6132 N   0  5  0  0  0  0  0  0  0  0  0  0
  152.8217  136.4295  157.9743 C   0  0  0  0  0  0  0  0  0  0  0  0
  153.0762  135.4238  158.6367 O   0  0  0  0  0  0  0  0  0  0  0  0
  152.4846  138.7731  160.5436 H   0  0  0  0  0  0  0  0  0  0  0  0
  153.6648  137.4614  160.5133 H   0  0  0  0  0  0  0  0  0  0  0  0
  151.9367  137.0972  160.6196 H   0  0  0  0  0  0  0  0  0  0  0  0
  152.1478  139.7356  158.4173 H   0  0  0  0  0  0  0  0  0  0  0  0
  152.8010  140.1165  155.0448 H   0  0  0  0  0  0  0  0  0  0  0  0
  151.4311  140.8225  157.6153 H   0  0  0  0  0  0  0  0  0  0  0  0
  152.4231  141.8902  156.6011 H   0  0  0  0  0  0  0  0  0  0  0  0
  150.5685  142.3867  155.1596 H   0  0  0  0  0  0  0  0  0  0  0  0
  149.2049  143.1552  156.5683 H   0  0  0  0  0  0  0  0  0  0  0  0
  149.2462  139.8563  156.2543 H   0  0  0  0  0  0  0  0  0  0  0  0
  148.2093  139.7446  153.9941 H   0  0  0  0  0  0  0  0  0  0  0  0
  147.8374  141.3197  154.6758 H   0  0  0  0  0  0  0  0  0  0  0  0
  149.3984  140.6027  152.5421 H   0  0  0  0  0  0  0  0  0  0  0  0
  1  2  1  0  0  0  0
  1 18  1  0  0  0  0
  1 19  1  0  0  0  0
  1 20  1  0  0  0  0
  2 16  1  0  0  0  0
  2  3  2  0  0  0  0
  3  4  1  0  0  0  0
  3 21  1  0  0  0  0
  4  5  1  0  0  0  0
  4 13  1  0  0  0  0
  5 12  1  0  0  0  0
  5  6  1  0  0  0  0
  5 22  1  0  0  0  0
  6  7  1  0  0  0  0
  6 23  1  0  0  0  0
  6 24  1  0  0  0  0
  7  8  1  0  0  0  0
  7  9  1  0  0  0  0
  7 25  1  0  0  0  0
  8 26  1  0  0  0  0
  9 10  1  0  0  0  0
  9 12  1  0  0  0  0
  9 27  1  0  0  0  0
 10 11  1  0  0  0  0
 10 28  1  0  0  0  0
 10 29  1  0  0  0  0
 11 30  1  0  0  0  0
 13 14  2  0  0  0  0
 13 15  1  0  0  0  0
 15 16  1  0  0  0  0
 16 17  2  0  0  0  0
M  CHG  1  15  -1
M  END
> <s_m_source_file>
AV-unprocessed.smi

> <i_m_source_file_index>
107

> <i_lp_mmshare_version>
43012

> <i_f3d_flags>
0

> <s_epik_input>
Tz1jMVtuSF1jKD1PKW4oW2NIXWMxW0NIM10pW0NAQEhdMltDSDJdW0NAQEhdKFtPSF0pW0NASF0oTzIpW0NIMl1bT0hd

> <s_epik_cmdline>
J2VwaWtfcHl0aG9uJywgJy1waCcsICc3LjAnLCAnLXRuJywgJzgnLCAnLW1hJywgJzIwMCcsICctbWV0YWxfYmluZGluZycsICctaW1hZScsICc8aW5maWxlLm1hZT4nLCAnLW9tYWUnLCAnPG91dGZpbGUubWFlPic=

> <r_lp_tautomer_probability>
0.999537

> <r_epik_Ionization_Penalty>
3.66603

> <r_epik_Ionization_Penalty_Charging>
1.09773e-07

> <r_epik_Ionization_Penalty_Neutral>
3.66603

> <r_epik_State_Penalty>
3.66562

> <r_epik_Charging_Adjusted_Penalty>
3.66562

> <i_epik_Tot_Q>
-1

> <i_epik_Tot_abs_Q>
1

> <r_epik_Metal_State_Penalty>
0.234536

> <b_epik_Metal_Only>
1

> <s_epik_Chemistry_Notes>
This compound contains an acetal/aminal-like group ( X-CH(R)-Y where X, Y are N, S, or O) that may be acid/base labile, releasing an aldehyde.

> <s_lp_Force_Field>
OPLS_2005

> <r_lp_Energy>
36.1714

> <b_lp_Chiralities_Consistent>
1

> <s_lp_Variant>
AV-unprocessed.smi:107-11

> <Gold.Version>
5.8.1

> <Gold.Id.Protein>
6NUR|6NUR_protein|mol2

> <Gold.PLP.Fitness>
43.5771

> <Gold.PLP.PLP>
-25.6045

> <Gold.PLP.part.hbond>
-7.4074

> <Gold.PLP.part.metal>
0.0000

> <Gold.PLP.part.buried>
-3.0088

> <Gold.PLP.part.nonpolar>
-15.3990

> <Gold.PLP.part.repulsive>
0.1353

> <Gold.PLP.ligand.clash>
0.0000

> <Gold.PLP.ligand.torsion>
0.0598

> <Gold.PLP.Chemscore.Hbond>
6.0253

> <Gold.PLP.Chemscore.CHOScore>
0.0000

> <Gold.PLP.Chemscore.Metal>
0.0000

> <Gold.Chemscore.Hbonds>
donor molecule, donor type, donor heavy atom, donor atom, acceptor molecule, acceptor atom, score
      L1  H     8    26       P1  8028  1.00
      L1  H    11    30       P1  7957  0.93
      P1  H  6896  6909       L1    17  0.43
      P1  H  7989  7998       L1    12  0.40
      P1  H  8011  8017       L1    11  0.74
      P1  H 10752 10763       L1    15  1.95
      P1  H 10752 10765       L1    14  0.25

> <Gold.PLP.Chemscore.Internal.Correction>
0.0163

> <Gold.Rescore>
     Score         DG    S(hbond)    S(metal)    S(lipo)     H(rot)  DE(clash)    DE(int)     intcor
     13.01     -15.62       3.60        0.00      42.59       2.69       0.96       1.65       ----

> <Gold.Chemscore.Fitness>
13.0116

> <Gold.Chemscore.DG>
-15.6231

> <Gold.Chemscore.ZeroCoef>
-5.4800

> <Gold.Chemscore.Hbond>
3.6046

> <Gold.Chemscore.Metal>
0.0000

> <Gold.Chemscore.Lipo>
42.5881

> <Gold.Chemscore.Internal_Hbond>
0.0000

> <Gold.Chemscore.DEClash>
0.9567

> <Gold.Chemscore.DEInternal>
1.6549

> <Gold.Chemscore.Rot>
2.6871

> <Gold.Chemscore.Internal.Correction>
   9.000000E+99

> <Gold.Chemscore.Hbonds>
donor molecule, donor type, donor heavy atom, donor atom, acceptor molecule, acceptor atom, score
      L1  H     8    26       P1  8028  1.00
      L1  H    11    30       P1  7957  0.87
      P1  H  6896  6909       L1    17  0.42
      P1  H  7989  7998       L1    12  0.01
      P1  H  8011  8017       L1    11  0.09
      P1  H 10752 10763       L1    15  0.24
      P1  H 10752 10765       L1    14  0.21

> <Gold.Chemscore.Hbond.Weighted>
-12.0394

> <Gold.Chemscore.Metal.Weighted>
-0.0000

> <Gold.Chemscore.Lipo.Weighted>
-4.9828

> <Gold.Chemscore.Internal_Hbond.Weighted>
0.0000

> <Gold.Chemscore.DEClash.Weighted>
0.9567

> <Gold.Chemscore.DEInternal.Weighted>
1.6549

> <Gold.Chemscore.Rot.Weighted>
6.8791

> <Gold.Chemscore.Internal.Correction.Weighted>
   9.000000E+99

> <Gold.Protein.RotatedTorsions>
[ 6907 6896 6895 6894 ] final  168.55 input  -60.11 | X-H torsion
[ 7974 7965 7964 7962 ] final -164.95 input  175.53 | X-H torsion
[ 8008 7997 7996 7995 ] final   47.97 input   59.86 | X-H torsion
[ 10167 10162 10161 10158 ] final   61.65 input  -65.29 | X-H torsion
[ 10718 10713 10712 10709 ] final  105.94 input   66.30 | X-H torsion
[ 10763 10752 10751 10750 ] final  124.12 input  -60.55 | X-H torsion
[ 11005 11000 10999 10996 ] final -168.67 input  -57.11 | X-H torsion

> <Gold.Protein.ActiveResidues>
 VAL166  LYS551  ARG553  GLY616  TRP617  ASP618  TYR619  PRO620  LYS621  CYS622 
 ASP623  PHE694  ASN695  SER759  ASP760  ASP761  ALA762  ILE779  LEU786  VAL792 
 PHE793  MET794  SER795  GLU796  ALA797  LYS798  CYS799  TRP800  GLU811  SER814 

> <Gold.Protein.RotatedAtoms>
  151.8459  133.3431  159.3657 H   0  0  0  0  0  0  0  0  0  0  0  0  # atno 6907 bound_to 6896
  150.7221  134.5346  159.5726 H   0  0  0  0  0  0  0  0  0  0  0  0  # atno 6908 bound_to 6896
  152.2829  134.7809  160.0444 H   0  0  0  0  0  0  0  0  0  0  0  0  # atno 6909 bound_to 6896
  144.7283  140.2885  143.6224 H   0  0  0  0  0  0  0  0  0  0  0  0  # atno 7974 bound_to 7965
  155.3779  140.3427  155.4245 H   0  0  0  0  0  0  0  0  0  0  0  0  # atno 8008 bound_to 7997
  156.1626  140.1606  156.8619 H   0  0  0  0  0  0  0  0  0  0  0  0  # atno 8009 bound_to 7997
  154.5154  140.0779  156.8054 H   0  0  0  0  0  0  0  0  0  0  0  0  # atno 8010 bound_to 7997
  140.1524  144.4449  150.6752 H   0  0  0  0  0  0  0  0  0  0  0  0  # atno 10167 bound_to 10162
  157.6687  131.0839  150.5933 H   0  0  0  0  0  0  0  0  0  0  0  0  # atno 10718 bound_to 10713
  153.6563  135.3354  155.3114 H   0  0  0  0  0  0  0  0  0  0  0  0  # atno 10763 bound_to 10752
  154.8525  135.4353  154.1851 H   0  0  0  0  0  0  0  0  0  0  0  0  # atno 10764 bound_to 10752
  153.2806  135.7008  153.7464 H   0  0  0  0  0  0  0  0  0  0  0  0  # atno 10765 bound_to 10752
  140.5394  134.5538  157.5095 H   0  0  0  0  0  0  0  0  0  0  0  0  # atno 11005 bound_to 11000
  145.7878  139.1915  143.2120 LP  0  0  0  0  0  0  0  0  0  0  0  0  # atno 17320 bound_to 7965
  146.0781  140.7795  142.9655 LP  0  0  0  0  0  0  0  0  0  0  0  0  # atno 17321 bound_to 7965
  140.6694  143.2280  151.5663 LP  0  0  0  0  0  0  0  0  0  0  0  0  # atno 17342 bound_to 10162
  139.5419  144.2624  152.1368 LP  0  0  0  0  0  0  0  0  0  0  0  0  # atno 17343 bound_to 10162
  156.6233  130.4412  149.5814 LP  0  0  0  0  0  0  0  0  0  0  0  0  # atno 17370 bound_to 10713
  156.2338  130.6811  151.1490 LP  0  0  0  0  0  0  0  0  0  0  0  0  # atno 17371 bound_to 10713
  139.9512  134.7614  156.0444 LP  0  0  0  0  0  0  0  0  0  0  0  0  # atno 17394 bound_to 11000
  141.1236  133.6605  156.3278 LP  0  0  0  0  0  0  0  0  0  0  0  0  # atno 17395 bound_to 11000

$$$$
