AV-unprocessed.smi:2807|AV-procd|sdf|10819|dock6
  -GOLD-   2272015253D 1   1.00000     0.00000
 Structure written by MMmdl.
 32 33  0  0  0  0  0  0  0  0  1 V2000
  152.8032  139.7611  155.9033 O   0  0  0  0  0  0  0  0  0  0  0  0
  151.8103  139.9571  156.6066 C   0  0  0  0  0  0  0  0  0  0  0  0
  150.5569  139.8853  156.1297 N   0  0  0  0  0  0  0  0  0  0  0  0
  150.1937  139.5888  154.7459 C   0  0  1  0  0  0  0  0  0  0  0  0
  149.8331  138.0993  154.5876 C   0  0  0  0  0  0  0  0  0  0  0  0
  148.3070  138.0438  154.6193 C   0  0  0  0  0  0  0  0  0  0  0  0
  147.8850  139.3265  153.9105 C   0  0  0  0  0  0  0  0  0  0  0  0
  148.9225  140.3718  154.3437 C   0  0  2  0  0  0  0  0  0  0  0  0
  149.1775  141.2710  153.2845 O   0  0  0  0  0  0  0  0  0  0  0  0
  151.9460  140.2791  158.1047 C   0  0  0  0  0  0  0  0  0  0  0  0
  150.8585  139.8367  158.7410 F   0  0  0  0  0  0  0  0  0  0  0  0
  152.9951  139.6027  158.5768 F   0  0  0  0  0  0  0  0  0  0  0  0
  152.1207  141.7754  158.3624 C   0  0  0  0  0  0  0  0  0  0  0  0
  152.9835  142.2439  159.3796 C   0  0  0  0  0  0  0  0  0  0  0  0
  153.1183  143.6332  159.5643 C   0  0  0  0  0  0  0  0  0  0  0  0
  152.3904  144.5024  158.7302 C   0  0  0  0  0  0  0  0  0  0  0  0
  151.5573  143.9411  157.7431 C   0  0  0  0  0  0  0  0  0  0  0  0
  151.4209  142.6108  157.5576 N   0  0  0  0  0  0  0  0  0  0  0  0
  149.7974  140.0536  156.7734 H   0  0  0  0  0  0  0  0  0  0  0  0
  151.0321  139.8379  154.0918 H   0  0  0  0  0  0  0  0  0  0  0  0
  150.1813  137.7486  153.6152 H   0  0  0  0  0  0  0  0  0  0  0  0
  150.2877  137.4542  155.3407 H   0  0  0  0  0  0  0  0  0  0  0  0
  147.9084  137.1482  154.1420 H   0  0  0  0  0  0  0  0  0  0  0  0
  147.9572  138.0584  155.6524 H   0  0  0  0  0  0  0  0  0  0  0  0
  147.9330  139.1640  152.8323 H   0  0  0  0  0  0  0  0  0  0  0  0
  146.8644  139.6245  154.1526 H   0  0  0  0  0  0  0  0  0  0  0  0
  148.5312  140.9380  155.1906 H   0  0  0  0  0  0  0  0  0  0  0  0
  149.4110  140.7720  152.5166 H   0  0  0  0  0  0  0  0  0  0  0  0
  153.5373  141.5579  160.0033 H   0  0  0  0  0  0  0  0  0  0  0  0
  153.7701  144.0248  160.3312 H   0  0  0  0  0  0  0  0  0  0  0  0
  152.4696  145.5736  158.8429 H   0  0  0  0  0  0  0  0  0  0  0  0
  150.9847  144.5776  157.0850 H   0  0  0  0  0  0  0  0  0  0  0  0
  1  2  2  0  0  0  0
  2  3  1  0  0  0  0
  2 10  1  0  0  0  0
  3  4  1  0  0  0  0
  3 19  1  0  0  0  0
  4  8  1  0  0  0  0
  4  5  1  0  0  0  0
  4 20  1  0  0  0  0
  5  6  1  0  0  0  0
  5 21  1  0  0  0  0
  5 22  1  0  0  0  0
  6  7  1  0  0  0  0
  6 23  1  0  0  0  0
  6 24  1  0  0  0  0
  7  8  1  0  0  0  0
  7 25  1  0  0  0  0
  7 26  1  0  0  0  0
  8  9  1  0  0  0  0
  8 27  1  0  0  0  0
  9 28  1  0  0  0  0
 10 11  1  0  0  0  0
 10 12  1  0  0  0  0
 10 13  1  0  0  0  0
 13 18  1  0  0  0  0
 13 14  2  0  0  0  0
 14 15  1  0  0  0  0
 14 29  1  0  0  0  0
 15 16  2  0  0  0  0
 15 30  1  0  0  0  0
 16 17  1  0  0  0  0
 16 31  1  0  0  0  0
 17 18  2  0  0  0  0
 17 32  1  0  0  0  0
M  END
> <s_m_source_file>
AV-unprocessed.smi

> <i_m_source_file_index>
2807

> <i_lp_mmshare_version>
43012

> <i_f3d_flags>
0

> <s_epik_input>
bjFbY0hdW2NIXVtjSF1bY0hdYzFDKEYpKEYpQyg9TylbTkhdW0NAQEhdMltDSDJdW0NIMl1bQ0gyXVtDQEhdMltPSF0=

> <s_epik_cmdline>
J2VwaWtfcHl0aG9uJywgJy1waCcsICc3LjAnLCAnLXRuJywgJzgnLCAnLW1hJywgJzIwMCcsICctbWV0YWxfYmluZGluZycsICctaW1hZScsICc8aW5maWxlLm1hZT4nLCAnLW9tYWUnLCAnPG91dGZpbGUubWFlPic=

> <r_lp_tautomer_probability>
1

> <r_epik_Ionization_Penalty>
4.08325e-05

> <r_epik_Ionization_Penalty_Charging>
0

> <r_epik_Ionization_Penalty_Neutral>
4.08325e-05

> <r_epik_State_Penalty>
-0

> <r_epik_Charging_Adjusted_Penalty>
0

> <i_epik_Tot_Q>
0

> <i_epik_Tot_abs_Q>
0

> <r_epik_Metal_State_Penalty>
0.034564

> <b_epik_Metal_Only>
0

> <s_lp_Force_Field>
OPLS_2005

> <r_lp_Energy>
23.3641

> <b_lp_Chiralities_Consistent>
1

> <s_lp_Variant>
AV-unprocessed.smi:2807-4

> <Gold.Version>
5.8.1

> <Gold.Id.Protein>
6NUR|6NUR_protein|mol2

> <Gold.PLP.Fitness>
41.2341

> <Gold.PLP.PLP>
-37.0217

> <Gold.PLP.part.hbond>
-3.7676

> <Gold.PLP.part.metal>
0.0000

> <Gold.PLP.part.buried>
-2.4677

> <Gold.PLP.part.nonpolar>
-31.5290

> <Gold.PLP.part.repulsive>
0.1321

> <Gold.PLP.ligand.clash>
0.0000

> <Gold.PLP.ligand.torsion>
2.4056

> <Gold.PLP.Chemscore.Hbond>
2.0000

> <Gold.PLP.Chemscore.CHOScore>
1.0000

> <Gold.PLP.Chemscore.Metal>
0.0000

> <Gold.Chemscore.Hbonds>
donor molecule, donor type, donor heavy atom, donor atom, acceptor molecule, acceptor atom, score
      L1  H     9    28       P1  7957  1.00
      P1  H  7997  8010       L1     1  1.00
      L1  C    17    32       P1  8028  1.00

> <Gold.PLP.Chemscore.Internal.Correction>
0.0237

> <Gold.Rescore>
     Score         DG    S(hbond)    S(metal)    S(lipo)     H(rot)  DE(clash)    DE(int)     intcor
     15.95     -17.91       1.98        0.00      94.39       2.05       0.01       1.95       ----

> <Gold.Chemscore.Fitness>
15.9491

> <Gold.Chemscore.DG>
-17.9055

> <Gold.Chemscore.ZeroCoef>
-5.4800

> <Gold.Chemscore.Hbond>
1.9819

> <Gold.Chemscore.Metal>
0.0000

> <Gold.Chemscore.Lipo>
94.3854

> <Gold.Chemscore.Internal_Hbond>
0.0000

> <Gold.Chemscore.DEClash>
0.0108

> <Gold.Chemscore.DEInternal>
1.9456

> <Gold.Chemscore.Rot>
2.0457

> <Gold.Chemscore.Internal.Correction>
   9.000000E+99

> <Gold.Chemscore.Hbonds>
donor molecule, donor type, donor heavy atom, donor atom, acceptor molecule, acceptor atom, score
      L1  H     9    28       P1  7957  0.94
      P1  H  7997  8010       L1     1  0.99

> <Gold.Chemscore.Hbond.Weighted>
-6.6195

> <Gold.Chemscore.Metal.Weighted>
-0.0000

> <Gold.Chemscore.Lipo.Weighted>
-11.0431

> <Gold.Chemscore.Internal_Hbond.Weighted>
0.0000

> <Gold.Chemscore.DEClash.Weighted>
0.0108

> <Gold.Chemscore.DEInternal.Weighted>
1.9456

> <Gold.Chemscore.Rot.Weighted>
5.2371

> <Gold.Chemscore.Internal.Correction.Weighted>
   9.000000E+99

> <Gold.Protein.RotatedTorsions>
[ 6907 6896 6895 6894 ] final   55.87 input  -60.11 | X-H torsion
[ 7974 7965 7964 7962 ] final  -82.55 input  175.53 | X-H torsion
[ 8008 7997 7996 7995 ] final   72.53 input   59.86 | X-H torsion
[ 10167 10162 10161 10158 ] final  -73.18 input  -65.29 | X-H torsion
[ 10718 10713 10712 10709 ] final  114.53 input   66.30 | X-H torsion
[ 10763 10752 10751 10750 ] final  -38.94 input  -60.55 | X-H torsion
[ 11005 11000 10999 10996 ] final  -18.74 input  -57.11 | X-H torsion

> <Gold.Protein.ActiveResidues>
 VAL166  LYS551  ARG553  GLY616  TRP617  ASP618  TYR619  PRO620  LYS621  CYS622 
 ASP623  PHE694  ASN695  SER759  ASP760  ASP761  ALA762  ILE779  LEU786  VAL792 
 PHE793  MET794  SER795  GLU796  ALA797  LYS798  CYS799  TRP800  GLU811  SER814 

> <Gold.Protein.RotatedAtoms>
  152.3581  134.6911  160.0215 H   0  0  0  0  0  0  0  0  0  0  0  0  # atno 6907 bound_to 6896
  151.7243  133.3310  159.3331 H   0  0  0  0  0  0  0  0  0  0  0  0  # atno 6908 bound_to 6896
  150.7585  134.6354  159.6253 H   0  0  0  0  0  0  0  0  0  0  0  0  # atno 6909 bound_to 6896
  145.5319  140.9520  143.1598 H   0  0  0  0  0  0  0  0  0  0  0  0  # atno 7974 bound_to 7965
  155.7702  140.3484  155.5243 H   0  0  0  0  0  0  0  0  0  0  0  0  # atno 8008 bound_to 7997
  155.8829  140.1005  157.1494 H   0  0  0  0  0  0  0  0  0  0  0  0  # atno 8009 bound_to 7997
  154.4026  140.1319  156.4206 H   0  0  0  0  0  0  0  0  0  0  0  0  # atno 8010 bound_to 7997
  140.5131  143.2342  151.7559 H   0  0  0  0  0  0  0  0  0  0  0  0  # atno 10167 bound_to 10162
  157.6276  131.1000  150.7199 H   0  0  0  0  0  0  0  0  0  0  0  0  # atno 10718 bound_to 10713
  153.9211  135.6782  153.4748 H   0  0  0  0  0  0  0  0  0  0  0  0  # atno 10763 bound_to 10752
  153.1028  135.4820  154.8894 H   0  0  0  0  0  0  0  0  0  0  0  0  # atno 10764 bound_to 10752
  154.7477  135.3177  154.8571 H   0  0  0  0  0  0  0  0  0  0  0  0  # atno 10765 bound_to 10752
  140.8298  133.8005  155.9747 H   0  0  0  0  0  0  0  0  0  0  0  0  # atno 11005 bound_to 11000
  144.7622  139.6931  143.7230 LP  0  0  0  0  0  0  0  0  0  0  0  0  # atno 17320 bound_to 7965
  146.2039  139.5350  142.9725 LP  0  0  0  0  0  0  0  0  0  0  0  0  # atno 17321 bound_to 7965
  139.4901  144.4362  151.9816 LP  0  0  0  0  0  0  0  0  0  0  0  0  # atno 17342 bound_to 10162
  140.3455  144.3151  150.5959 LP  0  0  0  0  0  0  0  0  0  0  0  0  # atno 17343 bound_to 10162
  156.7544  130.4779  149.5450 LP  0  0  0  0  0  0  0  0  0  0  0  0  # atno 17370 bound_to 10713
  156.1458  130.6276  151.0529 LP  0  0  0  0  0  0  0  0  0  0  0  0  # atno 17371 bound_to 10713
  140.9010  134.2378  157.5041 LP  0  0  0  0  0  0  0  0  0  0  0  0  # atno 17394 bound_to 11000
  139.8705  134.9706  156.4708 LP  0  0  0  0  0  0  0  0  0  0  0  0  # atno 17395 bound_to 11000

$$$$
