AV-unprocessed.smi:1802|AV-procd|sdf|7277|dock10
  -GOLD-   22720 8533D 1   1.00000     0.00000
 Structure written by MMmdl.
 40 41  0  0  0  0  0  0  0  0  3 V2000
  152.3402  142.4622  161.2925 C   0  0  0  0  0  0  0  0  0  0  0  0
  152.9900  142.8623  159.9562 C   0  0  2  0  0  0  0  0  0  0  0  0
  152.5253  144.2422  159.4542 C   0  0  0  0  0  0  0  0  0  0  0  0
  151.0943  144.1820  158.9014 C   0  0  0  0  0  0  0  0  0  0  0  0
  150.9573  143.0792  157.8395 C   0  0  0  0  0  0  0  0  0  0  0  0
  151.3775  141.7604  158.3789 N   0  3  1  0  0  0  0  0  0  0  0  0
  151.1143  140.6532  157.4259 C   0  0  0  0  0  0  0  0  0  0  0  0
  149.6110  140.3945  157.2317 C   0  0  0  0  0  0  0  0  0  0  0  0
  149.2763  138.8978  157.2354 C   0  0  0  0  0  0  0  0  0  0  0  0
  148.4772  138.5563  158.4039 N   0  0  0  0  0  0  0  0  0  0  0  0
  148.7014  137.5124  159.2125 C   0  0  0  0  0  0  0  0  0  0  0  0
  149.6434  136.7501  158.9841 O   0  0  0  0  0  0  0  0  0  0  0  0
  147.8206  137.4175  160.2339 N   0  5  0  0  0  0  0  0  0  0  0  0
  147.4949  136.2126  160.7304 C   0  0  0  0  0  0  0  0  0  0  0  0
  147.4532  135.1096  159.9659 N   0  0  0  0  0  0  0  0  0  0  0  0
  147.0996  133.9683  160.6728 N   0  0  0  0  0  0  0  0  0  0  0  0
  146.8911  134.2399  161.9609 C   0  0  0  0  0  0  0  0  0  0  0  0
  147.1114  135.9128  162.4281 S   0  0  0  0  0  0  0  0  0  0  0  0
  152.7841  141.7917  158.8646 C   0  0  0  0  0  0  0  0  0  0  0  0
  151.2603  142.3447  161.2028 H   0  0  0  0  0  0  0  0  0  0  0  0
  152.5296  143.2125  162.0604 H   0  0  0  0  0  0  0  0  0  0  0  0
  152.7440  141.5164  161.6544 H   0  0  0  0  0  0  0  0  0  0  0  0
  154.0620  142.9320  160.1464 H   0  0  0  0  0  0  0  0  0  0  0  0
  152.5936  144.9838  160.2508 H   0  0  0  0  0  0  0  0  0  0  0  0
  153.1969  144.5809  158.6643 H   0  0  0  0  0  0  0  0  0  0  0  0
  150.3880  144.0024  159.7126 H   0  0  0  0  0  0  0  0  0  0  0  0
  150.8241  145.1464  158.4701 H   0  0  0  0  0  0  0  0  0  0  0  0
  149.9183  143.0313  157.5110 H   0  0  0  0  0  0  0  0  0  0  0  0
  151.5572  143.3222  156.9610 H   0  0  0  0  0  0  0  0  0  0  0  0
  151.5360  140.9080  156.4525 H   0  0  0  0  0  0  0  0  0  0  0  0
  151.6270  139.7480  157.7550 H   0  0  0  0  0  0  0  0  0  0  0  0
  149.0346  140.8840  158.0166 H   0  0  0  0  0  0  0  0  0  0  0  0
  149.2862  140.8360  156.2885 H   0  0  0  0  0  0  0  0  0  0  0  0
  148.7232  138.6300  156.3340 H   0  0  0  0  0  0  0  0  0  0  0  0
  150.1965  138.3111  157.2381 H   0  0  0  0  0  0  0  0  0  0  0  0
  147.6957  139.1564  158.6230 H   0  0  0  0  0  0  0  0  0  0  0  0
  146.6095  133.4496  162.6405 H   0  0  0  0  0  0  0  0  0  0  0  0
  153.4456  141.9951  158.0207 H   0  0  0  0  0  0  0  0  0  0  0  0
  153.0783  140.8187  159.2566 H   0  0  0  0  0  0  0  0  0  0  0  0
  150.7915  141.5879  159.1832 H   0  0  0  0  0  0  0  0  0  0  0  0
  1  2  1  0  0  0  0
  1 20  1  0  0  0  0
  1 21  1  0  0  0  0
  1 22  1  0  0  0  0
  2 19  1  0  0  0  0
  2  3  1  0  0  0  0
  2 23  1  0  0  0  0
  3  4  1  0  0  0  0
  3 24  1  0  0  0  0
  3 25  1  0  0  0  0
  4  5  1  0  0  0  0
  4 26  1  0  0  0  0
  4 27  1  0  0  0  0
  5  6  1  0  0  0  0
  5 28  1  0  0  0  0
  5 29  1  0  0  0  0
  6  7  1  0  0  0  0
  6 19  1  0  0  0  0
  6 40  1  0  0  0  0
  7  8  1  0  0  0  0
  7 30  1  0  0  0  0
  7 31  1  0  0  0  0
  8  9  1  0  0  0  0
  8 32  1  0  0  0  0
  8 33  1  0  0  0  0
  9 10  1  0  0  0  0
  9 34  1  0  0  0  0
  9 35  1  0  0  0  0
 10 11  1  0  0  0  0
 10 36  1  0  0  0  0
 11 12  2  0  0  0  0
 11 13  1  0  0  0  0
 13 14  1  0  0  0  0
 14 18  1  0  0  0  0
 14 15  2  0  0  0  0
 15 16  1  0  0  0  0
 16 17  2  0  0  0  0
 17 18  1  0  0  0  0
 17 37  1  0  0  0  0
 19 38  1  0  0  0  0
 19 39  1  0  0  0  0
M  CHG  1   6   1
M  CHG  1  13  -1
M  END
> <s_m_source_file>
AV-unprocessed.smi

> <i_m_source_file_index>
1802

> <i_lp_mmshare_version>
43012

> <i_f3d_flags>
0

> <s_epik_input>
W0NIM11bQ0BASF0xW0NIMl1bQ0gyXVtDSDJdTihbQ0gyXTEpW0NIMl1bQ0gyXVtDSDJdW05IXUMoPU8pW05IXWMybm5bY0hdczI=

> <s_epik_cmdline>
J2VwaWtfcHl0aG9uJywgJy1waCcsICc3LjAnLCAnLXRuJywgJzgnLCAnLW1hJywgJzIwMCcsICctbWV0YWxfYmluZGluZycsICctaW1hZScsICc8aW5maWxlLm1hZT4nLCAnLW9tYWUnLCAnPG91dGZpbGUubWFlPic=

> <r_lp_tautomer_probability>
1

> <r_epik_Ionization_Penalty>
3.29702

> <r_epik_Ionization_Penalty_Charging>
3.26059

> <r_epik_Ionization_Penalty_Neutral>
0.0364294

> <r_epik_State_Penalty>
3.25788

> <r_epik_Charging_Adjusted_Penalty>
6.51847

> <i_epik_Tot_Q>
0

> <i_epik_Tot_abs_Q>
2

> <r_epik_Metal_State_Penalty>
0.477639

> <b_epik_Metal_Only>
1

> <s_lp_Force_Field>
OPLS_2005

> <r_lp_Energy>
14.2366

> <b_lp_Chiralities_Consistent>
1

> <s_lp_Variant>
AV-unprocessed.smi:1802-7

> <Gold.Version>
5.8.1

> <Gold.Id.Protein>
6NUR|6NUR_protein|mol2

> <Gold.PLP.Fitness>
47.8351

> <Gold.PLP.PLP>
-39.0361

> <Gold.PLP.part.hbond>
-3.0000

> <Gold.PLP.part.metal>
0.0000

> <Gold.PLP.part.buried>
-4.3151

> <Gold.PLP.part.nonpolar>
-33.3283

> <Gold.PLP.part.repulsive>
0.2901

> <Gold.PLP.ligand.clash>
0.0000

> <Gold.PLP.ligand.torsion>
1.2428

> <Gold.PLP.Chemscore.Hbond>
3.7387

> <Gold.PLP.Chemscore.CHOScore>
0.0000

> <Gold.PLP.Chemscore.Metal>
0.0000

> <Gold.Chemscore.Hbonds>
donor molecule, donor type, donor heavy atom, donor atom, acceptor molecule, acceptor atom, score
      P1  H  6896  6907       L1    12  0.19
      P1  H  6931  6943       L1    13  0.63
      P1  H  6934  6947       L1    13  1.57

> <Gold.PLP.Chemscore.Internal.Correction>
0.0685

> <Gold.Rescore>
     Score         DG    S(hbond)    S(metal)    S(lipo)     H(rot)  DE(clash)    DE(int)     intcor
     15.46     -17.01       1.62        0.00      94.67       1.94       0.16       1.39       ----

> <Gold.Chemscore.Fitness>
15.4558

> <Gold.Chemscore.DG>
-17.0105

> <Gold.Chemscore.ZeroCoef>
-5.4800

> <Gold.Chemscore.Hbond>
1.6217

> <Gold.Chemscore.Metal>
0.0000

> <Gold.Chemscore.Lipo>
94.6656

> <Gold.Chemscore.Internal_Hbond>
0.0000

> <Gold.Chemscore.DEClash>
0.1618

> <Gold.Chemscore.DEInternal>
1.3929

> <Gold.Chemscore.Rot>
1.9383

> <Gold.Chemscore.Internal.Correction>
   9.000000E+99

> <Gold.Chemscore.Hbonds>
donor molecule, donor type, donor heavy atom, donor atom, acceptor molecule, acceptor atom, score
      P1  H  6896  6907       L1    12  0.19
      P1  H  6931  6943       L1    13  0.03
      P1  H  6934  6947       L1    13  0.70

> <Gold.Chemscore.Hbond.Weighted>
-5.4166

> <Gold.Chemscore.Metal.Weighted>
-0.0000

> <Gold.Chemscore.Lipo.Weighted>
-11.0759

> <Gold.Chemscore.Internal_Hbond.Weighted>
0.0000

> <Gold.Chemscore.DEClash.Weighted>
0.1618

> <Gold.Chemscore.DEInternal.Weighted>
1.3929

> <Gold.Chemscore.Rot.Weighted>
4.9620

> <Gold.Chemscore.Internal.Correction.Weighted>
   9.000000E+99

> <Gold.Protein.RotatedTorsions>
[ 6907 6896 6895 6894 ] final  -54.81 input  -60.11 | X-H torsion
[ 7974 7965 7964 7962 ] final  117.65 input  175.53 | X-H torsion
[ 8008 7997 7996 7995 ] final   97.35 input   59.86 | X-H torsion
[ 10167 10162 10161 10158 ] final  103.96 input  -65.29 | X-H torsion
[ 10718 10713 10712 10709 ] final   34.17 input   66.30 | X-H torsion
[ 10763 10752 10751 10750 ] final  157.81 input  -60.55 | X-H torsion
[ 11005 11000 10999 10996 ] final -171.54 input  -57.11 | X-H torsion

> <Gold.Protein.ActiveResidues>
 VAL166  LYS551  ARG553  GLY616  TRP617  ASP618  TYR619  PRO620  LYS621  CYS622 
 ASP623  PHE694  ASN695  SER759  ASP760  ASP761  ALA762  ILE779  LEU786  VAL792 
 PHE793  MET794  SER795  GLU796  ALA797  LYS798  CYS799  TRP800  GLU811  SER814 

> <Gold.Protein.RotatedAtoms>
  150.8305  134.7557  159.6849 H   0  0  0  0  0  0  0  0  0  0  0  0  # atno 6907 bound_to 6896
  152.4410  134.5586  159.9897 H   0  0  0  0  0  0  0  0  0  0  0  0  # atno 6908 bound_to 6896
  151.5748  133.3347  159.3032 H   0  0  0  0  0  0  0  0  0  0  0  0  # atno 6909 bound_to 6896
  145.1647  139.3135  143.4499 H   0  0  0  0  0  0  0  0  0  0  0  0  # atno 7974 bound_to 7965
  156.0892  140.3259  155.7794 H   0  0  0  0  0  0  0  0  0  0  0  0  # atno 8008 bound_to 7997
  155.5025  140.0570  157.2954 H   0  0  0  0  0  0  0  0  0  0  0  0  # atno 8009 bound_to 7997
  154.4627  140.1974  156.0216 H   0  0  0  0  0  0  0  0  0  0  0  0  # atno 8010 bound_to 7997
  139.7218  144.7056  151.0861 H   0  0  0  0  0  0  0  0  0  0  0  0  # atno 10167 bound_to 10162
  157.3070  130.7380  149.6701 H   0  0  0  0  0  0  0  0  0  0  0  0  # atno 10718 bound_to 10713
  154.2061  135.2788  155.2974 H   0  0  0  0  0  0  0  0  0  0  0  0  # atno 10763 bound_to 10752
  154.5816  135.5588  153.7194 H   0  0  0  0  0  0  0  0  0  0  0  0  # atno 10764 bound_to 10752
  153.0075  135.6346  154.2200 H   0  0  0  0  0  0  0  0  0  0  0  0  # atno 10765 bound_to 10752
  140.5071  134.5838  157.5007 H   0  0  0  0  0  0  0  0  0  0  0  0  # atno 11005 bound_to 11000
  146.3477  140.1771  142.8589 LP  0  0  0  0  0  0  0  0  0  0  0  0  # atno 17320 bound_to 7965
  145.0294  140.8858  143.5118 LP  0  0  0  0  0  0  0  0  0  0  0  0  # atno 17321 bound_to 7965
  140.7755  143.5156  150.9598 LP  0  0  0  0  0  0  0  0  0  0  0  0  # atno 17342 bound_to 10162
  139.8843  143.7032  152.3153 LP  0  0  0  0  0  0  0  0  0  0  0  0  # atno 17343 bound_to 10162
  155.9675  130.4263  150.4691 LP  0  0  0  0  0  0  0  0  0  0  0  0  # atno 17370 bound_to 10713
  157.2683  131.0581  151.2276 LP  0  0  0  0  0  0  0  0  0  0  0  0  # atno 17371 bound_to 10713
  139.9680  134.7340  156.0099 LP  0  0  0  0  0  0  0  0  0  0  0  0  # atno 17394 bound_to 11000
  141.1405  133.6566  156.3716 LP  0  0  0  0  0  0  0  0  0  0  0  0  # atno 17395 bound_to 11000

$$$$
