#       Name:                AV-unprocessed.smi:1684
#       Creating user name   scv26
#       Creation time:       Fri Mar 27 07:51:35 2020


#       File generated by GOLD software.
#

@<TRIPOS>MOLECULE
AV-unprocessed.smi:1684
    48    49     1
SMALL
NO_CHARGES


@<TRIPOS>ATOM
      1 ****        -4.1529  -0.9835   1.5383 C.3            1 S1                 0.0000
      2 ****        -3.8731   0.4440   1.0960 C.ar           1 S1                 0.0000
      3 ****        -4.9564   1.3104   0.8367 C.ar           1 S1                 0.0000
      4 ****        -4.6970   2.6289   0.4252 C.ar           1 S1                 0.0000
      5 ****        -3.3566   3.0279   0.2889 C.ar           1 S1                 0.0000
      6 ****        -2.3152   2.2066   0.5345 N.ar           1 S1                 0.0000
      7 ****        -2.5483   0.9314   0.9358 C.ar           1 S1                 0.0000
      8 ****        -1.4981   0.0102   1.2112 N.am           1 S1                 0.0000
      9 ****        -0.1709   0.2083   1.1261 C.2            1 S1                 0.0000
     10 ****         0.3737   1.2718   0.8291 O.2            1 S1                 0.0000
     11 ****         0.5082  -0.9185   1.3908 N.am           1 S1                 0.0000
     12 ****         1.9649  -1.0661   1.3849 C.3            1 S1                 0.0000
     13 ****         2.3668  -2.0924   2.4529 C.3            1 S1                 0.0000
     14 ****         2.4868  -1.4782  -0.0117 C.3            1 S1                 0.0000
     15 ****         2.1409  -0.5009  -1.0750 N.4            1 S1                 1.0000
     16 ****         3.0201   0.6932  -1.0937 C.3            1 S1                 0.0000
     17 ****         2.5341   1.6897  -2.1591 C.3            1 S1                 0.0000
     18 ****         2.5049   1.0505  -3.4300 O.3            1 S1                 0.0000
     19 ****         1.6102  -0.0554  -3.4512 C.3            1 S1                 0.0000
     20 ****         2.0633  -1.1073  -2.4241 C.3            1 S1                 0.0000
     21 ****        -5.2241  -1.1826   1.5812 H              1 S1                 0.0000
     22 ****        -3.7380  -1.1643   2.5304 H              1 S1                 0.0000
     23 ****        -3.7087  -1.6944   0.8407 H              1 S1                 0.0000
     24 ****        -5.9758   0.9713   0.9501 H              1 S1                 0.0000
     25 ****        -5.5043   3.3163   0.2196 H              1 S1                 0.0000
     26 ****        -3.1126   4.0316  -0.0262 H              1 S1                 0.0000
     27 ****        -1.7973  -0.9143   1.4840 H              1 S1                 0.0000
     28 ****        -0.0246  -1.7429   1.6281 H              1 S1                 0.0000
     29 ****         2.4204  -0.1176   1.6726 H              1 S1                 0.0000
     30 ****         3.4504  -2.2051   2.4999 H              1 S1                 0.0000
     31 ****         1.9392  -3.0738   2.2443 H              1 S1                 0.0000
     32 ****         2.0265  -1.7846   3.4422 H              1 S1                 0.0000
     33 ****         3.5672  -1.6295   0.0078 H              1 S1                 0.0000
     34 ****         2.0508  -2.4468  -0.2621 H              1 S1                 0.0000
     35 ****         3.0240   1.1789  -0.1184 H              1 S1                 0.0000
     36 ****         4.0474   0.3920  -1.3046 H              1 S1                 0.0000
     37 ****         1.5446   2.0760  -1.9089 H              1 S1                 0.0000
     38 ****         3.2073   2.5455  -2.2088 H              1 S1                 0.0000
     39 ****         0.5934   0.2806  -3.2408 H              1 S1                 0.0000
     40 ****         1.6025  -0.4860  -4.4526 H              1 S1                 0.0000
     41 ****         3.0380  -1.5116  -2.7021 H              1 S1                 0.0000
     42 ****         1.3578  -1.9390  -2.4185 H              1 S1                 0.0000
     43 ****         1.2096  -0.1717  -0.8624 H              1 S1                 0.0000
     44 ****        -1.3775   2.5353   0.4216 LP             1 S1                 0.0000
     45 ****        -0.1815   2.0787   0.6273 LP             1 S1                 0.0000
     46 ****         1.3713   1.3288   0.7896 LP             1 S1                 0.0000
     47 ****         3.4249   0.7255  -3.6489 LP             1 S1                 0.0000
     48 ****         2.2135   1.7146  -4.1186 LP             1 S1                 0.0000
@<TRIPOS>BOND
    1    1    2 1     
    2    1   21 1     
    3    1   22 1     
    4    1   23 1     
    5    2    7 ar    
    6    2    3 ar    
    7    3    4 ar    
    8    3   24 1     
    9    4    5 ar    
   10    4   25 1     
   11    5    6 ar    
   12    5   26 1     
   13    6    7 ar    
   14    7    8 1     
   15    8    9 am    
   16    8   27 1     
   17    9   10 2     
   18    9   11 am    
   19   11   12 1     
   20   11   28 1     
   21   12   13 1     
   22   12   14 1     
   23   12   29 1     
   24   13   30 1     
   25   13   31 1     
   26   13   32 1     
   27   14   15 1     
   28   14   33 1     
   29   14   34 1     
   30   15   20 1     
   31   15   16 1     
   32   15   43 1     
   33   16   17 1     
   34   16   35 1     
   35   16   36 1     
   36   17   18 1     
   37   17   37 1     
   38   17   38 1     
   39   18   19 1     
   40   19   20 1     
   41   19   39 1     
   42   19   40 1     
   43   20   41 1     
   44   20   42 1     
   45    6   44 1     
   46   10   45 1     
   47   10   46 1     
   48   18   47 1     
   49   18   48 1     
@<TRIPOS>SUBSTRUCTURE
      1 S1             1
@<TRIPOS>SET
LONE_PAIRS      STATIC     ATOMS    <user>   **** ""
5 44 45 46 47 48
DONOR_HYDROGENS      STATIC     ATOMS    <user>   **** ""
3 27 28 43
ATOM$BLUE        STATIC     ATOMS    COLORGROUP SYSTEM
5 44 45 46 47 48
ATOM$RED        STATIC     ATOMS    COLORGROUP SYSTEM
3 27 28 43
