AV-unprocessed.smi:1762|AV-procd|sdf|7120|dock4
  -GOLD-   22720 8353D 1   1.00000     0.00000
 Structure written by MMmdl.
 52 53  0  0  0  0  0  0  0  0  3 V2000
  148.5514  141.8204  154.1950 C   0  0  0  0  0  0  0  0  0  0  0  0
  148.9136  140.3947  154.6245 C   0  0  1  0  0  0  0  0  0  0  0  0
  148.4197  139.3424  153.6116 C   0  0  0  0  0  0  0  0  0  0  0  0
  148.8212  137.9699  154.0242 N   0  3  2  0  0  0  0  0  0  0  0  0
  148.0545  137.3552  155.1671 C   0  0  2  0  0  0  0  0  0  0  0  0
  148.5688  135.9387  155.5288 C   0  0  0  0  0  0  0  0  0  0  0  0
  148.9325  135.7375  156.6923 O   0  0  0  0  0  0  0  0  0  0  0  0
  148.5598  135.0960  154.4561 N   0  5  0  0  0  0  0  0  0  0  0  0
  148.6591  133.6410  154.5581 C   0  0  0  0  0  0  0  0  0  0  0  0
  148.6915  133.0042  153.1493 C   0  0  0  0  0  0  0  0  0  0  0  0
  147.3168  132.8114  152.5173 C   0  0  0  0  0  0  0  0  0  0  0  0
  146.4383  131.8137  152.9979 C   0  0  0  0  0  0  0  0  0  0  0  0
  145.1736  131.6795  152.3937 C   0  0  0  0  0  0  0  0  0  0  0  0
  144.8305  132.5455  151.3383 C   0  0  0  0  0  0  0  0  0  0  0  0
  145.7715  133.5125  150.9328 C   0  0  0  0  0  0  0  0  0  0  0  0
  146.9860  133.6512  151.5061 N   0  0  0  0  0  0  0  0  0  0  0  0
  146.4950  137.3893  155.0101 C   0  0  0  0  0  0  0  0  0  0  0  0
  146.0012  136.6646  153.7425 C   0  0  0  0  0  0  0  0  0  0  0  0
  145.8672  138.7964  155.0918 C   0  0  0  0  0  0  0  0  0  0  0  0
  150.3042  137.9467  154.1817 C   0  0  0  0  0  0  0  0  0  0  0  0
  150.7891  139.0372  155.1616 C   0  0  1  0  0  0  0  0  0  0  0  0
  152.3182  139.0883  155.2506 C   0  0  0  0  0  0  0  0  0  0  0  0
  150.3321  140.3099  154.7148 O   0  0  0  0  0  0  0  0  0  0  0  0
  147.4712  141.9430  154.1131 H   0  0  0  0  0  0  0  0  0  0  0  0
  148.9907  142.0653  153.2276 H   0  0  0  0  0  0  0  0  0  0  0  0
  148.9138  142.5499  154.9197 H   0  0  0  0  0  0  0  0  0  0  0  0
  148.4754  140.2101  155.6065 H   0  0  0  0  0  0  0  0  0  0  0  0
  147.3501  139.4323  153.4357 H   0  0  0  0  0  0  0  0  0  0  0  0
  148.8755  139.5441  152.6409 H   0  0  0  0  0  0  0  0  0  0  0  0
  148.2650  137.9722  156.0404 H   0  0  0  0  0  0  0  0  0  0  0  0
  149.5409  133.3288  155.1194 H   0  0  0  0  0  0  0  0  0  0  0  0
  147.8081  133.2357  155.1060 H   0  0  0  0  0  0  0  0  0  0  0  0
  149.2953  133.6202  152.4812 H   0  0  0  0  0  0  0  0  0  0  0  0
  149.1889  132.0338  153.1920 H   0  0  0  0  0  0  0  0  0  0  0  0
  146.7290  131.1631  153.8095 H   0  0  0  0  0  0  0  0  0  0  0  0
  144.4788  130.9259  152.7341 H   0  0  0  0  0  0  0  0  0  0  0  0
  143.8695  132.4708  150.8515 H   0  0  0  0  0  0  0  0  0  0  0  0
  145.5422  134.1940  150.1272 H   0  0  0  0  0  0  0  0  0  0  0  0
  146.0745  136.8027  155.8259 H   0  0  0  0  0  0  0  0  0  0  0  0
  146.2732  137.2011  152.8329 H   0  0  0  0  0  0  0  0  0  0  0  0
  144.9152  136.5673  153.7473 H   0  0  0  0  0  0  0  0  0  0  0  0
  146.4184  135.6594  153.6751 H   0  0  0  0  0  0  0  0  0  0  0  0
  146.1095  139.3972  154.2153 H   0  0  0  0  0  0  0  0  0  0  0  0
  146.2026  139.3463  155.9704 H   0  0  0  0  0  0  0  0  0  0  0  0
  144.7802  138.7317  155.1446 H   0  0  0  0  0  0  0  0  0  0  0  0
  150.6689  136.9677  154.4904 H   0  0  0  0  0  0  0  0  0  0  0  0
  150.7477  138.1226  153.2006 H   0  0  0  0  0  0  0  0  0  0  0  0
  150.4003  138.8493  156.1628 H   0  0  0  0  0  0  0  0  0  0  0  0
  152.7222  138.1374  155.5986 H   0  0  0  0  0  0  0  0  0  0  0  0
  152.6423  139.8613  155.9476 H   0  0  0  0  0  0  0  0  0  0  0  0
  152.7638  139.3068  154.2798 H   0  0  0  0  0  0  0  0  0  0  0  0
  148.6135  137.3646  153.2418 H   0  0  0  0  0  0  0  0  0  0  0  0
  1  2  1  0  0  0  0
  1 24  1  0  0  0  0
  1 25  1  0  0  0  0
  1 26  1  0  0  0  0
  2 23  1  0  0  0  0
  2  3  1  0  0  0  0
  2 27  1  0  0  0  0
  3  4  1  0  0  0  0
  3 28  1  0  0  0  0
  3 29  1  0  0  0  0
  4  5  1  0  0  0  0
  4 20  1  0  0  0  0
  4 52  1  0  0  0  0
  5  6  1  0  0  0  0
  5 17  1  0  0  0  0
  5 30  1  0  0  0  0
  6  7  2  0  0  0  0
  6  8  1  0  0  0  0
  8  9  1  0  0  0  0
  9 10  1  0  0  0  0
  9 31  1  0  0  0  0
  9 32  1  0  0  0  0
 10 11  1  0  0  0  0
 10 33  1  0  0  0  0
 10 34  1  0  0  0  0
 11 16  1  0  0  0  0
 11 12  2  0  0  0  0
 12 13  1  0  0  0  0
 12 35  1  0  0  0  0
 13 14  2  0  0  0  0
 13 36  1  0  0  0  0
 14 15  1  0  0  0  0
 14 37  1  0  0  0  0
 15 16  2  0  0  0  0
 15 38  1  0  0  0  0
 17 18  1  0  0  0  0
 17 19  1  0  0  0  0
 17 39  1  0  0  0  0
 18 40  1  0  0  0  0
 18 41  1  0  0  0  0
 18 42  1  0  0  0  0
 19 43  1  0  0  0  0
 19 44  1  0  0  0  0
 19 45  1  0  0  0  0
 20 21  1  0  0  0  0
 20 46  1  0  0  0  0
 20 47  1  0  0  0  0
 21 22  1  0  0  0  0
 21 23  1  0  0  0  0
 21 48  1  0  0  0  0
 22 49  1  0  0  0  0
 22 50  1  0  0  0  0
 22 51  1  0  0  0  0
M  CHG  1   4   1
M  CHG  1   8  -1
M  END
> <s_m_source_file>
AV-unprocessed.smi

> <i_m_source_file_index>
1762

> <i_lp_mmshare_version>
43012

> <i_f3d_flags>
0

> <s_epik_input>
W0NIM11bQ0BASF0xW0NIMl1OKFtDSDJdW0NASF0oTzEpW0NIM10pW0NAQEhdKFtDSF0oW0NIM10pW0NIM10pQyg9TylbTkhdW0NIMl1bQ0gyXWMyW2NIXVtjSF1bY0hdW2NIXW4y

> <s_epik_cmdline>
J2VwaWtfcHl0aG9uJywgJy1waCcsICc3LjAnLCAnLXRuJywgJzgnLCAnLW1hJywgJzIwMCcsICctbWV0YWxfYmluZGluZycsICctaW1hZScsICc8aW5maWxlLm1hZT4nLCAnLW9tYWUnLCAnPG91dGZpbGUubWFlPic=

> <r_epik_Ionization_Penalty>
7.82966

> <r_epik_Ionization_Penalty_Charging>
7.7461

> <r_epik_Ionization_Penalty_Neutral>
0.0835571

> <r_epik_State_Penalty>
8.52273

> <r_epik_Charging_Adjusted_Penalty>
16.2688

> <i_epik_Tot_Q>
0

> <i_epik_Tot_abs_Q>
2

> <r_epik_Metal_State_Penalty>
4.47451

> <b_epik_Metal_Only>
1

> <s_lp_Force_Field>
OPLS_2005

> <r_lp_Energy>
23.0584

> <b_lp_Chiralities_Consistent>
1

> <s_lp_Variant>
AV-unprocessed.smi:1762-22

> <Gold.Version>
5.8.1

> <Gold.Id.Protein>
6NUR|6NUR_protein|mol2

> <Gold.PLP.Fitness>
42.3405

> <Gold.PLP.PLP>
-31.2995

> <Gold.PLP.part.hbond>
-2.0000

> <Gold.PLP.part.metal>
0.0000

> <Gold.PLP.part.buried>
0.4747

> <Gold.PLP.part.nonpolar>
-31.5808

> <Gold.PLP.part.repulsive>
2.3132

> <Gold.PLP.ligand.clash>
0.0000

> <Gold.PLP.ligand.torsion>
0.7052

> <Gold.PLP.Chemscore.Hbond>
3.0000

> <Gold.PLP.Chemscore.CHOScore>
1.0000

> <Gold.PLP.Chemscore.Metal>
0.0000

> <Gold.Chemscore.Hbonds>
donor molecule, donor type, donor heavy atom, donor atom, acceptor molecule, acceptor atom, score
      L1  H     4    52       P1  7948  2.00
      P1  H  7989  7998       L1    23  1.00
      L1  C    15    38       P1  7921  0.74

> <Gold.PLP.Chemscore.Internal.Correction>
0.4515

> <Gold.Rescore>
     Score         DG    S(hbond)    S(metal)    S(lipo)     H(rot)  DE(clash)    DE(int)     intcor
     14.32     -17.39       1.74        0.00      87.14       1.60       2.35       0.72       ----

> <Gold.Chemscore.Fitness>
14.3237

> <Gold.Chemscore.DG>
-17.3914

> <Gold.Chemscore.ZeroCoef>
-5.4800

> <Gold.Chemscore.Hbond>
1.7409

> <Gold.Chemscore.Metal>
0.0000

> <Gold.Chemscore.Lipo>
87.1435

> <Gold.Chemscore.Internal_Hbond>
0.0000

> <Gold.Chemscore.DEClash>
2.3514

> <Gold.Chemscore.DEInternal>
0.7162

> <Gold.Chemscore.Rot>
1.6012

> <Gold.Chemscore.Internal.Correction>
   9.000000E+99

> <Gold.Chemscore.Hbonds>
donor molecule, donor type, donor heavy atom, donor atom, acceptor molecule, acceptor atom, score
      L1  H     4    52       P1  7948  0.99
      P1  H  7989  7998       L1    23  0.49

> <Gold.Chemscore.Hbond.Weighted>
-5.8145

> <Gold.Chemscore.Metal.Weighted>
-0.0000

> <Gold.Chemscore.Lipo.Weighted>
-10.1958

> <Gold.Chemscore.Internal_Hbond.Weighted>
0.0000

> <Gold.Chemscore.DEClash.Weighted>
2.3514

> <Gold.Chemscore.DEInternal.Weighted>
0.7162

> <Gold.Chemscore.Rot.Weighted>
4.0990

> <Gold.Chemscore.Internal.Correction.Weighted>
   9.000000E+99

> <Gold.Protein.RotatedTorsions>
[ 6907 6896 6895 6894 ] final  -71.80 input  -60.11 | X-H torsion
[ 7974 7965 7964 7962 ] final -143.82 input  175.53 | X-H torsion
[ 8008 7997 7996 7995 ] final  126.15 input   59.86 | X-H torsion
[ 10167 10162 10161 10158 ] final   93.19 input  -65.29 | X-H torsion
[ 10718 10713 10712 10709 ] final -152.34 input   66.30 | X-H torsion
[ 10763 10752 10751 10750 ] final  -72.92 input  -60.55 | X-H torsion
[ 11005 11000 10999 10996 ] final  -89.89 input  -57.11 | X-H torsion

> <Gold.Protein.ActiveResidues>
 VAL166  LYS551  ARG553  GLY616  TRP617  ASP618  TYR619  PRO620  LYS621  CYS622 
 ASP623  PHE694  ASN695  SER759  ASP760  ASP761  ALA762  ILE779  LEU786  VAL792 
 PHE793  MET794  SER795  GLU796  ALA797  LYS798  CYS799  TRP800  GLU811  SER814 

> <Gold.Protein.RotatedAtoms>
  150.7196  134.5255  159.5674 H   0  0  0  0  0  0  0  0  0  0  0  0  # atno 6907 bound_to 6896
  152.2800  134.7836  160.0407 H   0  0  0  0  0  0  0  0  0  0  0  0  # atno 6908 bound_to 6896
  151.8485  133.3400  159.3702 H   0  0  0  0  0  0  0  0  0  0  0  0  # atno 6909 bound_to 6896
  144.8342  140.5787  143.5495 H   0  0  0  0  0  0  0  0  0  0  0  0  # atno 7974 bound_to 7965
  156.2855  140.2699  156.2065 H   0  0  0  0  0  0  0  0  0  0  0  0  # atno 8008 bound_to 7997
  155.0308  140.0386  157.2491 H   0  0  0  0  0  0  0  0  0  0  0  0  # atno 8009 bound_to 7997
  154.7356  140.2715  155.6423 H   0  0  0  0  0  0  0  0  0  0  0  0  # atno 8010 bound_to 7997
  139.8204  144.6734  150.9526 H   0  0  0  0  0  0  0  0  0  0  0  0  # atno 10167 bound_to 10162
  156.4712  130.8259  151.2489 H   0  0  0  0  0  0  0  0  0  0  0  0  # atno 10718 bound_to 10713
  154.4524  135.5914  153.6200 H   0  0  0  0  0  0  0  0  0  0  0  0  # atno 10763 bound_to 10752
  152.9815  135.6024  154.3588 H   0  0  0  0  0  0  0  0  0  0  0  0  # atno 10764 bound_to 10752
  154.3451  135.2841  155.2381 H   0  0  0  0  0  0  0  0  0  0  0  0  # atno 10765 bound_to 10752
  141.1576  133.7658  156.9660 H   0  0  0  0  0  0  0  0  0  0  0  0  # atno 11005 bound_to 11000
  145.4831  139.1494  143.3751 LP  0  0  0  0  0  0  0  0  0  0  0  0  # atno 17320 bound_to 7965
  146.2642  140.4968  142.8841 LP  0  0  0  0  0  0  0  0  0  0  0  0  # atno 17321 bound_to 7965
  140.7813  143.4097  151.1012 LP  0  0  0  0  0  0  0  0  0  0  0  0  # atno 17342 bound_to 10162
  139.7758  143.8427  152.3129 LP  0  0  0  0  0  0  0  0  0  0  0  0  # atno 17343 bound_to 10162
  157.7491  131.0075  150.3194 LP  0  0  0  0  0  0  0  0  0  0  0  0  # atno 17370 bound_to 10713
  156.3616  130.3848  149.7247 LP  0  0  0  0  0  0  0  0  0  0  0  0  # atno 17371 bound_to 10713
  140.1161  134.9446  157.2136 LP  0  0  0  0  0  0  0  0  0  0  0  0  # atno 17394 bound_to 11000
  140.3131  134.3001  155.7262 LP  0  0  0  0  0  0  0  0  0  0  0  0  # atno 17395 bound_to 11000

$$$$
