AV-unprocessed.smi:1199|AV-procd|sdf|5014|dock4
  -GOLD-   22720 4 33D 1   1.00000     0.00000
 Structure written by MMmdl.
 40 41  0  0  0  0  0  0  0  0  2 V2000
  150.2102  133.3531  154.8657 C   0  0  0  0  0  0  0  0  0  0  0  0
  149.4197  134.5090  155.5006 C   0  0  2  0  0  0  0  0  0  0  0  0
  150.3646  135.5617  156.1206 C   0  0  0  0  0  0  0  0  0  0  0  0
  150.7067  136.6947  155.2578 N   0  0  0  0  0  0  0  0  0  0  0  0
  149.5727  137.5842  155.0139 C   0  0  0  0  0  0  0  0  0  0  0  0
  149.9586  138.7942  154.1463 C   0  0  0  0  0  0  0  0  0  0  0  0
  151.0396  139.4959  154.7510 O   0  0  0  0  0  0  0  0  0  0  0  0
  152.1827  138.6715  154.9507 C   0  0  0  0  0  0  0  0  0  0  0  0
  151.8003  137.4711  155.8329 C   0  0  0  0  0  0  0  0  0  0  0  0
  148.5380  133.9796  156.5356 N   0  0  0  0  0  0  0  0  0  0  0  0
  148.9185  133.3367  157.6520 C   0  0  0  0  0  0  0  0  0  0  0  0
  150.0983  133.1735  157.9623 O   0  0  0  0  0  0  0  0  0  0  0  0
  147.8118  132.7651  158.5552 C   0  0  0  0  0  0  0  0  0  0  0  0
  147.8012  133.3144  159.9215 N   0  0  0  0  0  0  0  0  0  0  0  0
  147.7020  134.7702  159.9751 N   0  5  0  0  0  0  0  0  0  0  0  0
  147.6148  135.3840  161.1849 C   0  0  0  0  0  0  0  0  0  0  0  0
  147.5057  136.6017  161.3079 O   0  0  0  0  0  0  0  0  0  0  0  0
  147.6552  134.5543  162.3776 C   0  0  0  0  0  0  0  0  0  0  0  0
  147.7675  133.2138  162.2988 C   0  0  0  0  0  0  0  0  0  0  0  0
  147.8469  132.5124  161.0236 C   0  0  0  0  0  0  0  0  0  0  0  0
  147.9311  131.2870  160.9447 O   0  0  0  0  0  0  0  0  0  0  0  0
  150.8687  133.7152  154.0760 H   0  0  0  0  0  0  0  0  0  0  0  0
  149.5433  132.6151  154.4190 H   0  0  0  0  0  0  0  0  0  0  0  0
  150.8265  132.8407  155.6052 H   0  0  0  0  0  0  0  0  0  0  0  0
  148.8268  134.9843  154.7168 H   0  0  0  0  0  0  0  0  0  0  0  0
  149.9617  135.9174  157.0706 H   0  0  0  0  0  0  0  0  0  0  0  0
  151.2950  135.0529  156.3762 H   0  0  0  0  0  0  0  0  0  0  0  0
  148.7735  137.0447  154.5076 H   0  0  0  0  0  0  0  0  0  0  0  0
  149.1654  137.9347  155.9635 H   0  0  0  0  0  0  0  0  0  0  0  0
  150.2406  138.4739  153.1423 H   0  0  0  0  0  0  0  0  0  0  0  0
  149.1086  139.4687  154.0404 H   0  0  0  0  0  0  0  0  0  0  0  0
  152.5726  138.3361  153.9887 H   0  0  0  0  0  0  0  0  0  0  0  0
  152.9670  139.2590  155.4279 H   0  0  0  0  0  0  0  0  0  0  0  0
  151.5180  137.8301  156.8239 H   0  0  0  0  0  0  0  0  0  0  0  0
  152.6747  136.8339  155.9702 H   0  0  0  0  0  0  0  0  0  0  0  0
  147.5443  134.0737  156.3776 H   0  0  0  0  0  0  0  0  0  0  0  0
  146.8444  132.9315  158.0783 H   0  0  0  0  0  0  0  0  0  0  0  0
  147.9341  131.6812  158.5892 H   0  0  0  0  0  0  0  0  0  0  0  0
  147.5966  135.0233  163.3486 H   0  0  0  0  0  0  0  0  0  0  0  0
  147.7948  132.6369  163.2111 H   0  0  0  0  0  0  0  0  0  0  0  0
  1  2  1  0  0  0  0
  1 22  1  0  0  0  0
  1 23  1  0  0  0  0
  1 24  1  0  0  0  0
  2  3  1  0  0  0  0
  2 10  1  0  0  0  0
  2 25  1  0  0  0  0
  3  4  1  0  0  0  0
  3 26  1  0  0  0  0
  3 27  1  0  0  0  0
  4  9  1  0  0  0  0
  4  5  1  0  0  0  0
  5  6  1  0  0  0  0
  5 28  1  0  0  0  0
  5 29  1  0  0  0  0
  6  7  1  0  0  0  0
  6 30  1  0  0  0  0
  6 31  1  0  0  0  0
  7  8  1  0  0  0  0
  8  9  1  0  0  0  0
  8 32  1  0  0  0  0
  8 33  1  0  0  0  0
  9 34  1  0  0  0  0
  9 35  1  0  0  0  0
 10 11  1  0  0  0  0
 10 36  1  0  0  0  0
 11 12  2  0  0  0  0
 11 13  1  0  0  0  0
 13 37  1  0  0  0  0
 13 38  1  0  0  0  0
 13 14  1  0  0  0  0
 14 15  1  0  0  0  0
 14 20  1  0  0  0  0
 15 16  1  0  0  0  0
 16 17  2  0  0  0  0
 16 18  1  0  0  0  0
 18 39  1  0  0  0  0
 18 19  2  0  0  0  0
 19 40  1  0  0  0  0
 19 20  1  0  0  0  0
 20 21  2  0  0  0  0
M  CHG  1  15  -1
M  END
> <s_m_source_file>
AV-unprocessed.smi

> <i_m_source_file_index>
1199

> <i_lp_mmshare_version>
43012

> <i_f3d_flags>
0

> <s_epik_input>
W0NIMl0xW0NIMl1PW0NIMl1bQ0gyXU4xW0NIMl1bQ0BASF0oW0NIM10pW05IXUMoPU8pW0NIMl1uMltuSF1jKD1PKVtjSF1bY0hdYzI9Tw==

> <s_epik_cmdline>
J2VwaWtfcHl0aG9uJywgJy1waCcsICc3LjAnLCAnLXRuJywgJzgnLCAnLW1hJywgJzIwMCcsICctbWV0YWxfYmluZGluZycsICctaW1hZScsICc8aW5maWxlLm1hZT4nLCAnLW9tYWUnLCAnPG91dGZpbGUubWFlPic=

> <r_lp_tautomer_probability>
1

> <r_epik_Ionization_Penalty>
0.334996

> <r_epik_Ionization_Penalty_Charging>
0.0976136

> <r_epik_Ionization_Penalty_Neutral>
0.237382

> <r_epik_State_Penalty>
0.26804

> <r_epik_Charging_Adjusted_Penalty>
0.365653

> <i_epik_Tot_Q>
-1

> <i_epik_Tot_abs_Q>
1

> <r_epik_Metal_State_Penalty>
0.26804

> <b_epik_Metal_Only>
0

> <s_lp_Force_Field>
OPLS_2005

> <r_lp_Energy>
38.5668

> <b_lp_Chiralities_Consistent>
1

> <s_lp_Variant>
AV-unprocessed.smi:1199-1

> <Gold.Version>
5.8.1

> <Gold.Id.Protein>
6NUR|6NUR_protein|mol2

> <Gold.PLP.Fitness>
44.6156

> <Gold.PLP.PLP>
-34.1640

> <Gold.PLP.part.hbond>
-4.0000

> <Gold.PLP.part.metal>
0.0000

> <Gold.PLP.part.buried>
-5.2690

> <Gold.PLP.part.nonpolar>
-25.7016

> <Gold.PLP.part.repulsive>
0.2017

> <Gold.PLP.ligand.clash>
0.0000

> <Gold.PLP.ligand.torsion>
0.5455

> <Gold.PLP.Chemscore.Hbond>
3.8400

> <Gold.PLP.Chemscore.CHOScore>
0.0000

> <Gold.PLP.Chemscore.Metal>
0.0000

> <Gold.Chemscore.Hbonds>
donor molecule, donor type, donor heavy atom, donor atom, acceptor molecule, acceptor atom, score
      P1  H  6896  6907       L1    12  1.00
      P1  H  6931  6943       L1    17  0.26
      P1  H  7989  7998       L1     7  1.00

> <Gold.PLP.Chemscore.Internal.Correction>
0.0226

> <Gold.Rescore>
     Score         DG    S(hbond)    S(metal)    S(lipo)     H(rot)  DE(clash)    DE(int)     intcor
     15.95     -17.85       3.41        0.00      58.52       2.30       0.30       1.60       ----

> <Gold.Chemscore.Fitness>
15.9466

> <Gold.Chemscore.DG>
-17.8461

> <Gold.Chemscore.ZeroCoef>
-5.4800

> <Gold.Chemscore.Hbond>
3.4119

> <Gold.Chemscore.Metal>
0.0000

> <Gold.Chemscore.Lipo>
58.5204

> <Gold.Chemscore.Internal_Hbond>
0.0000

> <Gold.Chemscore.DEClash>
0.2986

> <Gold.Chemscore.DEInternal>
1.6009

> <Gold.Chemscore.Rot>
2.2955

> <Gold.Chemscore.Internal.Correction>
   9.000000E+99

> <Gold.Chemscore.Hbonds>
donor molecule, donor type, donor heavy atom, donor atom, acceptor molecule, acceptor atom, score
      P1  H  6896  6907       L1    12  0.97
      P1  H  6931  6943       L1    17  0.27
      P1  H  6934  6947       L1    17  0.03
      P1  H  7989  7998       L1     7  0.29

> <Gold.Chemscore.Hbond.Weighted>
-11.3958

> <Gold.Chemscore.Metal.Weighted>
-0.0000

> <Gold.Chemscore.Lipo.Weighted>
-6.8469

> <Gold.Chemscore.Internal_Hbond.Weighted>
0.0000

> <Gold.Chemscore.DEClash.Weighted>
0.2986

> <Gold.Chemscore.DEInternal.Weighted>
1.6009

> <Gold.Chemscore.Rot.Weighted>
5.8766

> <Gold.Chemscore.Internal.Correction.Weighted>
   9.000000E+99

> <Gold.Protein.RotatedTorsions>
[ 6907 6896 6895 6894 ] final -124.10 input  -60.11 | X-H torsion
[ 7974 7965 7964 7962 ] final -147.96 input  175.53 | X-H torsion
[ 8008 7997 7996 7995 ] final   47.18 input   59.86 | X-H torsion
[ 10167 10162 10161 10158 ] final  -82.05 input  -65.29 | X-H torsion
[ 10718 10713 10712 10709 ] final  -23.45 input   66.30 | X-H torsion
[ 10763 10752 10751 10750 ] final   63.19 input  -60.55 | X-H torsion
[ 11005 11000 10999 10996 ] final   84.71 input  -57.11 | X-H torsion

> <Gold.Protein.ActiveResidues>
 VAL166  LYS551  ARG553  GLY616  TRP617  ASP618  TYR619  PRO620  LYS621  CYS622 
 ASP623  PHE694  ASN695  SER759  ASP760  ASP761  ALA762  ILE779  LEU786  VAL792 
 PHE793  MET794  SER795  GLU796  ALA797  LYS798  CYS799  TRP800  GLU811  SER814 

> <Gold.Protein.RotatedAtoms>
  150.8735  133.7471  159.2953 H   0  0  0  0  0  0  0  0  0  0  0  0  # atno 6907 bound_to 6896
  151.5075  135.1062  159.9855 H   0  0  0  0  0  0  0  0  0  0  0  0  # atno 6908 bound_to 6896
  152.4712  133.7988  159.6997 H   0  0  0  0  0  0  0  0  0  0  0  0  # atno 6909 bound_to 6896
  144.8060  140.5259  143.5675 H   0  0  0  0  0  0  0  0  0  0  0  0  # atno 7974 bound_to 7965
  155.3647  140.3420  155.4241 H   0  0  0  0  0  0  0  0  0  0  0  0  # atno 8008 bound_to 7997
  156.1694  140.1627  156.8508 H   0  0  0  0  0  0  0  0  0  0  0  0  # atno 8009 bound_to 7997
  154.5218  140.0765  156.8168 H   0  0  0  0  0  0  0  0  0  0  0  0  # atno 8010 bound_to 7997
  140.4356  143.2533  151.8699 H   0  0  0  0  0  0  0  0  0  0  0  0  # atno 10167 bound_to 10162
  156.4909  130.4566  149.6756 H   0  0  0  0  0  0  0  0  0  0  0  0  # atno 10718 bound_to 10713
  153.0009  135.5438  154.6313 H   0  0  0  0  0  0  0  0  0  0  0  0  # atno 10763 bound_to 10752
  154.5590  135.2832  155.0939 H   0  0  0  0  0  0  0  0  0  0  0  0  # atno 10764 bound_to 10752
  154.2149  135.6461  153.5179 H   0  0  0  0  0  0  0  0  0  0  0  0  # atno 10765 bound_to 10752
  139.8992  134.8236  156.2483 H   0  0  0  0  0  0  0  0  0  0  0  0  # atno 11005 bound_to 11000
  145.5437  139.1475  143.3432 LP  0  0  0  0  0  0  0  0  0  0  0  0  # atno 17320 bound_to 7965
  146.2351  140.5577  142.8958 LP  0  0  0  0  0  0  0  0  0  0  0  0  # atno 17321 bound_to 7965
  139.4787  144.5287  151.8698 LP  0  0  0  0  0  0  0  0  0  0  0  0  # atno 17342 bound_to 10162
  140.4378  144.2028  150.5890 LP  0  0  0  0  0  0  0  0  0  0  0  0  # atno 17343 bound_to 10162
  156.3427  130.7390  151.2338 LP  0  0  0  0  0  0  0  0  0  0  0  0  # atno 17370 bound_to 10713
  157.7474  131.0399  150.4572 LP  0  0  0  0  0  0  0  0  0  0  0  0  # atno 17371 bound_to 10713
  141.0240  133.7025  156.1317 LP  0  0  0  0  0  0  0  0  0  0  0  0  # atno 17394 bound_to 11000
  140.7192  134.4377  157.5576 LP  0  0  0  0  0  0  0  0  0  0  0  0  # atno 17395 bound_to 11000

$$$$
