AV-unprocessed.smi:560|AV-procd|sdf|2926|dock4
  -GOLD-   2262023413D 1   1.00000     0.00000
 Structure written by MMmdl.
 41 42  0  0  0  0  0  0  0  0  1 V2000
  153.9302  141.1715  159.8230 C   0  0  0  0  0  0  0  0  0  0  0  0
  152.4291  141.4957  159.6752 C   0  0  2  0  0  0  0  0  0  0  0  0
  151.7922  140.7739  158.4785 C   0  0  0  0  0  0  0  0  0  0  0  0
  152.4858  140.1201  157.6984 O   0  0  0  0  0  0  0  0  0  0  0  0
  150.4644  140.9141  158.3399 N   0  0  0  0  0  0  0  0  0  0  0  0
  149.6659  140.3578  157.2525 C   0  0  0  0  0  0  0  0  0  0  0  0
  150.1081  140.9458  155.9028 C   0  0  0  0  0  0  0  0  0  0  0  0
  149.1787  140.4967  154.7613 C   0  0  0  0  0  0  0  0  0  0  0  0
  147.7873  140.8774  155.0469 N   0  0  0  0  0  0  0  0  0  0  0  0
  146.8646  140.5358  153.9404 C   0  0  0  0  0  0  0  0  0  0  0  0
  146.7432  139.0336  153.6564 C   0  0  0  0  0  0  0  0  0  0  0  0
  147.3067  138.5765  152.5355 N   0  0  0  0  0  0  0  0  0  0  0  0
  146.1432  138.2976  154.4371 O   0  0  0  0  0  0  0  0  0  0  0  0
  147.3286  140.2283  156.2793 C   0  0  0  0  0  0  0  0  0  0  0  0
  148.1822  140.6801  157.4769 C   0  0  0  0  0  0  0  0  0  0  0  0
  152.1656  142.9285  159.5898 N   0  0  0  0  0  0  0  0  0  0  0  0
  152.5700  143.8050  158.6026 C   0  0  0  0  0  0  0  0  0  0  0  0
  152.1424  145.0520  158.9575 C   0  0  0  0  0  0  0  0  0  0  0  0
  151.4895  144.8426  160.2035 C   0  0  0  0  0  0  0  0  0  0  0  0
  151.5149  143.5765  160.5846 N   0  0  0  0  0  0  0  0  0  0  0  0
  154.0881  140.0997  159.9476 H   0  0  0  0  0  0  0  0  0  0  0  0
  154.3497  141.6667  160.6989 H   0  0  0  0  0  0  0  0  0  0  0  0
  154.5094  141.4897  158.9552 H   0  0  0  0  0  0  0  0  0  0  0  0
  151.9359  141.1371  160.5804 H   0  0  0  0  0  0  0  0  0  0  0  0
  149.9728  141.4672  159.0270 H   0  0  0  0  0  0  0  0  0  0  0  0
  149.7827  139.2725  157.2277 H   0  0  0  0  0  0  0  0  0  0  0  0
  150.1124  142.0358  155.9554 H   0  0  0  0  0  0  0  0  0  0  0  0
  151.1326  140.6448  155.6805 H   0  0  0  0  0  0  0  0  0  0  0  0
  149.5299  140.9622  153.8406 H   0  0  0  0  0  0  0  0  0  0  0  0
  149.2513  139.4173  154.6162 H   0  0  0  0  0  0  0  0  0  0  0  0
  145.8772  140.9561  154.1424 H   0  0  0  0  0  0  0  0  0  0  0  0
  147.2164  141.0029  153.0192 H   0  0  0  0  0  0  0  0  0  0  0  0
  147.2538  137.5946  152.3076 H   0  0  0  0  0  0  0  0  0  0  0  0
  147.7861  139.2174  151.9198 H   0  0  0  0  0  0  0  0  0  0  0  0
  146.2878  140.4924  156.4712 H   0  0  0  0  0  0  0  0  0  0  0  0
  147.3658  139.1422  156.1754 H   0  0  0  0  0  0  0  0  0  0  0  0
  147.8284  140.1934  158.3865 H   0  0  0  0  0  0  0  0  0  0  0  0
  148.0503  141.7526  157.6290 H   0  0  0  0  0  0  0  0  0  0  0  0
  153.1246  143.4710  157.7380 H   0  0  0  0  0  0  0  0  0  0  0  0
  152.2805  145.9745  158.4136 H   0  0  0  0  0  0  0  0  0  0  0  0
  151.0068  145.5685  160.8407 H   0  0  0  0  0  0  0  0  0  0  0  0
  1  2  1  0  0  0  0
  1 21  1  0  0  0  0
  1 22  1  0  0  0  0
  1 23  1  0  0  0  0
  2  3  1  0  0  0  0
  2 16  1  0  0  0  0
  2 24  1  0  0  0  0
  3  4  2  0  0  0  0
  3  5  1  0  0  0  0
  5  6  1  0  0  0  0
  5 25  1  0  0  0  0
  6 15  1  0  0  0  0
  6  7  1  0  0  0  0
  6 26  1  0  0  0  0
  7  8  1  0  0  0  0
  7 27  1  0  0  0  0
  7 28  1  0  0  0  0
  8  9  1  0  0  0  0
  8 29  1  0  0  0  0
  8 30  1  0  0  0  0
  9 10  1  0  0  0  0
  9 14  1  0  0  0  0
 10 11  1  0  0  0  0
 10 31  1  0  0  0  0
 10 32  1  0  0  0  0
 11 12  1  0  0  0  0
 11 13  2  0  0  0  0
 12 33  1  0  0  0  0
 12 34  1  0  0  0  0
 14 15  1  0  0  0  0
 14 35  1  0  0  0  0
 14 36  1  0  0  0  0
 15 37  1  0  0  0  0
 15 38  1  0  0  0  0
 16 20  1  0  0  0  0
 16 17  1  0  0  0  0
 17 18  2  0  0  0  0
 17 39  1  0  0  0  0
 18 19  1  0  0  0  0
 18 40  1  0  0  0  0
 19 20  2  0  0  0  0
 19 41  1  0  0  0  0
M  END
> <s_m_source_file>
AV-unprocessed.smi

> <i_m_source_file_index>
560

> <i_lp_mmshare_version>
43012

> <i_f3d_flags>
0

> <s_epik_input>
bjFbY0hdW2NIXVtjSF1uMVtDQEhdKFtDSDNdKUMoPU8pW05IXVtDSF0yW0NIMl1bQ0gyXU4oW0NIMl1bQ0gyXTIpW0NIMl1DKD1PKVtOSDJd

> <s_epik_cmdline>
J2VwaWtfcHl0aG9uJywgJy1waCcsICc3LjAnLCAnLXRuJywgJzgnLCAnLW1hJywgJzIwMCcsICctbWV0YWxfYmluZGluZycsICctaW1hZScsICc8aW5maWxlLm1hZT4nLCAnLW9tYWUnLCAnPG91dGZpbGUubWFlPic=

> <r_lp_tautomer_probability>
1

> <r_epik_Ionization_Penalty>
0.114724

> <r_epik_Ionization_Penalty_Charging>
0

> <r_epik_Ionization_Penalty_Neutral>
0.114724

> <r_epik_State_Penalty>
0.104339

> <r_epik_Charging_Adjusted_Penalty>
0.104339

> <i_epik_Tot_Q>
0

> <i_epik_Tot_abs_Q>
0

> <r_epik_Metal_State_Penalty>
0.117437

> <b_epik_Metal_Only>
0

> <s_lp_Force_Field>
OPLS_2005

> <r_lp_Energy>
15.4208

> <b_lp_Chiralities_Consistent>
1

> <s_lp_Variant>
AV-unprocessed.smi:560-1

> <Gold.Version>
5.8.1

> <Gold.Id.Protein>
6NUR|6NUR_protein|mol2

> <Gold.PLP.Fitness>
49.6401

> <Gold.PLP.PLP>
-41.7041

> <Gold.PLP.part.hbond>
-2.7421

> <Gold.PLP.part.metal>
0.0000

> <Gold.PLP.part.buried>
-5.8183

> <Gold.PLP.part.nonpolar>
-33.9730

> <Gold.PLP.part.repulsive>
0.5656

> <Gold.PLP.ligand.clash>
0.0000

> <Gold.PLP.ligand.torsion>
0.2067

> <Gold.PLP.Chemscore.Hbond>
2.7360

> <Gold.PLP.Chemscore.CHOScore>
0.0000

> <Gold.PLP.Chemscore.Metal>
0.0000

> <Gold.Chemscore.Hbonds>
donor molecule, donor type, donor heavy atom, donor atom, acceptor molecule, acceptor atom, score
      L1  H    12    33       P1  7948  0.29
      L1  H    12    34       P1  7957  0.81
      P1  H  7997  8010       L1     4  0.71

> <Gold.PLP.Chemscore.Internal.Correction>
0.1413

> <Gold.Rescore>
     Score         DG    S(hbond)    S(metal)    S(lipo)     H(rot)  DE(clash)    DE(int)     intcor
     18.25     -18.83       2.84        0.00      87.09       2.48       0.06       0.51       ----

> <Gold.Chemscore.Fitness>
18.2549

> <Gold.Chemscore.DG>
-18.8262

> <Gold.Chemscore.ZeroCoef>
-5.4800

> <Gold.Chemscore.Hbond>
2.8434

> <Gold.Chemscore.Metal>
0.0000

> <Gold.Chemscore.Lipo>
87.0914

> <Gold.Chemscore.Internal_Hbond>
0.0000

> <Gold.Chemscore.DEClash>
0.0580

> <Gold.Chemscore.DEInternal>
0.5133

> <Gold.Chemscore.Rot>
2.4768

> <Gold.Chemscore.Internal.Correction>
   9.000000E+99

> <Gold.Chemscore.Hbonds>
donor molecule, donor type, donor heavy atom, donor atom, acceptor molecule, acceptor atom, score
      L1  H    12    33       P1  7948  0.30
      L1  H    12    34       P1  7957  0.76
      P1  H  7997  8010       L1     4  0.69

> <Gold.Chemscore.Hbond.Weighted>
-9.4971

> <Gold.Chemscore.Metal.Weighted>
-0.0000

> <Gold.Chemscore.Lipo.Weighted>
-10.1897

> <Gold.Chemscore.Internal_Hbond.Weighted>
0.0000

> <Gold.Chemscore.DEClash.Weighted>
0.0580

> <Gold.Chemscore.DEInternal.Weighted>
0.5133

> <Gold.Chemscore.Rot.Weighted>
6.3406

> <Gold.Chemscore.Internal.Correction.Weighted>
   9.000000E+99

> <Gold.Protein.RotatedTorsions>
[ 6907 6896 6895 6894 ] final   -8.63 input  -60.11 | X-H torsion
[ 7974 7965 7964 7962 ] final -172.71 input  175.53 | X-H torsion
[ 8008 7997 7996 7995 ] final   50.34 input   59.86 | X-H torsion
[ 10167 10162 10161 10158 ] final  146.18 input  -65.29 | X-H torsion
[ 10718 10713 10712 10709 ] final -160.76 input   66.30 | X-H torsion
[ 10763 10752 10751 10750 ] final   -8.15 input  -60.55 | X-H torsion
[ 11005 11000 10999 10996 ] final  140.15 input  -57.11 | X-H torsion

> <Gold.Protein.ActiveResidues>
 VAL166  LYS551  ARG553  GLY616  TRP617  ASP618  TYR619  PRO620  LYS621  CYS622 
 ASP623  PHE694  ASN695  SER759  ASP760  ASP761  ALA762  ILE779  LEU786  VAL792 
 PHE793  MET794  SER795  GLU796  ALA797  LYS798  CYS799  TRP800  GLU811  SER814 

> <Gold.Protein.RotatedAtoms>
  151.4306  135.1009  159.9640 H   0  0  0  0  0  0  0  0  0  0  0  0  # atno 6907 bound_to 6896
  152.4957  133.8621  159.7266 H   0  0  0  0  0  0  0  0  0  0  0  0  # atno 6908 bound_to 6896
  150.9158  133.6883  159.2871 H   0  0  0  0  0  0  0  0  0  0  0  0  # atno 6909 bound_to 6896
  144.7144  140.1731  143.6365 H   0  0  0  0  0  0  0  0  0  0  0  0  # atno 7974 bound_to 7965
  155.4172  140.3445  155.4268 H   0  0  0  0  0  0  0  0  0  0  0  0  # atno 8008 bound_to 7997
  156.1414  140.1543  156.8946 H   0  0  0  0  0  0  0  0  0  0  0  0  # atno 8009 bound_to 7997
  154.4974  140.0824  156.7707 H   0  0  0  0  0  0  0  0  0  0  0  0  # atno 8010 bound_to 7997
  139.4912  144.5848  151.6799 H   0  0  0  0  0  0  0  0  0  0  0  0  # atno 10167 bound_to 10162
  156.5867  130.8753  151.2879 H   0  0  0  0  0  0  0  0  0  0  0  0  # atno 10718 bound_to 10713
  153.4364  135.7013  153.6197 H   0  0  0  0  0  0  0  0  0  0  0  0  # atno 10763 bound_to 10752
  153.4591  135.3740  155.2328 H   0  0  0  0  0  0  0  0  0  0  0  0  # atno 10764 bound_to 10752
  154.8727  135.4015  154.3755 H   0  0  0  0  0  0  0  0  0  0  0  0  # atno 10765 bound_to 10752
  140.0306  134.9353  157.0655 H   0  0  0  0  0  0  0  0  0  0  0  0  # atno 11005 bound_to 11000
  145.8925  139.2384  143.1541 LP  0  0  0  0  0  0  0  0  0  0  0  0  # atno 17320 bound_to 7965
  145.9889  140.8619  143.0076 LP  0  0  0  0  0  0  0  0  0  0  0  0  # atno 17321 bound_to 7965
  140.5462  144.0499  150.6108 LP  0  0  0  0  0  0  0  0  0  0  0  0  # atno 17342 bound_to 10162
  140.3538  143.2947  152.0458 LP  0  0  0  0  0  0  0  0  0  0  0  0  # atno 17343 bound_to 10162
  157.7313  130.9699  150.1876 LP  0  0  0  0  0  0  0  0  0  0  0  0  # atno 17370 bound_to 10713
  156.2584  130.3708  149.8156 LP  0  0  0  0  0  0  0  0  0  0  0  0  # atno 17371 bound_to 10713
  140.4231  134.1859  155.7165 LP  0  0  0  0  0  0  0  0  0  0  0  0  # atno 17394 bound_to 11000
  141.1829  133.8376  157.1194 LP  0  0  0  0  0  0  0  0  0  0  0  0  # atno 17395 bound_to 11000

$$$$
