AV-unprocessed.smi:3087|AV-procd|sdf|11766|dock2
  -GOLD-   2272017143D 1   1.00000     0.00000
 Structure written by MMmdl.
 31 32  0  0  0  0  0  0  0  0  2 V2000
  153.9129  140.5635  160.5479 C   0  0  0  0  0  0  0  0  0  0  0  0
  153.1518  141.6479  159.8443 C   0  0  0  0  0  0  0  0  0  0  0  0
  153.3198  143.0560  159.9501 C   0  0  0  0  0  0  0  0  0  0  0  0
  152.3725  143.5729  159.1118 C   0  0  0  0  0  0  0  0  0  0  0  0
  152.0365  144.9965  158.8095 C   0  0  0  0  0  0  0  0  0  0  0  0
  151.7118  142.5005  158.5361 N   0  0  0  0  0  0  0  0  0  0  0  0
  150.5871  142.5108  157.6061 C   0  0  2  0  0  0  0  0  0  0  0  0
  149.3943  141.7224  158.1795 C   0  0  0  0  0  0  0  0  0  0  0  0
  148.2178  141.7376  157.1915 C   0  0  0  0  0  0  0  0  0  0  0  0
  148.6535  141.2245  155.8085 C   0  0  0  0  0  0  0  0  0  0  0  0
  149.8026  142.0041  155.2983 N   0  3  0  0  0  0  0  0  0  0  0  0
  150.9686  141.9722  156.2080 C   0  0  0  0  0  0  0  0  0  0  0  0
  152.1817  141.3230  159.0070 N   0  0  0  0  0  0  0  0  0  0  0  0
  154.6322  140.9806  161.2530 H   0  0  0  0  0  0  0  0  0  0  0  0
  154.4635  139.9470  159.8371 H   0  0  0  0  0  0  0  0  0  0  0  0
  153.2419  139.9105  161.1069 H   0  0  0  0  0  0  0  0  0  0  0  0
  154.0235  143.6050  160.5584 H   0  0  0  0  0  0  0  0  0  0  0  0
  152.5762  145.6728  159.4728 H   0  0  0  0  0  0  0  0  0  0  0  0
  150.9701  145.1826  158.9403 H   0  0  0  0  0  0  0  0  0  0  0  0
  152.3042  145.2491  157.7835 H   0  0  0  0  0  0  0  0  0  0  0  0
  150.2780  143.5489  157.4789 H   0  0  0  0  0  0  0  0  0  0  0  0
  149.6891  140.6915  158.3801 H   0  0  0  0  0  0  0  0  0  0  0  0
  149.0831  142.1484  159.1341 H   0  0  0  0  0  0  0  0  0  0  0  0
  147.4000  141.1275  157.5764 H   0  0  0  0  0  0  0  0  0  0  0  0
  147.8293  142.7529  157.1001 H   0  0  0  0  0  0  0  0  0  0  0  0
  148.9312  140.1710  155.8651 H   0  0  0  0  0  0  0  0  0  0  0  0
  147.8287  141.2995  155.0998 H   0  0  0  0  0  0  0  0  0  0  0  0
  150.0781  141.6333  154.4000 H   0  0  0  0  0  0  0  0  0  0  0  0
  151.7707  142.5711  155.7756 H   0  0  0  0  0  0  0  0  0  0  0  0
  151.3317  140.9450  156.2653 H   0  0  0  0  0  0  0  0  0  0  0  0
  149.5129  142.9644  155.1797 H   0  0  0  0  0  0  0  0  0  0  0  0
  1  2  1  0  0  0  0
  1 14  1  0  0  0  0
  1 15  1  0  0  0  0
  1 16  1  0  0  0  0
  2 13  2  0  0  0  0
  2  3  1  0  0  0  0
  3  4  2  0  0  0  0
  3 17  1  0  0  0  0
  4  5  1  0  0  0  0
  4  6  1  0  0  0  0
  5 18  1  0  0  0  0
  5 19  1  0  0  0  0
  5 20  1  0  0  0  0
  6  7  1  0  0  0  0
  6 13  1  0  0  0  0
  7 12  1  0  0  0  0
  7  8  1  0  0  0  0
  7 21  1  0  0  0  0
  8  9  1  0  0  0  0
  8 22  1  0  0  0  0
  8 23  1  0  0  0  0
  9 10  1  0  0  0  0
  9 24  1  0  0  0  0
  9 25  1  0  0  0  0
 10 11  1  0  0  0  0
 10 26  1  0  0  0  0
 10 27  1  0  0  0  0
 11 12  1  0  0  0  0
 11 28  1  0  0  0  0
 11 31  1  0  0  0  0
 12 29  1  0  0  0  0
 12 30  1  0  0  0  0
M  CHG  1  11   1
M  END
> <s_m_source_file>
AV-unprocessed.smi

> <i_m_source_file_index>
3087

> <i_lp_mmshare_version>
43012

> <i_f3d_flags>
0

> <s_epik_input>
W0NIM11jMVtjSF1jKFtDSDNdKW4objEpW0NAQEhdMltDSDJdW0NIMl1bQ0gyXVtOSF1bQ0gyXTI=

> <s_epik_cmdline>
J2VwaWtfcHl0aG9uJywgJy1waCcsICc3LjAnLCAnLXRuJywgJzgnLCAnLW1hJywgJzIwMCcsICctbWV0YWxfYmluZGluZycsICctaW1hZScsICc8aW5maWxlLm1hZT4nLCAnLW9tYWUnLCAnPG91dGZpbGUubWFlPic=

> <r_lp_tautomer_probability>
1

> <r_epik_Ionization_Penalty>
0.000855662

> <r_epik_Ionization_Penalty_Charging>
0.000651447

> <r_epik_Ionization_Penalty_Neutral>
0.000204215

> <r_epik_State_Penalty>
-0

> <r_epik_Charging_Adjusted_Penalty>
0.000651447

> <i_epik_Tot_Q>
1

> <i_epik_Tot_abs_Q>
1

> <r_epik_Metal_State_Penalty>
-0

> <b_epik_Metal_Only>
0

> <s_lp_Force_Field>
OPLS_2005

> <r_lp_Energy>
14.514

> <b_lp_Chiralities_Consistent>
1

> <s_lp_Variant>
AV-unprocessed.smi:3087-1

> <Gold.Version>
5.8.1

> <Gold.Id.Protein>
6NUR|6NUR_protein|mol2

> <Gold.PLP.Fitness>
36.9446

> <Gold.PLP.PLP>
-31.0987

> <Gold.PLP.part.hbond>
-1.0000

> <Gold.PLP.part.metal>
0.0000

> <Gold.PLP.part.buried>
-4.2006

> <Gold.PLP.part.nonpolar>
-25.2186

> <Gold.PLP.part.repulsive>
0.1957

> <Gold.PLP.ligand.clash>
0.0000

> <Gold.PLP.ligand.torsion>
0.0956

> <Gold.PLP.Chemscore.Hbond>
2.0000

> <Gold.PLP.Chemscore.CHOScore>
0.0000

> <Gold.PLP.Chemscore.Metal>
0.0000

> <Gold.Chemscore.Hbonds>
donor molecule, donor type, donor heavy atom, donor atom, acceptor molecule, acceptor atom, score
      L1  H    11    31       P1  8028  2.00

> <Gold.PLP.Chemscore.Internal.Correction>
0.0370

> <Gold.Rescore>
     Score         DG    S(hbond)    S(metal)    S(lipo)     H(rot)  DE(clash)    DE(int)     intcor
     16.17     -16.26       1.00        0.00      85.57       1.00       0.02       0.07       ----

> <Gold.Chemscore.Fitness>
16.1732

> <Gold.Chemscore.DG>
-16.2642

> <Gold.Chemscore.ZeroCoef>
-5.4800

> <Gold.Chemscore.Hbond>
0.9978

> <Gold.Chemscore.Metal>
0.0000

> <Gold.Chemscore.Lipo>
85.5679

> <Gold.Chemscore.Internal_Hbond>
0.0000

> <Gold.Chemscore.DEClash>
0.0170

> <Gold.Chemscore.DEInternal>
0.0740

> <Gold.Chemscore.Rot>
1.0000

> <Gold.Chemscore.Internal.Correction>
   9.000000E+99

> <Gold.Chemscore.Hbonds>
donor molecule, donor type, donor heavy atom, donor atom, acceptor molecule, acceptor atom, score
      L1  H    11    31       P1  8028  0.99

> <Gold.Chemscore.Hbond.Weighted>
-3.3327

> <Gold.Chemscore.Metal.Weighted>
-0.0000

> <Gold.Chemscore.Lipo.Weighted>
-10.0114

> <Gold.Chemscore.Internal_Hbond.Weighted>
0.0000

> <Gold.Chemscore.DEClash.Weighted>
0.0170

> <Gold.Chemscore.DEInternal.Weighted>
0.0740

> <Gold.Chemscore.Rot.Weighted>
2.5600

> <Gold.Chemscore.Internal.Correction.Weighted>
   9.000000E+99

> <Gold.Protein.RotatedTorsions>
[ 6907 6896 6895 6894 ] final -128.75 input  -60.11 | X-H torsion
[ 7974 7965 7964 7962 ] final  138.94 input  175.53 | X-H torsion
[ 8008 7997 7996 7995 ] final  167.29 input   59.86 | X-H torsion
[ 10167 10162 10161 10158 ] final  -74.92 input  -65.29 | X-H torsion
[ 10718 10713 10712 10709 ] final -152.35 input   66.30 | X-H torsion
[ 10763 10752 10751 10750 ] final   27.23 input  -60.55 | X-H torsion
[ 11005 11000 10999 10996 ] final   86.76 input  -57.11 | X-H torsion

> <Gold.Protein.ActiveResidues>
 VAL166  LYS551  ARG553  GLY616  TRP617  ASP618  TYR619  PRO620  LYS621  CYS622 
 ASP623  PHE694  ASN695  SER759  ASP760  ASP761  ALA762  ILE779  LEU786  VAL792 
 PHE793  MET794  SER795  GLU796  ALA797  LYS798  CYS799  TRP800  GLU811  SER814 

> <Gold.Protein.RotatedAtoms>
  150.9212  133.6878  159.2831 H   0  0  0  0  0  0  0  0  0  0  0  0  # atno 6907 bound_to 6896
  151.4332  135.1010  159.9658 H   0  0  0  0  0  0  0  0  0  0  0  0  # atno 6908 bound_to 6896
  152.4980  133.8638  159.7318 H   0  0  0  0  0  0  0  0  0  0  0  0  # atno 6909 bound_to 6896
  144.9325  139.5029  143.5611 H   0  0  0  0  0  0  0  0  0  0  0  0  # atno 7974 bound_to 7965
  156.1646  140.1621  156.8553 H   0  0  0  0  0  0  0  0  0  0  0  0  # atno 8008 bound_to 7997
  154.5195  140.0781  156.8179 H   0  0  0  0  0  0  0  0  0  0  0  0  # atno 8009 bound_to 7997
  155.3637  140.3396  155.4243 H   0  0  0  0  0  0  0  0  0  0  0  0  # atno 8010 bound_to 7997
  140.4986  143.2365  151.7789 H   0  0  0  0  0  0  0  0  0  0  0  0  # atno 10167 bound_to 10162
  156.4714  130.8260  151.2489 H   0  0  0  0  0  0  0  0  0  0  0  0  # atno 10718 bound_to 10713
  153.0569  135.6542  154.0554 H   0  0  0  0  0  0  0  0  0  0  0  0  # atno 10763 bound_to 10752
  154.0231  135.2918  155.3380 H   0  0  0  0  0  0  0  0  0  0  0  0  # atno 10764 bound_to 10752
  154.6889  135.5290  153.8432 H   0  0  0  0  0  0  0  0  0  0  0  0  # atno 10765 bound_to 10752
  139.8936  134.8377  156.2766 H   0  0  0  0  0  0  0  0  0  0  0  0  # atno 11005 bound_to 11000
  146.3253  139.8286  142.8913 LP  0  0  0  0  0  0  0  0  0  0  0  0  # atno 17320 bound_to 7965
  145.3119  141.0222  143.3550 LP  0  0  0  0  0  0  0  0  0  0  0  0  # atno 17321 bound_to 7965
  139.4867  144.4552  151.9606 LP  0  0  0  0  0  0  0  0  0  0  0  0  # atno 17342 bound_to 10162
  140.3641  144.2937  150.5929 LP  0  0  0  0  0  0  0  0  0  0  0  0  # atno 17343 bound_to 10162
  157.7491  131.0075  150.3192 LP  0  0  0  0  0  0  0  0  0  0  0  0  # atno 17370 bound_to 10713
  156.3615  130.3848  149.7248 LP  0  0  0  0  0  0  0  0  0  0  0  0  # atno 17371 bound_to 10713
  141.0066  133.7120  156.1044 LP  0  0  0  0  0  0  0  0  0  0  0  0  # atno 17394 bound_to 11000
  140.7425  134.4134  157.5553 LP  0  0  0  0  0  0  0  0  0  0  0  0  # atno 17395 bound_to 11000

$$$$
