#       Name:                AV-unprocessed.smi:1208
#       Creating user name   scv26
#       Creation time:       Fri Mar 27 04:10:15 2020


#       File generated by GOLD software.
#

@<TRIPOS>MOLECULE
AV-unprocessed.smi:1208
    44    45     1
SMALL
NO_CHARGES


@<TRIPOS>ATOM
      1 ****        -2.0764  -0.8912   2.9018 C.3            1 S1                 0.0000
      2 ****        -1.5219  -0.1516   1.6759 C.3            1 S1                 0.0000
      3 ****        -0.0624  -0.1613   1.7372 N.am           1 S1                 0.0000
      4 ****         0.7440   0.8817   1.4857 C.2            1 S1                 0.0000
      5 ****         0.3350   2.0190   1.2497 O.2            1 S1                 0.0000
      6 ****         2.2478   0.5884   1.5000 C.3            1 S1                 0.0000
      7 ****         2.7994   0.5877   0.1394 N.am           1 S1                 0.0000
      8 ****         2.7770  -0.7284  -0.4950 N.pl3          1 S1                -1.0000
      9 ****         3.1620  -0.8446  -1.7932 C.2            1 S1                 0.0000
     10 ****         3.1316  -1.9103  -2.4042 O.2            1 S1                 0.0000
     11 ****         3.6334   0.3488  -2.4758 C.2            1 S1                 0.0000
     12 ****         3.6784   1.5436  -1.8541 C.2            1 S1                 0.0000
     13 ****         3.2484   1.7208  -0.4722 C.2            1 S1                 0.0000
     14 ****         3.2754   2.8123   0.0960 O.2            1 S1                 0.0000
     15 ****        -2.0014  -0.7899   0.3547 C.3            1 S1                 0.0000
     16 ****        -1.4586  -0.1384  -0.9203 C.3            1 S1                 0.0000
     17 ****        -2.4989  -0.5451  -1.9370 C.3            1 S1                 0.0000
     18 ****        -3.7851  -0.4379  -1.1233 C.3            1 S1                 0.0000
     19 ****        -3.4188  -0.6876   0.2320 O.3            1 S1                 0.0000
     20 ****        -3.1665  -0.8786   2.9089 H              1 S1                 0.0000
     21 ****        -1.7378  -0.4250   3.8276 H              1 S1                 0.0000
     22 ****        -1.7563  -1.9336   2.9159 H              1 S1                 0.0000
     23 ****        -1.8875   0.8759   1.7167 H              1 S1                 0.0000
     24 ****         0.3761  -1.0533   1.9159 H              1 S1                 0.0000
     25 ****         2.7477   1.3305   2.1247 H              1 S1                 0.0000
     26 ****         2.4375  -0.3716   1.9845 H              1 S1                 0.0000
     27 ****         3.9582   0.2748  -3.5032 H              1 S1                 0.0000
     28 ****         4.0381   2.4032  -2.3998 H              1 S1                 0.0000
     29 ****        -1.7454  -1.8509   0.3394 H              1 S1                 0.0000
     30 ****        -1.4397   0.9481  -0.8217 H              1 S1                 0.0000
     31 ****        -0.4540  -0.4759  -1.1787 H              1 S1                 0.0000
     32 ****        -2.5015   0.0848  -2.8269 H              1 S1                 0.0000
     33 ****        -2.3328  -1.5775  -2.2477 H              1 S1                 0.0000
     34 ****        -4.1947   0.5707  -1.1882 H              1 S1                 0.0000
     35 ****        -4.5497  -1.1363  -1.4643 H              1 S1                 0.0000
     36 ****        -0.6476   2.2046   1.2383 LP             1 S1                 0.0000
     37 ****         0.9854   2.7568   1.0694 LP             1 S1                 0.0000
     38 ****         2.4821  -1.5336   0.0196 LP             1 S1                 0.0000
     39 ****         2.8134  -2.7404  -1.9462 LP             1 S1                 0.0000
     40 ****         3.4250  -1.9475  -3.3595 LP             1 S1                 0.0000
     41 ****         2.9604   2.8915   1.0418 LP             1 S1                 0.0000
     42 ****         3.6123   3.6198  -0.3882 LP             1 S1                 0.0000
     43 ****        -3.7455   0.0638   0.8052 LP             1 S1                 0.0000
     44 ****        -3.8381  -1.5438   0.5340 LP             1 S1                 0.0000
@<TRIPOS>BOND
    1    1    2 1     
    2    1   20 1     
    3    1   21 1     
    4    1   22 1     
    5    2    3 1     
    6    2   15 1     
    7    2   23 1     
    8    3    4 am    
    9    3   24 1     
   10    4    5 2     
   11    4    6 1     
   12    6   25 1     
   13    6   26 1     
   14    6    7 1     
   15    7    8 1     
   16    7   13 am    
   17    8    9 1     
   18    9   10 2     
   19    9   11 1     
   20   11   27 1     
   21   11   12 2     
   22   12   28 1     
   23   12   13 1     
   24   13   14 2     
   25   15   19 1     
   26   15   16 1     
   27   15   29 1     
   28   16   17 1     
   29   16   30 1     
   30   16   31 1     
   31   17   18 1     
   32   17   32 1     
   33   17   33 1     
   34   18   19 1     
   35   18   34 1     
   36   18   35 1     
   37    5   36 1     
   38    5   37 1     
   39    8   38 1     
   40   10   39 1     
   41   10   40 1     
   42   14   41 1     
   43   14   42 1     
   44   19   43 1     
   45   19   44 1     
@<TRIPOS>SUBSTRUCTURE
      1 S1             1
@<TRIPOS>SET
LONE_PAIRS      STATIC     ATOMS    <user>   **** ""
9 36 37 38 39 40 41 42 43 44
DONOR_HYDROGENS      STATIC     ATOMS    <user>   **** ""
1 24
ATOM$BLUE        STATIC     ATOMS    COLORGROUP SYSTEM
9 36 37 38 39 40 41 42 43 44
ATOM$RED        STATIC     ATOMS    COLORGROUP SYSTEM
1 24
