AV-unprocessed.smi:1913|AV-procd|sdf|7754|dock3
  -GOLD-   22720 9493D 1   1.00000     0.00000
 Structure written by MMmdl.
 41 43  0  0  0  0  0  0  0  0  2 V2000
  151.4170  145.3850  160.5657 C   0  0  0  0  0  0  0  0  0  0  0  0
  151.3300  144.5926  159.3905 O   0  0  0  0  0  0  0  0  0  0  0  0
  151.8781  143.3285  159.4193 C   0  0  0  0  0  0  0  0  0  0  0  0
  152.7183  142.8475  160.4504 C   0  0  0  0  0  0  0  0  0  0  0  0
  153.2256  141.5362  160.4034 C   0  0  0  0  0  0  0  0  0  0  0  0
  152.9084  140.6719  159.3264 C   0  0  0  0  0  0  0  0  0  0  0  0
  153.3588  139.3698  159.2439 O   0  0  0  0  0  0  0  0  0  0  0  0
  154.2310  138.8907  160.2562 C   0  0  0  0  0  0  0  0  0  0  0  0
  152.0740  141.1536  158.2874 C   0  0  0  0  0  0  0  0  0  0  0  0
  151.6775  140.2455  157.1237 C   0  0  2  0  0  0  0  0  0  0  0  0
  152.7857  139.5782  156.5546 O   0  0  0  0  0  0  0  0  0  0  0  0
  150.9561  141.0138  155.9964 C   0  0  0  0  0  0  0  0  0  0  0  0
  150.2070  140.1244  155.0975 N   0  0  0  0  0  0  0  0  0  0  0  0
  150.5775  138.9344  154.5521 C   0  0  0  0  0  0  0  0  0  0  0  0
  149.5292  138.4749  153.8148 N   0  3  0  0  0  0  0  0  0  0  0  0
  148.4730  139.3853  153.8878 C   0  0  0  0  0  0  0  0  0  0  0  0
  147.2042  139.3548  153.3177 C   0  0  0  0  0  0  0  0  0  0  0  0
  146.3586  140.4485  153.5960 C   0  0  0  0  0  0  0  0  0  0  0  0
  146.7846  141.5174  154.4110 C   0  0  0  0  0  0  0  0  0  0  0  0
  148.0739  141.5388  154.9817 C   0  0  0  0  0  0  0  0  0  0  0  0
  148.9036  140.4523  154.7046 C   0  0  0  0  0  0  0  0  0  0  0  0
  151.5677  142.4713  158.3472 C   0  0  0  0  0  0  0  0  0  0  0  0
  150.9385  146.3478  160.3868 H   0  0  0  0  0  0  0  0  0  0  0  0
  152.4546  145.5788  160.8408 H   0  0  0  0  0  0  0  0  0  0  0  0
  150.9029  144.9118  161.4034 H   0  0  0  0  0  0  0  0  0  0  0  0
  152.9879  143.4654  161.2933 H   0  0  0  0  0  0  0  0  0  0  0  0
  153.8592  141.2161  161.2163 H   0  0  0  0  0  0  0  0  0  0  0  0
  154.4342  137.8342  160.0829 H   0  0  0  0  0  0  0  0  0  0  0  0
  153.7795  138.9799  161.2455 H   0  0  0  0  0  0  0  0  0  0  0  0
  155.1862  139.4171  160.2424 H   0  0  0  0  0  0  0  0  0  0  0  0
  151.0223  139.4549  157.4896 H   0  0  0  0  0  0  0  0  0  0  0  0
  152.7654  138.6746  156.8312 H   0  0  0  0  0  0  0  0  0  0  0  0
  150.2926  141.7832  156.3921 H   0  0  0  0  0  0  0  0  0  0  0  0
  151.6885  141.5324  155.3759 H   0  0  0  0  0  0  0  0  0  0  0  0
  151.5276  138.4387  154.6895 H   0  0  0  0  0  0  0  0  0  0  0  0
  146.8748  138.5366  152.6942 H   0  0  0  0  0  0  0  0  0  0  0  0
  145.3634  140.4681  153.1763 H   0  0  0  0  0  0  0  0  0  0  0  0
  146.1087  142.3379  154.6038 H   0  0  0  0  0  0  0  0  0  0  0  0
  148.3854  142.3604  155.6094 H   0  0  0  0  0  0  0  0  0  0  0  0
  150.9170  142.8336  157.5646 H   0  0  0  0  0  0  0  0  0  0  0  0
  149.5365  137.6022  153.3027 H   0  0  0  0  0  0  0  0  0  0  0  0
  1  2  1  0  0  0  0
  1 23  1  0  0  0  0
  1 24  1  0  0  0  0
  1 25  1  0  0  0  0
  2  3  1  0  0  0  0
  3 22  1  0  0  0  0
  3  4  2  0  0  0  0
  4  5  1  0  0  0  0
  4 26  1  0  0  0  0
  5  6  2  0  0  0  0
  5 27  1  0  0  0  0
  6  7  1  0  0  0  0
  6  9  1  0  0  0  0
  7  8  1  0  0  0  0
  8 28  1  0  0  0  0
  8 29  1  0  0  0  0
  8 30  1  0  0  0  0
  9 10  1  0  0  0  0
  9 22  2  0  0  0  0
 10 11  1  0  0  0  0
 10 12  1  0  0  0  0
 10 31  1  0  0  0  0
 11 32  1  0  0  0  0
 12 13  1  0  0  0  0
 12 33  1  0  0  0  0
 12 34  1  0  0  0  0
 13 21  1  0  0  0  0
 13 14  1  0  0  0  0
 14 15  2  0  0  0  0
 14 35  1  0  0  0  0
 15 16  1  0  0  0  0
 15 41  1  0  0  0  0
 16 21  2  0  0  0  0
 16 17  1  0  0  0  0
 17 18  2  0  0  0  0
 17 36  1  0  0  0  0
 18 19  1  0  0  0  0
 18 37  1  0  0  0  0
 19 20  2  0  0  0  0
 19 38  1  0  0  0  0
 20 21  1  0  0  0  0
 20 39  1  0  0  0  0
 22 40  1  0  0  0  0
M  CHG  1  15   1
M  END
> <s_m_source_file>
AV-unprocessed.smi

> <i_m_source_file_index>
1913

> <i_lp_mmshare_version>
43012

> <i_f3d_flags>
0

> <s_epik_input>
W0NIM11PYzFbY0hdW2NIXWMoT1tDSDNdKWMoW2NIXTEpW0NASF0oW09IXSlbQ0gyXW4oW2NIXW4yKWMoYzIzKVtjSF1bY0hdW2NIXVtjSF0z

> <s_epik_cmdline>
J2VwaWtfcHl0aG9uJywgJy1waCcsICc3LjAnLCAnLXRuJywgJzgnLCAnLW1hJywgJzIwMCcsICctbWV0YWxfYmluZGluZycsICctaW1hZScsICc8aW5maWxlLm1hZT4nLCAnLW9tYWUnLCAnPG91dGZpbGUubWFlPic=

> <r_lp_tautomer_probability>
1

> <r_epik_Ionization_Penalty>
1.3029

> <r_epik_Ionization_Penalty_Charging>
1.3029

> <r_epik_Ionization_Penalty_Neutral>
1.34362e-06

> <r_epik_State_Penalty>
1.377

> <r_epik_Charging_Adjusted_Penalty>
2.6799

> <i_epik_Tot_Q>
1

> <i_epik_Tot_abs_Q>
1

> <r_epik_Metal_State_Penalty>
5.40879

> <b_epik_Metal_Only>
0

> <s_lp_Force_Field>
OPLS_2005

> <r_lp_Energy>
23.3485

> <b_lp_Chiralities_Consistent>
1

> <s_lp_Variant>
AV-unprocessed.smi:1913-3

> <Gold.Version>
5.8.1

> <Gold.Id.Protein>
6NUR|6NUR_protein|mol2

> <Gold.PLP.Fitness>
57.5176

> <Gold.PLP.PLP>
-49.7793

> <Gold.PLP.part.hbond>
-2.6514

> <Gold.PLP.part.metal>
0.0000

> <Gold.PLP.part.buried>
1.1254

> <Gold.PLP.part.nonpolar>
-47.0839

> <Gold.PLP.part.repulsive>
0.1186

> <Gold.PLP.ligand.clash>
0.0000

> <Gold.PLP.ligand.torsion>
0.6746

> <Gold.PLP.Chemscore.Hbond>
3.0000

> <Gold.PLP.Chemscore.CHOScore>
0.0000

> <Gold.PLP.Chemscore.Metal>
0.0000

> <Gold.Chemscore.Hbonds>
donor molecule, donor type, donor heavy atom, donor atom, acceptor molecule, acceptor atom, score
      L1  H    15    41       P1  7948  1.95
      P1  H  7997  8009       L1    11  1.00

> <Gold.PLP.Chemscore.Internal.Correction>
0.0875

> <Gold.Rescore>
     Score         DG    S(hbond)    S(metal)    S(lipo)     H(rot)  DE(clash)    DE(int)     intcor
     19.40     -19.95       1.87        0.00     122.92       2.41       0.16       0.39       ----

> <Gold.Chemscore.Fitness>
19.3994

> <Gold.Chemscore.DG>
-19.9508

> <Gold.Chemscore.ZeroCoef>
-5.4800

> <Gold.Chemscore.Hbond>
1.8745

> <Gold.Chemscore.Metal>
0.0000

> <Gold.Chemscore.Lipo>
122.9236

> <Gold.Chemscore.Internal_Hbond>
0.0000

> <Gold.Chemscore.DEClash>
0.1621

> <Gold.Chemscore.DEInternal>
0.3894

> <Gold.Chemscore.Rot>
2.4109

> <Gold.Chemscore.Internal.Correction>
   9.000000E+99

> <Gold.Chemscore.Hbonds>
donor molecule, donor type, donor heavy atom, donor atom, acceptor molecule, acceptor atom, score
      L1  H    15    41       P1  7948  0.81
      P1  H  7997  8009       L1    11  0.60

> <Gold.Chemscore.Hbond.Weighted>
-6.2608

> <Gold.Chemscore.Metal.Weighted>
-0.0000

> <Gold.Chemscore.Lipo.Weighted>
-14.3821

> <Gold.Chemscore.Internal_Hbond.Weighted>
0.0000

> <Gold.Chemscore.DEClash.Weighted>
0.1621

> <Gold.Chemscore.DEInternal.Weighted>
0.3894

> <Gold.Chemscore.Rot.Weighted>
6.1720

> <Gold.Chemscore.Internal.Correction.Weighted>
   9.000000E+99

> <Gold.Protein.RotatedTorsions>
[ 6907 6896 6895 6894 ] final -153.17 input  -60.11 | X-H torsion
[ 7974 7965 7964 7962 ] final   29.79 input  175.53 | X-H torsion
[ 8008 7997 7996 7995 ] final  177.78 input   59.86 | X-H torsion
[ 10167 10162 10161 10158 ] final -132.63 input  -65.29 | X-H torsion
[ 10718 10713 10712 10709 ] final    9.16 input   66.30 | X-H torsion
[ 10763 10752 10751 10750 ] final  122.17 input  -60.55 | X-H torsion
[ 11005 11000 10999 10996 ] final   -4.27 input  -57.11 | X-H torsion

> <Gold.Protein.ActiveResidues>
 VAL166  LYS551  ARG553  GLY616  TRP617  ASP618  TYR619  PRO620  LYS621  CYS622 
 ASP623  PHE694  ASN695  SER759  ASP760  ASP761  ALA762  ILE779  LEU786  VAL792 
 PHE793  MET794  SER795  GLU796  ALA797  LYS798  CYS799  TRP800  GLU811  SER814 

> <Gold.Protein.RotatedAtoms>
  151.2386  133.4412  159.2606 H   0  0  0  0  0  0  0  0  0  0  0  0  # atno 6907 bound_to 6896
  151.0727  134.9808  159.8327 H   0  0  0  0  0  0  0  0  0  0  0  0  # atno 6908 bound_to 6896
  152.5414  134.2330  159.8885 H   0  0  0  0  0  0  0  0  0  0  0  0  # atno 6909 bound_to 6896
  146.1651  139.6875  142.9007 H   0  0  0  0  0  0  0  0  0  0  0  0  # atno 7974 bound_to 7965
  156.0619  140.1350  156.9931 H   0  0  0  0  0  0  0  0  0  0  0  0  # atno 8008 bound_to 7997
  154.4486  140.0990  156.6600 H   0  0  0  0  0  0  0  0  0  0  0  0  # atno 8009 bound_to 7997
  155.5365  140.3460  155.4439 H   0  0  0  0  0  0  0  0  0  0  0  0  # atno 8010 bound_to 7997
  139.9065  143.6545  152.2584 H   0  0  0  0  0  0  0  0  0  0  0  0  # atno 10167 bound_to 10162
  156.9623  130.5937  149.5663 H   0  0  0  0  0  0  0  0  0  0  0  0  # atno 10718 bound_to 10713
  153.6256  135.3405  155.3025 H   0  0  0  0  0  0  0  0  0  0  0  0  # atno 10763 bound_to 10752
  154.8591  135.4283  154.2160 H   0  0  0  0  0  0  0  0  0  0  0  0  # atno 10764 bound_to 10752
  153.3044  135.7027  153.7246 H   0  0  0  0  0  0  0  0  0  0  0  0  # atno 10765 bound_to 10752
  140.6784  133.9175  155.8539 H   0  0  0  0  0  0  0  0  0  0  0  0  # atno 11005 bound_to 11000
  145.4489  141.0427  143.2815 LP  0  0  0  0  0  0  0  0  0  0  0  0  # atno 17320 bound_to 7965
  144.8080  139.6014  143.7042 LP  0  0  0  0  0  0  0  0  0  0  0  0  # atno 17321 bound_to 7965
  139.6979  144.7639  151.1324 LP  0  0  0  0  0  0  0  0  0  0  0  0  # atno 17342 bound_to 10162
  140.7695  143.5498  150.9218 LP  0  0  0  0  0  0  0  0  0  0  0  0  # atno 17343 bound_to 10162
  156.0317  130.5408  150.8551 LP  0  0  0  0  0  0  0  0  0  0  0  0  # atno 17370 bound_to 10713
  157.5649  131.0946  150.9504 LP  0  0  0  0  0  0  0  0  0  0  0  0  # atno 17371 bound_to 10713
  141.0337  134.0720  157.3985 LP  0  0  0  0  0  0  0  0  0  0  0  0  # atno 17394 bound_to 11000
  139.8959  135.0143  156.7026 LP  0  0  0  0  0  0  0  0  0  0  0  0  # atno 17395 bound_to 11000

$$$$
