AV-unprocessed.smi:1225|AV-procd|sdf|5139|dock1
  -GOLD-   22720 4203D 1   1.00000     0.00000
 Structure written by MMmdl.
 49 51  0  0  0  0  0  0  0  0  2 V2000
  154.1857  136.9069  163.9482 C   0  0  0  0  0  0  0  0  0  0  0  0
  154.2808  137.5940  162.6292 C   0  0  0  0  0  0  0  0  0  0  0  0
  154.8664  138.7808  162.4544 N   0  0  0  0  0  0  0  0  0  0  0  0
  154.8220  139.2064  161.1249 C   0  0  0  0  0  0  0  0  0  0  0  0
  154.1955  138.3240  160.2797 C   0  0  0  0  0  0  0  0  0  0  0  0
  153.9769  138.4739  158.8075 C   0  0  0  0  0  0  0  0  0  0  0  0
  153.3146  137.3254  158.1866 N   0  0  0  0  0  0  0  0  0  0  0  0
  154.1557  136.1315  158.2643 C   0  0  0  0  0  0  0  0  0  0  0  0
  152.9420  137.6385  156.8028 C   0  0  0  0  0  0  0  0  0  0  0  0
  152.4993  139.0896  156.5078 C   0  0  1  0  0  0  0  0  0  0  0  0
  152.1810  139.2512  155.1394 O   0  0  0  0  0  0  0  0  0  0  0  0
  151.3626  139.6050  157.4164 C   0  0  0  0  0  0  0  0  0  0  0  0
  151.0529  141.0227  157.1897 N   0  0  0  0  0  0  0  0  0  0  0  0
  150.4241  141.6247  156.1439 C   0  0  0  0  0  0  0  0  0  0  0  0
  150.3847  142.9610  156.4038 N   0  3  0  0  0  0  0  0  0  0  0  0
  150.9937  143.2145  157.6350 C   0  0  0  0  0  0  0  0  0  0  0  0
  151.1986  144.4047  158.3228 C   0  0  0  0  0  0  0  0  0  0  0  0
  151.8590  144.3236  159.5698 C   0  0  0  0  0  0  0  0  0  0  0  0
  152.1033  145.6069  160.3455 C   0  0  0  0  0  0  0  0  0  0  0  0
  152.2888  143.0745  160.0889 C   0  0  0  0  0  0  0  0  0  0  0  0
  152.9968  142.9989  161.4311 C   0  0  0  0  0  0  0  0  0  0  0  0
  152.0708  141.8752  159.3738 C   0  0  0  0  0  0  0  0  0  0  0  0
  151.4211  141.9740  158.1462 C   0  0  0  0  0  0  0  0  0  0  0  0
  153.6255  136.9180  161.1432 S   0  0  0  0  0  0  0  0  0  0  0  0
  154.7864  137.4253  164.6962 H   0  0  0  0  0  0  0  0  0  0  0  0
  154.5456  135.8816  163.8613 H   0  0  0  0  0  0  0  0  0  0  0  0
  153.1488  136.8879  164.2837 H   0  0  0  0  0  0  0  0  0  0  0  0
  155.2663  140.1559  160.8649 H   0  0  0  0  0  0  0  0  0  0  0  0
  153.3737  139.3691  158.6512 H   0  0  0  0  0  0  0  0  0  0  0  0
  154.9293  138.6646  158.3107 H   0  0  0  0  0  0  0  0  0  0  0  0
  153.6351  135.2544  157.8831 H   0  0  0  0  0  0  0  0  0  0  0  0
  154.4284  135.9054  159.2953 H   0  0  0  0  0  0  0  0  0  0  0  0
  155.0752  136.2594  157.6920 H   0  0  0  0  0  0  0  0  0  0  0  0
  153.8147  137.4590  156.1735 H   0  0  0  0  0  0  0  0  0  0  0  0
  152.1841  136.9377  156.4491 H   0  0  0  0  0  0  0  0  0  0  0  0
  153.3741  139.7202  156.6682 H   0  0  0  0  0  0  0  0  0  0  0  0
  152.4677  138.4814  154.6730 H   0  0  0  0  0  0  0  0  0  0  0  0
  150.4438  139.0443  157.2407 H   0  0  0  0  0  0  0  0  0  0  0  0
  151.6118  139.4688  158.4695 H   0  0  0  0  0  0  0  0  0  0  0  0
  150.0318  141.1319  155.2655 H   0  0  0  0  0  0  0  0  0  0  0  0
  150.8687  145.3518  157.9215 H   0  0  0  0  0  0  0  0  0  0  0  0
  153.1724  145.7741  160.4801 H   0  0  0  0  0  0  0  0  0  0  0  0
  151.6334  145.5577  161.3282 H   0  0  0  0  0  0  0  0  0  0  0  0
  151.6936  146.4726  159.8239 H   0  0  0  0  0  0  0  0  0  0  0  0
  153.2757  141.9740  161.6783 H   0  0  0  0  0  0  0  0  0  0  0  0
  152.3493  143.3685  162.2267 H   0  0  0  0  0  0  0  0  0  0  0  0
  153.9078  143.5974  161.4185 H   0  0  0  0  0  0  0  0  0  0  0  0
  152.3981  140.9242  159.7674 H   0  0  0  0  0  0  0  0  0  0  0  0
  149.9711  143.6467  155.7850 H   0  0  0  0  0  0  0  0  0  0  0  0
  1  2  1  0  0  0  0
  1 25  1  0  0  0  0
  1 26  1  0  0  0  0
  1 27  1  0  0  0  0
  2 24  1  0  0  0  0
  2  3  2  0  0  0  0
  3  4  1  0  0  0  0
  4  5  2  0  0  0  0
  4 28  1  0  0  0  0
  5  6  1  0  0  0  0
  5 24  1  0  0  0  0
  6  7  1  0  0  0  0
  6 29  1  0  0  0  0
  6 30  1  0  0  0  0
  7  8  1  0  0  0  0
  7  9  1  0  0  0  0
  8 31  1  0  0  0  0
  8 32  1  0  0  0  0
  8 33  1  0  0  0  0
  9 10  1  0  0  0  0
  9 34  1  0  0  0  0
  9 35  1  0  0  0  0
 10 11  1  0  0  0  0
 10 12  1  0  0  0  0
 10 36  1  0  0  0  0
 11 37  1  0  0  0  0
 12 13  1  0  0  0  0
 12 38  1  0  0  0  0
 12 39  1  0  0  0  0
 13 23  1  0  0  0  0
 13 14  1  0  0  0  0
 14 15  2  0  0  0  0
 14 40  1  0  0  0  0
 15 16  1  0  0  0  0
 15 49  1  0  0  0  0
 16 23  2  0  0  0  0
 16 17  1  0  0  0  0
 17 18  2  0  0  0  0
 17 41  1  0  0  0  0
 18 19  1  0  0  0  0
 18 20  1  0  0  0  0
 19 42  1  0  0  0  0
 19 43  1  0  0  0  0
 19 44  1  0  0  0  0
 20 21  1  0  0  0  0
 20 22  2  0  0  0  0
 21 45  1  0  0  0  0
 21 46  1  0  0  0  0
 21 47  1  0  0  0  0
 22 23  1  0  0  0  0
 22 48  1  0  0  0  0
M  CHG  1  15   1
M  END
> <s_m_source_file>
AV-unprocessed.smi

> <i_m_source_file_index>
1225

> <i_lp_mmshare_version>
43012

> <i_f3d_flags>
0

> <s_epik_input>
W0NIM11jMW5bY0hdYyhzMSlbQ0gyXU4oW0NIM10pW0NIMl1bQ0BIXShbT0hdKVtDSDJdbihbY0hdbjIpYyhjMjMpW2NIXWMoW0NIM10pYyhbY0hdMylbQ0gzXQ==

> <s_epik_cmdline>
J2VwaWtfcHl0aG9uJywgJy1waCcsICc3LjAnLCAnLXRuJywgJzgnLCAnLW1hJywgJzIwMCcsICctbWV0YWxfYmluZGluZycsICctaW1hZScsICc8aW5maWxlLm1hZT4nLCAnLW9tYWUnLCAnPG91dGZpbGUubWFlPic=

> <r_epik_Ionization_Penalty>
1.25968

> <r_epik_Ionization_Penalty_Charging>
1.21782

> <r_epik_Ionization_Penalty_Neutral>
0.0418565

> <r_epik_State_Penalty>
1.29962

> <r_epik_Charging_Adjusted_Penalty>
2.51745

> <i_epik_Tot_Q>
1

> <i_epik_Tot_abs_Q>
1

> <r_epik_Metal_State_Penalty>
1.36802

> <b_epik_Metal_Only>
0

> <s_lp_Force_Field>
OPLS_2005

> <r_lp_Energy>
27.2567

> <b_lp_Chiralities_Consistent>
1

> <s_lp_Variant>
AV-unprocessed.smi:1225-4

> <Gold.Version>
5.8.1

> <Gold.Id.Protein>
6NUR|6NUR_protein|mol2

> <Gold.PLP.Fitness>
53.8159

> <Gold.PLP.PLP>
-48.2528

> <Gold.PLP.part.hbond>
-1.1029

> <Gold.PLP.part.metal>
0.0000

> <Gold.PLP.part.buried>
-6.3610

> <Gold.PLP.part.nonpolar>
-40.9363

> <Gold.PLP.part.repulsive>
0.0869

> <Gold.PLP.ligand.clash>
0.0000

> <Gold.PLP.ligand.torsion>
0.4271

> <Gold.PLP.Chemscore.Hbond>
2.0526

> <Gold.PLP.Chemscore.CHOScore>
0.0000

> <Gold.PLP.Chemscore.Metal>
0.0000

> <Gold.Chemscore.Hbonds>
donor molecule, donor type, donor heavy atom, donor atom, acceptor molecule, acceptor atom, score
      L1  H    15    49       P1  8028  1.81
      P1  H  7989  7998       L1    11  0.17

> <Gold.PLP.Chemscore.Internal.Correction>
0.2595

> <Gold.Rescore>
     Score         DG    S(hbond)    S(metal)    S(lipo)     H(rot)  DE(clash)    DE(int)     intcor
     19.03     -19.75       1.12        0.00     141.72       2.36       0.26       0.46       ----

> <Gold.Chemscore.Fitness>
19.0294

> <Gold.Chemscore.DG>
-19.7510

> <Gold.Chemscore.ZeroCoef>
-5.4800

> <Gold.Chemscore.Hbond>
1.1208

> <Gold.Chemscore.Metal>
0.0000

> <Gold.Chemscore.Lipo>
141.7220

> <Gold.Chemscore.Internal_Hbond>
0.0000

> <Gold.Chemscore.DEClash>
0.2632

> <Gold.Chemscore.DEInternal>
0.4584

> <Gold.Chemscore.Rot>
2.3649

> <Gold.Chemscore.Internal.Correction>
   9.000000E+99

> <Gold.Chemscore.Hbonds>
donor molecule, donor type, donor heavy atom, donor atom, acceptor molecule, acceptor atom, score
      L1  H    15    49       P1  8028  0.81
      P1  H  7989  7998       L1    11  0.10

> <Gold.Chemscore.Hbond.Weighted>
-3.7435

> <Gold.Chemscore.Metal.Weighted>
-0.0000

> <Gold.Chemscore.Lipo.Weighted>
-16.5815

> <Gold.Chemscore.Internal_Hbond.Weighted>
0.0000

> <Gold.Chemscore.DEClash.Weighted>
0.2632

> <Gold.Chemscore.DEInternal.Weighted>
0.4584

> <Gold.Chemscore.Rot.Weighted>
6.0540

> <Gold.Chemscore.Internal.Correction.Weighted>
   9.000000E+99

> <Gold.Protein.RotatedTorsions>
[ 6907 6896 6895 6894 ] final -106.86 input  -60.11 | X-H torsion
[ 7974 7965 7964 7962 ] final  -76.96 input  175.53 | X-H torsion
[ 8008 7997 7996 7995 ] final  120.36 input   59.86 | X-H torsion
[ 10167 10162 10161 10158 ] final -104.88 input  -65.29 | X-H torsion
[ 10718 10713 10712 10709 ] final -158.68 input   66.30 | X-H torsion
[ 10763 10752 10751 10750 ] final   17.41 input  -60.55 | X-H torsion
[ 11005 11000 10999 10996 ] final  -65.49 input  -57.11 | X-H torsion

> <Gold.Protein.ActiveResidues>
 VAL166  LYS551  ARG553  GLY616  TRP617  ASP618  TYR619  PRO620  LYS621  CYS622 
 ASP623  PHE694  ASN695  SER759  ASP760  ASP761  ALA762  ILE779  LEU786  VAL792 
 PHE793  MET794  SER795  GLU796  ALA797  LYS798  CYS799  TRP800  GLU811  SER814 

> <Gold.Protein.RotatedAtoms>
  150.7412  133.9913  159.3607 H   0  0  0  0  0  0  0  0  0  0  0  0  # atno 6907 bound_to 6896
  151.7861  135.0746  160.0390 H   0  0  0  0  0  0  0  0  0  0  0  0  # atno 6908 bound_to 6896
  152.3240  133.5848  159.5800 H   0  0  0  0  0  0  0  0  0  0  0  0  # atno 6909 bound_to 6896
  145.6060  140.9398  143.1215 H   0  0  0  0  0  0  0  0  0  0  0  0  # atno 7974 bound_to 7965
  156.2639  140.2832  156.1138 H   0  0  0  0  0  0  0  0  0  0  0  0  # atno 8008 bound_to 7997
  155.1229  140.0392  157.2772 H   0  0  0  0  0  0  0  0  0  0  0  0  # atno 8009 bound_to 7997
  154.6657  140.2576  155.7067 H   0  0  0  0  0  0  0  0  0  0  0  0  # atno 8010 bound_to 7997
  140.2045  143.3793  152.1102 H   0  0  0  0  0  0  0  0  0  0  0  0  # atno 10167 bound_to 10162
  156.5575  130.8632  151.2799 H   0  0  0  0  0  0  0  0  0  0  0  0  # atno 10718 bound_to 10713
  153.1341  135.6746  153.9131 H   0  0  0  0  0  0  0  0  0  0  0  0  # atno 10763 bound_to 10752
  153.8608  135.3081  155.3439 H   0  0  0  0  0  0  0  0  0  0  0  0  # atno 10764 bound_to 10752
  154.7733  135.4928  153.9774 H   0  0  0  0  0  0  0  0  0  0  0  0  # atno 10765 bound_to 10752
  141.1456  133.6682  156.5994 H   0  0  0  0  0  0  0  0  0  0  0  0  # atno 11005 bound_to 11000
  144.7290  139.7785  143.7354 LP  0  0  0  0  0  0  0  0  0  0  0  0  # atno 17320 bound_to 7965
  146.1540  139.4633  143.0030 LP  0  0  0  0  0  0  0  0  0  0  0  0  # atno 17321 bound_to 7965
  139.5204  144.7032  151.5432 LP  0  0  0  0  0  0  0  0  0  0  0  0  # atno 17342 bound_to 10162
  140.6367  143.8970  150.6654 LP  0  0  0  0  0  0  0  0  0  0  0  0  # atno 17343 bound_to 10162
  157.7375  130.9797  150.2198 LP  0  0  0  0  0  0  0  0  0  0  0  0  # atno 17370 bound_to 10713
  156.2829  130.3735  149.7918 LP  0  0  0  0  0  0  0  0  0  0  0  0  # atno 17371 bound_to 10713
  140.3700  134.7613  157.4592 LP  0  0  0  0  0  0  0  0  0  0  0  0  # atno 17394 bound_to 11000
  140.0718  134.5852  155.8634 LP  0  0  0  0  0  0  0  0  0  0  0  0  # atno 17395 bound_to 11000

$$$$
