#       Name:                AV-unprocessed.smi:2222
#       Creating user name   scv26
#       Creation time:       Fri Mar 27 12:20:10 2020


#       File generated by GOLD software.
#

@<TRIPOS>MOLECULE
AV-unprocessed.smi:2222
    39    40     1
SMALL
NO_CHARGES


@<TRIPOS>ATOM
      1 ****        -1.8933  -2.8488  -0.5310 C.3            1 S1                 0.0000
      2 ****        -1.1973  -1.6232  -0.3573 O.3            1 S1                 0.0000
      3 ****        -1.9360  -0.4601  -0.2579 C.ar           1 S1                 0.0000
      4 ****        -3.3526  -0.4229  -0.3131 C.ar           1 S1                 0.0000
      5 ****        -4.0162   0.8114  -0.2041 C.ar           1 S1                 0.0000
      6 ****        -3.2386   1.9716  -0.0412 C.ar           1 S1                 0.0000
      7 ****        -3.8853   3.3351   0.0829 C.3            1 S1                 0.0000
      8 ****        -1.8918   1.9490   0.0123 N.ar           1 S1                 0.0000
      9 ****        -1.2394   0.7648  -0.0921 C.ar           1 S1                 0.0000
     10 ****         0.1775   0.6576  -0.0480 N.am           1 S1                 0.0000
     11 ****         1.0939   1.6337   0.1073 C.2            1 S1                 0.0000
     12 ****         0.8289   2.8211   0.2871 O.2            1 S1                 0.0000
     13 ****         2.3681   1.2025   0.0918 N.am           1 S1                 0.0000
     14 ****         3.5618   1.9818   0.2304 C.3            1 S1                 0.0000
     15 ****         4.8194   1.2293   0.6064 C.3            1 S1                 0.0000
     16 ****         4.6699   1.7865  -0.7838 C.3            1 S1                 0.0000
     17 ****         5.5302   2.9491  -1.2285 C.3            1 S1                 0.0000
     18 ****        -1.1732  -3.6645  -0.5951 H              1 S1                 0.0000
     19 ****        -2.4752  -2.8500  -1.4537 H              1 S1                 0.0000
     20 ****        -2.5523  -3.0568   0.3130 H              1 S1                 0.0000
     21 ****        -3.9451  -1.3164  -0.4373 H              1 S1                 0.0000
     22 ****        -5.0943   0.8617  -0.2449 H              1 S1                 0.0000
     23 ****        -4.9707   3.2539   0.1453 H              1 S1                 0.0000
     24 ****        -3.6373   3.9505  -0.7822 H              1 S1                 0.0000
     25 ****        -3.5313   3.8439   0.9801 H              1 S1                 0.0000
     26 ****         0.5392  -0.2783  -0.1589 H              1 S1                 0.0000
     27 ****         2.5017   0.2030   0.0380 H              1 S1                 0.0000
     28 ****         3.4719   2.9700   0.6792 H              1 S1                 0.0000
     29 ****         5.5156   1.7250   1.2800 H              1 S1                 0.0000
     30 ****         4.7543   0.1490   0.7210 H              1 S1                 0.0000
     31 ****         4.4794   1.0593  -1.5711 H              1 S1                 0.0000
     32 ****         5.6914   3.6488  -0.4079 H              1 S1                 0.0000
     33 ****         5.0454   3.4803  -2.0474 H              1 S1                 0.0000
     34 ****         6.4991   2.5875  -1.5729 H              1 S1                 0.0000
     35 ****        -0.5829  -1.5180  -1.1392 LP             1 S1                 0.0000
     36 ****        -0.6587  -1.7047   0.4813 LP             1 S1                 0.0000
     37 ****        -1.3778   2.7989   0.1281 LP             1 S1                 0.0000
     38 ****        -0.1245   3.1202   0.3265 LP             1 S1                 0.0000
     39 ****         1.5668   3.4875   0.3938 LP             1 S1                 0.0000
@<TRIPOS>BOND
    1    1    2 1     
    2    1   18 1     
    3    1   19 1     
    4    1   20 1     
    5    2    3 1     
    6    3    9 ar    
    7    3    4 ar    
    8    4    5 ar    
    9    4   21 1     
   10    5    6 ar    
   11    5   22 1     
   12    6    7 1     
   13    6    8 ar    
   14    7   23 1     
   15    7   24 1     
   16    7   25 1     
   17    8    9 ar    
   18    9   10 1     
   19   10   11 am    
   20   10   26 1     
   21   11   12 2     
   22   11   13 am    
   23   13   14 1     
   24   13   27 1     
   25   14   16 1     
   26   14   15 1     
   27   14   28 1     
   28   15   16 1     
   29   15   29 1     
   30   15   30 1     
   31   16   17 1     
   32   16   31 1     
   33   17   32 1     
   34   17   33 1     
   35   17   34 1     
   36    2   35 1     
   37    2   36 1     
   38    8   37 1     
   39   12   38 1     
   40   12   39 1     
@<TRIPOS>SUBSTRUCTURE
      1 S1             1
@<TRIPOS>SET
LONE_PAIRS      STATIC     ATOMS    <user>   **** ""
5 35 36 37 38 39
DONOR_HYDROGENS      STATIC     ATOMS    <user>   **** ""
2 26 27
ATOM$BLUE        STATIC     ATOMS    COLORGROUP SYSTEM
5 35 36 37 38 39
ATOM$RED        STATIC     ATOMS    COLORGROUP SYSTEM
2 26 27
