AV-unprocessed.smi:2695|AV-procd|sdf|10408|dock2
  -GOLD-   2272014443D 1   1.00000     0.00000
 Structure written by MMmdl.
 41 42  0  0  0  0  0  0  0  0  2 V2000
  150.5084  142.2910  156.1410 C   0  0  0  0  0  0  0  0  0  0  0  0
  149.9894  140.9995  155.5201 C   0  0  0  0  0  0  0  0  0  0  0  0
  148.8341  140.9931  154.8193 C   0  0  0  0  0  0  0  0  0  0  0  0
  148.3499  139.8386  154.2185 C   0  0  0  0  0  0  0  0  0  0  0  0
  147.2792  139.8264  153.5719 O   0  5  0  0  0  0  0  0  0  0  0  0
  149.1295  138.7003  154.3756 C   0  0  0  0  0  0  0  0  0  0  0  0
  150.3861  138.6464  155.1124 C   0  0  0  0  0  0  0  0  0  0  0  0
  151.0444  137.6090  155.2095 O   0  0  0  0  0  0  0  0  0  0  0  0
  150.7673  139.8225  155.6860 N   0  0  0  0  0  0  0  0  0  0  0  0
  152.0042  139.8410  156.4999 C   0  0  0  0  0  0  0  0  0  0  0  0
  151.7646  140.2597  157.9579 C   0  0  0  0  0  0  0  0  0  0  0  0
  151.0788  139.5661  158.7098 O   0  0  0  0  0  0  0  0  0  0  0  0
  152.3609  141.3972  158.3450 N   0  0  0  0  0  0  0  0  0  0  0  0
  152.2967  141.9887  159.6821 C   0  0  1  0  0  0  0  0  0  0  0  0
  153.6768  141.8189  160.3673 C   0  0  0  0  0  0  0  0  0  0  0  0
  154.3208  140.4438  160.1420 C   0  0  0  0  0  0  0  0  0  0  0  0
  155.3856  140.3095  161.2343 C   0  0  0  0  0  0  0  0  0  0  0  0
  154.9593  141.2548  162.3657 C   0  0  0  0  0  0  0  0  0  0  0  0
  153.6687  141.9354  161.8964 C   0  0  0  0  0  0  0  0  0  0  0  0
  151.8253  143.4597  159.5770 C   0  0  0  0  0  0  0  0  0  0  0  0
  151.8224  144.0342  160.7803 F   0  0  0  0  0  0  0  0  0  0  0  0
  152.6439  144.1664  158.7988 F   0  0  0  0  0  0  0  0  0  0  0  0
  150.5922  143.5206  159.0729 F   0  0  0  0  0  0  0  0  0  0  0  0
  149.9650  143.1521  155.7508 H   0  0  0  0  0  0  0  0  0  0  0  0
  151.5616  142.4567  155.9154 H   0  0  0  0  0  0  0  0  0  0  0  0
  150.3713  142.2789  157.2224 H   0  0  0  0  0  0  0  0  0  0  0  0
  148.2750  141.9129  154.7216 H   0  0  0  0  0  0  0  0  0  0  0  0
  148.7909  137.7794  153.9222 H   0  0  0  0  0  0  0  0  0  0  0  0
  152.5239  138.8847  156.4923 H   0  0  0  0  0  0  0  0  0  0  0  0
  152.7316  140.5216  156.0529 H   0  0  0  0  0  0  0  0  0  0  0  0
  152.9003  141.9007  157.6559 H   0  0  0  0  0  0  0  0  0  0  0  0
  151.5634  141.4404  160.2767 H   0  0  0  0  0  0  0  0  0  0  0  0
  154.3612  142.5739  159.9763 H   0  0  0  0  0  0  0  0  0  0  0  0
  153.5722  139.6600  160.2684 H   0  0  0  0  0  0  0  0  0  0  0  0
  154.7436  140.3350  159.1425 H   0  0  0  0  0  0  0  0  0  0  0  0
  155.4781  139.2780  161.5755 H   0  0  0  0  0  0  0  0  0  0  0  0
  156.3592  140.6134  160.8478 H   0  0  0  0  0  0  0  0  0  0  0  0
  154.8076  140.7233  163.3057 H   0  0  0  0  0  0  0  0  0  0  0  0
  155.7375  142.0002  162.5352 H   0  0  0  0  0  0  0  0  0  0  0  0
  153.6117  142.9688  162.2387 H   0  0  0  0  0  0  0  0  0  0  0  0
  152.8086  141.4030  162.3052 H   0  0  0  0  0  0  0  0  0  0  0  0
  1  2  1  0  0  0  0
  1 24  1  0  0  0  0
  1 25  1  0  0  0  0
  1 26  1  0  0  0  0
  2  9  1  0  0  0  0
  2  3  2  0  0  0  0
  3  4  1  0  0  0  0
  3 27  1  0  0  0  0
  4  5  1  0  0  0  0
  4  6  2  0  0  0  0
  6  7  1  0  0  0  0
  6 28  1  0  0  0  0
  7  8  2  0  0  0  0
  7  9  1  0  0  0  0
  9 10  1  0  0  0  0
 10 11  1  0  0  0  0
 10 29  1  0  0  0  0
 10 30  1  0  0  0  0
 11 12  2  0  0  0  0
 11 13  1  0  0  0  0
 13 14  1  0  0  0  0
 13 31  1  0  0  0  0
 14 15  1  0  0  0  0
 14 20  1  0  0  0  0
 14 32  1  0  0  0  0
 15 19  1  0  0  0  0
 15 16  1  0  0  0  0
 15 33  1  0  0  0  0
 16 17  1  0  0  0  0
 16 34  1  0  0  0  0
 16 35  1  0  0  0  0
 17 18  1  0  0  0  0
 17 36  1  0  0  0  0
 17 37  1  0  0  0  0
 18 19  1  0  0  0  0
 18 38  1  0  0  0  0
 18 39  1  0  0  0  0
 19 40  1  0  0  0  0
 19 41  1  0  0  0  0
 20 21  1  0  0  0  0
 20 22  1  0  0  0  0
 20 23  1  0  0  0  0
M  CHG  1   5  -1
M  END
> <s_m_source_file>
AV-unprocessed.smi

> <i_m_source_file_index>
2695

> <i_lp_mmshare_version>
43012

> <i_f3d_flags>
0

> <s_epik_input>
W0NIM11jMVtjSF1jKFtPSF0pW2NIXWMoPU8pbjFbQ0gyXUMoPU8pW05IXVtDQEBIXShDKEYpKEYpRilbQ0hdMltDSDJdW0NIMl1bQ0gyXVtDSDJdMg==

> <s_epik_cmdline>
J2VwaWtfcHl0aG9uJywgJy1waCcsICc3LjAnLCAnLXRuJywgJzgnLCAnLW1hJywgJzIwMCcsICctbWV0YWxfYmluZGluZycsICctaW1hZScsICc8aW5maWxlLm1hZT4nLCAnLW9tYWUnLCAnPG91dGZpbGUubWFlPic=

> <r_lp_tautomer_probability>
1

> <r_epik_Ionization_Penalty>
0.176977

> <r_epik_Ionization_Penalty_Charging>
0.176977

> <r_epik_Ionization_Penalty_Neutral>
1.44272e-07

> <r_epik_State_Penalty>
0.160849

> <r_epik_Charging_Adjusted_Penalty>
0.337826

> <i_epik_Tot_Q>
-1

> <i_epik_Tot_abs_Q>
1

> <r_epik_Metal_State_Penalty>
0.16085

> <b_epik_Metal_Only>
0

> <s_lp_Force_Field>
OPLS_2005

> <r_lp_Energy>
41.7446

> <b_lp_Chiralities_Consistent>
1

> <s_lp_Variant>
AV-unprocessed.smi:2695-2

> <Gold.Version>
5.8.1

> <Gold.Id.Protein>
6NUR|6NUR_protein|mol2

> <Gold.PLP.Fitness>
47.4893

> <Gold.PLP.PLP>
-48.0424

> <Gold.PLP.part.hbond>
0.0000

> <Gold.PLP.part.metal>
0.0000

> <Gold.PLP.part.buried>
-0.0843

> <Gold.PLP.part.nonpolar>
-48.2597

> <Gold.PLP.part.repulsive>
0.3797

> <Gold.PLP.ligand.clash>
0.0000

> <Gold.PLP.ligand.torsion>
0.4255

> <Gold.PLP.Chemscore.Hbond>
0.0000

> <Gold.PLP.Chemscore.CHOScore>
0.0000

> <Gold.PLP.Chemscore.Metal>
0.0000

> <Gold.PLP.Chemscore.Internal.Correction>
0.2979

> <Gold.Rescore>
     Score         DG    S(hbond)    S(metal)    S(lipo)     H(rot)  DE(clash)    DE(int)     intcor
     12.46     -13.29       0.00        0.00     105.10       1.75       0.23       0.60       ----

> <Gold.Chemscore.Fitness>
12.4607

> <Gold.Chemscore.DG>
-13.2870

> <Gold.Chemscore.ZeroCoef>
-5.4800

> <Gold.Chemscore.Hbond>
0.0000

> <Gold.Chemscore.Metal>
0.0000

> <Gold.Chemscore.Lipo>
105.1014

> <Gold.Chemscore.Internal_Hbond>
0.0000

> <Gold.Chemscore.DEClash>
0.2257

> <Gold.Chemscore.DEInternal>
0.6005

> <Gold.Chemscore.Rot>
1.7539

> <Gold.Chemscore.Internal.Correction>
   9.000000E+99

> <Gold.Chemscore.Hbond.Weighted>
-0.0000

> <Gold.Chemscore.Metal.Weighted>
-0.0000

> <Gold.Chemscore.Lipo.Weighted>
-12.2969

> <Gold.Chemscore.Internal_Hbond.Weighted>
0.0000

> <Gold.Chemscore.DEClash.Weighted>
0.2257

> <Gold.Chemscore.DEInternal.Weighted>
0.6005

> <Gold.Chemscore.Rot.Weighted>
4.4899

> <Gold.Chemscore.Internal.Correction.Weighted>
   9.000000E+99

> <Gold.Protein.RotatedTorsions>
[ 6907 6896 6895 6894 ] final  -53.92 input  -60.11 | X-H torsion
[ 7974 7965 7964 7962 ] final -144.73 input  175.53 | X-H torsion
[ 8008 7997 7996 7995 ] final -109.10 input   59.86 | X-H torsion
[ 10167 10162 10161 10158 ] final  148.99 input  -65.29 | X-H torsion
[ 10718 10713 10712 10709 ] final -126.64 input   66.30 | X-H torsion
[ 10763 10752 10751 10750 ] final   37.55 input  -60.55 | X-H torsion
[ 11005 11000 10999 10996 ] final   51.46 input  -57.11 | X-H torsion

> <Gold.Protein.ActiveResidues>
 VAL166  LYS551  ARG553  GLY616  TRP617  ASP618  TYR619  PRO620  LYS621  CYS622 
 ASP623  PHE694  ASN695  SER759  ASP760  ASP761  ALA762  ILE779  LEU786  VAL792 
 PHE793  MET794  SER795  GLU796  ALA797  LYS798  CYS799  TRP800  GLU811  SER814 

> <Gold.Protein.RotatedAtoms>
  150.8384  134.7666  159.6911 H   0  0  0  0  0  0  0  0  0  0  0  0  # atno 6907 bound_to 6896
  152.4476  134.5459  159.9862 H   0  0  0  0  0  0  0  0  0  0  0  0  # atno 6908 bound_to 6896
  151.5604  133.3366  159.3006 H   0  0  0  0  0  0  0  0  0  0  0  0  # atno 6909 bound_to 6896
  144.8276  140.5672  143.5536 H   0  0  0  0  0  0  0  0  0  0  0  0  # atno 7974 bound_to 7965
  154.9542  140.0400  157.2159 H   0  0  0  0  0  0  0  0  0  0  0  0  # atno 8008 bound_to 7997
  154.7949  140.2842  155.5942 H   0  0  0  0  0  0  0  0  0  0  0  0  # atno 8009 bound_to 7997
  156.2954  140.2566  156.2805 H   0  0  0  0  0  0  0  0  0  0  0  0  # atno 8010 bound_to 7997
  139.4867  144.5637  151.7184 H   0  0  0  0  0  0  0  0  0  0  0  0  # atno 10167 bound_to 10162
  156.1784  130.6715  151.0272 H   0  0  0  0  0  0  0  0  0  0  0  0  # atno 10718 bound_to 10713
  153.0033  135.6274  154.2163 H   0  0  0  0  0  0  0  0  0  0  0  0  # atno 10763 bound_to 10752
  154.1906  135.2809  155.3025 H   0  0  0  0  0  0  0  0  0  0  0  0  # atno 10764 bound_to 10752
  154.5763  135.5661  153.7201 H   0  0  0  0  0  0  0  0  0  0  0  0  # atno 10765 bound_to 10752
  140.0931  134.5182  155.8833 H   0  0  0  0  0  0  0  0  0  0  0  0  # atno 11005 bound_to 11000
  145.4965  139.1485  143.3681 LP  0  0  0  0  0  0  0  0  0  0  0  0  # atno 17320 bound_to 7965
  146.2581  140.5104  142.8865 LP  0  0  0  0  0  0  0  0  0  0  0  0  # atno 17321 bound_to 7965
  140.5211  144.0877  150.6023 LP  0  0  0  0  0  0  0  0  0  0  0  0  # atno 17342 bound_to 10162
  140.3836  143.2790  152.0142 LP  0  0  0  0  0  0  0  0  0  0  0  0  # atno 17343 bound_to 10162
  157.6851  131.0827  150.7264 LP  0  0  0  0  0  0  0  0  0  0  0  0  # atno 17370 bound_to 10713
  156.7322  130.4713  149.5497 LP  0  0  0  0  0  0  0  0  0  0  0  0  # atno 17371 bound_to 10713
  141.2084  133.6673  156.6367 LP  0  0  0  0  0  0  0  0  0  0  0  0  # atno 17394 bound_to 11000
  140.3324  134.7917  157.4336 LP  0  0  0  0  0  0  0  0  0  0  0  0  # atno 17395 bound_to 11000

$$$$
