AV-unprocessed.smi:946|AV-procd|sdf|4237|dock10
  -GOLD-   22720 2153D 1   1.00000     0.00000
 Structure written by MMmdl.
 42 43  0  0  0  0  0  0  0  0  1 V2000
  148.0972  141.3566  154.2595 C   0  0  0  0  0  0  0  0  0  0  0  0
  149.5333  141.1362  154.7578 C   0  0  1  0  0  0  0  0  0  0  0  0
  149.6000  141.6089  156.1010 O   0  0  0  0  0  0  0  0  0  0  0  0
  150.8036  141.3079  156.7986 C   0  0  0  0  0  0  0  0  0  0  0  0
  150.9523  142.2818  157.9744 C   0  0  1  0  0  0  0  0  0  0  0  0
  152.0639  141.8409  158.9469 C   0  0  0  0  0  0  0  0  0  0  0  0
  152.2524  142.8796  160.0583 C   0  0  0  0  0  0  0  0  0  0  0  0
  152.4763  144.2628  159.4384 C   0  0  0  0  0  0  0  0  0  0  0  0
  151.3581  144.5852  158.4349 C   0  0  0  0  0  0  0  0  0  0  0  0
  151.2871  143.5634  157.4451 O   0  0  0  0  0  0  0  0  0  0  0  0
  149.9322  139.6530  154.6868 C   0  0  0  0  0  0  0  0  0  0  0  0
  151.0903  139.3448  154.4032 O   0  0  0  0  0  0  0  0  0  0  0  0
  148.9447  138.7721  154.9349 N   0  0  0  0  0  0  0  0  0  0  0  0
  149.0076  137.3540  154.9300 C   0  0  0  0  0  0  0  0  0  0  0  0
  150.2623  136.8091  155.2812 C   0  0  0  0  0  0  0  0  0  0  0  0
  150.4264  135.4113  155.3079 C   0  0  0  0  0  0  0  0  0  0  0  0
  149.3311  134.5921  154.9818 C   0  0  0  0  0  0  0  0  0  0  0  0
  148.1104  135.2120  154.6397 C   0  0  0  0  0  0  0  0  0  0  0  0
  146.8780  134.3982  154.2700 C   0  0  0  0  0  0  0  0  0  0  0  0
  147.1498  133.6219  153.2208 F   0  0  0  0  0  0  0  0  0  0  0  0
  146.4804  133.6201  155.2773 F   0  0  0  0  0  0  0  0  0  0  0  0
  145.8766  135.2182  153.9503 F   0  0  0  0  0  0  0  0  0  0  0  0
  147.9578  136.5555  154.6166 N   0  0  0  0  0  0  0  0  0  0  0  0
  147.9734  140.9993  153.2366 H   0  0  0  0  0  0  0  0  0  0  0  0
  147.8445  142.4172  154.2698 H   0  0  0  0  0  0  0  0  0  0  0  0
  147.3692  140.8401  154.8865 H   0  0  0  0  0  0  0  0  0  0  0  0
  150.2043  141.7299  154.1338 H   0  0  0  0  0  0  0  0  0  0  0  0
  150.7647  140.2859  157.1773 H   0  0  0  0  0  0  0  0  0  0  0  0
  151.6679  141.3798  156.1363 H   0  0  0  0  0  0  0  0  0  0  0  0
  150.0035  142.3394  158.5110 H   0  0  0  0  0  0  0  0  0  0  0  0
  151.8235  140.8706  159.3826 H   0  0  0  0  0  0  0  0  0  0  0  0
  153.0010  141.7159  158.4027 H   0  0  0  0  0  0  0  0  0  0  0  0
  151.3675  142.9006  160.6953 H   0  0  0  0  0  0  0  0  0  0  0  0
  153.0937  142.6075  160.6961 H   0  0  0  0  0  0  0  0  0  0  0  0
  152.5175  145.0239  160.2179 H   0  0  0  0  0  0  0  0  0  0  0  0
  153.4399  144.2844  158.9275 H   0  0  0  0  0  0  0  0  0  0  0  0
  150.3962  144.6858  158.9403 H   0  0  0  0  0  0  0  0  0  0  0  0
  151.5598  145.5371  157.9433 H   0  0  0  0  0  0  0  0  0  0  0  0
  148.0406  139.1663  155.1498 H   0  0  0  0  0  0  0  0  0  0  0  0
  151.0944  137.4523  155.5287 H   0  0  0  0  0  0  0  0  0  0  0  0
  151.3778  134.9751  155.5738 H   0  0  0  0  0  0  0  0  0  0  0  0
  149.4343  133.5173  154.9958 H   0  0  0  0  0  0  0  0  0  0  0  0
  1  2  1  0  0  0  0
  1 24  1  0  0  0  0
  1 25  1  0  0  0  0
  1 26  1  0  0  0  0
  2  3  1  0  0  0  0
  2 11  1  0  0  0  0
  2 27  1  0  0  0  0
  3  4  1  0  0  0  0
  4  5  1  0  0  0  0
  4 28  1  0  0  0  0
  4 29  1  0  0  0  0
  5 10  1  0  0  0  0
  5  6  1  0  0  0  0
  5 30  1  0  0  0  0
  6  7  1  0  0  0  0
  6 31  1  0  0  0  0
  6 32  1  0  0  0  0
  7  8  1  0  0  0  0
  7 33  1  0  0  0  0
  7 34  1  0  0  0  0
  8  9  1  0  0  0  0
  8 35  1  0  0  0  0
  8 36  1  0  0  0  0
  9 10  1  0  0  0  0
  9 37  1  0  0  0  0
  9 38  1  0  0  0  0
 11 12  2  0  0  0  0
 11 13  1  0  0  0  0
 13 14  1  0  0  0  0
 13 39  1  0  0  0  0
 14 23  1  0  0  0  0
 14 15  2  0  0  0  0
 15 16  1  0  0  0  0
 15 40  1  0  0  0  0
 16 17  2  0  0  0  0
 16 41  1  0  0  0  0
 17 18  1  0  0  0  0
 17 42  1  0  0  0  0
 18 19  1  0  0  0  0
 18 23  2  0  0  0  0
 19 20  1  0  0  0  0
 19 21  1  0  0  0  0
 19 22  1  0  0  0  0
M  END
> <s_m_source_file>
AV-unprocessed.smi

> <i_m_source_file_index>
946

> <i_lp_mmshare_version>
43012

> <i_f3d_flags>
0

> <s_epik_input>
TzFbQ0gyXVtDSDJdW0NIMl1bQ0gyXVtDQEhdMVtDSDJdT1tDQEBIXShbQ0gzXSlDKD1PKVtOSF1jMltjSF1bY0hdW2NIXWMobjIpQyhGKShGKUY=

> <s_epik_cmdline>
J2VwaWtfcHl0aG9uJywgJy1waCcsICc3LjAnLCAnLXRuJywgJzgnLCAnLW1hJywgJzIwMCcsICctbWV0YWxfYmluZGluZycsICctaW1hZScsICc8aW5maWxlLm1hZT4nLCAnLW9tYWUnLCAnPG91dGZpbGUubWFlPic=

> <r_lp_tautomer_probability>
1

> <r_epik_Ionization_Penalty>
1.32683e-06

> <r_epik_Ionization_Penalty_Charging>
0

> <r_epik_Ionization_Penalty_Neutral>
1.32683e-06

> <r_epik_State_Penalty>
-0

> <r_epik_Charging_Adjusted_Penalty>
0

> <i_epik_Tot_Q>
0

> <i_epik_Tot_abs_Q>
0

> <r_epik_Metal_State_Penalty>
-0

> <b_epik_Metal_Only>
0

> <s_lp_Force_Field>
OPLS_2005

> <r_lp_Energy>
14.7702

> <b_lp_Chiralities_Consistent>
1

> <s_lp_Variant>
AV-unprocessed.smi:946-4

> <Gold.Version>
5.8.1

> <Gold.Id.Protein>
6NUR|6NUR_protein|mol2

> <Gold.PLP.Fitness>
38.5649

> <Gold.PLP.PLP>
-37.7513

> <Gold.PLP.part.hbond>
-1.0000

> <Gold.PLP.part.metal>
0.0000

> <Gold.PLP.part.buried>
-4.8236

> <Gold.PLP.part.nonpolar>
-32.5710

> <Gold.PLP.part.repulsive>
1.2726

> <Gold.PLP.ligand.clash>
0.0000

> <Gold.PLP.ligand.torsion>
1.1110

> <Gold.PLP.Chemscore.Hbond>
1.0000

> <Gold.PLP.Chemscore.CHOScore>
0.0000

> <Gold.PLP.Chemscore.Metal>
0.0000

> <Gold.Chemscore.Hbonds>
donor molecule, donor type, donor heavy atom, donor atom, acceptor molecule, acceptor atom, score
      P1  H  7989  7998       L1    12  1.00

> <Gold.PLP.Chemscore.Internal.Correction>
0.0356

> <Gold.Rescore>
     Score         DG    S(hbond)    S(metal)    S(lipo)     H(rot)  DE(clash)    DE(int)     intcor
     12.90     -15.28       0.97        0.00      94.40       1.76       0.09       2.30       ----

> <Gold.Chemscore.Fitness>
12.8969

> <Gold.Chemscore.DG>
-15.2840

> <Gold.Chemscore.ZeroCoef>
-5.4800

> <Gold.Chemscore.Hbond>
0.9743

> <Gold.Chemscore.Metal>
0.0000

> <Gold.Chemscore.Lipo>
94.3969

> <Gold.Chemscore.Internal_Hbond>
0.0000

> <Gold.Chemscore.DEClash>
0.0858

> <Gold.Chemscore.DEInternal>
2.3013

> <Gold.Chemscore.Rot>
1.7557

> <Gold.Chemscore.Internal.Correction>
   9.000000E+99

> <Gold.Chemscore.Hbonds>
donor molecule, donor type, donor heavy atom, donor atom, acceptor molecule, acceptor atom, score
      P1  H  7989  7998       L1    12  0.30

> <Gold.Chemscore.Hbond.Weighted>
-3.2542

> <Gold.Chemscore.Metal.Weighted>
-0.0000

> <Gold.Chemscore.Lipo.Weighted>
-11.0444

> <Gold.Chemscore.Internal_Hbond.Weighted>
0.0000

> <Gold.Chemscore.DEClash.Weighted>
0.0858

> <Gold.Chemscore.DEInternal.Weighted>
2.3013

> <Gold.Chemscore.Rot.Weighted>
4.4946

> <Gold.Chemscore.Internal.Correction.Weighted>
   9.000000E+99

> <Gold.Protein.RotatedTorsions>
[ 6907 6896 6895 6894 ] final   26.02 input  -60.11 | X-H torsion
[ 7974 7965 7964 7962 ] final -140.08 input  175.53 | X-H torsion
[ 8008 7997 7996 7995 ] final  157.35 input   59.86 | X-H torsion
[ 10167 10162 10161 10158 ] final -144.47 input  -65.29 | X-H torsion
[ 10718 10713 10712 10709 ] final   58.76 input   66.30 | X-H torsion
[ 10763 10752 10751 10750 ] final  -81.43 input  -60.55 | X-H torsion
[ 11005 11000 10999 10996 ] final  127.15 input  -57.11 | X-H torsion

> <Gold.Protein.ActiveResidues>
 VAL166  LYS551  ARG553  GLY616  TRP617  ASP618  TYR619  PRO620  LYS621  CYS622 
 ASP623  PHE694  ASN695  SER759  ASP760  ASP761  ALA762  ILE779  LEU786  VAL792 
 PHE793  MET794  SER795  GLU796  ALA797  LYS798  CYS799  TRP800  GLU811  SER814 

> <Gold.Protein.RotatedAtoms>
  151.9813  135.0027  160.0557 H   0  0  0  0  0  0  0  0  0  0  0  0  # atno 6907 bound_to 6896
  152.1694  133.4629  159.4909 H   0  0  0  0  0  0  0  0  0  0  0  0  # atno 6908 bound_to 6896
  150.6899  134.1890  159.4321 H   0  0  0  0  0  0  0  0  0  0  0  0  # atno 6909 bound_to 6896
  144.8626  140.6243  143.5319 H   0  0  0  0  0  0  0  0  0  0  0  0  # atno 7974 bound_to 7965
  156.2369  140.1888  156.7095 H   0  0  0  0  0  0  0  0  0  0  0  0  # atno 8008 bound_to 7997
  154.6123  140.0620  156.9537 H   0  0  0  0  0  0  0  0  0  0  0  0  # atno 8009 bound_to 7997
  155.1996  140.3291  155.4348 H   0  0  0  0  0  0  0  0  0  0  0  0  # atno 8010 bound_to 7997
  139.7896  143.7984  152.2648 H   0  0  0  0  0  0  0  0  0  0  0  0  # atno 10167 bound_to 10162
  157.5622  130.8844  149.9130 H   0  0  0  0  0  0  0  0  0  0  0  0  # atno 10718 bound_to 10713
  154.5634  135.5626  153.7028 H   0  0  0  0  0  0  0  0  0  0  0  0  # atno 10763 bound_to 10752
  153.0025  135.6279  154.2213 H   0  0  0  0  0  0  0  0  0  0  0  0  # atno 10764 bound_to 10752
  154.2152  135.2872  155.2924 H   0  0  0  0  0  0  0  0  0  0  0  0  # atno 10765 bound_to 10752
  139.9493  134.9625  156.8813 H   0  0  0  0  0  0  0  0  0  0  0  0  # atno 11005 bound_to 11000
  145.4283  139.1553  143.4036 LP  0  0  0  0  0  0  0  0  0  0  0  0  # atno 17320 bound_to 7965
  146.2872  140.4398  142.8753 LP  0  0  0  0  0  0  0  0  0  0  0  0  # atno 17321 bound_to 7965
  139.8072  144.7350  150.9746 LP  0  0  0  0  0  0  0  0  0  0  0  0  # atno 17342 bound_to 10162
  140.7820  143.4286  151.0729 LP  0  0  0  0  0  0  0  0  0  0  0  0  # atno 17343 bound_to 10162
  156.0674  130.3690  150.0850 LP  0  0  0  0  0  0  0  0  0  0  0  0  # atno 17370 bound_to 10713
  156.9012  130.9621  151.3576 LP  0  0  0  0  0  0  0  0  0  0  0  0  # atno 17371 bound_to 10713
  140.5758  134.0399  155.7446 LP  0  0  0  0  0  0  0  0  0  0  0  0  # atno 17394 bound_to 11000
  141.1151  133.9553  157.2837 LP  0  0  0  0  0  0  0  0  0  0  0  0  # atno 17395 bound_to 11000

$$$$
