AV-unprocessed.smi:150|AV-procd|sdf|1242|dock5
  -GOLD-   2262018463D 1   1.00000     0.00000
 Structure written by MMmdl.
 55 57  0  0  0  0  0  0  0  0  1 V2000
  153.0837  143.7835  159.0647 C   0  0  0  0  0  0  0  0  0  0  0  0
  151.7176  144.1975  158.4901 C   0  0  0  0  0  0  0  0  0  0  0  0
  151.0667  145.2610  159.3882 C   0  0  0  0  0  0  0  0  0  0  0  0
  150.7652  142.9942  158.3014 C   0  0  0  0  0  0  0  0  0  0  0  0
  151.2491  141.9006  157.3113 C   0  0  2  0  0  0  0  0  0  0  0  0
  150.6813  142.0788  155.8810 C   0  0  0  0  0  0  0  0  0  0  0  0
  150.7228  140.8486  155.1891 O   0  0  0  0  0  0  0  0  0  0  0  0
  151.0382  140.5436  157.8437 N   0  0  0  0  0  0  0  0  0  0  0  0
  151.9874  140.0523  158.8383 C   0  0  0  0  0  0  0  0  0  0  0  0
  149.8103  139.9616  157.9144 C   0  0  0  0  0  0  0  0  0  0  0  0
  148.6946  140.6711  157.6000 N   0  0  0  0  0  0  0  0  0  0  0  0
  147.4854  140.1096  157.6841 C   0  0  0  0  0  0  0  0  0  0  0  0
  147.1657  138.8707  158.0607 N   0  0  0  0  0  0  0  0  0  0  0  0
  148.2778  138.1517  158.3852 C   0  0  0  0  0  0  0  0  0  0  0  0
  149.6240  138.6142  158.3392 C   0  0  0  0  0  0  0  0  0  0  0  0
  150.4851  137.5935  158.7263 N   0  0  0  0  0  0  0  0  0  0  0  0
  149.6945  136.5899  158.9902 C   0  0  0  0  0  0  0  0  0  0  0  0
  148.3516  136.8405  158.8221 N   0  0  0  0  0  0  0  0  0  0  0  0
  147.2580  135.9067  159.0446 C   0  0  0  0  0  0  0  0  0  0  0  0
  146.7277  135.8865  160.5004 C   0  0  0  0  0  0  0  0  0  0  0  0
  146.2260  137.1780  160.7976 O   0  0  0  0  0  0  0  0  0  0  0  0
  145.5726  134.8732  160.6333 C   0  0  0  0  0  0  0  0  0  0  0  0
  145.1287  134.6837  162.0946 C   0  0  0  0  0  0  0  0  0  0  0  0
  146.2421  134.3073  162.8956 O   0  0  0  0  0  0  0  0  0  0  0  0
  147.2497  135.3098  162.9387 C   0  0  0  0  0  0  0  0  0  0  0  0
  147.8261  135.5429  161.5308 C   0  0  0  0  0  0  0  0  0  0  0  0
  152.9719  143.2570  160.0131 H   0  0  0  0  0  0  0  0  0  0  0  0
  153.7130  144.6558  159.2433 H   0  0  0  0  0  0  0  0  0  0  0  0
  153.6309  143.1328  158.3837 H   0  0  0  0  0  0  0  0  0  0  0  0
  151.8926  144.6695  157.5243 H   0  0  0  0  0  0  0  0  0  0  0  0
  150.8660  144.8691  160.3859 H   0  0  0  0  0  0  0  0  0  0  0  0
  150.1207  145.6059  158.9698 H   0  0  0  0  0  0  0  0  0  0  0  0
  151.7120  146.1331  159.4969 H   0  0  0  0  0  0  0  0  0  0  0  0
  150.5871  142.5497  159.2815 H   0  0  0  0  0  0  0  0  0  0  0  0
  149.7958  143.3679  157.9719 H   0  0  0  0  0  0  0  0  0  0  0  0
  152.3305  142.0028  157.2286 H   0  0  0  0  0  0  0  0  0  0  0  0
  149.6692  142.4793  155.8634 H   0  0  0  0  0  0  0  0  0  0  0  0
  151.2914  142.7751  155.3083 H   0  0  0  0  0  0  0  0  0  0  0  0
  149.8947  140.4093  155.3083 H   0  0  0  0  0  0  0  0  0  0  0  0
  152.5012  139.1659  158.4667 H   0  0  0  0  0  0  0  0  0  0  0  0
  151.4865  139.7951  159.7728 H   0  0  0  0  0  0  0  0  0  0  0  0
  152.7461  140.8014  159.0658 H   0  0  0  0  0  0  0  0  0  0  0  0
  146.6553  140.7448  157.4123 H   0  0  0  0  0  0  0  0  0  0  0  0
  150.0717  135.6339  159.3232 H   0  0  0  0  0  0  0  0  0  0  0  0
  146.4521  136.1491  158.3500 H   0  0  0  0  0  0  0  0  0  0  0  0
  147.6089  134.9126  158.7641 H   0  0  0  0  0  0  0  0  0  0  0  0
  145.3485  137.0898  161.1371 H   0  0  0  0  0  0  0  0  0  0  0  0
  144.7232  135.1780  160.0203 H   0  0  0  0  0  0  0  0  0  0  0  0
  145.8957  133.9060  160.2458 H   0  0  0  0  0  0  0  0  0  0  0  0
  144.6714  135.5920  162.4900 H   0  0  0  0  0  0  0  0  0  0  0  0
  144.3740  133.8994  162.1550 H   0  0  0  0  0  0  0  0  0  0  0  0
  146.8433  136.2326  163.3552 H   0  0  0  0  0  0  0  0  0  0  0  0
  148.0403  134.9823  163.6139 H   0  0  0  0  0  0  0  0  0  0  0  0
  148.3440  134.6366  161.2141 H   0  0  0  0  0  0  0  0  0  0  0  0
  148.5803  136.3293  161.5729 H   0  0  0  0  0  0  0  0  0  0  0  0
  1  2  1  0  0  0  0
  1 27  1  0  0  0  0
  1 28  1  0  0  0  0
  1 29  1  0  0  0  0
  2  3  1  0  0  0  0
  2  4  1  0  0  0  0
  2 30  1  0  0  0  0
  3 31  1  0  0  0  0
  3 32  1  0  0  0  0
  3 33  1  0  0  0  0
  4  5  1  0  0  0  0
  4 34  1  0  0  0  0
  4 35  1  0  0  0  0
  5  6  1  0  0  0  0
  5  8  1  0  0  0  0
  5 36  1  0  0  0  0
  6  7  1  0  0  0  0
  6 37  1  0  0  0  0
  6 38  1  0  0  0  0
  7 39  1  0  0  0  0
  8  9  1  0  0  0  0
  8 10  1  0  0  0  0
  9 40  1  0  0  0  0
  9 41  1  0  0  0  0
  9 42  1  0  0  0  0
 10 15  1  0  0  0  0
 10 11  2  0  0  0  0
 11 12  1  0  0  0  0
 12 13  2  0  0  0  0
 12 43  1  0  0  0  0
 13 14  1  0  0  0  0
 14 18  1  0  0  0  0
 14 15  2  0  0  0  0
 15 16  1  0  0  0  0
 16 17  2  0  0  0  0
 17 18  1  0  0  0  0
 17 44  1  0  0  0  0
 18 19  1  0  0  0  0
 19 20  1  0  0  0  0
 19 45  1  0  0  0  0
 19 46  1  0  0  0  0
 20 26  1  0  0  0  0
 20 21  1  0  0  0  0
 20 22  1  0  0  0  0
 21 47  1  0  0  0  0
 22 23  1  0  0  0  0
 22 48  1  0  0  0  0
 22 49  1  0  0  0  0
 23 24  1  0  0  0  0
 23 50  1  0  0  0  0
 23 51  1  0  0  0  0
 24 25  1  0  0  0  0
 25 26  1  0  0  0  0
 25 52  1  0  0  0  0
 25 53  1  0  0  0  0
 26 54  1  0  0  0  0
 26 55  1  0  0  0  0
M  END
> <s_m_source_file>
AV-unprocessed.smi

> <i_m_source_file_index>
150

> <i_lp_mmshare_version>
43012

> <i_f3d_flags>
0

> <s_epik_input>
W0NIM11bQ0hdKFtDSDNdKVtDSDJdW0NASF0oW0NIMl1bT0hdKU4oW0NIM10pYyhuW2NIXW4xKWMoYzEyKW5bY0hdbjJbQ0gyXUMzKFtPSF0pW0NIMl1bQ0gyXU9bQ0gyXVtDSDJdMw==

> <s_epik_cmdline>
J2VwaWtfcHl0aG9uJywgJy1waCcsICc3LjAnLCAnLXRuJywgJzgnLCAnLW1hJywgJzIwMCcsICctbWV0YWxfYmluZGluZycsICctaW1hZScsICc8aW5maWxlLm1hZT4nLCAnLW9tYWUnLCAnPG91dGZpbGUubWFlPic=

> <r_lp_tautomer_probability>
1

> <r_epik_Ionization_Penalty>
0.00548416

> <r_epik_Ionization_Penalty_Charging>
0

> <r_epik_Ionization_Penalty_Neutral>
0.00548416

> <r_epik_State_Penalty>
0.0038135

> <r_epik_Charging_Adjusted_Penalty>
0.0038135

> <i_epik_Tot_Q>
0

> <i_epik_Tot_abs_Q>
0

> <r_epik_Metal_State_Penalty>
-0

> <b_epik_Metal_Only>
0

> <s_lp_Force_Field>
OPLS_2005

> <r_lp_Energy>
31.7552

> <b_lp_Chiralities_Consistent>
1

> <s_lp_Variant>
AV-unprocessed.smi:150-1

> <Gold.Version>
5.8.1

> <Gold.Id.Protein>
6NUR|6NUR_protein|mol2

> <Gold.PLP.Fitness>
44.9684

> <Gold.PLP.PLP>
-41.9080

> <Gold.PLP.part.hbond>
-3.6446

> <Gold.PLP.part.metal>
0.0000

> <Gold.PLP.part.buried>
-5.0336

> <Gold.PLP.part.nonpolar>
-32.8388

> <Gold.PLP.part.repulsive>
0.0246

> <Gold.PLP.ligand.clash>
0.0000

> <Gold.PLP.ligand.torsion>
1.8547

> <Gold.PLP.Chemscore.Hbond>
1.8800

> <Gold.PLP.Chemscore.CHOScore>
0.0000

> <Gold.PLP.Chemscore.Metal>
0.0000

> <Gold.Chemscore.Hbonds>
donor molecule, donor type, donor heavy atom, donor atom, acceptor molecule, acceptor atom, score
      P1  H  6934  6947       L1    21  0.89
      P1  H  7989  7998       L1     7  0.80

> <Gold.PLP.Chemscore.Internal.Correction>
1.1299

> <Gold.Rescore>
     Score         DG    S(hbond)    S(metal)    S(lipo)     H(rot)  DE(clash)    DE(int)     intcor
     10.56     -14.73       1.69        0.00     105.34       3.40       0.31       3.85       ----

> <Gold.Chemscore.Fitness>
10.5634

> <Gold.Chemscore.DG>
-14.7314

> <Gold.Chemscore.ZeroCoef>
-5.4800

> <Gold.Chemscore.Hbond>
1.6854

> <Gold.Chemscore.Metal>
0.0000

> <Gold.Chemscore.Lipo>
105.3412

> <Gold.Chemscore.Internal_Hbond>
0.0000

> <Gold.Chemscore.DEClash>
0.3136

> <Gold.Chemscore.DEInternal>
3.8543

> <Gold.Chemscore.Rot>
3.3995

> <Gold.Chemscore.Internal.Correction>
   9.000000E+99

> <Gold.Chemscore.Hbonds>
donor molecule, donor type, donor heavy atom, donor atom, acceptor molecule, acceptor atom, score
      P1  H  6934  6947       L1    21  0.83
      P1  H  7989  7998       L1     7  0.71

> <Gold.Chemscore.Hbond.Weighted>
-5.6293

> <Gold.Chemscore.Metal.Weighted>
-0.0000

> <Gold.Chemscore.Lipo.Weighted>
-12.3249

> <Gold.Chemscore.Internal_Hbond.Weighted>
0.0000

> <Gold.Chemscore.DEClash.Weighted>
0.3136

> <Gold.Chemscore.DEInternal.Weighted>
3.8543

> <Gold.Chemscore.Rot.Weighted>
8.7028

> <Gold.Chemscore.Internal.Correction.Weighted>
   9.000000E+99

> <Gold.Protein.RotatedTorsions>
[ 6907 6896 6895 6894 ] final   61.12 input  -60.11 | X-H torsion
[ 7974 7965 7964 7962 ] final   -7.24 input  175.53 | X-H torsion
[ 8008 7997 7996 7995 ] final   61.52 input   59.86 | X-H torsion
[ 10167 10162 10161 10158 ] final -171.48 input  -65.29 | X-H torsion
[ 10718 10713 10712 10709 ] final  -93.65 input   66.30 | X-H torsion
[ 10763 10752 10751 10750 ] final   72.39 input  -60.55 | X-H torsion
[ 11005 11000 10999 10996 ] final  -59.79 input  -57.11 | X-H torsion

> <Gold.Protein.ActiveResidues>
 VAL166  LYS551  ARG553  GLY616  TRP617  ASP618  TYR619  PRO620  LYS621  CYS622 
 ASP623  PHE694  ASN695  SER759  ASP760  ASP761  ALA762  ILE779  LEU786  VAL792 
 PHE793  MET794  SER795  GLU796  ALA797  LYS798  CYS799  TRP800  GLU811  SER814 

> <Gold.Protein.RotatedAtoms>
  152.4062  134.6203  160.0048 H   0  0  0  0  0  0  0  0  0  0  0  0  # atno 6907 bound_to 6896
  151.6394  133.3321  159.3135 H   0  0  0  0  0  0  0  0  0  0  0  0  # atno 6908 bound_to 6896
  150.7956  134.7055  159.6619 H   0  0  0  0  0  0  0  0  0  0  0  0  # atno 6909 bound_to 6896
  146.2312  140.2290  142.8339 H   0  0  0  0  0  0  0  0  0  0  0  0  # atno 7974 bound_to 7965
  155.5997  140.3494  155.4590 H   0  0  0  0  0  0  0  0  0  0  0  0  # atno 8008 bound_to 7997
  156.0238  140.1259  157.0354 H   0  0  0  0  0  0  0  0  0  0  0  0  # atno 8009 bound_to 7997
  154.4325  140.1057  156.5987 H   0  0  0  0  0  0  0  0  0  0  0  0  # atno 8010 bound_to 7997
  139.5800  144.1445  152.1502 H   0  0  0  0  0  0  0  0  0  0  0  0  # atno 10167 bound_to 10162
  156.0016  130.5035  150.5808 H   0  0  0  0  0  0  0  0  0  0  0  0  # atno 10718 bound_to 10713
  153.0456  135.5101  154.7737 H   0  0  0  0  0  0  0  0  0  0  0  0  # atno 10763 bound_to 10752
  154.6639  135.2943  154.9832 H   0  0  0  0  0  0  0  0  0  0  0  0  # atno 10764 bound_to 10752
  154.0674  135.6682  153.4872 H   0  0  0  0  0  0  0  0  0  0  0  0  # atno 10765 bound_to 10752
  141.1262  133.6618  156.5124 H   0  0  0  0  0  0  0  0  0  0  0  0  # atno 11005 bound_to 11000
  144.9573  140.8239  143.5535 LP  0  0  0  0  0  0  0  0  0  0  0  0  # atno 17320 bound_to 7965
  145.2257  139.2138  143.5070 LP  0  0  0  0  0  0  0  0  0  0  0  0  # atno 17321 bound_to 7965
  140.0996  144.5551  150.6998 LP  0  0  0  0  0  0  0  0  0  0  0  0  # atno 17342 bound_to 10162
  140.7079  143.2482  151.4670 LP  0  0  0  0  0  0  0  0  0  0  0  0  # atno 17343 bound_to 10162
  157.3688  131.0762  151.1575 LP  0  0  0  0  0  0  0  0  0  0  0  0  # atno 17370 bound_to 10713
  157.2335  130.6536  149.5860 LP  0  0  0  0  0  0  0  0  0  0  0  0  # atno 17371 bound_to 10713
  140.4358  134.7060  157.4966 LP  0  0  0  0  0  0  0  0  0  0  0  0  # atno 17394 bound_to 11000
  140.0263  134.6473  155.9169 LP  0  0  0  0  0  0  0  0  0  0  0  0  # atno 17395 bound_to 11000

$$$$
