AV-unprocessed.smi:2621|AV-procd|sdf|10226|dock3
  -GOLD-   2272014233D 1   1.00000     0.00000
 Structure written by MMmdl.
 24 25  0  0  0  0  0  0  0  0  1 V2000
  152.8902  144.9645  159.2590 C   0  0  0  0  0  0  0  0  0  0  0  0
  152.7088  143.5364  158.7877 C   0  0  0  0  0  0  0  0  0  0  0  0
  153.4001  142.5079  159.3264 C   0  0  0  0  0  0  0  0  0  0  0  0
  153.2012  141.1413  158.8472 C   0  0  0  0  0  0  0  0  0  0  0  0
  153.7991  140.1838  159.3402 O   0  0  0  0  0  0  0  0  0  0  0  0
  152.3102  141.0060  157.8171 N   0  0  0  0  0  0  0  0  0  0  0  0
  152.0896  139.6612  157.2348 C   0  0  0  0  0  0  0  0  0  0  0  0
  152.4426  139.4927  155.7639 C   0  0  1  0  0  0  0  0  0  0  0  0
  151.7383  138.5579  154.8073 C   0  0  0  0  0  0  0  0  0  0  0  0
  151.4332  139.9545  154.8526 O   0  0  0  0  0  0  0  0  0  0  0  0
  151.5806  142.1215  157.3148 C   0  0  0  0  0  0  0  0  0  0  0  0
  150.6437  141.8494  156.3331 N   0  0  0  0  0  0  0  0  0  0  0  0
  151.7788  143.3175  157.7704 N   0  0  0  0  0  0  0  0  0  0  0  0
  153.6850  145.0413  160.0015 H   0  0  0  0  0  0  0  0  0  0  0  0
  151.9675  145.3333  159.7078 H   0  0  0  0  0  0  0  0  0  0  0  0
  153.1465  145.6112  158.4195 H   0  0  0  0  0  0  0  0  0  0  0  0
  154.1125  142.6894  160.1183 H   0  0  0  0  0  0  0  0  0  0  0  0
  152.5803  138.8703  157.8029 H   0  0  0  0  0  0  0  0  0  0  0  0
  151.0357  139.3983  157.3406 H   0  0  0  0  0  0  0  0  0  0  0  0
  153.4405  139.8313  155.4926 H   0  0  0  0  0  0  0  0  0  0  0  0
  152.2606  138.2382  153.9081 H   0  0  0  0  0  0  0  0  0  0  0  0
  150.9417  137.9101  155.1666 H   0  0  0  0  0  0  0  0  0  0  0  0
  150.4679  140.9216  155.9755 H   0  0  0  0  0  0  0  0  0  0  0  0
  150.0873  142.5601  155.8800 H   0  0  0  0  0  0  0  0  0  0  0  0
  1  2  1  0  0  0  0
  1 14  1  0  0  0  0
  1 15  1  0  0  0  0
  1 16  1  0  0  0  0
  2 13  1  0  0  0  0
  2  3  2  0  0  0  0
  3  4  1  0  0  0  0
  3 17  1  0  0  0  0
  4  5  2  0  0  0  0
  4  6  1  0  0  0  0
  6  7  1  0  0  0  0
  6 11  1  0  0  0  0
  7  8  1  0  0  0  0
  7 18  1  0  0  0  0
  7 19  1  0  0  0  0
  8 10  1  0  0  0  0
  8  9  1  0  0  0  0
  8 20  1  0  0  0  0
  9 10  1  0  0  0  0
  9 21  1  0  0  0  0
  9 22  1  0  0  0  0
 11 12  1  0  0  0  0
 11 13  2  0  0  0  0
 12 23  1  0  0  0  0
 12 24  1  0  0  0  0
M  END
> <s_m_source_file>
AV-unprocessed.smi

> <i_m_source_file_index>
2621

> <i_lp_mmshare_version>
43012

> <i_f3d_flags>
0

> <s_epik_input>
W0NIM11jMVtjSF1jKD1PKW4oYyhuMSlbTkgyXSlbQ0gyXVtDQEBIXTJbQ0gyXU8y

> <s_epik_cmdline>
J2VwaWtfcHl0aG9uJywgJy1waCcsICc3LjAnLCAnLXRuJywgJzgnLCAnLW1hJywgJzIwMCcsICctbWV0YWxfYmluZGluZycsICctaW1hZScsICc8aW5maWxlLm1hZT4nLCAnLW9tYWUnLCAnPG91dGZpbGUubWFlPic=

> <r_lp_tautomer_probability>
1

> <r_epik_Ionization_Penalty>
0.000262373

> <r_epik_Ionization_Penalty_Charging>
1.89272e-07

> <r_epik_Ionization_Penalty_Neutral>
0.000262184

> <r_epik_State_Penalty>
-0

> <r_epik_Charging_Adjusted_Penalty>
1.89272e-07

> <i_epik_Tot_Q>
0

> <i_epik_Tot_abs_Q>
0

> <r_epik_Metal_State_Penalty>
-0

> <b_epik_Metal_Only>
0

> <s_epik_Chemistry_Notes>
This compound has an imine and may undergo hydrolysis.

> <s_lp_Force_Field>
OPLS_2005

> <r_lp_Energy>
23.2986

> <b_lp_Chiralities_Consistent>
1

> <s_lp_Variant>
AV-unprocessed.smi:2621-2

> <Gold.Version>
5.8.1

> <Gold.Id.Protein>
6NUR|6NUR_protein|mol2

> <Gold.PLP.Fitness>
36.7349

> <Gold.PLP.PLP>
-31.0129

> <Gold.PLP.part.hbond>
-2.0000

> <Gold.PLP.part.metal>
0.0000

> <Gold.PLP.part.buried>
-5.2163

> <Gold.PLP.part.nonpolar>
-24.5190

> <Gold.PLP.part.repulsive>
0.3373

> <Gold.PLP.ligand.clash>
0.0000

> <Gold.PLP.ligand.torsion>
0.3151

> <Gold.PLP.Chemscore.Hbond>
1.9120

> <Gold.PLP.Chemscore.CHOScore>
0.0000

> <Gold.PLP.Chemscore.Metal>
0.0000

> <Gold.Chemscore.Hbonds>
donor molecule, donor type, donor heavy atom, donor atom, acceptor molecule, acceptor atom, score
      P1  H  7989  7998       L1    10  1.00
      P1  H  7997  8009       L1     5  0.01

> <Gold.PLP.Chemscore.Internal.Correction>
0.6160

> <Gold.Rescore>
     Score         DG    S(hbond)    S(metal)    S(lipo)     H(rot)  DE(clash)    DE(int)     intcor
     14.64     -15.30       1.97        0.00      56.56       1.31       0.00       0.66       ----

> <Gold.Chemscore.Fitness>
14.6385

> <Gold.Chemscore.DG>
-15.3000

> <Gold.Chemscore.ZeroCoef>
-5.4800

> <Gold.Chemscore.Hbond>
1.9658

> <Gold.Chemscore.Metal>
0.0000

> <Gold.Chemscore.Lipo>
56.5639

> <Gold.Chemscore.Internal_Hbond>
0.0000

> <Gold.Chemscore.DEClash>
0.0048

> <Gold.Chemscore.DEInternal>
0.6567

> <Gold.Chemscore.Rot>
1.3139

> <Gold.Chemscore.Internal.Correction>
   9.000000E+99

> <Gold.Chemscore.Hbonds>
donor molecule, donor type, donor heavy atom, donor atom, acceptor molecule, acceptor atom, score
      L1  H    12    24       P1  8028  0.03
      P1  H  7989  7998       L1    10  0.96

> <Gold.Chemscore.Hbond.Weighted>
-6.5656

> <Gold.Chemscore.Metal.Weighted>
-0.0000

> <Gold.Chemscore.Lipo.Weighted>
-6.6180

> <Gold.Chemscore.Internal_Hbond.Weighted>
0.0000

> <Gold.Chemscore.DEClash.Weighted>
0.0048

> <Gold.Chemscore.DEInternal.Weighted>
0.6567

> <Gold.Chemscore.Rot.Weighted>
3.3636

> <Gold.Chemscore.Internal.Correction.Weighted>
   9.000000E+99

> <Gold.Protein.RotatedTorsions>
[ 6907 6896 6895 6894 ] final   -8.04 input  -60.11 | X-H torsion
[ 7974 7965 7964 7962 ] final   -6.84 input  175.53 | X-H torsion
[ 8008 7997 7996 7995 ] final  144.68 input   59.86 | X-H torsion
[ 10167 10162 10161 10158 ] final  107.82 input  -65.29 | X-H torsion
[ 10718 10713 10712 10709 ] final -149.16 input   66.30 | X-H torsion
[ 10763 10752 10751 10750 ] final   23.95 input  -60.55 | X-H torsion
[ 11005 11000 10999 10996 ] final -147.59 input  -57.11 | X-H torsion

> <Gold.Protein.ActiveResidues>
 VAL166  LYS551  ARG553  GLY616  TRP617  ASP618  TYR619  PRO620  LYS621  CYS622 
 ASP623  PHE694  ASN695  SER759  ASP760  ASP761  ALA762  ILE779  LEU786  VAL792 
 PHE793  MET794  SER795  GLU796  ALA797  LYS798  CYS799  TRP800  GLU811  SER814 

> <Gold.Protein.RotatedAtoms>
  151.4400  135.1019  159.9666 H   0  0  0  0  0  0  0  0  0  0  0  0  # atno 6907 bound_to 6896
  152.4926  133.8538  159.7225 H   0  0  0  0  0  0  0  0  0  0  0  0  # atno 6908 bound_to 6896
  150.9095  133.6957  159.2886 H   0  0  0  0  0  0  0  0  0  0  0  0  # atno 6909 bound_to 6896
  146.2321  140.2231  142.8338 H   0  0  0  0  0  0  0  0  0  0  0  0  # atno 7974 bound_to 7965
  156.2902  140.2229  156.5092 H   0  0  0  0  0  0  0  0  0  0  0  0  # atno 8008 bound_to 7997
  154.7624  140.0472  157.1005 H   0  0  0  0  0  0  0  0  0  0  0  0  # atno 8009 bound_to 7997
  154.9975  140.3097  155.4884 H   0  0  0  0  0  0  0  0  0  0  0  0  # atno 8010 bound_to 7997
  139.6896  144.7109  151.1372 H   0  0  0  0  0  0  0  0  0  0  0  0  # atno 10167 bound_to 10162
  156.4296  130.8069  151.2295 H   0  0  0  0  0  0  0  0  0  0  0  0  # atno 10718 bound_to 10713
  153.0800  135.6616  154.0065 H   0  0  0  0  0  0  0  0  0  0  0  0  # atno 10763 bound_to 10752
  153.9689  135.2966  155.3430 H   0  0  0  0  0  0  0  0  0  0  0  0  # atno 10764 bound_to 10752
  154.7197  135.5170  153.8864 H   0  0  0  0  0  0  0  0  0  0  0  0  # atno 10765 bound_to 10752
  140.7701  134.3199  157.5077 H   0  0  0  0  0  0  0  0  0  0  0  0  # atno 11005 bound_to 11000
  144.9617  140.8281  143.5510 LP  0  0  0  0  0  0  0  0  0  0  0  0  # atno 17320 bound_to 7965
  145.2202  139.2162  143.5097 LP  0  0  0  0  0  0  0  0  0  0  0  0  # atno 17321 bound_to 7965
  140.7678  143.5579  150.9132 LP  0  0  0  0  0  0  0  0  0  0  0  0  # atno 17342 bound_to 10162
  139.9255  143.6554  152.3087 LP  0  0  0  0  0  0  0  0  0  0  0  0  # atno 17343 bound_to 10162
  157.7508  131.0202  150.3700 LP  0  0  0  0  0  0  0  0  0  0  0  0  # atno 17370 bound_to 10713
  156.4035  130.3920  149.6943 LP  0  0  0  0  0  0  0  0  0  0  0  0  # atno 17371 bound_to 10713
  139.8757  134.9255  156.3377 LP  0  0  0  0  0  0  0  0  0  0  0  0  # atno 17394 bound_to 11000
  140.9582  133.7406  156.0365 LP  0  0  0  0  0  0  0  0  0  0  0  0  # atno 17395 bound_to 11000

$$$$
