#       Name:                AV-unprocessed.smi:1489
#       Creating user name   scv26
#       Creation time:       Fri Mar 27 06:12:49 2020


#       File generated by GOLD software.
#

@<TRIPOS>MOLECULE
AV-unprocessed.smi:1489
    51    53     1
SMALL
NO_CHARGES


@<TRIPOS>ATOM
      1 ****        -0.7959   1.5923  -0.6109 O.2            1 S1                 0.0000
      2 ****        -1.1999   0.5269  -0.1454 C.2            1 S1                 0.0000
      3 ****        -0.4208  -0.5089   0.2104 N.am           1 S1                 0.0000
      4 ****         0.9958  -0.6028   0.1605 C.ar           1 S1                 0.0000
      5 ****         1.8125   0.1434  -0.7202 C.ar           1 S1                 0.0000
      6 ****         3.2074  -0.0455  -0.6816 C.ar           1 S1                 0.0000
      7 ****         3.7520  -0.9821   0.2286 C.ar           1 S1                 0.0000
      8 ****         5.1431  -1.1880   0.3110 N.pl3          1 S1                 0.0000
      9 ****         5.7211  -2.2399   1.1321 C.3            1 S1                 0.0000
     10 ****         7.2221  -2.1579   0.8588 C.3            1 S1                 0.0000
     11 ****         7.2850  -1.6962  -0.5976 C.3            1 S1                 0.0000
     12 ****         6.0472  -0.8064  -0.7647 C.3            1 S1                 0.0000
     13 ****         2.9663  -1.7054   1.0614 N.ar           1 S1                 0.0000
     14 ****         1.6302  -1.5224   1.0189 C.ar           1 S1                 0.0000
     15 ****        -2.4923   0.2604   0.0934 N.am           1 S1                 0.0000
     16 ****        -3.6119   1.1713  -0.1318 C.3            1 S1                 0.0000
     17 ****        -4.3480   1.4252   1.1977 C.3            1 S1                 0.0000
     18 ****        -5.5882   2.3106   0.9948 C.3            1 S1                 0.0000
     19 ****        -6.5367   1.7033  -0.0529 C.3            1 S1                 0.0000
     20 ****        -7.6272   2.5755  -0.2618 O.3            1 S1                 0.0000
     21 ****        -5.8060   1.4641  -1.3855 C.3            1 S1                 0.0000
     22 ****        -4.5656   0.5775  -1.1864 C.3            1 S1                 0.0000
     23 ****        -0.8907  -1.2879   0.6482 H              1 S1                 0.0000
     24 ****         1.3998   0.8460  -1.4275 H              1 S1                 0.0000
     25 ****         3.8358   0.5319  -1.3430 H              1 S1                 0.0000
     26 ****         5.4952  -2.0988   2.1896 H              1 S1                 0.0000
     27 ****         5.3232  -3.2057   0.8177 H              1 S1                 0.0000
     28 ****         7.6744  -1.4034   1.5039 H              1 S1                 0.0000
     29 ****         7.7375  -3.1029   1.0314 H              1 S1                 0.0000
     30 ****         8.2133  -1.1785  -0.8401 H              1 S1                 0.0000
     31 ****         7.2029  -2.5621  -1.2560 H              1 S1                 0.0000
     32 ****         5.5972  -0.9450  -1.7484 H              1 S1                 0.0000
     33 ****         6.3082   0.2463  -0.6503 H              1 S1                 0.0000
     34 ****         1.0499  -2.1260   1.7014 H              1 S1                 0.0000
     35 ****        -2.7215  -0.6442   0.4784 H              1 S1                 0.0000
     36 ****        -3.2512   2.1316  -0.5051 H              1 S1                 0.0000
     37 ****        -4.6526   0.4755   1.6401 H              1 S1                 0.0000
     38 ****        -3.6739   1.8974   1.9136 H              1 S1                 0.0000
     39 ****        -6.1094   2.4384   1.9443 H              1 S1                 0.0000
     40 ****        -5.2732   3.3060   0.6778 H              1 S1                 0.0000
     41 ****        -6.9300   0.7568   0.3203 H              1 S1                 0.0000
     42 ****        -8.2167   2.1767  -0.8835 H              1 S1                 0.0000
     43 ****        -6.4799   0.9987  -2.1058 H              1 S1                 0.0000
     44 ****        -5.5014   2.4188  -1.8173 H              1 S1                 0.0000
     45 ****        -4.0437   0.4580  -2.1367 H              1 S1                 0.0000
     46 ****        -4.8820  -0.4207  -0.8801 H              1 S1                 0.0000
     47 ****         0.1836   1.7374  -0.7507 LP             1 S1                 0.0000
     48 ****        -1.4472   2.3127  -0.8494 LP             1 S1                 0.0000
     49 ****         3.3694  -2.3639   1.6969 LP             1 S1                 0.0000
     50 ****        -7.2969   3.4478  -0.6223 LP             1 S1                 0.0000
     51 ****        -8.1045   2.7315   0.6030 LP             1 S1                 0.0000
@<TRIPOS>BOND
    1    1    2 2     
    2    2    3 am    
    3    2   15 am    
    4    3    4 1     
    5    3   23 1     
    6    4   14 ar    
    7    4    5 ar    
    8    5    6 ar    
    9    5   24 1     
   10    6    7 ar    
   11    6   25 1     
   12    7    8 1     
   13    7   13 ar    
   14    8   12 1     
   15    8    9 1     
   16    9   10 1     
   17    9   26 1     
   18    9   27 1     
   19   10   11 1     
   20   10   28 1     
   21   10   29 1     
   22   11   12 1     
   23   11   30 1     
   24   11   31 1     
   25   12   32 1     
   26   12   33 1     
   27   13   14 ar    
   28   14   34 1     
   29   15   16 1     
   30   15   35 1     
   31   16   22 1     
   32   16   17 1     
   33   16   36 1     
   34   17   18 1     
   35   17   37 1     
   36   17   38 1     
   37   18   19 1     
   38   18   39 1     
   39   18   40 1     
   40   19   20 1     
   41   19   21 1     
   42   19   41 1     
   43   20   42 1     
   44   21   22 1     
   45   21   43 1     
   46   21   44 1     
   47   22   45 1     
   48   22   46 1     
   49    1   47 1     
   50    1   48 1     
   51   13   49 1     
   52   20   50 1     
   53   20   51 1     
@<TRIPOS>SUBSTRUCTURE
      1 S1             1
@<TRIPOS>SET
LONE_PAIRS      STATIC     ATOMS    <user>   **** ""
5 47 48 49 50 51
DONOR_HYDROGENS      STATIC     ATOMS    <user>   **** ""
3 23 35 42
ATOM$BLUE        STATIC     ATOMS    COLORGROUP SYSTEM
5 47 48 49 50 51
ATOM$RED        STATIC     ATOMS    COLORGROUP SYSTEM
3 23 35 42
