#       Name:                AV-unprocessed.smi:1268
#       Creating user name   scv26
#       Creation time:       Fri Mar 27 04:45:05 2020


#       File generated by GOLD software.
#

@<TRIPOS>MOLECULE
AV-unprocessed.smi:1268
    45    46     1
SMALL
NO_CHARGES


@<TRIPOS>ATOM
      1 ****        -2.1959   1.1509  -1.3490 O.2            1 S1                 0.0000
      2 ****        -2.6120   1.5892  -0.2764 C.2            1 S1                 0.0000
      3 ****        -2.5511   0.9005   0.8728 N.am           1 S1                 0.0000
      4 ****        -2.0095  -0.4479   1.0105 C.3            1 S1                 0.0000
      5 ****        -0.4668  -0.4547   1.0140 C.3            1 S1                 0.0000
      6 ****        -0.0290  -0.1081   2.3134 O.3            1 S1                 0.0000
      7 ****         0.0913  -1.8554   0.6914 C.3            1 S1                 0.0000
      8 ****         1.5744  -1.8730   0.6086 N.4            1 S1                 1.0000
      9 ****         2.1410  -3.2134   0.9096 C.3            1 S1                 0.0000
     10 ****         3.6768  -3.1652   0.9714 C.3            1 S1                 0.0000
     11 ****         4.2631  -2.6077  -0.3321 C.3            1 S1                 0.0000
     12 ****         3.6363  -1.2434  -0.6481 C.3            1 S1                 0.0000
     13 ****         2.1009  -1.3335  -0.6743 C.3            1 S1                 0.0000
     14 ****        -3.1707   2.7961  -0.0936 N.am           1 S1                 0.0000
     15 ****        -3.4114   3.7966  -1.0677 C.2            1 S1                 0.0000
     16 ****        -3.9734   4.9451  -0.6867 N.2            1 S1                 0.0000
     17 ****        -4.1501   5.8243  -1.7592 C.2            1 S1                 0.0000
     18 ****        -3.7122   5.3248  -2.9606 C.2            1 S1                 0.0000
     19 ****        -3.0544   3.7190  -2.7952 S.3            1 S1                 0.0000
     20 ****        -2.9175   1.3322   1.7089 H              1 S1                 0.0000
     21 ****        -2.4058  -0.9086   1.9164 H              1 S1                 0.0000
     22 ****        -2.3847  -1.0499   0.1809 H              1 S1                 0.0000
     23 ****        -0.0871   0.2764   0.3012 H              1 S1                 0.0000
     24 ****        -0.3660   0.7499   2.5247 H              1 S1                 0.0000
     25 ****        -0.2470  -2.5478   1.4643 H              1 S1                 0.0000
     26 ****        -0.3217  -2.2273  -0.2476 H              1 S1                 0.0000
     27 ****         1.7587  -3.5698   1.8669 H              1 S1                 0.0000
     28 ****         1.8149  -3.9267   0.1507 H              1 S1                 0.0000
     29 ****         3.9896  -2.5421   1.8104 H              1 S1                 0.0000
     30 ****         4.0738  -4.1627   1.1619 H              1 S1                 0.0000
     31 ****         5.3466  -2.5162  -0.2490 H              1 S1                 0.0000
     32 ****         4.0694  -3.3019  -1.1508 H              1 S1                 0.0000
     33 ****         3.9474  -0.5141   0.1012 H              1 S1                 0.0000
     34 ****         4.0050  -0.8782  -1.6072 H              1 S1                 0.0000
     35 ****         1.7783  -1.9722  -1.4980 H              1 S1                 0.0000
     36 ****         1.6934  -0.3421  -0.8683 H              1 S1                 0.0000
     37 ****        -3.4608   3.0253   0.8456 H              1 S1                 0.0000
     38 ****        -4.5984   6.7899  -1.5775 H              1 S1                 0.0000
     39 ****        -3.7372   5.8023  -3.9288 H              1 S1                 0.0000
     40 ****         1.9000  -1.2612   1.3437 H              1 S1                 0.0000
     41 ****        -1.7879   0.2389  -1.3919 LP             1 S1                 0.0000
     42 ****        -2.2658   1.7069  -2.1772 LP             1 S1                 0.0000
     43 ****         0.9706  -0.0938   2.3400 LP             1 S1                 0.0000
     44 ****        -0.3705  -0.7767   2.9740 LP             1 S1                 0.0000
     45 ****        -4.2372   5.1527   0.2553 LP             1 S1                 0.0000
@<TRIPOS>BOND
    1    1    2 2     
    2    2    3 am    
    3    2   14 am    
    4    3    4 1     
    5    3   20 1     
    6    4    5 1     
    7    4   21 1     
    8    4   22 1     
    9    5    6 1     
   10    5    7 1     
   11    5   23 1     
   12    6   24 1     
   13    7    8 1     
   14    7   25 1     
   15    7   26 1     
   16    8   13 1     
   17    8    9 1     
   18    8   40 1     
   19    9   10 1     
   20    9   27 1     
   21    9   28 1     
   22   10   11 1     
   23   10   29 1     
   24   10   30 1     
   25   11   12 1     
   26   11   31 1     
   27   11   32 1     
   28   12   13 1     
   29   12   33 1     
   30   12   34 1     
   31   13   35 1     
   32   13   36 1     
   33   14   15 1     
   34   14   37 1     
   35   15   19 1     
   36   15   16 2     
   37   16   17 1     
   38   17   18 2     
   39   17   38 1     
   40   18   19 1     
   41   18   39 1     
   42    1   41 1     
   43    1   42 1     
   44    6   43 1     
   45    6   44 1     
   46   16   45 1     
@<TRIPOS>SUBSTRUCTURE
      1 S1             1
@<TRIPOS>SET
LONE_PAIRS      STATIC     ATOMS    <user>   **** ""
5 41 42 43 44 45
DONOR_HYDROGENS      STATIC     ATOMS    <user>   **** ""
4 20 24 40 37
ATOM$BLUE        STATIC     ATOMS    COLORGROUP SYSTEM
5 41 42 43 44 45
ATOM$RED        STATIC     ATOMS    COLORGROUP SYSTEM
4 20 24 40 37
