AV-unprocessed.smi:3178|AV-procd|sdf|12131|dock3
  -GOLD-   2272017573D 1   1.00000     0.00000
 Structure written by MMmdl.
 35 35  0  0  0  0  0  0  0  0  1 V2000
  152.1085  143.7944  161.6084 C   0  0  0  0  0  0  0  0  0  0  0  0
  153.0326  142.7424  161.3547 O   0  0  0  0  0  0  0  0  0  0  0  0
  153.1597  142.2631  160.0113 C   0  0  0  0  0  0  0  0  0  0  0  0
  153.3624  143.5347  159.1645 C   0  0  0  0  0  0  0  0  0  0  0  0
  154.4056  141.3653  159.8687 C   0  0  0  0  0  0  0  0  0  0  0  0
  151.8887  141.5033  159.5583 C   0  0  0  0  0  0  0  0  0  0  0  0
  151.8976  141.2632  158.1197 N   0  0  0  0  0  0  0  0  0  0  0  0
  150.8136  141.1765  157.3334 C   0  0  0  0  0  0  0  0  0  0  0  0
  149.6658  141.3605  157.7372 O   0  0  0  0  0  0  0  0  0  0  0  0
  151.0594  140.8332  155.8619 C   0  0  0  0  0  0  0  0  0  0  0  0
  149.7908  140.8738  155.0677 C   0  0  0  0  0  0  0  0  0  0  0  0
  149.0981  139.8908  154.4173 C   0  0  0  0  0  0  0  0  0  0  0  0
  147.9865  140.5678  153.8356 C   0  0  0  0  0  0  0  0  0  0  0  0
  146.8852  139.9875  152.9982 C   0  0  0  0  0  0  0  0  0  0  0  0
  147.9848  141.8642  154.1082 N   0  0  0  0  0  0  0  0  0  0  0  0
  149.0872  142.0389  154.8597 N   0  0  0  0  0  0  0  0  0  0  0  0
  149.3448  142.9474  155.2180 H   0  0  0  0  0  0  0  0  0  0  0  0
  152.1464  144.0459  162.6681 H   0  0  0  0  0  0  0  0  0  0  0  0
  151.0825  143.5048  161.3844 H   0  0  0  0  0  0  0  0  0  0  0  0
  152.3514  144.7008  161.0547 H   0  0  0  0  0  0  0  0  0  0  0  0
  153.4430  143.2959  158.1036 H   0  0  0  0  0  0  0  0  0  0  0  0
  154.2736  144.0586  159.4547 H   0  0  0  0  0  0  0  0  0  0  0  0
  152.5364  144.2372  159.2824 H   0  0  0  0  0  0  0  0  0  0  0  0
  154.5931  141.1210  158.8227 H   0  0  0  0  0  0  0  0  0  0  0  0
  154.2935  140.4197  160.3987 H   0  0  0  0  0  0  0  0  0  0  0  0
  155.2964  141.8614  160.2551 H   0  0  0  0  0  0  0  0  0  0  0  0
  151.8267  140.5587  160.1016 H   0  0  0  0  0  0  0  0  0  0  0  0
  150.9843  142.0546  159.8150 H   0  0  0  0  0  0  0  0  0  0  0  0
  152.8004  141.0983  157.6983 H   0  0  0  0  0  0  0  0  0  0  0  0
  151.7787  141.5361  155.4404 H   0  0  0  0  0  0  0  0  0  0  0  0
  151.5166  139.8449  155.8020 H   0  0  0  0  0  0  0  0  0  0  0  0
  149.3523  138.8427  154.3594 H   0  0  0  0  0  0  0  0  0  0  0  0
  147.1907  139.0432  152.5471 H   0  0  0  0  0  0  0  0  0  0  0  0
  146.6018  140.6628  152.1901 H   0  0  0  0  0  0  0  0  0  0  0  0
  145.9972  139.7959  153.6006 H   0  0  0  0  0  0  0  0  0  0  0  0
  1  2  1  0  0  0  0
  1 18  1  0  0  0  0
  1 19  1  0  0  0  0
  1 20  1  0  0  0  0
  2  3  1  0  0  0  0
  3  4  1  0  0  0  0
  3  5  1  0  0  0  0
  3  6  1  0  0  0  0
  4 21  1  0  0  0  0
  4 22  1  0  0  0  0
  4 23  1  0  0  0  0
  5 24  1  0  0  0  0
  5 25  1  0  0  0  0
  5 26  1  0  0  0  0
  6  7  1  0  0  0  0
  6 27  1  0  0  0  0
  6 28  1  0  0  0  0
  7  8  1  0  0  0  0
  7 29  1  0  0  0  0
  8  9  2  0  0  0  0
  8 10  1  0  0  0  0
 10 30  1  0  0  0  0
 10 31  1  0  0  0  0
 10 11  1  0  0  0  0
 11 16  1  0  0  0  0
 11 12  2  0  0  0  0
 12 13  1  0  0  0  0
 12 32  1  0  0  0  0
 13 14  1  0  0  0  0
 13 15  2  0  0  0  0
 14 33  1  0  0  0  0
 14 34  1  0  0  0  0
 14 35  1  0  0  0  0
 15 16  1  0  0  0  0
 16 17  1  0  0  0  0
M  END
> <s_m_source_file>
AV-unprocessed.smi

> <i_m_source_file_index>
3178

> <i_lp_mmshare_version>
43012

> <i_f3d_flags>
0

> <s_epik_input>
W0NIM11PQyhbQ0gzXSkoW0NIM10pW0NIMl1bTkhdQyg9TylbQ0gyXWMxW2NIXWMoW0NIM10pW25IXW4x

> <s_epik_cmdline>
J2VwaWtfcHl0aG9uJywgJy1waCcsICc3LjAnLCAnLXRuJywgJzgnLCAnLW1hJywgJzIwMCcsICctbWV0YWxfYmluZGluZycsICctaW1hZScsICc8aW5maWxlLm1hZT4nLCAnLW9tYWUnLCAnPG91dGZpbGUubWFlPic=

> <r_lp_tautomer_probability>
0.5

> <r_epik_Ionization_Penalty>
0.000125824

> <r_epik_Ionization_Penalty_Charging>
0

> <r_epik_Ionization_Penalty_Neutral>
0.000125824

> <r_epik_State_Penalty>
0.41068

> <r_epik_Charging_Adjusted_Penalty>
0.41068

> <i_epik_Tot_Q>
0

> <i_epik_Tot_abs_Q>
0

> <r_epik_Metal_State_Penalty>
0.410657

> <b_epik_Metal_Only>
0

> <s_lp_Force_Field>
OPLS_2005

> <r_lp_Energy>
5.55187

> <b_lp_Chiralities_Consistent>
1

> <s_lp_Variant>
AV-unprocessed.smi:3178-2

> <Gold.Version>
5.8.1

> <Gold.Id.Protein>
6NUR|6NUR_protein|mol2

> <Gold.PLP.Fitness>
36.4610

> <Gold.PLP.PLP>
-34.3081

> <Gold.PLP.part.hbond>
-1.5109

> <Gold.PLP.part.metal>
0.0000

> <Gold.PLP.part.buried>
-3.3323

> <Gold.PLP.part.nonpolar>
-29.6307

> <Gold.PLP.part.repulsive>
0.5559

> <Gold.PLP.ligand.clash>
0.0000

> <Gold.PLP.ligand.torsion>
0.3875

> <Gold.PLP.Chemscore.Hbond>
0.9600

> <Gold.PLP.Chemscore.CHOScore>
0.0000

> <Gold.PLP.Chemscore.Metal>
0.0000

> <Gold.Chemscore.Hbonds>
donor molecule, donor type, donor heavy atom, donor atom, acceptor molecule, acceptor atom, score
      L1  H    16    17       P1  8028  0.99

> <Gold.PLP.Chemscore.Internal.Correction>
0.0478

> <Gold.Rescore>
     Score         DG    S(hbond)    S(metal)    S(lipo)     H(rot)  DE(clash)    DE(int)     intcor
     14.41     -14.77       1.00        0.00      92.23       1.89       0.00       0.36       ----

> <Gold.Chemscore.Fitness>
14.4113

> <Gold.Chemscore.DG>
-14.7737

> <Gold.Chemscore.ZeroCoef>
-5.4800

> <Gold.Chemscore.Hbond>
0.9986

> <Gold.Chemscore.Metal>
0.0000

> <Gold.Chemscore.Lipo>
92.2311

> <Gold.Chemscore.Internal_Hbond>
0.0000

> <Gold.Chemscore.DEClash>
0.0000

> <Gold.Chemscore.DEInternal>
0.3625

> <Gold.Chemscore.Rot>
1.8877

> <Gold.Chemscore.Internal.Correction>
   9.000000E+99

> <Gold.Chemscore.Hbonds>
donor molecule, donor type, donor heavy atom, donor atom, acceptor molecule, acceptor atom, score
      L1  H    16    17       P1  8028  0.94

> <Gold.Chemscore.Hbond.Weighted>
-3.3352

> <Gold.Chemscore.Metal.Weighted>
-0.0000

> <Gold.Chemscore.Lipo.Weighted>
-10.7910

> <Gold.Chemscore.Internal_Hbond.Weighted>
0.0000

> <Gold.Chemscore.DEClash.Weighted>
0.0000

> <Gold.Chemscore.DEInternal.Weighted>
0.3625

> <Gold.Chemscore.Rot.Weighted>
4.8325

> <Gold.Chemscore.Internal.Correction.Weighted>
   9.000000E+99

> <Gold.Protein.RotatedTorsions>
[ 6907 6896 6895 6894 ] final  -21.47 input  -60.11 | X-H torsion
[ 7974 7965 7964 7962 ] final  141.54 input  175.53 | X-H torsion
[ 8008 7997 7996 7995 ] final -126.05 input   59.86 | X-H torsion
[ 10167 10162 10161 10158 ] final   41.26 input  -65.29 | X-H torsion
[ 10718 10713 10712 10709 ] final  -49.85 input   66.30 | X-H torsion
[ 10763 10752 10751 10750 ] final -175.25 input  -60.55 | X-H torsion
[ 11005 11000 10999 10996 ] final  174.99 input  -57.11 | X-H torsion

> <Gold.Protein.ActiveResidues>
 VAL166  LYS551  ARG553  GLY616  TRP617  ASP618  TYR619  PRO620  LYS621  CYS622 
 ASP623  PHE694  ASN695  SER759  ASP760  ASP761  ALA762  ILE779  LEU786  VAL792 
 PHE793  MET794  SER795  GLU796  ALA797  LYS798  CYS799  TRP800  GLU811  SER814 

> <Gold.Protein.RotatedAtoms>
  151.2328  135.0560  159.8994 H   0  0  0  0  0  0  0  0  0  0  0  0  # atno 6907 bound_to 6896
  152.5403  134.0518  159.8123 H   0  0  0  0  0  0  0  0  0  0  0  0  # atno 6908 bound_to 6896
  151.0700  133.5425  159.2659 H   0  0  0  0  0  0  0  0  0  0  0  0  # atno 6909 bound_to 6896
  144.9087  139.5322  143.5719 H   0  0  0  0  0  0  0  0  0  0  0  0  # atno 7974 bound_to 7965
  155.2233  140.0422  157.2951 H   0  0  0  0  0  0  0  0  0  0  0  0  # atno 8008 bound_to 7997
  154.5935  140.2433  155.7859 H   0  0  0  0  0  0  0  0  0  0  0  0  # atno 8009 bound_to 7997
  156.2275  140.2949  156.0112 H   0  0  0  0  0  0  0  0  0  0  0  0  # atno 8010 bound_to 7997
  140.3660  144.2166  150.6135 H   0  0  0  0  0  0  0  0  0  0  0  0  # atno 10167 bound_to 10162
  156.1855  130.4151  149.9446 H   0  0  0  0  0  0  0  0  0  0  0  0  # atno 10718 bound_to 10713
  154.5866  135.2841  155.0679 H   0  0  0  0  0  0  0  0  0  0  0  0  # atno 10763 bound_to 10752
  154.1995  135.6427  153.5087 H   0  0  0  0  0  0  0  0  0  0  0  0  # atno 10764 bound_to 10752
  153.0106  135.5465  154.6537 H   0  0  0  0  0  0  0  0  0  0  0  0  # atno 10765 bound_to 10752
  140.3573  134.7143  157.4308 H   0  0  0  0  0  0  0  0  0  0  0  0  # atno 11005 bound_to 11000
  146.3147  139.7876  142.8992 LP  0  0  0  0  0  0  0  0  0  0  0  0  # atno 17320 bound_to 7965
  145.3491  141.0304  143.3349 LP  0  0  0  0  0  0  0  0  0  0  0  0  # atno 17321 bound_to 7965
  140.5080  143.2298  151.8579 LP  0  0  0  0  0  0  0  0  0  0  0  0  # atno 17342 bound_to 10162
  139.4809  144.4983  151.9094 LP  0  0  0  0  0  0  0  0  0  0  0  0  # atno 17343 bound_to 10162
  156.7203  130.9004  151.3617 LP  0  0  0  0  0  0  0  0  0  0  0  0  # atno 17370 bound_to 10713
  157.6896  130.9220  150.0477 LP  0  0  0  0  0  0  0  0  0  0  0  0  # atno 17371 bound_to 10713
  140.0655  134.5936  155.8700 LP  0  0  0  0  0  0  0  0  0  0  0  0  # atno 17394 bound_to 11000
  141.1994  133.6607  156.5845 LP  0  0  0  0  0  0  0  0  0  0  0  0  # atno 17395 bound_to 11000

$$$$
