AV-unprocessed.smi:1404|AV-procd|sdf|5706|dock5
  -GOLD-   22720 5333D 1   1.00000     0.00000
 Structure written by MMmdl.
 48 49  0  0  0  0  0  0  0  0  2 V2000
  142.5693  139.9934  159.6673 C   0  0  0  0  0  0  0  0  0  0  0  0
  142.7719  141.3628  160.0928 N   0  0  0  0  0  0  0  0  0  0  0  0
  141.7950  142.3367  159.7731 C   0  0  0  0  0  0  0  0  0  0  0  0
  140.7679  142.0686  159.1489 O   0  0  0  0  0  0  0  0  0  0  0  0
  142.1100  143.6821  160.2391 C   0  0  0  0  0  0  0  0  0  0  0  0
  143.2540  143.9344  160.9118 C   0  0  0  0  0  0  0  0  0  0  0  0
  144.1955  142.9647  161.2049 N   0  0  0  0  0  0  0  0  0  0  0  0
  145.4199  143.3299  161.9277 C   0  0  0  0  0  0  0  0  0  0  0  0
  146.6554  143.3207  161.0199 C   0  0  0  0  0  0  0  0  0  0  0  0
  147.7600  143.6305  161.4673 O   0  0  0  0  0  0  0  0  0  0  0  0
  146.4506  142.9600  159.7440 N   0  0  0  0  0  0  0  0  0  0  0  0
  147.4661  142.9298  158.6920 C   0  0  0  0  0  0  0  0  0  0  0  0
  146.9861  142.2668  157.3626 C   0  0  0  0  0  0  0  0  0  0  0  0
  146.3753  140.8857  157.7200 C   0  0  0  0  0  0  0  0  0  0  0  0
  145.8743  143.1108  156.6905 C   0  0  0  0  0  0  0  0  0  0  0  0
  148.1785  142.1155  156.4481 N   0  3  0  0  0  0  0  0  0  0  0  0
  149.3862  141.4672  157.0364 C   0  0  0  0  0  0  0  0  0  0  0  0
  150.5678  141.5079  156.0507 C   0  0  0  0  0  0  0  0  0  0  0  0
  150.2035  140.8978  154.8214 O   0  0  0  0  0  0  0  0  0  0  0  0
  149.1199  141.5759  154.2038 C   0  0  0  0  0  0  0  0  0  0  0  0
  147.8887  141.5017  155.1197 C   0  0  0  0  0  0  0  0  0  0  0  0
  143.9693  141.6343  160.7905 C   0  0  0  0  0  0  0  0  0  0  0  0
  144.7965  140.7504  161.0299 O   0  0  0  0  0  0  0  0  0  0  0  0
  141.5675  139.8486  159.2644 H   0  0  0  0  0  0  0  0  0  0  0  0
  142.6969  139.3529  160.5420 H   0  0  0  0  0  0  0  0  0  0  0  0
  143.3210  139.7818  158.9050 H   0  0  0  0  0  0  0  0  0  0  0  0
  141.4186  144.4879  160.0405 H   0  0  0  0  0  0  0  0  0  0  0  0
  143.4421  144.9492  161.2317 H   0  0  0  0  0  0  0  0  0  0  0  0
  145.3209  144.3272  162.3584 H   0  0  0  0  0  0  0  0  0  0  0  0
  145.5655  142.6550  162.7737 H   0  0  0  0  0  0  0  0  0  0  0  0
  145.5089  142.7158  159.4721 H   0  0  0  0  0  0  0  0  0  0  0  0
  147.8281  143.9443  158.5333 H   0  0  0  0  0  0  0  0  0  0  0  0
  148.3192  142.3757  159.0855 H   0  0  0  0  0  0  0  0  0  0  0  0
  145.5747  140.9695  158.4551 H   0  0  0  0  0  0  0  0  0  0  0  0
  147.1251  140.2112  158.1347 H   0  0  0  0  0  0  0  0  0  0  0  0
  145.9210  140.3997  156.8564 H   0  0  0  0  0  0  0  0  0  0  0  0
  144.9580  143.1082  157.2812 H   0  0  0  0  0  0  0  0  0  0  0  0
  145.6113  142.7232  155.7064 H   0  0  0  0  0  0  0  0  0  0  0  0
  146.1666  144.1541  156.5710 H   0  0  0  0  0  0  0  0  0  0  0  0
  149.7159  141.9766  157.9399 H   0  0  0  0  0  0  0  0  0  0  0  0
  149.1613  140.4349  157.3071 H   0  0  0  0  0  0  0  0  0  0  0  0
  150.8917  142.5353  155.8766 H   0  0  0  0  0  0  0  0  0  0  0  0
  151.4219  140.9740  156.4679 H   0  0  0  0  0  0  0  0  0  0  0  0
  149.3892  142.6112  153.9890 H   0  0  0  0  0  0  0  0  0  0  0  0
  148.9057  141.0971  153.2481 H   0  0  0  0  0  0  0  0  0  0  0  0
  147.6072  140.4552  155.2421 H   0  0  0  0  0  0  0  0  0  0  0  0
  147.0602  141.9960  154.6179 H   0  0  0  0  0  0  0  0  0  0  0  0
  148.4689  143.0625  156.2511 H   0  0  0  0  0  0  0  0  0  0  0  0
  1  2  1  0  0  0  0
  1 24  1  0  0  0  0
  1 25  1  0  0  0  0
  1 26  1  0  0  0  0
  2 22  1  0  0  0  0
  2  3  1  0  0  0  0
  3  4  2  0  0  0  0
  3  5  1  0  0  0  0
  5  6  2  0  0  0  0
  5 27  1  0  0  0  0
  6  7  1  0  0  0  0
  6 28  1  0  0  0  0
  7  8  1  0  0  0  0
  7 22  1  0  0  0  0
  8  9  1  0  0  0  0
  8 29  1  0  0  0  0
  8 30  1  0  0  0  0
  9 10  2  0  0  0  0
  9 11  1  0  0  0  0
 11 12  1  0  0  0  0
 11 31  1  0  0  0  0
 12 13  1  0  0  0  0
 12 32  1  0  0  0  0
 12 33  1  0  0  0  0
 13 14  1  0  0  0  0
 13 15  1  0  0  0  0
 13 16  1  0  0  0  0
 14 34  1  0  0  0  0
 14 35  1  0  0  0  0
 14 36  1  0  0  0  0
 15 37  1  0  0  0  0
 15 38  1  0  0  0  0
 15 39  1  0  0  0  0
 16 21  1  0  0  0  0
 16 17  1  0  0  0  0
 16 48  1  0  0  0  0
 17 18  1  0  0  0  0
 17 40  1  0  0  0  0
 17 41  1  0  0  0  0
 18 19  1  0  0  0  0
 18 42  1  0  0  0  0
 18 43  1  0  0  0  0
 19 20  1  0  0  0  0
 20 21  1  0  0  0  0
 20 44  1  0  0  0  0
 20 45  1  0  0  0  0
 21 46  1  0  0  0  0
 21 47  1  0  0  0  0
 22 23  2  0  0  0  0
M  CHG  1  16   1
M  END
> <s_m_source_file>
AV-unprocessed.smi

> <i_m_source_file_index>
1404

> <i_lp_mmshare_version>
43012

> <i_f3d_flags>
0

> <s_epik_input>
W0NIM11uMWMoPU8pW2NIXVtjSF1uKGMxPU8pW0NIMl1DKD1PKVtOSF1bQ0gyXUMoW0NIM10pKFtDSDNdKU4yW0NIMl1bQ0gyXU9bQ0gyXVtDSDJdMg==

> <s_epik_cmdline>
J2VwaWtfcHl0aG9uJywgJy1waCcsICc3LjAnLCAnLXRuJywgJzgnLCAnLW1hJywgJzIwMCcsICctbWV0YWxfYmluZGluZycsICctaW1hZScsICc8aW5maWxlLm1hZT4nLCAnLW9tYWUnLCAnPG91dGZpbGUubWFlPic=

> <r_lp_tautomer_probability>
1

> <r_epik_Ionization_Penalty>
0.656654

> <r_epik_Ionization_Penalty_Charging>
0.656653

> <r_epik_Ionization_Penalty_Neutral>
9.12373e-08

> <r_epik_State_Penalty>
0.675641

> <r_epik_Charging_Adjusted_Penalty>
1.33229

> <i_epik_Tot_Q>
1

> <i_epik_Tot_abs_Q>
1

> <r_epik_Metal_State_Penalty>
0.675694

> <b_epik_Metal_Only>
0

> <s_lp_Force_Field>
OPLS_2005

> <r_lp_Energy>
33.2005

> <b_lp_Chiralities_Consistent>
1

> <s_lp_Variant>
AV-unprocessed.smi:1404-2

> <Gold.Version>
5.8.1

> <Gold.Id.Protein>
6NUR|6NUR_protein|mol2

> <Gold.PLP.Fitness>
42.0007

> <Gold.PLP.PLP>
-29.7703

> <Gold.PLP.part.hbond>
-4.5716

> <Gold.PLP.part.metal>
0.0000

> <Gold.PLP.part.buried>
-4.2749

> <Gold.PLP.part.nonpolar>
-20.3032

> <Gold.PLP.part.repulsive>
0.3684

> <Gold.PLP.ligand.clash>
0.0000

> <Gold.PLP.ligand.torsion>
0.2766

> <Gold.PLP.Chemscore.Hbond>
4.2138

> <Gold.PLP.Chemscore.CHOScore>
0.0000

> <Gold.PLP.Chemscore.Metal>
0.0000

> <Gold.Chemscore.Hbonds>
donor molecule, donor type, donor heavy atom, donor atom, acceptor molecule, acceptor atom, score
      L1  H    16    48       P1  8028  2.00
      P1  H  6933  6944       L1    10  0.83
      P1  H  6934  6946       L1    23  0.34
      P1  H  7989  7998       L1    19  0.74

> <Gold.PLP.Chemscore.Internal.Correction>
0.1422

> <Gold.Rescore>
     Score         DG    S(hbond)    S(metal)    S(lipo)     H(rot)  DE(clash)    DE(int)     intcor
      9.99     -11.35       1.81        0.00      45.30       2.14       0.17       1.19       ----

> <Gold.Chemscore.Fitness>
9.9918

> <Gold.Chemscore.DG>
-11.3530

> <Gold.Chemscore.ZeroCoef>
-5.4800

> <Gold.Chemscore.Hbond>
1.8103

> <Gold.Chemscore.Metal>
0.0000

> <Gold.Chemscore.Lipo>
45.2997

> <Gold.Chemscore.Internal_Hbond>
0.0000

> <Gold.Chemscore.DEClash>
0.1740

> <Gold.Chemscore.DEInternal>
1.1873

> <Gold.Chemscore.Rot>
2.1381

> <Gold.Chemscore.Internal.Correction>
   9.000000E+99

> <Gold.Chemscore.Hbonds>
donor molecule, donor type, donor heavy atom, donor atom, acceptor molecule, acceptor atom, score
      L1  H    16    48       P1  8028  0.88
      P1  H  6933  6944       L1    10  0.36
      P1  H  6934  6946       L1    23  0.33
      P1  H  7989  7998       L1    19  0.32

> <Gold.Chemscore.Hbond.Weighted>
-6.0465

> <Gold.Chemscore.Metal.Weighted>
-0.0000

> <Gold.Chemscore.Lipo.Weighted>
-5.3001

> <Gold.Chemscore.Internal_Hbond.Weighted>
0.0000

> <Gold.Chemscore.DEClash.Weighted>
0.1740

> <Gold.Chemscore.DEInternal.Weighted>
1.1873

> <Gold.Chemscore.Rot.Weighted>
5.4735

> <Gold.Chemscore.Internal.Correction.Weighted>
   9.000000E+99

> <Gold.Protein.RotatedTorsions>
[ 6907 6896 6895 6894 ] final  -13.91 input  -60.11 | X-H torsion
[ 7974 7965 7964 7962 ] final   46.46 input  175.53 | X-H torsion
[ 8008 7997 7996 7995 ] final   14.48 input   59.86 | X-H torsion
[ 10167 10162 10161 10158 ] final  -43.29 input  -65.29 | X-H torsion
[ 10718 10713 10712 10709 ] final   37.73 input   66.30 | X-H torsion
[ 10763 10752 10751 10750 ] final   31.84 input  -60.55 | X-H torsion
[ 11005 11000 10999 10996 ] final   28.72 input  -57.11 | X-H torsion

> <Gold.Protein.ActiveResidues>
 VAL166  LYS551  ARG553  GLY616  TRP617  ASP618  TYR619  PRO620  LYS621  CYS622 
 ASP623  PHE694  ASN695  SER759  ASP760  ASP761  ALA762  ILE779  LEU786  VAL792 
 PHE793  MET794  SER795  GLU796  ALA797  LYS798  CYS799  TRP800  GLU811  SER814 

> <Gold.Protein.RotatedAtoms>
  151.3475  135.0877  159.9391 H   0  0  0  0  0  0  0  0  0  0  0  0  # atno 6907 bound_to 6896
  152.5195  133.9385  159.7625 H   0  0  0  0  0  0  0  0  0  0  0  0  # atno 6908 bound_to 6896
  150.9754  133.6247  159.2760 H   0  0  0  0  0  0  0  0  0  0  0  0  # atno 6909 bound_to 6896
  146.0387  139.4853  142.9792 H   0  0  0  0  0  0  0  0  0  0  0  0  # atno 7974 bound_to 7965
  154.8491  140.2927  155.5609 H   0  0  0  0  0  0  0  0  0  0  0  0  # atno 8008 bound_to 7997
  156.3015  140.2499  156.3379 H   0  0  0  0  0  0  0  0  0  0  0  0  # atno 8009 bound_to 7997
  154.9040  140.0390  157.1898 H   0  0  0  0  0  0  0  0  0  0  0  0  # atno 8010 bound_to 7997
  140.6939  143.2991  151.3331 H   0  0  0  0  0  0  0  0  0  0  0  0  # atno 10167 bound_to 10162
  157.3504  130.7595  149.6974 H   0  0  0  0  0  0  0  0  0  0  0  0  # atno 10718 bound_to 10713
  153.0294  135.6428  154.1261 H   0  0  0  0  0  0  0  0  0  0  0  0  # atno 10763 bound_to 10752
  154.0986  135.2861  155.3258 H   0  0  0  0  0  0  0  0  0  0  0  0  # atno 10764 bound_to 10752
  154.6415  135.5458  153.7858 H   0  0  0  0  0  0  0  0  0  0  0  0  # atno 10765 bound_to 10752
  140.3125  134.2633  155.7731 H   0  0  0  0  0  0  0  0  0  0  0  0  # atno 11005 bound_to 11000
  145.6920  141.0161  143.1550 LP  0  0  0  0  0  0  0  0  0  0  0  0  # atno 17320 bound_to 7965
  144.7064  139.8544  143.7428 LP  0  0  0  0  0  0  0  0  0  0  0  0  # atno 17321 bound_to 7965
  139.6371  144.0609  152.2525 LP  0  0  0  0  0  0  0  0  0  0  0  0  # atno 17342 bound_to 10162
  140.0103  144.6229  150.7653 LP  0  0  0  0  0  0  0  0  0  0  0  0  # atno 17343 bound_to 10162
  155.9720  130.4142  150.4121 LP  0  0  0  0  0  0  0  0  0  0  0  0  # atno 17370 bound_to 10713
  157.2183  131.0476  151.2561 LP  0  0  0  0  0  0  0  0  0  0  0  0  # atno 17371 bound_to 10713
  141.2105  133.7718  156.9929 LP  0  0  0  0  0  0  0  0  0  0  0  0  # atno 17394 bound_to 11000
  140.1012  134.9534  157.1925 LP  0  0  0  0  0  0  0  0  0  0  0  0  # atno 17395 bound_to 11000

$$$$
