AV-unprocessed.smi:2775|AV-procd|sdf|10688|dock1
  -GOLD-   2272015133D 1   1.00000     0.00000
 Structure written by MMmdl.
 42 45  0  0  0  0  0  0  0  0  1 V2000
  144.2132  132.3013  151.1474 C   0  0  0  0  0  0  0  0  0  0  0  0
  144.1936  133.6576  151.8271 C   0  0  0  0  0  0  0  0  0  0  0  0
  142.9695  134.1403  152.1328 N   0  0  0  0  0  0  0  0  0  0  0  0
  142.8944  135.3444  152.7353 C   0  0  0  0  0  0  0  0  0  0  0  0
  144.0238  136.1158  153.0683 C   0  0  0  0  0  0  0  0  0  0  0  0
  145.3088  135.6054  152.7653 C   0  0  0  0  0  0  0  0  0  0  0  0
  146.5166  136.3021  153.0457 N   0  0  0  0  0  0  0  0  0  0  0  0
  146.8002  137.1343  154.0667 C   0  0  0  0  0  0  0  0  0  0  0  0
  146.0018  137.4888  154.9311 O   0  0  0  0  0  0  0  0  0  0  0  0
  148.0765  137.5544  154.0850 N   0  0  0  0  0  0  0  0  0  0  0  0
  148.7017  138.4608  155.0582 C   0  0  2  0  0  0  0  0  0  0  0  0
  148.1812  139.9038  154.9963 C   0  0  2  0  0  0  0  0  0  0  0  0
  146.9307  140.5607  154.5351 C   0  0  0  0  0  0  0  0  0  0  0  0
  147.5944  141.8029  153.8884 C   0  0  0  0  0  0  0  0  0  0  0  0
  149.0202  141.5385  153.8958 O   0  0  0  0  0  0  0  0  0  0  0  0
  149.1213  140.1280  153.8230 C   0  0  1  0  0  0  0  0  0  0  0  0
  150.0275  139.1182  154.5474 C   0  0  0  0  0  0  0  0  0  0  0  0
  151.1261  139.5800  155.5190 C   0  0  0  0  0  0  0  0  0  0  0  0
  151.9574  138.3740  155.0713 C   0  0  0  0  0  0  0  0  0  0  0  0
  151.0988  138.3085  153.8039 C   0  0  0  0  0  0  0  0  0  0  0  0
  145.3919  134.3524  152.1137 C   0  0  0  0  0  0  0  0  0  0  0  0
  146.9279  133.6787  151.6807 Cl  0  0  0  0  0  0  0  0  0  0  0  0
  144.7704  131.5841  151.7507 H   0  0  0  0  0  0  0  0  0  0  0  0
  144.6887  132.3729  150.1690 H   0  0  0  0  0  0  0  0  0  0  0  0
  143.2052  131.9094  151.0050 H   0  0  0  0  0  0  0  0  0  0  0  0
  141.9015  135.7080  152.9550 H   0  0  0  0  0  0  0  0  0  0  0  0
  143.8801  137.0782  153.5341 H   0  0  0  0  0  0  0  0  0  0  0  0
  147.2973  136.0586  152.4535 H   0  0  0  0  0  0  0  0  0  0  0  0
  148.6785  137.2101  153.3510 H   0  0  0  0  0  0  0  0  0  0  0  0
  148.7812  138.0551  156.0678 H   0  0  0  0  0  0  0  0  0  0  0  0
  148.5314  140.4140  155.9012 H   0  0  0  0  0  0  0  0  0  0  0  0
  146.3908  139.9588  153.8030 H   0  0  0  0  0  0  0  0  0  0  0  0
  146.2598  140.8215  155.3533 H   0  0  0  0  0  0  0  0  0  0  0  0
  147.2388  141.9442  152.8671 H   0  0  0  0  0  0  0  0  0  0  0  0
  147.3875  142.7149  154.4490 H   0  0  0  0  0  0  0  0  0  0  0  0
  148.7444  139.7490  152.8684 H   0  0  0  0  0  0  0  0  0  0  0  0
  151.5727  140.5318  155.2274 H   0  0  0  0  0  0  0  0  0  0  0  0
  150.8447  139.5714  156.5725 H   0  0  0  0  0  0  0  0  0  0  0  0
  153.0127  138.5863  154.8970 H   0  0  0  0  0  0  0  0  0  0  0  0
  151.8200  137.5058  155.7178 H   0  0  0  0  0  0  0  0  0  0  0  0
  150.8026  137.3012  153.5109 H   0  0  0  0  0  0  0  0  0  0  0  0
  151.5373  138.8585  152.9699 H   0  0  0  0  0  0  0  0  0  0  0  0
  1  2  1  0  0  0  0
  1 23  1  0  0  0  0
  1 24  1  0  0  0  0
  1 25  1  0  0  0  0
  2 21  1  0  0  0  0
  2  3  2  0  0  0  0
  3  4  1  0  0  0  0
  4  5  2  0  0  0  0
  4 26  1  0  0  0  0
  5  6  1  0  0  0  0
  5 27  1  0  0  0  0
  6  7  1  0  0  0  0
  6 21  2  0  0  0  0
  7  8  1  0  0  0  0
  7 28  1  0  0  0  0
  8  9  2  0  0  0  0
  8 10  1  0  0  0  0
 10 11  1  0  0  0  0
 10 29  1  0  0  0  0
 11 17  1  0  0  0  0
 11 12  1  0  0  0  0
 11 30  1  0  0  0  0
 12 16  1  0  0  0  0
 12 13  1  0  0  0  0
 12 31  1  0  0  0  0
 13 14  1  0  0  0  0
 13 32  1  0  0  0  0
 13 33  1  0  0  0  0
 14 15  1  0  0  0  0
 14 34  1  0  0  0  0
 14 35  1  0  0  0  0
 15 16  1  0  0  0  0
 16 17  1  0  0  0  0
 16 36  1  0  0  0  0
 17 20  1  0  0  0  0
 17 18  1  0  0  0  0
 18 19  1  0  0  0  0
 18 37  1  0  0  0  0
 18 38  1  0  0  0  0
 19 20  1  0  0  0  0
 19 39  1  0  0  0  0
 19 40  1  0  0  0  0
 20 41  1  0  0  0  0
 20 42  1  0  0  0  0
 21 22  1  0  0  0  0
M  END
> <s_m_source_file>
AV-unprocessed.smi

> <i_m_source_file_index>
2775

> <i_lp_mmshare_version>
43012

> <i_f3d_flags>
0

> <s_epik_input>
W0NIM11jMW5bY0hdW2NIXWMoYzFDbClbTkhdQyg9TylbTkhdW0NAQEhdMltDQEhdKFtDSDJdW0NIMl1PMylbQ0BASF0zQzI0W0NIMl1bQ0gyXVtDSDJdNA==

> <s_epik_cmdline>
J2VwaWtfcHl0aG9uJywgJy1waCcsICc3LjAnLCAnLXRuJywgJzgnLCAnLW1hJywgJzIwMCcsICctbWV0YWxfYmluZGluZycsICctaW1hZScsICc8aW5maWxlLm1hZT4nLCAnLW9tYWUnLCAnPG91dGZpbGUubWFlPic=

> <r_epik_Ionization_Penalty>
0.01026

> <r_epik_Ionization_Penalty_Charging>
0

> <r_epik_Ionization_Penalty_Neutral>
0.01026

> <r_epik_State_Penalty>
0.00780685

> <r_epik_Charging_Adjusted_Penalty>
0.00780685

> <i_epik_Tot_Q>
0

> <i_epik_Tot_abs_Q>
0

> <r_epik_Metal_State_Penalty>
0.00767411

> <b_epik_Metal_Only>
0

> <s_lp_Force_Field>
OPLS_2005

> <r_lp_Energy>
81.865

> <b_lp_Chiralities_Consistent>
1

> <s_lp_Variant>
AV-unprocessed.smi:2775-1

> <Gold.Version>
5.8.1

> <Gold.Id.Protein>
6NUR|6NUR_protein|mol2

> <Gold.PLP.Fitness>
40.3303

> <Gold.PLP.PLP>
-32.6550

> <Gold.PLP.part.hbond>
-3.6301

> <Gold.PLP.part.metal>
0.0000

> <Gold.PLP.part.buried>
-3.3189

> <Gold.PLP.part.nonpolar>
-26.4920

> <Gold.PLP.part.repulsive>
0.4687

> <Gold.PLP.ligand.clash>
0.0000

> <Gold.PLP.ligand.torsion>
0.3765

> <Gold.PLP.Chemscore.Hbond>
2.7040

> <Gold.PLP.Chemscore.CHOScore>
0.0000

> <Gold.PLP.Chemscore.Metal>
0.0000

> <Gold.Chemscore.Hbonds>
donor molecule, donor type, donor heavy atom, donor atom, acceptor molecule, acceptor atom, score
      L1  H     7    28       P1  7948  1.00
      L1  H    10    29       P1  7948  1.00
      P1  H  8011  8017       L1    15  0.69

> <Gold.PLP.Chemscore.Internal.Correction>
0.3163

> <Gold.Rescore>
     Score         DG    S(hbond)    S(metal)    S(lipo)     H(rot)  DE(clash)    DE(int)     intcor
     19.22     -20.81       2.27        0.00      88.17       1.00       1.14       0.45       ----

> <Gold.Chemscore.Fitness>
19.2216

> <Gold.Chemscore.DG>
-20.8136

> <Gold.Chemscore.ZeroCoef>
-5.4800

> <Gold.Chemscore.Hbond>
2.2689

> <Gold.Chemscore.Metal>
0.0000

> <Gold.Chemscore.Lipo>
88.1676

> <Gold.Chemscore.Internal_Hbond>
0.0000

> <Gold.Chemscore.DEClash>
1.1394

> <Gold.Chemscore.DEInternal>
0.4526

> <Gold.Chemscore.Rot>
1.0000

> <Gold.Chemscore.Internal.Correction>
   9.000000E+99

> <Gold.Chemscore.Hbonds>
donor molecule, donor type, donor heavy atom, donor atom, acceptor molecule, acceptor atom, score
      L1  H     7    28       P1  7948  0.98
      L1  H    10    29       P1  7948  0.96
      P1  H  8011  8017       L1    15  0.36

> <Gold.Chemscore.Hbond.Weighted>
-7.5780

> <Gold.Chemscore.Metal.Weighted>
-0.0000

> <Gold.Chemscore.Lipo.Weighted>
-10.3156

> <Gold.Chemscore.Internal_Hbond.Weighted>
0.0000

> <Gold.Chemscore.DEClash.Weighted>
1.1394

> <Gold.Chemscore.DEInternal.Weighted>
0.4526

> <Gold.Chemscore.Rot.Weighted>
2.5600

> <Gold.Chemscore.Internal.Correction.Weighted>
   9.000000E+99

> <Gold.Protein.RotatedTorsions>
[ 6907 6896 6895 6894 ] final  160.91 input  -60.11 | X-H torsion
[ 7974 7965 7964 7962 ] final -136.07 input  175.53 | X-H torsion
[ 8008 7997 7996 7995 ] final  101.50 input   59.86 | X-H torsion
[ 10167 10162 10161 10158 ] final  -59.57 input  -65.29 | X-H torsion
[ 10718 10713 10712 10709 ] final  -18.41 input   66.30 | X-H torsion
[ 10763 10752 10751 10750 ] final -101.72 input  -60.55 | X-H torsion
[ 11005 11000 10999 10996 ] final  104.10 input  -57.11 | X-H torsion

> <Gold.Protein.ActiveResidues>
 VAL166  LYS551  ARG553  GLY616  TRP617  ASP618  TYR619  PRO620  LYS621  CYS622 
 ASP623  PHE694  ASN695  SER759  ASP760  ASP761  ALA762  ILE779  LEU786  VAL792 
 PHE793  MET794  SER795  GLU796  ALA797  LYS798  CYS799  TRP800  GLU811  SER814 

> <Gold.Protein.RotatedAtoms>
  151.9636  133.3703  159.4044 H   0  0  0  0  0  0  0  0  0  0  0  0  # atno 6907 bound_to 6896
  150.6960  134.4214  159.5216 H   0  0  0  0  0  0  0  0  0  0  0  0  # atno 6908 bound_to 6896
  152.1907  134.8674  160.0568 H   0  0  0  0  0  0  0  0  0  0  0  0  # atno 6909 bound_to 6896
  144.8958  140.6705  143.5116 H   0  0  0  0  0  0  0  0  0  0  0  0  # atno 7974 bound_to 7965
  156.1305  140.3196  155.8342 H   0  0  0  0  0  0  0  0  0  0  0  0  # atno 8008 bound_to 7997
  155.4341  140.0521  157.3033 H   0  0  0  0  0  0  0  0  0  0  0  0  # atno 8009 bound_to 7997
  154.4896  140.2086  155.9592 H   0  0  0  0  0  0  0  0  0  0  0  0  # atno 8010 bound_to 7997
  140.6127  143.2392  151.5671 H   0  0  0  0  0  0  0  0  0  0  0  0  # atno 10167 bound_to 10162
  156.5599  130.4723  149.6412 H   0  0  0  0  0  0  0  0  0  0  0  0  # atno 10718 bound_to 10713
  154.7679  135.4887  153.9590 H   0  0  0  0  0  0  0  0  0  0  0  0  # atno 10763 bound_to 10752
  153.1331  135.6757  153.9154 H   0  0  0  0  0  0  0  0  0  0  0  0  # atno 10764 bound_to 10752
  153.8852  135.3127  155.3425 H   0  0  0  0  0  0  0  0  0  0  0  0  # atno 10765 bound_to 10752
  139.8789  134.9288  156.5310 H   0  0  0  0  0  0  0  0  0  0  0  0  # atno 11005 bound_to 11000
  145.3702  139.1660  143.4336 LP  0  0  0  0  0  0  0  0  0  0  0  0  # atno 17320 bound_to 7965
  146.3080  140.3773  142.8680 LP  0  0  0  0  0  0  0  0  0  0  0  0  # atno 17321 bound_to 7965
  139.5374  144.2743  152.1279 LP  0  0  0  0  0  0  0  0  0  0  0  0  # atno 17342 bound_to 10162
  140.1946  144.4718  150.6462 LP  0  0  0  0  0  0  0  0  0  0  0  0  # atno 17343 bound_to 10162
  156.2808  130.7070  151.1893 LP  0  0  0  0  0  0  0  0  0  0  0  0  # atno 17370 bound_to 10713
  157.7370  131.0556  150.5377 LP  0  0  0  0  0  0  0  0  0  0  0  0  # atno 17371 bound_to 10713
  140.8380  133.8227  155.9048 LP  0  0  0  0  0  0  0  0  0  0  0  0  # atno 17394 bound_to 11000
  140.9264  134.2076  157.4893 LP  0  0  0  0  0  0  0  0  0  0  0  0  # atno 17395 bound_to 11000

$$$$
