AV-unprocessed.smi:43|AV-procd|sdf|393|dock7
  -GOLD-   2262016243D 1   1.00000     0.00000
 Structure written by MMmdl.
 25 26  0  0  0  0  0  0  0  0  2 V2000
  151.5696  138.0387  158.4357 C   0  0  0  0  0  0  0  0  0  0  0  0
  150.3836  137.3666  157.9374 N   0  0  0  0  0  0  0  0  0  0  0  0
  149.8385  136.3495  158.6507 N   0  0  0  0  0  0  0  0  0  0  0  0
  148.7763  135.9611  158.0070 N   0  0  0  0  0  0  0  0  0  0  0  0
  148.5866  136.7029  156.8582 N   0  0  0  0  0  0  0  0  0  0  0  0
  149.6095  137.5496  156.8530 C   0  0  0  0  0  0  0  0  0  0  0  0
  149.8597  138.5140  155.8690 N   0  0  0  0  0  0  0  0  0  0  0  0
  148.9804  138.9701  154.7971 C   0  0  0  0  0  0  0  0  0  0  0  0
  149.3437  140.4246  154.5288 C   0  0  2  0  0  0  0  0  0  0  0  0
  148.9276  140.8624  153.2523 O   0  0  0  0  0  0  0  0  0  0  0  0
  150.8523  140.3988  154.6770 C   0  0  0  0  0  0  0  0  0  0  0  0
  151.0693  139.3431  155.7755 C   0  0  2  0  0  0  0  0  0  0  0  0
  152.3222  138.4939  155.5128 C   0  0  0  0  0  0  0  0  0  0  0  0
  152.1510  137.2632  155.3764 O   0  0  0  0  0  0  0  0  0  0  0  0
  153.4242  139.0847  155.4552 O   0  5  0  0  0  0  0  0  0  0  0  0
  148.9068  141.0651  155.2965 H   0  0  0  0  0  0  0  0  0  0  0  0
  151.1840  139.8516  156.7338 H   0  0  0  0  0  0  0  0  0  0  0  0
  151.4594  139.1176  158.3290 H   0  0  0  0  0  0  0  0  0  0  0  0
  152.4454  137.7022  157.8816 H   0  0  0  0  0  0  0  0  0  0  0  0
  151.7165  137.8137  159.4928 H   0  0  0  0  0  0  0  0  0  0  0  0
  149.1553  138.3523  153.9148 H   0  0  0  0  0  0  0  0  0  0  0  0
  147.9290  138.8873  155.0705 H   0  0  0  0  0  0  0  0  0  0  0  0
  149.1945  140.2184  152.6144 H   0  0  0  0  0  0  0  0  0  0  0  0
  151.3140  140.0929  153.7359 H   0  0  0  0  0  0  0  0  0  0  0  0
  151.2618  141.3729  154.9462 H   0  0  0  0  0  0  0  0  0  0  0  0
  1  2  1  0  0  0  0
  1 18  1  0  0  0  0
  1 19  1  0  0  0  0
  1 20  1  0  0  0  0
  2  6  1  0  0  0  0
  2  3  1  0  0  0  0
  3  4  2  0  0  0  0
  4  5  1  0  0  0  0
  5  6  2  0  0  0  0
  6  7  1  0  0  0  0
  7 12  1  0  0  0  0
  7  8  1  0  0  0  0
  8  9  1  0  0  0  0
  8 21  1  0  0  0  0
  8 22  1  0  0  0  0
  9 16  1  0  0  0  0
  9 10  1  0  0  0  0
  9 11  1  0  0  0  0
 10 23  1  0  0  0  0
 11 12  1  0  0  0  0
 11 24  1  0  0  0  0
 11 25  1  0  0  0  0
 12 17  1  0  0  0  0
 12 13  1  0  0  0  0
 13 14  2  0  0  0  0
 13 15  1  0  0  0  0
M  CHG  1  15  -1
M  END
> <s_m_source_file>
AV-unprocessed.smi

> <i_m_source_file_index>
43

> <i_lp_mmshare_version>
43012

> <i_f3d_flags>
0

> <s_epik_input>
W0NIM11uMW5ubmMxTjJbQ0gyXVtDQEhdKFtPSF0pW0NIMl1bQ0BIXTJDKD1PKVtPSF0=

> <s_epik_cmdline>
J2VwaWtfcHl0aG9uJywgJy1waCcsICc3LjAnLCAnLXRuJywgJzgnLCAnLW1hJywgJzIwMCcsICctbWV0YWxfYmluZGluZycsICctaW1hZScsICc8aW5maWxlLm1hZT4nLCAnLW9tYWUnLCAnPG91dGZpbGUubWFlPic=

> <r_lp_tautomer_probability>
1

> <r_epik_Ionization_Penalty>
0.000193127

> <r_epik_Ionization_Penalty_Charging>
0.000192933

> <r_epik_Ionization_Penalty_Neutral>
1.93728e-07

> <r_epik_State_Penalty>
-0

> <r_epik_Charging_Adjusted_Penalty>
0.000192933

> <i_epik_Tot_Q>
-1

> <i_epik_Tot_abs_Q>
1

> <r_epik_Metal_State_Penalty>
-0

> <b_epik_Metal_Only>
0

> <s_lp_Force_Field>
OPLS_2005

> <r_lp_Energy>
21.0116

> <b_lp_Chiralities_Consistent>
1

> <s_lp_Variant>
AV-unprocessed.smi:43-3

> <Gold.Version>
5.8.1

> <Gold.Id.Protein>
6NUR|6NUR_protein|mol2

> <Gold.PLP.Fitness>
35.8090

> <Gold.PLP.PLP>
-16.4557

> <Gold.PLP.part.hbond>
-4.4468

> <Gold.PLP.part.metal>
0.0000

> <Gold.PLP.part.buried>
-0.2993

> <Gold.PLP.part.nonpolar>
-11.9550

> <Gold.PLP.part.repulsive>
0.0777

> <Gold.PLP.ligand.clash>
0.0000

> <Gold.PLP.ligand.torsion>
0.0522

> <Gold.PLP.Chemscore.Hbond>
6.4833

> <Gold.PLP.Chemscore.CHOScore>
0.0000

> <Gold.PLP.Chemscore.Metal>
0.0000

> <Gold.Chemscore.Hbonds>
donor molecule, donor type, donor heavy atom, donor atom, acceptor molecule, acceptor atom, score
      L1  H    10    23       P1  7957  0.84
      P1  H  6896  6909       L1     3  0.88
      P1  H  7997  8010       L1    15  2.00
      P1  H  8011  8017       L1    10  0.75
      P1  H 10752 10764       L1    14  1.66

> <Gold.PLP.Chemscore.Internal.Correction>
0.0080

> <Gold.Rescore>
     Score         DG    S(hbond)    S(metal)    S(lipo)     H(rot)  DE(clash)    DE(int)     intcor
     14.00     -17.35       3.90        0.00      27.15       1.69       1.12       2.23       ----

> <Gold.Chemscore.Fitness>
13.9970

> <Gold.Chemscore.DG>
-17.3489

> <Gold.Chemscore.ZeroCoef>
-5.4800

> <Gold.Chemscore.Hbond>
3.8968

> <Gold.Chemscore.Metal>
0.0000

> <Gold.Chemscore.Lipo>
27.1512

> <Gold.Chemscore.Internal_Hbond>
0.0000

> <Gold.Chemscore.DEClash>
1.1195

> <Gold.Chemscore.DEInternal>
2.2324

> <Gold.Chemscore.Rot>
1.6887

> <Gold.Chemscore.Internal.Correction>
   9.000000E+99

> <Gold.Chemscore.Hbonds>
donor molecule, donor type, donor heavy atom, donor atom, acceptor molecule, acceptor atom, score
      L1  H    10    23       P1  7957  0.78
      P1  H  6896  6909       L1     3  0.70
      P1  H  7997  8010       L1    15  0.93
      P1  H  8011  8017       L1    10  0.09
      P1  H 10752 10764       L1    14  0.81

> <Gold.Chemscore.Hbond.Weighted>
-13.0154

> <Gold.Chemscore.Metal.Weighted>
-0.0000

> <Gold.Chemscore.Lipo.Weighted>
-3.1767

> <Gold.Chemscore.Internal_Hbond.Weighted>
0.0000

> <Gold.Chemscore.DEClash.Weighted>
1.1195

> <Gold.Chemscore.DEInternal.Weighted>
2.2324

> <Gold.Chemscore.Rot.Weighted>
4.3232

> <Gold.Chemscore.Internal.Correction.Weighted>
   9.000000E+99

> <Gold.Protein.RotatedTorsions>
[ 6907 6896 6895 6894 ] final   62.42 input  -60.11 | X-H torsion
[ 7974 7965 7964 7962 ] final -111.40 input  175.53 | X-H torsion
[ 8008 7997 7996 7995 ] final  108.13 input   59.86 | X-H torsion
[ 10167 10162 10161 10158 ] final  -25.94 input  -65.29 | X-H torsion
[ 10718 10713 10712 10709 ] final  -96.47 input   66.30 | X-H torsion
[ 10763 10752 10751 10750 ] final  -53.81 input  -60.55 | X-H torsion
[ 11005 11000 10999 10996 ] final -172.34 input  -57.11 | X-H torsion

> <Gold.Protein.ActiveResidues>
 VAL166  LYS551  ARG553  GLY616  TRP617  ASP618  TYR619  PRO620  LYS621  CYS622 
 ASP623  PHE694  ASN695  SER759  ASP760  ASP761  ALA762  ILE779  LEU786  VAL792 
 PHE793  MET794  SER795  GLU796  ALA797  LYS798  CYS799  TRP800  GLU811  SER814 

> <Gold.Protein.RotatedAtoms>
  152.4170  134.6023  160.0003 H   0  0  0  0  0  0  0  0  0  0  0  0  # atno 6907 bound_to 6896
  151.6184  133.3335  159.3090 H   0  0  0  0  0  0  0  0  0  0  0  0  # atno 6908 bound_to 6896
  150.8059  134.7222  159.6709 H   0  0  0  0  0  0  0  0  0  0  0  0  # atno 6909 bound_to 6896
  145.1565  140.8856  143.3615 H   0  0  0  0  0  0  0  0  0  0  0  0  # atno 7974 bound_to 7965
  156.1879  140.3082  155.9274 H   0  0  0  0  0  0  0  0  0  0  0  0  # atno 8008 bound_to 7997
  155.3240  140.0457  157.3057 H   0  0  0  0  0  0  0  0  0  0  0  0  # atno 8009 bound_to 7997
  154.5417  140.2263  155.8640 H   0  0  0  0  0  0  0  0  0  0  0  0  # atno 8010 bound_to 7997
  140.7285  143.4221  151.0934 H   0  0  0  0  0  0  0  0  0  0  0  0  # atno 10167 bound_to 10162
  156.0063  130.5153  150.6231 H   0  0  0  0  0  0  0  0  0  0  0  0  # atno 10718 bound_to 10713
  154.1648  135.6469  153.4994 H   0  0  0  0  0  0  0  0  0  0  0  0  # atno 10763 bound_to 10752
  153.0100  135.5369  154.6674 H   0  0  0  0  0  0  0  0  0  0  0  0  # atno 10764 bound_to 10752
  154.5997  135.2942  155.0520 H   0  0  0  0  0  0  0  0  0  0  0  0  # atno 10765 bound_to 10752
  140.4981  134.5920  157.4978 H   0  0  0  0  0  0  0  0  0  0  0  0  # atno 11005 bound_to 11000
  145.0375  139.3288  143.5993 LP  0  0  0  0  0  0  0  0  0  0  0  0  # atno 17320 bound_to 7965
  146.3488  139.9736  142.8703 LP  0  0  0  0  0  0  0  0  0  0  0  0  # atno 17321 bound_to 7965
  139.7868  143.8275  152.3146 LP  0  0  0  0  0  0  0  0  0  0  0  0  # atno 17342 bound_to 10162
  139.8245  144.7281  150.9529 LP  0  0  0  0  0  0  0  0  0  0  0  0  # atno 17343 bound_to 10162
  157.4043  131.0814  151.1280 LP  0  0  0  0  0  0  0  0  0  0  0  0  # atno 17370 bound_to 10713
  157.1931  130.6361  149.5711 LP  0  0  0  0  0  0  0  0  0  0  0  0  # atno 17371 bound_to 10713
  139.9729  134.7262  156.0005 LP  0  0  0  0  0  0  0  0  0  0  0  0  # atno 17394 bound_to 11000
  141.1450  133.6557  156.3840 LP  0  0  0  0  0  0  0  0  0  0  0  0  # atno 17395 bound_to 11000

$$$$
