#       Name:                AV-unprocessed.smi:3085
#       Creating user name   scv26
#       Creation time:       Fri Mar 27 17:14:17 2020


#       File generated by GOLD software.
#

@<TRIPOS>MOLECULE
AV-unprocessed.smi:3085
    32    33     1
SMALL
NO_CHARGES


@<TRIPOS>ATOM
      1 ****        -4.3786   0.9230  -0.6200 C.3            1 S1                 0.0000
      2 ****        -3.8130  -0.4874  -0.8188 C.3            1 S1                 0.0000
      3 ****        -2.3198  -0.5093  -0.8275 C.2            1 S1                 0.0000
      4 ****        -1.5477  -0.5087   0.2540 N.2            1 S1                 0.0000
      5 ****        -0.3105  -0.5165  -0.3287 C.2            1 S1                 0.0000
      6 ****         0.9503  -0.4658   0.4781 C.3            1 S1                 0.0000
      7 ****         1.4350   0.9777   0.7109 C.3            1 S1                 0.0000
      8 ****         2.7232   0.9642   1.4306 N.4            1 S1                 1.0000
      9 ****         3.7274   0.1424   0.7261 C.3            1 S1                 0.0000
     10 ****         3.1748  -1.2727   0.4771 C.3            1 S1                 0.0000
     11 ****         1.9464  -1.1928  -0.2392 O.3            1 S1                 0.0000
     12 ****        -0.2957  -0.4916  -1.6620 N.2            1 S1                 0.0000
     13 ****        -1.6123  -0.4982  -1.9589 N.pl3          1 S1                 0.0000
     14 ****        -1.9656  -0.4848  -2.9054 H              1 S1                 0.0000
     15 ****        -5.4686   0.9081  -0.6170 H              1 S1                 0.0000
     16 ****        -4.0564   1.5917  -1.4189 H              1 S1                 0.0000
     17 ****        -4.0489   1.3494   0.3280 H              1 S1                 0.0000
     18 ****        -4.1672  -1.1442  -0.0235 H              1 S1                 0.0000
     19 ****        -4.1819  -0.9070  -1.7557 H              1 S1                 0.0000
     20 ****         0.7679  -0.9584   1.4352 H              1 S1                 0.0000
     21 ****         1.5643   1.4954  -0.2408 H              1 S1                 0.0000
     22 ****         0.7031   1.5424   1.2889 H              1 S1                 0.0000
     23 ****         3.0666   1.9096   1.5246 H              1 S1                 0.0000
     24 ****         3.9811   0.6199  -0.2214 H              1 S1                 0.0000
     25 ****         4.6408   0.0995   1.3197 H              1 S1                 0.0000
     26 ****         3.8871  -1.8576  -0.1051 H              1 S1                 0.0000
     27 ****         3.0241  -1.8021   1.4194 H              1 S1                 0.0000
     28 ****         2.5747   0.5744   2.3507 H              1 S1                 0.0000
     29 ****        -1.8003  -0.5039   1.2216 LP             1 S1                 0.0000
     30 ****         2.1122  -0.7354  -1.1129 LP             1 S1                 0.0000
     31 ****         1.6104  -2.1197  -0.4067 LP             1 S1                 0.0000
     32 ****         0.4887  -0.4729  -2.2820 LP             1 S1                 0.0000
@<TRIPOS>BOND
    1    1    2 1     
    2    1   15 1     
    3    1   16 1     
    4    1   17 1     
    5    2    3 1     
    6    2   18 1     
    7    2   19 1     
    8    3   13 1     
    9    3    4 2     
   10    4    5 1     
   11    5    6 1     
   12    5   12 2     
   13    6   11 1     
   14    6    7 1     
   15    6   20 1     
   16    7    8 1     
   17    7   21 1     
   18    7   22 1     
   19    8    9 1     
   20    8   23 1     
   21    8   28 1     
   22    9   10 1     
   23    9   24 1     
   24    9   25 1     
   25   10   11 1     
   26   10   26 1     
   27   10   27 1     
   28   12   13 1     
   29   13   14 1     
   30    4   29 1     
   31   11   30 1     
   32   11   31 1     
   33   12   32 1     
@<TRIPOS>SUBSTRUCTURE
      1 S1             1
@<TRIPOS>SET
LONE_PAIRS      STATIC     ATOMS    <user>   **** ""
4 29 30 31 32
DONOR_HYDROGENS      STATIC     ATOMS    <user>   **** ""
3 23 28 14
ATOM$BLUE        STATIC     ATOMS    COLORGROUP SYSTEM
4 29 30 31 32
ATOM$RED        STATIC     ATOMS    COLORGROUP SYSTEM
3 23 28 14
