AV-unprocessed.smi:2083|AV-procd|sdf|8500|dock9
  -GOLD-   2272011213D 1   1.00000     0.00000
 Structure written by MMmdl.
 44 45  0  0  0  0  0  0  0  0  3 V2000
  153.1381  141.7581  159.5861 C   0  0  0  0  0  0  0  0  0  0  0  0
  152.2242  141.3335  158.4880 C   0  0  0  0  0  0  0  0  0  0  0  0
  150.9951  141.7711  158.0831 C   0  0  0  0  0  0  0  0  0  0  0  0
  150.7025  140.9335  156.9721 C   0  0  0  0  0  0  0  0  0  0  0  0
  149.5867  140.9702  156.2275 N   0  5  0  0  0  0  0  0  0  0  0  0
  149.5001  140.2326  155.0976 C   0  0  0  0  0  0  0  0  0  0  0  0
  150.3673  140.1198  154.2280 O   0  0  0  0  0  0  0  0  0  0  0  0
  148.3325  139.5877  154.9627 N   0  0  0  0  0  0  0  0  0  0  0  0
  147.9563  138.7332  153.8402 C   0  0  0  0  0  0  0  0  0  0  0  0
  146.9870  137.5892  154.2505 C   0  0  2  0  0  0  0  0  0  0  0  0
  147.5949  136.7620  155.4057 C   0  0  0  0  0  0  0  0  0  0  0  0
  146.5963  136.6767  153.1260 N   0  3  2  0  0  0  0  0  0  0  0  0
  145.9103  137.3186  151.9667 C   0  0  0  0  0  0  0  0  0  0  0  0
  145.6889  136.3226  150.8158 C   0  0  0  0  0  0  0  0  0  0  0  0
  144.9238  135.0801  151.2851 C   0  0  0  0  0  0  0  0  0  0  0  0
  145.6069  134.4433  152.5061 C   0  0  1  0  0  0  0  0  0  0  0  0
  146.9082  133.7027  152.1502 C   0  0  0  0  0  0  0  0  0  0  0  0
  145.8185  135.4985  153.6095 C   0  0  0  0  0  0  0  0  0  0  0  0
  151.6608  140.0534  156.7357 N   0  0  0  0  0  0  0  0  0  0  0  0
  152.6432  140.3068  157.7003 O   0  0  0  0  0  0  0  0  0  0  0  0
  152.7121  141.5101  160.5582 H   0  0  0  0  0  0  0  0  0  0  0  0
  153.3051  142.8346  159.5535 H   0  0  0  0  0  0  0  0  0  0  0  0
  154.1066  141.2641  159.5053 H   0  0  0  0  0  0  0  0  0  0  0  0
  150.4015  142.5656  158.5098 H   0  0  0  0  0  0  0  0  0  0  0  0
  147.6523  139.7028  155.7001 H   0  0  0  0  0  0  0  0  0  0  0  0
  147.5176  139.3758  153.0754 H   0  0  0  0  0  0  0  0  0  0  0  0
  148.8721  138.3182  153.4180 H   0  0  0  0  0  0  0  0  0  0  0  0
  146.0732  138.0616  154.6141 H   0  0  0  0  0  0  0  0  0  0  0  0
  147.8247  137.3838  156.2710 H   0  0  0  0  0  0  0  0  0  0  0  0
  148.5207  136.2775  155.0943 H   0  0  0  0  0  0  0  0  0  0  0  0
  146.9232  135.9841  155.7643 H   0  0  0  0  0  0  0  0  0  0  0  0
  144.9590  137.7427  152.2919 H   0  0  0  0  0  0  0  0  0  0  0  0
  146.5092  138.1330  151.5610 H   0  0  0  0  0  0  0  0  0  0  0  0
  145.1416  136.8082  150.0074 H   0  0  0  0  0  0  0  0  0  0  0  0
  146.6512  136.0291  150.3955 H   0  0  0  0  0  0  0  0  0  0  0  0
  143.9055  135.3676  151.5512 H   0  0  0  0  0  0  0  0  0  0  0  0
  144.8354  134.3575  150.4731 H   0  0  0  0  0  0  0  0  0  0  0  0
  144.9237  133.6903  152.9011 H   0  0  0  0  0  0  0  0  0  0  0  0
  147.6733  134.3802  151.7712 H   0  0  0  0  0  0  0  0  0  0  0  0
  146.7309  132.9430  151.3886 H   0  0  0  0  0  0  0  0  0  0  0  0
  147.3213  133.1989  153.0245 H   0  0  0  0  0  0  0  0  0  0  0  0
  146.3073  135.0241  154.4588 H   0  0  0  0  0  0  0  0  0  0  0  0
  144.8495  135.8437  153.9741 H   0  0  0  0  0  0  0  0  0  0  0  0
  147.4648  136.3182  152.7560 H   0  0  0  0  0  0  0  0  0  0  0  0
  1  2  1  0  0  0  0
  1 21  1  0  0  0  0
  1 22  1  0  0  0  0
  1 23  1  0  0  0  0
  2 20  1  0  0  0  0
  2  3  2  0  0  0  0
  3  4  1  0  0  0  0
  3 24  1  0  0  0  0
  4  5  1  0  0  0  0
  4 19  2  0  0  0  0
  5  6  1  0  0  0  0
  6  7  2  0  0  0  0
  6  8  1  0  0  0  0
  8  9  1  0  0  0  0
  8 25  1  0  0  0  0
  9 10  1  0  0  0  0
  9 26  1  0  0  0  0
  9 27  1  0  0  0  0
 10 11  1  0  0  0  0
 10 12  1  0  0  0  0
 10 28  1  0  0  0  0
 11 29  1  0  0  0  0
 11 30  1  0  0  0  0
 11 31  1  0  0  0  0
 12 18  1  0  0  0  0
 12 13  1  0  0  0  0
 12 44  1  0  0  0  0
 13 14  1  0  0  0  0
 13 32  1  0  0  0  0
 13 33  1  0  0  0  0
 14 15  1  0  0  0  0
 14 34  1  0  0  0  0
 14 35  1  0  0  0  0
 15 16  1  0  0  0  0
 15 36  1  0  0  0  0
 15 37  1  0  0  0  0
 16 17  1  0  0  0  0
 16 18  1  0  0  0  0
 16 38  1  0  0  0  0
 17 39  1  0  0  0  0
 17 40  1  0  0  0  0
 17 41  1  0  0  0  0
 18 42  1  0  0  0  0
 18 43  1  0  0  0  0
 19 20  1  0  0  0  0
M  CHG  1   5  -1
M  CHG  1  12   1
M  END
> <s_m_source_file>
AV-unprocessed.smi

> <i_m_source_file_index>
2083

> <i_lp_mmshare_version>
43012

> <i_f3d_flags>
0

> <s_epik_input>
W0NIM11jMVtjSF1jKG5vMSlbTkhdQyg9TylbTkhdW0NIMl1bQ0BIXShbQ0gzXSlOMltDSDJdW0NIMl1bQ0gyXVtDQEBIXShbQ0gzXSlbQ0gyXTI=

> <s_epik_cmdline>
J2VwaWtfcHl0aG9uJywgJy1waCcsICc3LjAnLCAnLXRuJywgJzgnLCAnLW1hJywgJzIwMCcsICctbWV0YWxfYmluZGluZycsICctaW1hZScsICc8aW5maWxlLm1hZT4nLCAnLW9tYWUnLCAnPG91dGZpbGUubWFlPic=

> <r_epik_Ionization_Penalty>
6.22434

> <r_epik_Ionization_Penalty_Charging>
6.22425

> <r_epik_Ionization_Penalty_Neutral>
9.62407e-05

> <r_epik_State_Penalty>
6.22423

> <r_epik_Charging_Adjusted_Penalty>
12.4485

> <i_epik_Tot_Q>
0

> <i_epik_Tot_abs_Q>
2

> <r_epik_Metal_State_Penalty>
2.16764

> <b_epik_Metal_Only>
1

> <s_lp_Force_Field>
OPLS_2005

> <r_lp_Energy>
12.2094

> <b_lp_Chiralities_Consistent>
1

> <s_lp_Variant>
AV-unprocessed.smi:2083-11

> <Gold.Version>
5.8.1

> <Gold.Id.Protein>
6NUR|6NUR_protein|mol2

> <Gold.PLP.Fitness>
37.6088

> <Gold.PLP.PLP>
-26.7929

> <Gold.PLP.part.hbond>
-3.0000

> <Gold.PLP.part.metal>
0.0000

> <Gold.PLP.part.buried>
-1.9251

> <Gold.PLP.part.nonpolar>
-22.6230

> <Gold.PLP.part.repulsive>
0.2139

> <Gold.PLP.ligand.clash>
0.0000

> <Gold.PLP.ligand.torsion>
0.6372

> <Gold.PLP.Chemscore.Hbond>
4.0000

> <Gold.PLP.Chemscore.CHOScore>
0.0000

> <Gold.PLP.Chemscore.Metal>
0.0000

> <Gold.Chemscore.Hbonds>
donor molecule, donor type, donor heavy atom, donor atom, acceptor molecule, acceptor atom, score
      L1  H    12    44       P1  7948  2.00
      P1  H  7989  7998       L1     7  1.00
      P1  H  7997  8008       L1    20  0.96

> <Gold.PLP.Chemscore.Internal.Correction>
0.0903

> <Gold.Rescore>
     Score         DG    S(hbond)    S(metal)    S(lipo)     H(rot)  DE(clash)    DE(int)     intcor
     16.09     -18.30       2.86        0.00      61.24       1.52       0.24       1.98       ----

> <Gold.Chemscore.Fitness>
16.0880

> <Gold.Chemscore.DG>
-18.3030

> <Gold.Chemscore.ZeroCoef>
-5.4800

> <Gold.Chemscore.Hbond>
2.8581

> <Gold.Chemscore.Metal>
0.0000

> <Gold.Chemscore.Lipo>
61.2434

> <Gold.Chemscore.Internal_Hbond>
0.0000

> <Gold.Chemscore.DEClash>
0.2374

> <Gold.Chemscore.DEInternal>
1.9776

> <Gold.Chemscore.Rot>
1.5190

> <Gold.Chemscore.Internal.Correction>
   9.000000E+99

> <Gold.Chemscore.Hbonds>
donor molecule, donor type, donor heavy atom, donor atom, acceptor molecule, acceptor atom, score
      L1  H    12    44       P1  7948  1.00
      P1  H  7989  7998       L1     7  0.98
      P1  H  7997  8008       L1    20  0.57

> <Gold.Chemscore.Hbond.Weighted>
-9.5462

> <Gold.Chemscore.Metal.Weighted>
-0.0000

> <Gold.Chemscore.Lipo.Weighted>
-7.1655

> <Gold.Chemscore.Internal_Hbond.Weighted>
0.0000

> <Gold.Chemscore.DEClash.Weighted>
0.2374

> <Gold.Chemscore.DEInternal.Weighted>
1.9776

> <Gold.Chemscore.Rot.Weighted>
3.8886

> <Gold.Chemscore.Internal.Correction.Weighted>
   9.000000E+99

> <Gold.Protein.RotatedTorsions>
[ 6907 6896 6895 6894 ] final  -94.17 input  -60.11 | X-H torsion
[ 7974 7965 7964 7962 ] final   61.91 input  175.53 | X-H torsion
[ 8008 7997 7996 7995 ] final  -70.92 input   59.86 | X-H torsion
[ 10167 10162 10161 10158 ] final   -5.11 input  -65.29 | X-H torsion
[ 10718 10713 10712 10709 ] final  139.68 input   66.30 | X-H torsion
[ 10763 10752 10751 10750 ] final  125.50 input  -60.55 | X-H torsion
[ 11005 11000 10999 10996 ] final   10.38 input  -57.11 | X-H torsion

> <Gold.Protein.ActiveResidues>
 VAL166  LYS551  ARG553  GLY616  TRP617  ASP618  TYR619  PRO620  LYS621  CYS622 
 ASP623  PHE694  ASN695  SER759  ASP760  ASP761  ALA762  ILE779  LEU786  VAL792 
 PHE793  MET794  SER795  GLU796  ALA797  LYS798  CYS799  TRP800  GLU811  SER814 

> <Gold.Protein.RotatedAtoms>
  150.6936  134.1853  159.4264 H   0  0  0  0  0  0  0  0  0  0  0  0  # atno 6907 bound_to 6896
  151.9826  135.0018  160.0567 H   0  0  0  0  0  0  0  0  0  0  0  0  # atno 6908 bound_to 6896
  152.1741  133.4628  159.4961 H   0  0  0  0  0  0  0  0  0  0  0  0  # atno 6909 bound_to 6896
  145.8794  139.3433  143.0715 H   0  0  0  0  0  0  0  0  0  0  0  0  # atno 7974 bound_to 7965
  154.5048  140.0825  156.7872 H   0  0  0  0  0  0  0  0  0  0  0  0  # atno 8008 bound_to 7997
  155.3919  140.3433  155.4233 H   0  0  0  0  0  0  0  0  0  0  0  0  # atno 8009 bound_to 7997
  156.1502  140.1556  156.8770 H   0  0  0  0  0  0  0  0  0  0  0  0  # atno 8010 bound_to 7997
  140.6952  143.6345  150.8492 H   0  0  0  0  0  0  0  0  0  0  0  0  # atno 10167 bound_to 10162
  157.4117  131.1029  151.0447 H   0  0  0  0  0  0  0  0  0  0  0  0  # atno 10718 bound_to 10713
  153.6783  135.3318  155.3171 H   0  0  0  0  0  0  0  0  0  0  0  0  # atno 10763 bound_to 10752
  154.8472  135.4403  154.1633 H   0  0  0  0  0  0  0  0  0  0  0  0  # atno 10764 bound_to 10752
  153.2642  135.6994  153.7623 H   0  0  0  0  0  0  0  0  0  0  0  0  # atno 10765 bound_to 10752
  140.5151  134.0614  155.7829 H   0  0  0  0  0  0  0  0  0  0  0  0  # atno 11005 bound_to 11000
  145.9041  140.9223  143.0487 LP  0  0  0  0  0  0  0  0  0  0  0  0  # atno 17320 bound_to 7965
  144.6727  140.1072  143.7457 LP  0  0  0  0  0  0  0  0  0  0  0  0  # atno 17321 bound_to 7965
  140.0063  143.5691  152.2856 LP  0  0  0  0  0  0  0  0  0  0  0  0  # atno 17342 bound_to 10162
  139.6398  144.7653  151.2362 LP  0  0  0  0  0  0  0  0  0  0  0  0  # atno 17343 bound_to 10162
  157.1409  130.6142  149.5555 LP  0  0  0  0  0  0  0  0  0  0  0  0  # atno 17370 bound_to 10713
  155.9853  130.4882  150.7023 LP  0  0  0  0  0  0  0  0  0  0  0  0  # atno 17371 bound_to 10713
  141.1364  133.9213  157.2423 LP  0  0  0  0  0  0  0  0  0  0  0  0  # atno 17394 bound_to 11000
  139.9637  135.0147  156.9329 LP  0  0  0  0  0  0  0  0  0  0  0  0  # atno 17395 bound_to 11000

$$$$
