#       Name:                AV-unprocessed.smi:2090
#       Creating user name   scv26
#       Creation time:       Fri Mar 27 11:25:32 2020


#       File generated by GOLD software.
#

@<TRIPOS>MOLECULE
AV-unprocessed.smi:2090
    47    48     1
SMALL
NO_CHARGES


@<TRIPOS>ATOM
      1 ****        -7.3215   3.9991  -1.3956 C.3            1 S1                 0.0000
      2 ****        -6.2764   3.3004  -0.5944 C.2            1 S1                 0.0000
      3 ****        -5.4862   2.2148  -0.8459 C.2            1 S1                 0.0000
      4 ****        -4.7107   2.0956   0.3397 C.2            1 S1                 0.0000
      5 ****        -3.7819   1.1576   0.5827 N.pl3          1 S1                -1.0000
      6 ****        -2.5029   1.3480   0.1858 C.2            1 S1                 0.0000
      7 ****        -2.0568   2.3348  -0.4042 O.2            1 S1                 0.0000
      8 ****        -1.6874   0.3299   0.4901 N.am           1 S1                 0.0000
      9 ****        -0.2663   0.2741   0.1773 C.3            1 S1                 0.0000
     10 ****         0.2954  -1.1230   0.4819 C.3            1 S1                 0.0000
     11 ****         1.7342  -1.2361   0.1353 N.4            1 S1                 1.0000
     12 ****         2.1415  -2.6402  -0.1290 C.3            1 S1                 0.0000
     13 ****         3.5964  -2.7143  -0.6225 C.3            1 S1                 0.0000
     14 ****         4.5609  -2.0583   0.3794 C.3            1 S1                 0.0000
     15 ****         6.0123  -2.0976  -0.1197 C.3            1 S1                 0.0000
     16 ****         4.0946  -0.6204   0.6630 C.3            1 S1                 0.0000
     17 ****         2.6295  -0.5887   1.1305 C.3            1 S1                 0.0000
     18 ****        -5.0165   3.0162   1.2387 N.2            1 S1                 0.0000
     19 ****        -6.0141   3.7981   0.6440 O.3            1 S1                 0.0000
     20 ****        -8.0276   3.2831  -1.8158 H              1 S1                 0.0000
     21 ****        -6.8692   4.5523  -2.2188 H              1 S1                 0.0000
     22 ****        -7.8821   4.7043  -0.7816 H              1 S1                 0.0000
     23 ****        -5.4624   1.6052  -1.7367 H              1 S1                 0.0000
     24 ****        -2.0882  -0.4589   0.9765 H              1 S1                 0.0000
     25 ****        -0.1137   0.5130  -0.8766 H              1 S1                 0.0000
     26 ****         0.2427   1.0413   0.7609 H              1 S1                 0.0000
     27 ****         0.1437  -1.3860   1.5301 H              1 S1                 0.0000
     28 ****        -0.2742  -1.8474  -0.1026 H              1 S1                 0.0000
     29 ****         2.0196  -3.2329   0.7790 H              1 S1                 0.0000
     30 ****         1.4880  -3.0783  -0.8845 H              1 S1                 0.0000
     31 ****         3.8764  -3.7560  -0.7831 H              1 S1                 0.0000
     32 ****         3.6768  -2.2207  -1.5923 H              1 S1                 0.0000
     33 ****         4.5161  -2.6208   1.3134 H              1 S1                 0.0000
     34 ****         6.1246  -1.5566  -1.0598 H              1 S1                 0.0000
     35 ****         6.3428  -3.1235  -0.2848 H              1 S1                 0.0000
     36 ****         6.6891  -1.6466   0.6066 H              1 S1                 0.0000
     37 ****         4.7303  -0.1648   1.4231 H              1 S1                 0.0000
     38 ****         4.2025  -0.0108  -0.2354 H              1 S1                 0.0000
     39 ****         2.3346   0.4478   1.2903 H              1 S1                 0.0000
     40 ****         2.5326  -1.0949   2.0923 H              1 S1                 0.0000
     41 ****         1.8542  -0.7404  -0.7366 H              1 S1                 0.0000
     42 ****        -4.0362   0.3157   1.0585 LP             1 S1                 0.0000
     43 ****        -2.6629   3.0963  -0.6340 LP             1 S1                 0.0000
     44 ****        -1.0890   2.3735  -0.6528 LP             1 S1                 0.0000
     45 ****        -4.6196   3.1297   2.1495 LP             1 S1                 0.0000
     46 ****        -6.8435   3.7673   1.2019 LP             1 S1                 0.0000
     47 ****        -5.6993   4.7441   0.5669 LP             1 S1                 0.0000
@<TRIPOS>BOND
    1    1    2 1     
    2    1   20 1     
    3    1   21 1     
    4    1   22 1     
    5    2   19 1     
    6    2    3 2     
    7    3    4 1     
    8    3   23 1     
    9    4    5 1     
   10    4   18 2     
   11    5    6 1     
   12    6    7 2     
   13    6    8 am    
   14    8    9 1     
   15    8   24 1     
   16    9   10 1     
   17    9   25 1     
   18    9   26 1     
   19   10   11 1     
   20   10   27 1     
   21   10   28 1     
   22   11   17 1     
   23   11   12 1     
   24   11   41 1     
   25   12   13 1     
   26   12   29 1     
   27   12   30 1     
   28   13   14 1     
   29   13   31 1     
   30   13   32 1     
   31   14   15 1     
   32   14   16 1     
   33   14   33 1     
   34   15   34 1     
   35   15   35 1     
   36   15   36 1     
   37   16   17 1     
   38   16   37 1     
   39   16   38 1     
   40   17   39 1     
   41   17   40 1     
   42   18   19 1     
   43    5   42 1     
   44    7   43 1     
   45    7   44 1     
   46   18   45 1     
   47   19   46 1     
   48   19   47 1     
@<TRIPOS>SUBSTRUCTURE
      1 S1             1
@<TRIPOS>SET
LONE_PAIRS      STATIC     ATOMS    <user>   **** ""
6 42 43 44 45 46 47
DONOR_HYDROGENS      STATIC     ATOMS    <user>   **** ""
2 24 41
ATOM$BLUE        STATIC     ATOMS    COLORGROUP SYSTEM
6 42 43 44 45 46 47
ATOM$RED        STATIC     ATOMS    COLORGROUP SYSTEM
2 24 41
