#       Name:                AV-unprocessed.smi:645
#       Creating user name   scv26
#       Creation time:       Fri Mar 27 00:08:37 2020


#       File generated by GOLD software.
#

@<TRIPOS>MOLECULE
AV-unprocessed.smi:645
    28    29     1
SMALL
NO_CHARGES


@<TRIPOS>ATOM
      1 ****        -1.9653  -0.5264  -0.7085 C.3            1 S1                 0.0000
      2 ****        -0.4230  -0.4745  -0.7135 C.3            1 S1                 0.0000
      3 ****         0.1343   0.3770   0.4407 C.ar           1 S1                 0.0000
      4 ****         1.0776  -0.1335   1.3662 C.ar           1 S1                 0.0000
      5 ****         1.5400   0.7020   2.4022 C.ar           1 S1                 0.0000
      6 ****         1.1301   1.9765   2.5692 N.ar           1 S1                 0.0000
      7 ****         0.2316   2.4651   1.6897 C.ar           1 S1                 0.0000
      8 ****        -0.2942   1.7132   0.6210 C.ar           1 S1                 0.0000
      9 ****         0.0963  -1.8287  -0.7345 N.am           1 S1                 0.0000
     10 ****         0.8178  -2.0623  -1.8290 C.2            1 S1                 0.0000
     11 ****         1.3621  -3.1465  -2.0248 O.2            1 S1                 0.0000
     12 ****         0.8320  -0.9704  -2.6169 N.pl3          1 S1                -1.0000
     13 ****         0.1138   0.0306  -2.0623 C.2            1 S1                 0.0000
     14 ****        -0.1306   1.1573  -2.4938 O.2            1 S1                 0.0000
     15 ****        -2.4078   0.4649  -0.8086 H              1 S1                 0.0000
     16 ****        -2.3380  -0.9610   0.2193 H              1 S1                 0.0000
     17 ****        -2.3479  -1.1331  -1.5307 H              1 S1                 0.0000
     18 ****         1.4544  -1.1429   1.2980 H              1 S1                 0.0000
     19 ****         2.2604   0.3345   3.1180 H              1 S1                 0.0000
     20 ****        -0.0790   3.4883   1.8412 H              1 S1                 0.0000
     21 ****        -1.0076   2.1640  -0.0527 H              1 S1                 0.0000
     22 ****        -0.0565  -2.4939   0.0088 H              1 S1                 0.0000
     23 ****         1.4799   2.5389   3.3184 LP             1 S1                 0.0000
     24 ****         1.2690  -3.8813  -1.3529 LP             1 S1                 0.0000
     25 ****         1.8981  -3.2940  -2.8560 LP             1 S1                 0.0000
     26 ****         1.3093  -0.9088  -3.4934 LP             1 S1                 0.0000
     27 ****        -0.6990   1.7843  -1.9610 LP             1 S1                 0.0000
     28 ****         0.2392   1.4455  -3.3770 LP             1 S1                 0.0000
@<TRIPOS>BOND
    1    1    2 1     
    2    1   15 1     
    3    1   16 1     
    4    1   17 1     
    5    2   13 1     
    6    2    3 1     
    7    2    9 1     
    8    3    8 ar    
    9    3    4 ar    
   10    4    5 ar    
   11    4   18 1     
   12    5    6 ar    
   13    5   19 1     
   14    6    7 ar    
   15    7    8 ar    
   16    7   20 1     
   17    8   21 1     
   18    9   10 am    
   19    9   22 1     
   20   10   11 2     
   21   10   12 1     
   22   12   13 1     
   23   13   14 2     
   24    6   23 1     
   25   11   24 1     
   26   11   25 1     
   27   12   26 1     
   28   14   27 1     
   29   14   28 1     
@<TRIPOS>SUBSTRUCTURE
      1 S1             1
@<TRIPOS>SET
LONE_PAIRS      STATIC     ATOMS    <user>   **** ""
6 23 24 25 26 27 28
DONOR_HYDROGENS      STATIC     ATOMS    <user>   **** ""
1 22
ATOM$BLUE        STATIC     ATOMS    COLORGROUP SYSTEM
6 23 24 25 26 27 28
ATOM$RED        STATIC     ATOMS    COLORGROUP SYSTEM
1 22
