AV-unprocessed.smi:1712|AV-procd|sdf|6901|dock8
  -GOLD-   22720 8103D 1   1.00000     0.00000
 Structure written by MMmdl.
 37 38  0  0  0  0  0  0  0  0  1 V2000
  147.9646  141.5229  153.9546 C   0  0  0  0  0  0  0  0  0  0  0  0
  148.5429  140.1129  153.6974 C   0  0  2  0  0  0  0  0  0  0  0  0
  147.5499  139.0651  154.2648 C   0  0  0  0  0  0  0  0  0  0  0  0
  147.4122  137.9021  153.3900 N   0  0  0  0  0  0  0  0  0  0  0  0
  146.2558  137.3313  153.0246 C   0  0  0  0  0  0  0  0  0  0  0  0
  145.1494  137.7413  153.3764 O   0  0  0  0  0  0  0  0  0  0  0  0
  146.4679  136.2616  152.2408 N   0  0  0  0  0  0  0  0  0  0  0  0
  145.4919  135.4182  151.6526 C   0  0  0  0  0  0  0  0  0  0  0  0
  145.6806  134.0384  151.3685 C   0  0  0  0  0  0  0  0  0  0  0  0
  144.6003  133.5061  150.8148 N   0  0  0  0  0  0  0  0  0  0  0  0
  143.7241  134.5336  150.7419 N   0  0  0  0  0  0  0  0  0  0  0  0
  144.2234  135.7168  151.2404 C   0  0  0  0  0  0  0  0  0  0  0  0
  149.9325  139.9492  154.1784 N   0  0  0  0  0  0  0  0  0  0  0  0
  150.1110  140.4139  155.5573 C   0  0  0  0  0  0  0  0  0  0  0  0
  151.5532  140.2298  156.0603 C   0  0  0  0  0  0  0  0  0  0  0  0
  151.9271  138.8628  155.9513 O   0  0  0  0  0  0  0  0  0  0  0  0
  151.8328  138.3852  154.6156 C   0  0  0  0  0  0  0  0  0  0  0  0
  150.3927  138.5594  154.1032 C   0  0  0  0  0  0  0  0  0  0  0  0
  142.7995  134.4134  150.3530 H   0  0  0  0  0  0  0  0  0  0  0  0
  146.9059  141.5683  153.6981 H   0  0  0  0  0  0  0  0  0  0  0  0
  148.4559  142.2839  153.3492 H   0  0  0  0  0  0  0  0  0  0  0  0
  148.0618  141.8115  155.0017 H   0  0  0  0  0  0  0  0  0  0  0  0
  148.5450  139.9751  152.6151 H   0  0  0  0  0  0  0  0  0  0  0  0
  147.8605  138.7640  155.2666 H   0  0  0  0  0  0  0  0  0  0  0  0
  146.5624  139.5013  154.4107 H   0  0  0  0  0  0  0  0  0  0  0  0
  148.2703  137.4874  153.0570 H   0  0  0  0  0  0  0  0  0  0  0  0
  147.4293  136.0245  152.0446 H   0  0  0  0  0  0  0  0  0  0  0  0
  146.5480  133.4185  151.5420 H   0  0  0  0  0  0  0  0  0  0  0  0
  143.6463  136.6292  151.2518 H   0  0  0  0  0  0  0  0  0  0  0  0
  149.8697  141.4724  155.6398 H   0  0  0  0  0  0  0  0  0  0  0  0
  149.4263  139.8811  156.2189 H   0  0  0  0  0  0  0  0  0  0  0  0
  152.2440  140.8512  155.4881 H   0  0  0  0  0  0  0  0  0  0  0  0
  151.6335  140.5384  157.1027 H   0  0  0  0  0  0  0  0  0  0  0  0
  152.5373  138.9224  153.9784 H   0  0  0  0  0  0  0  0  0  0  0  0
  152.1180  137.3333  154.5928 H   0  0  0  0  0  0  0  0  0  0  0  0
  149.7239  137.9170  154.6783 H   0  0  0  0  0  0  0  0  0  0  0  0
  150.3662  138.2025  153.0748 H   0  0  0  0  0  0  0  0  0  0  0  0
  1  2  1  0  0  0  0
  1 20  1  0  0  0  0
  1 21  1  0  0  0  0
  1 22  1  0  0  0  0
  2  3  1  0  0  0  0
  2 13  1  0  0  0  0
  2 23  1  0  0  0  0
  3  4  1  0  0  0  0
  3 24  1  0  0  0  0
  3 25  1  0  0  0  0
  4  5  1  0  0  0  0
  4 26  1  0  0  0  0
  5  6  2  0  0  0  0
  5  7  1  0  0  0  0
  7  8  1  0  0  0  0
  7 27  1  0  0  0  0
  8 12  2  0  0  0  0
  8  9  1  0  0  0  0
  9 10  2  0  0  0  0
  9 28  1  0  0  0  0
 10 11  1  0  0  0  0
 11 19  1  0  0  0  0
 11 12  1  0  0  0  0
 12 29  1  0  0  0  0
 13 18  1  0  0  0  0
 13 14  1  0  0  0  0
 14 15  1  0  0  0  0
 14 30  1  0  0  0  0
 14 31  1  0  0  0  0
 15 16  1  0  0  0  0
 15 32  1  0  0  0  0
 15 33  1  0  0  0  0
 16 17  1  0  0  0  0
 17 18  1  0  0  0  0
 17 34  1  0  0  0  0
 17 35  1  0  0  0  0
 18 36  1  0  0  0  0
 18 37  1  0  0  0  0
M  END
> <s_m_source_file>
AV-unprocessed.smi

> <i_m_source_file_index>
1712

> <i_lp_mmshare_version>
43012

> <i_f3d_flags>
0

> <s_epik_input>
W0NIMl0xW0NIMl1PW0NIMl1bQ0gyXU4xW0NASF0oW0NIM10pW0NIMl1bTkhdQyg9TylbTkhdYzJbY0hdbltuSF1bY0hdMg==

> <s_epik_cmdline>
J2VwaWtfcHl0aG9uJywgJy1waCcsICc3LjAnLCAnLXRuJywgJzgnLCAnLW1hJywgJzIwMCcsICctbWV0YWxfYmluZGluZycsICctaW1hZScsICc8aW5maWxlLm1hZT4nLCAnLW9tYWUnLCAnPG91dGZpbGUubWFlPic=

> <r_lp_tautomer_probability>
0.5

> <r_epik_Ionization_Penalty>
0.242772

> <r_epik_Ionization_Penalty_Charging>
0

> <r_epik_Ionization_Penalty_Neutral>
0.242772

> <r_epik_State_Penalty>
0.233765

> <r_epik_Charging_Adjusted_Penalty>
0.233765

> <i_epik_Tot_Q>
0

> <i_epik_Tot_abs_Q>
0

> <r_epik_Metal_State_Penalty>
0.233764

> <b_epik_Metal_Only>
0

> <s_lp_Force_Field>
OPLS_2005

> <r_lp_Energy>
36.7302

> <b_lp_Chiralities_Consistent>
1

> <s_lp_Variant>
AV-unprocessed.smi:1712-1

> <Gold.Version>
5.8.1

> <Gold.Id.Protein>
6NUR|6NUR_protein|mol2

> <Gold.PLP.Fitness>
39.9623

> <Gold.PLP.PLP>
-28.0553

> <Gold.PLP.part.hbond>
-3.8472

> <Gold.PLP.part.metal>
0.0000

> <Gold.PLP.part.buried>
-2.1244

> <Gold.PLP.part.nonpolar>
-23.6797

> <Gold.PLP.part.repulsive>
1.1747

> <Gold.PLP.ligand.clash>
0.0000

> <Gold.PLP.ligand.torsion>
0.9191

> <Gold.PLP.Chemscore.Hbond>
3.5710

> <Gold.PLP.Chemscore.CHOScore>
0.9984

> <Gold.PLP.Chemscore.Metal>
0.0000

> <Gold.Chemscore.Hbonds>
donor molecule, donor type, donor heavy atom, donor atom, acceptor molecule, acceptor atom, score
      L1  H     4    26       P1  7948  0.88
      L1  H     7    27       P1  7948  0.99
      L1  H    11    19       P1 10186  1.00
      P1  H  7989  7998       L1    13  0.68
      L1  C    12    29       P1 10171  0.98

> <Gold.PLP.Chemscore.Internal.Correction>
0.0370

> <Gold.Rescore>
     Score         DG    S(hbond)    S(metal)    S(lipo)     H(rot)  DE(clash)    DE(int)     intcor
     16.70     -17.64       2.91        0.00      56.66       1.63       0.02       0.93       ----

> <Gold.Chemscore.Fitness>
16.7004

> <Gold.Chemscore.DG>
-17.6426

> <Gold.Chemscore.ZeroCoef>
-5.4800

> <Gold.Chemscore.Hbond>
2.9068

> <Gold.Chemscore.Metal>
0.0000

> <Gold.Chemscore.Lipo>
56.6631

> <Gold.Chemscore.Internal_Hbond>
0.0000

> <Gold.Chemscore.DEClash>
0.0163

> <Gold.Chemscore.DEInternal>
0.9258

> <Gold.Chemscore.Rot>
1.6311

> <Gold.Chemscore.Internal.Correction>
   9.000000E+99

> <Gold.Chemscore.Hbonds>
donor molecule, donor type, donor heavy atom, donor atom, acceptor molecule, acceptor atom, score
      L1  H     4    26       P1  7948  0.86
      L1  H     7    27       P1  7948  0.92
      L1  H    11    19       P1 10186  0.69
      P1  H  7989  7998       L1    13  0.02

> <Gold.Chemscore.Hbond.Weighted>
-9.7087

> <Gold.Chemscore.Metal.Weighted>
-0.0000

> <Gold.Chemscore.Lipo.Weighted>
-6.6296

> <Gold.Chemscore.Internal_Hbond.Weighted>
0.0000

> <Gold.Chemscore.DEClash.Weighted>
0.0163

> <Gold.Chemscore.DEInternal.Weighted>
0.9258

> <Gold.Chemscore.Rot.Weighted>
4.1757

> <Gold.Chemscore.Internal.Correction.Weighted>
   9.000000E+99

> <Gold.Protein.RotatedTorsions>
[ 6907 6896 6895 6894 ] final  -77.94 input  -60.11 | X-H torsion
[ 7974 7965 7964 7962 ] final  174.37 input  175.53 | X-H torsion
[ 8008 7997 7996 7995 ] final -174.52 input   59.86 | X-H torsion
[ 10167 10162 10161 10158 ] final  -61.11 input  -65.29 | X-H torsion
[ 10718 10713 10712 10709 ] final  169.93 input   66.30 | X-H torsion
[ 10763 10752 10751 10750 ] final  -89.67 input  -60.55 | X-H torsion
[ 11005 11000 10999 10996 ] final -112.01 input  -57.11 | X-H torsion

> <Gold.Protein.ActiveResidues>
 VAL166  LYS551  ARG553  GLY616  TRP617  ASP618  TYR619  PRO620  LYS621  CYS622 
 ASP623  PHE694  ASN695  SER759  ASP760  ASP761  ALA762  ILE779  LEU786  VAL792 
 PHE793  MET794  SER795  GLU796  ALA797  LYS798  CYS799  TRP800  GLU811  SER814 

> <Gold.Protein.RotatedAtoms>
  150.6985  134.4347  159.5264 H   0  0  0  0  0  0  0  0  0  0  0  0  # atno 6907 bound_to 6896
  152.2067  134.8536  160.0511 H   0  0  0  0  0  0  0  0  0  0  0  0  # atno 6908 bound_to 6896
  151.9436  133.3610  159.4011 H   0  0  0  0  0  0  0  0  0  0  0  0  # atno 6909 bound_to 6896
  144.7223  139.9787  143.6438 H   0  0  0  0  0  0  0  0  0  0  0  0  # atno 7974 bound_to 7965
  155.9712  140.1163  157.0811 H   0  0  0  0  0  0  0  0  0  0  0  0  # atno 8008 bound_to 7997
  154.4157  140.1163  156.5376 H   0  0  0  0  0  0  0  0  0  0  0  0  # atno 8009 bound_to 7997
  155.6594  140.3473  155.4779 H   0  0  0  0  0  0  0  0  0  0  0  0  # atno 8010 bound_to 7997
  140.6028  143.2365  151.5891 H   0  0  0  0  0  0  0  0  0  0  0  0  # atno 10167 bound_to 10162
  157.0155  131.0217  151.2790 H   0  0  0  0  0  0  0  0  0  0  0  0  # atno 10718 bound_to 10713
  154.6577  135.5332  153.7980 H   0  0  0  0  0  0  0  0  0  0  0  0  # atno 10763 bound_to 10752
  153.0423  135.6498  154.0919 H   0  0  0  0  0  0  0  0  0  0  0  0  # atno 10764 bound_to 10752
  154.0831  135.2945  155.3266 H   0  0  0  0  0  0  0  0  0  0  0  0  # atno 10765 bound_to 10752
  141.0700  133.9395  157.2503 H   0  0  0  0  0  0  0  0  0  0  0  0  # atno 11005 bound_to 11000
  146.0505  139.3506  143.0642 LP  0  0  0  0  0  0  0  0  0  0  0  0  # atno 17320 bound_to 7965
  145.8221  140.9674  143.0893 LP  0  0  0  0  0  0  0  0  0  0  0  0  # atno 17321 bound_to 7965
  139.5303  144.2936  152.1131 LP  0  0  0  0  0  0  0  0  0  0  0  0  # atno 17342 bound_to 10162
  140.2120  144.4553  150.6381 LP  0  0  0  0  0  0  0  0  0  0  0  0  # atno 17343 bound_to 10162
  157.5288  130.8045  149.7893 LP  0  0  0  0  0  0  0  0  0  0  0  0  # atno 17370 bound_to 10713
  156.0120  130.3829  150.2232 LP  0  0  0  0  0  0  0  0  0  0  0  0  # atno 17371 bound_to 10713
  139.9514  135.0174  156.9005 LP  0  0  0  0  0  0  0  0  0  0  0  0  # atno 17394 bound_to 11000
  140.5693  134.0459  155.7425 LP  0  0  0  0  0  0  0  0  0  0  0  0  # atno 17395 bound_to 11000

$$$$
