#       Name:                AV-unprocessed.smi:1527
#       Creating user name   scv26
#       Creation time:       Fri Mar 27 06:29:46 2020


#       File generated by GOLD software.
#

@<TRIPOS>MOLECULE
AV-unprocessed.smi:1527
    38    38     1
SMALL
NO_CHARGES


@<TRIPOS>ATOM
      1 ****        -2.3394  -1.1209   2.4594 C.3            1 S1                 0.0000
      2 ****        -2.8437  -1.8375   1.1979 C.3            1 S1                 0.0000
      3 ****        -2.3895  -1.1691  -0.1130 C.3            1 S1                 0.0000
      4 ****        -2.9949  -1.8574  -1.3455 C.3            1 S1                 0.0000
      5 ****        -0.9314  -1.1824  -0.2051 N.am           1 S1                 0.0000
      6 ****        -0.1692  -0.1900  -0.6894 C.2            1 S1                 0.0000
      7 ****        -0.6292   0.8531  -1.1557 O.2            1 S1                 0.0000
      8 ****         1.3471  -0.4271  -0.6573 C.3            1 S1                 0.0000
      9 ****         2.1112   0.8008  -0.3963 N.am           1 S1                 0.0000
     10 ****         2.6778   1.3690  -1.5271 N.2            1 S1                 0.0000
     11 ****         3.3630   2.4575  -1.4267 C.2            1 S1                 0.0000
     12 ****         3.9026   2.9881  -2.5725 O.3            1 S1                 0.0000
     13 ****         3.5603   3.1033  -0.1477 C.2            1 S1                 0.0000
     14 ****         3.0074   2.5402   0.9489 C.2            1 S1                 0.0000
     15 ****         2.2224   1.3070   0.8707 C.2            1 S1                 0.0000
     16 ****         1.7075   0.7720   1.8527 O.2            1 S1                 0.0000
     17 ****         3.6359   2.4061  -3.2675 H              1 S1                 0.0000
     18 ****        -2.7218  -1.6050   3.3581 H              1 S1                 0.0000
     19 ****        -2.6665  -0.0809   2.4776 H              1 S1                 0.0000
     20 ****        -1.2508  -1.1298   2.5196 H              1 S1                 0.0000
     21 ****        -2.5143  -2.8772   1.2177 H              1 S1                 0.0000
     22 ****        -3.9336  -1.8650   1.2264 H              1 S1                 0.0000
     23 ****        -2.7457  -0.1374  -0.0955 H              1 S1                 0.0000
     24 ****        -4.0845  -1.8424  -1.3069 H              1 S1                 0.0000
     25 ****        -2.6788  -2.8988  -1.4156 H              1 S1                 0.0000
     26 ****        -2.6931  -1.3544  -2.2649 H              1 S1                 0.0000
     27 ****        -0.4636  -2.0040   0.1497 H              1 S1                 0.0000
     28 ****         1.5919  -1.1820   0.0927 H              1 S1                 0.0000
     29 ****         1.6399  -0.8604  -1.6152 H              1 S1                 0.0000
     30 ****         4.1377   4.0137  -0.0810 H              1 S1                 0.0000
     31 ****         3.1468   3.0115   1.9106 H              1 S1                 0.0000
     32 ****        -1.6189   0.9931  -1.1868 LP             1 S1                 0.0000
     33 ****        -0.0131   1.5599  -1.5031 LP             1 S1                 0.0000
     34 ****         2.5554   0.9353  -2.4198 LP             1 S1                 0.0000
     35 ****         4.8999   3.0212  -2.5070 LP             1 S1                 0.0000
     36 ****         3.5482   3.9095  -2.7322 LP             1 S1                 0.0000
     37 ****         1.1799  -0.0706   1.7440 LP             1 S1                 0.0000
     38 ****         1.8167   1.1800   2.7592 LP             1 S1                 0.0000
@<TRIPOS>BOND
    1    1    2 1     
    2    1   18 1     
    3    1   19 1     
    4    1   20 1     
    5    2    3 1     
    6    2   21 1     
    7    2   22 1     
    8    3    4 1     
    9    3    5 1     
   10    3   23 1     
   11    4   24 1     
   12    4   25 1     
   13    4   26 1     
   14    5    6 am    
   15    5   27 1     
   16    6    7 2     
   17    6    8 1     
   18    8   28 1     
   19    8   29 1     
   20    8    9 1     
   21    9   10 1     
   22    9   15 am    
   23   10   11 2     
   24   11   12 1     
   25   11   13 1     
   26   12   17 1     
   27   13   30 1     
   28   13   14 2     
   29   14   31 1     
   30   14   15 1     
   31   15   16 2     
   32    7   32 1     
   33    7   33 1     
   34   10   34 1     
   35   12   35 1     
   36   12   36 1     
   37   16   37 1     
   38   16   38 1     
@<TRIPOS>SUBSTRUCTURE
      1 S1             1
@<TRIPOS>SET
LONE_PAIRS      STATIC     ATOMS    <user>   **** ""
7 32 33 34 35 36 37 38
DONOR_HYDROGENS      STATIC     ATOMS    <user>   **** ""
2 27 17
ATOM$BLUE        STATIC     ATOMS    COLORGROUP SYSTEM
7 32 33 34 35 36 37 38
ATOM$RED        STATIC     ATOMS    COLORGROUP SYSTEM
2 27 17
