AV-unprocessed.smi:114|AV-procd|sdf|1112|dock2
  -GOLD-   2262018233D 1   1.00000     0.00000
 Structure written by MMmdl.
 32 34  0  0  0  0  0  0  0  0  1 V2000
  145.1734  135.4020  150.2327 N   0  0  0  0  0  0  0  0  0  0  0  0
  145.3155  135.9566  151.4447 C   0  0  0  0  0  0  0  0  0  0  0  0
  144.8183  135.2985  152.5182 N   0  0  0  0  0  0  0  0  0  0  0  0
  144.9420  135.8166  153.7470 C   0  0  0  0  0  0  0  0  0  0  0  0
  144.4158  135.0908  154.7613 F   0  0  0  0  0  0  0  0  0  0  0  0
  145.5266  136.9714  154.0858 N   0  0  0  0  0  0  0  0  0  0  0  0
  146.0261  137.6369  153.0044 C   0  0  0  0  0  0  0  0  0  0  0  0
  145.9630  137.1983  151.6557 C   0  0  0  0  0  0  0  0  0  0  0  0
  146.5790  138.1270  150.8279 N   0  0  0  0  0  0  0  0  0  0  0  0
  146.9854  139.0593  151.6486 C   0  0  0  0  0  0  0  0  0  0  0  0
  146.6822  138.8480  152.9787 N   0  0  0  0  0  0  0  0  0  0  0  0
  147.0036  139.6876  154.1770 C   0  0  1  0  0  0  0  0  0  0  0  0
  148.1065  139.1241  154.8213 O   0  0  0  0  0  0  0  0  0  0  0  0
  149.2936  139.7772  154.3847 C   0  0  2  0  0  0  0  0  0  0  0  0
  150.4710  139.4944  155.3337 C   0  0  0  0  0  0  0  0  0  0  0  0
  151.6319  140.1495  154.8688 O   0  0  0  0  0  0  0  0  0  0  0  0
  148.8333  141.2376  154.3087 C   0  0  2  0  0  0  0  0  0  0  0  0
  148.8440  141.8287  155.5984 O   0  0  0  0  0  0  0  0  0  0  0  0
  147.4237  141.1026  153.7328 C   0  0  2  0  0  0  0  0  0  0  0  0
  146.5474  142.1177  154.1857 O   0  0  0  0  0  0  0  0  0  0  0  0
  146.1090  139.6436  154.7996 H   0  0  0  0  0  0  0  0  0  0  0  0
  149.5400  139.4440  153.3746 H   0  0  0  0  0  0  0  0  0  0  0  0
  149.4759  141.8314  153.6581 H   0  0  0  0  0  0  0  0  0  0  0  0
  147.4757  141.1424  152.6434 H   0  0  0  0  0  0  0  0  0  0  0  0
  145.5380  135.8753  149.4181 H   0  0  0  0  0  0  0  0  0  0  0  0
  144.7043  134.5131  150.1354 H   0  0  0  0  0  0  0  0  0  0  0  0
  147.5215  139.9292  151.2971 H   0  0  0  0  0  0  0  0  0  0  0  0
  150.2526  139.8832  156.3288 H   0  0  0  0  0  0  0  0  0  0  0  0
  150.6558  138.4243  155.4338 H   0  0  0  0  0  0  0  0  0  0  0  0
  152.0277  140.6090  155.5935 H   0  0  0  0  0  0  0  0  0  0  0  0
  148.7762  142.7658  155.4952 H   0  0  0  0  0  0  0  0  0  0  0  0
  147.0642  142.8015  154.5845 H   0  0  0  0  0  0  0  0  0  0  0  0
  1  2  1  0  0  0  0
  1 25  1  0  0  0  0
  1 26  1  0  0  0  0
  2  8  1  0  0  0  0
  2  3  2  0  0  0  0
  3  4  1  0  0  0  0
  4  5  1  0  0  0  0
  4  6  2  0  0  0  0
  6  7  1  0  0  0  0
  7 11  1  0  0  0  0
  7  8  2  0  0  0  0
  8  9  1  0  0  0  0
  9 10  2  0  0  0  0
 10 11  1  0  0  0  0
 10 27  1  0  0  0  0
 11 12  1  0  0  0  0
 12 21  1  0  0  0  0
 12 19  1  0  0  0  0
 12 13  1  0  0  0  0
 13 14  1  0  0  0  0
 14 22  1  0  0  0  0
 14 15  1  0  0  0  0
 14 17  1  0  0  0  0
 15 16  1  0  0  0  0
 15 28  1  0  0  0  0
 15 29  1  0  0  0  0
 16 30  1  0  0  0  0
 17 23  1  0  0  0  0
 17 18  1  0  0  0  0
 17 19  1  0  0  0  0
 18 31  1  0  0  0  0
 19 24  1  0  0  0  0
 19 20  1  0  0  0  0
 20 32  1  0  0  0  0
M  END
> <s_m_source_file>
AV-unprocessed.smi

> <i_m_source_file_index>
114

> <i_lp_mmshare_version>
43012

> <i_f3d_flags>
0

> <s_epik_input>
RmMobjEpbmMoW05IMl0pYyhjMTIpbltjSF1uMltDQEBIXTNPW0NASF0oW0NIMl1bT0hdKVtDQEBIXShbT0hdKVtDQEBIXTNbT0hd

> <s_epik_cmdline>
J2VwaWtfcHl0aG9uJywgJy1waCcsICc3LjAnLCAnLXRuJywgJzgnLCAnLW1hJywgJzIwMCcsICctbWV0YWxfYmluZGluZycsICctaW1hZScsICc8aW5maWxlLm1hZT4nLCAnLW9tYWUnLCAnPG91dGZpbGUubWFlPic=

> <r_lp_tautomer_probability>
1

> <r_epik_Ionization_Penalty>
1.13199e-05

> <r_epik_Ionization_Penalty_Charging>
0

> <r_epik_Ionization_Penalty_Neutral>
1.13199e-05

> <r_epik_State_Penalty>
-0

> <r_epik_Charging_Adjusted_Penalty>
0

> <i_epik_Tot_Q>
0

> <i_epik_Tot_abs_Q>
0

> <r_epik_Metal_State_Penalty>
-0

> <b_epik_Metal_Only>
0

> <s_epik_Chemistry_Notes>
This compound contains an acetal/aminal-like group ( X-CH(R)-Y where X, Y are N, S, or O) that may be acid/base labile, releasing an aldehyde.

> <s_lp_Force_Field>
OPLS_2005

> <r_lp_Energy>
39.4962

> <b_lp_Chiralities_Consistent>
1

> <s_lp_Variant>
AV-unprocessed.smi:114-6

> <Gold.Version>
5.8.1

> <Gold.Id.Protein>
6NUR|6NUR_protein|mol2

> <Gold.PLP.Fitness>
39.2329

> <Gold.PLP.PLP>
-27.4287

> <Gold.PLP.part.hbond>
-3.7862

> <Gold.PLP.part.metal>
0.0000

> <Gold.PLP.part.buried>
-1.7772

> <Gold.PLP.part.nonpolar>
-25.0992

> <Gold.PLP.part.repulsive>
1.9943

> <Gold.PLP.ligand.clash>
0.0000

> <Gold.PLP.ligand.torsion>
0.4438

> <Gold.PLP.Chemscore.Hbond>
3.3468

> <Gold.PLP.Chemscore.CHOScore>
0.8759

> <Gold.PLP.Chemscore.Metal>
0.0000

> <Gold.Chemscore.Hbonds>
donor molecule, donor type, donor heavy atom, donor atom, acceptor molecule, acceptor atom, score
      L1  H     1    25       P1  7921  0.33
      L1  H    18    31       P1  8028  1.00
      P1  H  7954  7966       L1     9  0.95
      P1  H  7989  7998       L1    16  1.00
      L1  C    10    27       P1  7957  0.89

> <Gold.PLP.Chemscore.Internal.Correction>
0.0236

> <Gold.Rescore>
     Score         DG    S(hbond)    S(metal)    S(lipo)     H(rot)  DE(clash)    DE(int)     intcor
      6.29      -8.41       2.79        0.00      33.52       4.03       1.54       0.58       ----

> <Gold.Chemscore.Fitness>
6.2929

> <Gold.Chemscore.DG>
-8.4117

> <Gold.Chemscore.ZeroCoef>
-5.4800

> <Gold.Chemscore.Hbond>
2.7906

> <Gold.Chemscore.Metal>
0.0000

> <Gold.Chemscore.Lipo>
33.5208

> <Gold.Chemscore.Internal_Hbond>
0.0000

> <Gold.Chemscore.DEClash>
1.5431

> <Gold.Chemscore.DEInternal>
0.5757

> <Gold.Chemscore.Rot>
4.0277

> <Gold.Chemscore.Internal.Correction>
   9.000000E+99

> <Gold.Chemscore.Hbonds>
donor molecule, donor type, donor heavy atom, donor atom, acceptor molecule, acceptor atom, score
      L1  H     1    25       P1  7921  0.33
      L1  H    18    31       P1  8028  0.99
      P1  H  7954  7966       L1     9  0.21
      P1  H  7989  7998       L1    16  0.83

> <Gold.Chemscore.Hbond.Weighted>
-9.3207

> <Gold.Chemscore.Metal.Weighted>
-0.0000

> <Gold.Chemscore.Lipo.Weighted>
-3.9219

> <Gold.Chemscore.Internal_Hbond.Weighted>
0.0000

> <Gold.Chemscore.DEClash.Weighted>
1.5431

> <Gold.Chemscore.DEInternal.Weighted>
0.5757

> <Gold.Chemscore.Rot.Weighted>
10.3110

> <Gold.Chemscore.Internal.Correction.Weighted>
   9.000000E+99

> <Gold.Protein.RotatedTorsions>
[ 6907 6896 6895 6894 ] final  -39.63 input  -60.11 | X-H torsion
[ 7974 7965 7964 7962 ] final   82.43 input  175.53 | X-H torsion
[ 8008 7997 7996 7995 ] final -158.98 input   59.86 | X-H torsion
[ 10167 10162 10161 10158 ] final  151.80 input  -65.29 | X-H torsion
[ 10718 10713 10712 10709 ] final  158.17 input   66.30 | X-H torsion
[ 10763 10752 10751 10750 ] final -175.67 input  -60.55 | X-H torsion
[ 11005 11000 10999 10996 ] final -125.44 input  -57.11 | X-H torsion

> <Gold.Protein.ActiveResidues>
 VAL166  LYS551  ARG553  GLY616  TRP617  ASP618  TYR619  PRO620  LYS621  CYS622 
 ASP623  PHE694  ASN695  SER759  ASP760  ASP761  ALA762  ILE779  LEU786  VAL792 
 PHE793  MET794  SER795  GLU796  ALA797  LYS798  CYS799  TRP800  GLU811  SER814 

> <Gold.Protein.RotatedAtoms>
  150.9881  134.9222  159.7883 H   0  0  0  0  0  0  0  0  0  0  0  0  # atno 6907 bound_to 6896
  152.5242  134.3319  159.9196 H   0  0  0  0  0  0  0  0  0  0  0  0  # atno 6908 bound_to 6896
  151.3325  133.3953  159.2698 H   0  0  0  0  0  0  0  0  0  0  0  0  # atno 6909 bound_to 6896
  145.6252  139.2393  143.2116 H   0  0  0  0  0  0  0  0  0  0  0  0  # atno 7974 bound_to 7965
  155.7557  140.0832  157.2180 H   0  0  0  0  0  0  0  0  0  0  0  0  # atno 8008 bound_to 7997
  154.4008  140.1552  156.2831 H   0  0  0  0  0  0  0  0  0  0  0  0  # atno 8009 bound_to 7997
  155.8888  140.3416  155.5943 H   0  0  0  0  0  0  0  0  0  0  0  0  # atno 8010 bound_to 7997
  139.4837  144.5411  151.7563 H   0  0  0  0  0  0  0  0  0  0  0  0  # atno 10167 bound_to 10162
  157.1815  131.0633  151.2129 H   0  0  0  0  0  0  0  0  0  0  0  0  # atno 10718 bound_to 10713
  154.5815  135.2836  155.0727 H   0  0  0  0  0  0  0  0  0  0  0  0  # atno 10763 bound_to 10752
  154.2062  135.6416  153.5105 H   0  0  0  0  0  0  0  0  0  0  0  0  # atno 10764 bound_to 10752
  153.0090  135.5480  154.6471 H   0  0  0  0  0  0  0  0  0  0  0  0  # atno 10765 bound_to 10752
  140.9762  134.0737  157.3816 H   0  0  0  0  0  0  0  0  0  0  0  0  # atno 11005 bound_to 11000
  146.1400  140.7071  142.9371 LP  0  0  0  0  0  0  0  0  0  0  0  0  # atno 17320 bound_to 7965
  144.7215  140.4389  143.7004 LP  0  0  0  0  0  0  0  0  0  0  0  0  # atno 17321 bound_to 7965
  140.4951  144.1253  150.5958 LP  0  0  0  0  0  0  0  0  0  0  0  0  # atno 17342 bound_to 10162
  140.4127  143.2649  151.9813 LP  0  0  0  0  0  0  0  0  0  0  0  0  # atno 17343 bound_to 10162
  157.3948  130.7301  149.6723 LP  0  0  0  0  0  0  0  0  0  0  0  0  # atno 17370 bound_to 10713
  155.9724  130.4137  150.4094 LP  0  0  0  0  0  0  0  0  0  0  0  0  # atno 17371 bound_to 10713
  139.8931  135.0129  156.6883 LP  0  0  0  0  0  0  0  0  0  0  0  0  # atno 17394 bound_to 11000
  140.7256  133.9103  155.8176 LP  0  0  0  0  0  0  0  0  0  0  0  0  # atno 17395 bound_to 11000

$$$$
