AV-unprocessed.smi:1520|AV-procd|sdf|6129|dock1
  -GOLD-   22720 6273D 1   1.00000     0.00000
 Structure written by MMmdl.
 37 38  0  0  0  0  0  0  0  0  1 V2000
  151.2924  141.4303  158.5213 O   0  0  0  0  0  0  0  0  0  0  0  0
  150.7454  142.4452  158.0898 C   0  0  0  0  0  0  0  0  0  0  0  0
  150.5992  143.6971  158.9638 C   0  0  0  0  0  0  0  0  0  0  0  0
  151.9285  144.2985  159.4639 C   0  0  0  0  0  0  0  0  0  0  0  0
  152.6377  144.7180  158.4167 F   0  0  0  0  0  0  0  0  0  0  0  0
  151.7067  145.3377  160.2701 F   0  0  0  0  0  0  0  0  0  0  0  0
  152.6432  143.3850  160.1226 F   0  0  0  0  0  0  0  0  0  0  0  0
  150.2465  142.5375  156.8472 N   0  0  0  0  0  0  0  0  0  0  0  0
  150.3033  141.4858  155.8387 C   0  0  0  0  0  0  0  0  0  0  0  0
  148.9745  141.2920  155.1322 C   0  0  0  0  0  0  0  0  0  0  0  0
  148.8859  140.5075  153.9646 C   0  0  0  0  0  0  0  0  0  0  0  0
  147.6310  140.3740  153.3399 C   0  0  0  0  0  0  0  0  0  0  0  0
  146.5063  140.9581  153.8052 N   0  0  0  0  0  0  0  0  0  0  0  0
  146.5919  141.7115  154.9280 C   0  0  0  0  0  0  0  0  0  0  0  0
  145.4241  142.3125  155.4190 N   0  0  0  0  0  0  0  0  0  0  0  0
  145.4216  142.4898  156.8661 C   0  0  0  0  0  0  0  0  0  0  0  0
  144.0607  143.0416  157.3261 C   0  0  0  0  0  0  0  0  0  0  0  0
  143.7750  144.2520  156.6308 O   0  0  0  0  0  0  0  0  0  0  0  0
  143.7078  144.0565  155.2209 C   0  0  0  0  0  0  0  0  0  0  0  0
  145.0597  143.5316  154.7078 C   0  0  0  0  0  0  0  0  0  0  0  0
  147.8046  141.9083  155.6213 C   0  0  0  0  0  0  0  0  0  0  0  0
  150.0570  144.4510  158.3915 H   0  0  0  0  0  0  0  0  0  0  0  0
  149.9704  143.4454  159.8187 H   0  0  0  0  0  0  0  0  0  0  0  0
  149.8130  143.4071  156.5723 H   0  0  0  0  0  0  0  0  0  0  0  0
  151.0843  141.6927  155.1050 H   0  0  0  0  0  0  0  0  0  0  0  0
  150.5887  140.5552  156.3299 H   0  0  0  0  0  0  0  0  0  0  0  0
  149.7582  140.0214  153.5530 H   0  0  0  0  0  0  0  0  0  0  0  0
  147.5279  139.7819  152.4426 H   0  0  0  0  0  0  0  0  0  0  0  0
  145.6249  141.5367  157.3561 H   0  0  0  0  0  0  0  0  0  0  0  0
  146.2165  143.1784  157.1563 H   0  0  0  0  0  0  0  0  0  0  0  0
  143.2666  142.3138  157.1516 H   0  0  0  0  0  0  0  0  0  0  0  0
  144.0788  143.2431  158.3972 H   0  0  0  0  0  0  0  0  0  0  0  0
  142.9025  143.3617  154.9771 H   0  0  0  0  0  0  0  0  0  0  0  0
  143.4668  145.0053  154.7415 H   0  0  0  0  0  0  0  0  0  0  0  0
  145.8301  144.2897  154.8551 H   0  0  0  0  0  0  0  0  0  0  0  0
  145.0029  143.3320  153.6371 H   0  0  0  0  0  0  0  0  0  0  0  0
  147.8353  142.5190  156.5122 H   0  0  0  0  0  0  0  0  0  0  0  0
  1  2  2  0  0  0  0
  2  3  1  0  0  0  0
  2  8  1  0  0  0  0
  3  4  1  0  0  0  0
  3 22  1  0  0  0  0
  3 23  1  0  0  0  0
  4  5  1  0  0  0  0
  4  6  1  0  0  0  0
  4  7  1  0  0  0  0
  8  9  1  0  0  0  0
  8 24  1  0  0  0  0
  9 10  1  0  0  0  0
  9 25  1  0  0  0  0
  9 26  1  0  0  0  0
 10 21  1  0  0  0  0
 10 11  2  0  0  0  0
 11 12  1  0  0  0  0
 11 27  1  0  0  0  0
 12 13  2  0  0  0  0
 12 28  1  0  0  0  0
 13 14  1  0  0  0  0
 14 15  1  0  0  0  0
 14 21  2  0  0  0  0
 15 20  1  0  0  0  0
 15 16  1  0  0  0  0
 16 17  1  0  0  0  0
 16 29  1  0  0  0  0
 16 30  1  0  0  0  0
 17 18  1  0  0  0  0
 17 31  1  0  0  0  0
 17 32  1  0  0  0  0
 18 19  1  0  0  0  0
 19 20  1  0  0  0  0
 19 33  1  0  0  0  0
 19 34  1  0  0  0  0
 20 35  1  0  0  0  0
 20 36  1  0  0  0  0
 21 37  1  0  0  0  0
M  END
> <s_m_source_file>
AV-unprocessed.smi

> <i_m_source_file_index>
1520

> <i_lp_mmshare_version>
43012

> <i_f3d_flags>
0

> <s_epik_input>
RkMoRikoRilbQ0gyXUMoPU8pW05IXVtDSDJdYzFbY0hdW2NIXW5jKFtjSF0xKU4yW0NIMl1bQ0gyXU9bQ0gyXVtDSDJdMg==

> <s_epik_cmdline>
J2VwaWtfcHl0aG9uJywgJy1waCcsICc3LjAnLCAnLXRuJywgJzgnLCAnLW1hJywgJzIwMCcsICctbWV0YWxfYmluZGluZycsICctaW1hZScsICc8aW5maWxlLm1hZT4nLCAnLW9tYWUnLCAnPG91dGZpbGUubWFlPic=

> <r_lp_tautomer_probability>
1

> <r_epik_Ionization_Penalty>
0.00358568

> <r_epik_Ionization_Penalty_Charging>
0

> <r_epik_Ionization_Penalty_Neutral>
0.00358568

> <r_epik_State_Penalty>
0.00254794

> <r_epik_Charging_Adjusted_Penalty>
0.00254794

> <i_epik_Tot_Q>
0

> <i_epik_Tot_abs_Q>
0

> <r_epik_Metal_State_Penalty>
-0

> <b_epik_Metal_Only>
0

> <s_lp_Force_Field>
OPLS_2005

> <r_lp_Energy>
12.9291

> <b_lp_Chiralities_Consistent>
1

> <s_lp_Variant>
AV-unprocessed.smi:1520-1

> <Gold.Version>
5.8.1

> <Gold.Id.Protein>
6NUR|6NUR_protein|mol2

> <Gold.PLP.Fitness>
45.2297

> <Gold.PLP.PLP>
-42.4076

> <Gold.PLP.part.hbond>
-1.0000

> <Gold.PLP.part.metal>
0.0000

> <Gold.PLP.part.buried>
-2.1810

> <Gold.PLP.part.nonpolar>
-40.1636

> <Gold.PLP.part.repulsive>
0.4711

> <Gold.PLP.ligand.clash>
0.0000

> <Gold.PLP.ligand.torsion>
0.8699

> <Gold.PLP.Chemscore.Hbond>
1.0000

> <Gold.PLP.Chemscore.CHOScore>
0.4805

> <Gold.PLP.Chemscore.Metal>
0.0000

> <Gold.Chemscore.Hbonds>
donor molecule, donor type, donor heavy atom, donor atom, acceptor molecule, acceptor atom, score
      L1  H     8    24       P1  8028  1.00
      L1  C    12    28       P1  7957  0.56

> <Gold.PLP.Chemscore.Internal.Correction>
0.1203

> <Gold.Rescore>
     Score         DG    S(hbond)    S(metal)    S(lipo)     H(rot)  DE(clash)    DE(int)     intcor
      9.31     -11.60       1.00        0.00      67.72       2.01       0.29       2.00       ----

> <Gold.Chemscore.Fitness>
9.3079

> <Gold.Chemscore.DG>
-11.5972

> <Gold.Chemscore.ZeroCoef>
-5.4800

> <Gold.Chemscore.Hbond>
1.0000

> <Gold.Chemscore.Metal>
0.0000

> <Gold.Chemscore.Lipo>
67.7178

> <Gold.Chemscore.Internal_Hbond>
0.0000

> <Gold.Chemscore.DEClash>
0.2911

> <Gold.Chemscore.DEInternal>
1.9982

> <Gold.Chemscore.Rot>
2.0101

> <Gold.Chemscore.Internal.Correction>
   9.000000E+99

> <Gold.Chemscore.Hbonds>
donor molecule, donor type, donor heavy atom, donor atom, acceptor molecule, acceptor atom, score
      L1  H     8    24       P1  8028  1.00

> <Gold.Chemscore.Hbond.Weighted>
-3.3400

> <Gold.Chemscore.Metal.Weighted>
-0.0000

> <Gold.Chemscore.Lipo.Weighted>
-7.9230

> <Gold.Chemscore.Internal_Hbond.Weighted>
0.0000

> <Gold.Chemscore.DEClash.Weighted>
0.2911

> <Gold.Chemscore.DEInternal.Weighted>
1.9982

> <Gold.Chemscore.Rot.Weighted>
5.1458

> <Gold.Chemscore.Internal.Correction.Weighted>
   9.000000E+99

> <Gold.Protein.RotatedTorsions>
[ 6907 6896 6895 6894 ] final -117.84 input  -60.11 | X-H torsion
[ 7974 7965 7964 7962 ] final -144.01 input  175.53 | X-H torsion
[ 8008 7997 7996 7995 ] final  161.76 input   59.86 | X-H torsion
[ 10167 10162 10161 10158 ] final  -86.61 input  -65.29 | X-H torsion
[ 10718 10713 10712 10709 ] final   72.86 input   66.30 | X-H torsion
[ 10763 10752 10751 10750 ] final  149.87 input  -60.55 | X-H torsion
[ 11005 11000 10999 10996 ] final   37.55 input  -57.11 | X-H torsion

> <Gold.Protein.ActiveResidues>
 VAL166  LYS551  ARG553  GLY616  TRP617  ASP618  TYR619  PRO620  LYS621  CYS622 
 ASP623  PHE694  ASN695  SER759  ASP760  ASP761  ALA762  ILE779  LEU786  VAL792 
 PHE793  MET794  SER795  GLU796  ALA797  LYS798  CYS799  TRP800  GLU811  SER814 

> <Gold.Protein.RotatedAtoms>
  150.8170  133.8320  159.3155 H   0  0  0  0  0  0  0  0  0  0  0  0  # atno 6907 bound_to 6896
  151.6089  135.1040  160.0086 H   0  0  0  0  0  0  0  0  0  0  0  0  # atno 6908 bound_to 6896
  152.4261  133.7157  159.6561 H   0  0  0  0  0  0  0  0  0  0  0  0  # atno 6909 bound_to 6896
  144.8328  140.5763  143.5504 H   0  0  0  0  0  0  0  0  0  0  0  0  # atno 7974 bound_to 7965
  156.2080  140.1768  156.7758 H   0  0  0  0  0  0  0  0  0  0  0  0  # atno 8008 bound_to 7997
  154.5682  140.0687  156.8954 H   0  0  0  0  0  0  0  0  0  0  0  0  # atno 8009 bound_to 7997
  155.2722  140.3343  155.4267 H   0  0  0  0  0  0  0  0  0  0  0  0  # atno 8010 bound_to 7997
  140.3925  143.2698  151.9247 H   0  0  0  0  0  0  0  0  0  0  0  0  # atno 10167 bound_to 10162
  157.6521  130.9600  150.0989 H   0  0  0  0  0  0  0  0  0  0  0  0  # atno 10718 bound_to 10713
  154.0782  135.2861  155.3295 H   0  0  0  0  0  0  0  0  0  0  0  0  # atno 10763 bound_to 10752
  154.6701  135.5302  153.8131 H   0  0  0  0  0  0  0  0  0  0  0  0  # atno 10764 bound_to 10752
  153.0459  135.6555  154.0959 H   0  0  0  0  0  0  0  0  0  0  0  0  # atno 10765 bound_to 10752
  140.2215  134.3636  155.8003 H   0  0  0  0  0  0  0  0  0  0  0  0  # atno 11005 bound_to 11000
  145.4859  139.1492  143.3736 LP  0  0  0  0  0  0  0  0  0  0  0  0  # atno 17320 bound_to 7965
  146.2629  140.4996  142.8846 LP  0  0  0  0  0  0  0  0  0  0  0  0  # atno 17321 bound_to 7965
  139.4788  144.5714  151.8082 LP  0  0  0  0  0  0  0  0  0  0  0  0  # atno 17342 bound_to 10162
  140.4825  144.1429  150.5935 LP  0  0  0  0  0  0  0  0  0  0  0  0  # atno 17343 bound_to 10162
  156.1917  130.3655  149.8901 LP  0  0  0  0  0  0  0  0  0  0  0  0  # atno 17370 bound_to 10713
  156.6828  130.8865  151.3578 LP  0  0  0  0  0  0  0  0  0  0  0  0  # atno 17371 bound_to 10713
  141.2223  133.7196  156.8583 LP  0  0  0  0  0  0  0  0  0  0  0  0  # atno 17394 bound_to 11000
  140.1845  134.9009  157.2988 LP  0  0  0  0  0  0  0  0  0  0  0  0  # atno 17395 bound_to 11000

$$$$
