AV-unprocessed.smi:38|AV-procd|sdf|348|dock9
  -GOLD-   2262016183D 1   1.00000     0.00000
 Structure written by MMmdl.
 27 28  0  0  0  0  0  0  0  0  2 V2000
  153.0740  140.7226  159.0093 O   0  0  0  0  0  0  0  0  0  0  0  0
  152.3088  140.8690  158.0573 C   0  0  0  0  0  0  0  0  0  0  0  0
  152.3362  140.0618  156.9570 N   0  5  0  0  0  0  0  0  0  0  0  0
  151.4839  140.2234  155.9023 C   0  0  0  0  0  0  0  0  0  0  0  0
  151.5180  139.5155  154.8956 O   0  0  0  0  0  0  0  0  0  0  0  0
  150.5144  141.2609  155.9576 N   0  0  0  0  0  0  0  0  0  0  0  0
  149.5724  141.4626  154.7955 C   0  0  2  0  0  0  0  0  0  0  0  0
  148.2997  142.1776  155.2364 C   0  0  0  0  0  0  0  0  0  0  0  0
  147.2530  141.5880  154.2962 C   0  0  2  0  0  0  0  0  0  0  0  0
  146.1167  141.1761  155.0336 O   0  0  0  0  0  0  0  0  0  0  0  0
  147.9787  140.4379  153.5576 C   0  0  2  0  0  0  0  0  0  0  0  0
  147.1970  139.1183  153.4169 C   0  0  0  0  0  0  0  0  0  0  0  0
  147.7036  138.3652  152.3356 O   0  0  0  0  0  0  0  0  0  0  0  0
  149.1614  140.2254  154.3174 O   0  0  0  0  0  0  0  0  0  0  0  0
  150.4760  142.1084  157.0516 C   0  0  0  0  0  0  0  0  0  0  0  0
  151.3251  141.9500  158.0875 C   0  0  0  0  0  0  0  0  0  0  0  0
  151.2660  142.7891  159.1362 F   0  0  0  0  0  0  0  0  0  0  0  0
  150.1225  141.9813  154.0078 H   0  0  0  0  0  0  0  0  0  0  0  0
  146.9295  142.3372  153.5728 H   0  0  0  0  0  0  0  0  0  0  0  0
  148.2707  140.8039  152.5711 H   0  0  0  0  0  0  0  0  0  0  0  0
  148.0870  141.9274  156.2776 H   0  0  0  0  0  0  0  0  0  0  0  0
  148.4131  143.2586  155.1479 H   0  0  0  0  0  0  0  0  0  0  0  0
  146.1031  140.2318  155.0625 H   0  0  0  0  0  0  0  0  0  0  0  0
  147.2349  138.5351  154.3375 H   0  0  0  0  0  0  0  0  0  0  0  0
  146.1480  139.3181  153.1977 H   0  0  0  0  0  0  0  0  0  0  0  0
  148.1329  138.9543  151.7344 H   0  0  0  0  0  0  0  0  0  0  0  0
  149.7612  142.9174  157.0819 H   0  0  0  0  0  0  0  0  0  0  0  0
  1  2  2  0  0  0  0
  2 16  1  0  0  0  0
  2  3  1  0  0  0  0
  3  4  1  0  0  0  0
  4  5  2  0  0  0  0
  4  6  1  0  0  0  0
  6  7  1  0  0  0  0
  6 15  1  0  0  0  0
  7 18  1  0  0  0  0
  7 14  1  0  0  0  0
  7  8  1  0  0  0  0
  8  9  1  0  0  0  0
  8 21  1  0  0  0  0
  8 22  1  0  0  0  0
  9 19  1  0  0  0  0
  9 10  1  0  0  0  0
  9 11  1  0  0  0  0
 10 23  1  0  0  0  0
 11 20  1  0  0  0  0
 11 12  1  0  0  0  0
 11 14  1  0  0  0  0
 12 13  1  0  0  0  0
 12 24  1  0  0  0  0
 12 25  1  0  0  0  0
 13 26  1  0  0  0  0
 15 16  2  0  0  0  0
 15 27  1  0  0  0  0
 16 17  1  0  0  0  0
M  CHG  1   3  -1
M  END
> <s_m_source_file>
AV-unprocessed.smi

> <i_m_source_file_index>
38

> <i_lp_mmshare_version>
43012

> <i_f3d_flags>
0

> <s_epik_input>
Tz1jMVtuSF1jKD1PKW4oW2NIXWMxRilbQ0BIXTJbQ0gyXVtDQEhdKFtPSF0pW0NASF0oTzIpW0NIMl1bT0hd

> <s_epik_cmdline>
J2VwaWtfcHl0aG9uJywgJy1waCcsICc3LjAnLCAnLXRuJywgJzgnLCAnLW1hJywgJzIwMCcsICctbWV0YWxfYmluZGluZycsICctaW1hZScsICc8aW5maWxlLm1hZT4nLCAnLW9tYWUnLCAnPG91dGZpbGUubWFlPic=

> <r_epik_Ionization_Penalty>
1.68146

> <r_epik_Ionization_Penalty_Charging>
3.4211e-08

> <r_epik_Ionization_Penalty_Neutral>
1.68146

> <r_epik_State_Penalty>
1.78593

> <r_epik_Charging_Adjusted_Penalty>
1.78593

> <i_epik_Tot_Q>
-1

> <i_epik_Tot_abs_Q>
1

> <r_epik_Metal_State_Penalty>
0.0113696

> <b_epik_Metal_Only>
0

> <s_epik_Chemistry_Notes>
This compound contains an acetal/aminal-like group ( X-CH(R)-Y where X, Y are N, S, or O) that may be acid/base labile, releasing an aldehyde.

> <s_lp_Force_Field>
OPLS_2005

> <r_lp_Energy>
42.0277

> <b_lp_Chiralities_Consistent>
1

> <s_lp_Variant>
AV-unprocessed.smi:38-14

> <Gold.Version>
5.8.1

> <Gold.Id.Protein>
6NUR|6NUR_protein|mol2

> <Gold.PLP.Fitness>
40.7419

> <Gold.PLP.PLP>
-27.4904

> <Gold.PLP.part.hbond>
-3.9968

> <Gold.PLP.part.metal>
0.0000

> <Gold.PLP.part.buried>
0.1586

> <Gold.PLP.part.nonpolar>
-24.8637

> <Gold.PLP.part.repulsive>
0.1748

> <Gold.PLP.ligand.clash>
0.0000

> <Gold.PLP.ligand.torsion>
0.8850

> <Gold.PLP.Chemscore.Hbond>
4.0000

> <Gold.PLP.Chemscore.CHOScore>
1.0000

> <Gold.PLP.Chemscore.Metal>
0.0000

> <Gold.Chemscore.Hbonds>
donor molecule, donor type, donor heavy atom, donor atom, acceptor molecule, acceptor atom, score
      L1  H    13    26       P1  7957  1.00
      P1  H  7989  7998       L1     5  1.00
      P1  H  7997  8008       L1     3  1.89
      L1  C    15    27       P1  8028  1.00

> <Gold.PLP.Chemscore.Internal.Correction>
0.0216

> <Gold.Rescore>
     Score         DG    S(hbond)    S(metal)    S(lipo)     H(rot)  DE(clash)    DE(int)     intcor
      7.39     -11.04       2.58        0.00      37.03       2.88       1.49       2.16       ----

> <Gold.Chemscore.Fitness>
7.3856

> <Gold.Chemscore.DG>
-11.0388

> <Gold.Chemscore.ZeroCoef>
-5.4800

> <Gold.Chemscore.Hbond>
2.5758

> <Gold.Chemscore.Metal>
0.0000

> <Gold.Chemscore.Lipo>
37.0259

> <Gold.Chemscore.Internal_Hbond>
0.0000

> <Gold.Chemscore.DEClash>
1.4940

> <Gold.Chemscore.DEInternal>
2.1591

> <Gold.Chemscore.Rot>
2.8815

> <Gold.Chemscore.Internal.Correction>
   9.000000E+99

> <Gold.Chemscore.Hbonds>
donor molecule, donor type, donor heavy atom, donor atom, acceptor molecule, acceptor atom, score
      L1  H    13    26       P1  7957  0.89
      P1  H  7989  7998       L1     5  0.30
      P1  H  7997  8008       L1     3  0.21

> <Gold.Chemscore.Hbond.Weighted>
-8.6033

> <Gold.Chemscore.Metal.Weighted>
-0.0000

> <Gold.Chemscore.Lipo.Weighted>
-4.3320

> <Gold.Chemscore.Internal_Hbond.Weighted>
0.0000

> <Gold.Chemscore.DEClash.Weighted>
1.4940

> <Gold.Chemscore.DEInternal.Weighted>
2.1591

> <Gold.Chemscore.Rot.Weighted>
7.3765

> <Gold.Chemscore.Internal.Correction.Weighted>
   9.000000E+99

> <Gold.Protein.RotatedTorsions>
[ 6907 6896 6895 6894 ] final   28.48 input  -60.11 | X-H torsion
[ 7974 7965 7964 7962 ] final  -13.44 input  175.53 | X-H torsion
[ 8008 7997 7996 7995 ] final  -51.87 input   59.86 | X-H torsion
[ 10167 10162 10161 10158 ] final   67.97 input  -65.29 | X-H torsion
[ 10718 10713 10712 10709 ] final  -17.01 input   66.30 | X-H torsion
[ 10763 10752 10751 10750 ] final   79.94 input  -60.55 | X-H torsion
[ 11005 11000 10999 10996 ] final  149.34 input  -57.11 | X-H torsion

> <Gold.Protein.ActiveResidues>
 VAL166  LYS551  ARG553  GLY616  TRP617  ASP618  TYR619  PRO620  LYS621  CYS622 
 ASP623  PHE694  ASN695  SER759  ASP760  ASP761  ALA762  ILE779  LEU786  VAL792 
 PHE793  MET794  SER795  GLU796  ALA797  LYS798  CYS799  TRP800  GLU811  SER814 

> <Gold.Protein.RotatedAtoms>
  152.0176  134.9841  160.0569 H   0  0  0  0  0  0  0  0  0  0  0  0  # atno 6907 bound_to 6896
  152.1368  133.4435  159.4756 H   0  0  0  0  0  0  0  0  0  0  0  0  # atno 6908 bound_to 6896
  150.6861  134.2272  159.4463 H   0  0  0  0  0  0  0  0  0  0  0  0  # atno 6909 bound_to 6896
  146.2114  140.3204  142.8390 H   0  0  0  0  0  0  0  0  0  0  0  0  # atno 7974 bound_to 7965
  154.4093  140.1237  156.4899 H   0  0  0  0  0  0  0  0  0  0  0  0  # atno 8008 bound_to 7997
  155.7001  140.3495  155.4910 H   0  0  0  0  0  0  0  0  0  0  0  0  # atno 8009 bound_to 7997
  155.9393  140.1084  157.1059 H   0  0  0  0  0  0  0  0  0  0  0  0  # atno 8010 bound_to 7997
  140.0838  144.5048  150.7144 H   0  0  0  0  0  0  0  0  0  0  0  0  # atno 10167 bound_to 10162
  156.5795  130.4770  149.6326 H   0  0  0  0  0  0  0  0  0  0  0  0  # atno 10718 bound_to 10713
  153.0993  135.4821  154.8837 H   0  0  0  0  0  0  0  0  0  0  0  0  # atno 10763 bound_to 10752
  154.7360  135.3071  154.8812 H   0  0  0  0  0  0  0  0  0  0  0  0  # atno 10764 bound_to 10752
  153.9434  135.6831  153.4797 H   0  0  0  0  0  0  0  0  0  0  0  0  # atno 10765 bound_to 10752
  140.1037  134.8967  157.1833 H   0  0  0  0  0  0  0  0  0  0  0  0  # atno 11005 bound_to 11000
  144.8924  140.7540  143.5918 LP  0  0  0  0  0  0  0  0  0  0  0  0  # atno 17320 bound_to 7965
  145.3127  139.1813  143.4630 LP  0  0  0  0  0  0  0  0  0  0  0  0  # atno 17321 bound_to 7965
  140.7064  143.2471  151.4713 LP  0  0  0  0  0  0  0  0  0  0  0  0  # atno 17342 bound_to 10162
  139.5764  144.1809  152.1909 LP  0  0  0  0  0  0  0  0  0  0  0  0  # atno 17343 bound_to 10162
  156.2644  130.6981  151.1759 LP  0  0  0  0  0  0  0  0  0  0  0  0  # atno 17370 bound_to 10713
  157.7330  131.0595  150.5601 LP  0  0  0  0  0  0  0  0  0  0  0  0  # atno 17371 bound_to 10713
  140.3185  134.2943  155.7251 LP  0  0  0  0  0  0  0  0  0  0  0  0  # atno 17394 bound_to 11000
  141.2112  133.7695  156.9878 LP  0  0  0  0  0  0  0  0  0  0  0  0  # atno 17395 bound_to 11000

$$$$
