AV-unprocessed.smi:235|AV-procd|sdf|1808|dock2
  -GOLD-   2262020383D 1   1.00000     0.00000
 Structure written by MMmdl.
 54 58  0  0  0  0  0  0  0  0  1 V2000
  141.0307  135.1187  153.6920 O   0  0  0  0  0  0  0  0  0  0  0  0
  141.8790  135.9644  153.4046 C   0  0  0  0  0  0  0  0  0  0  0  0
  141.6698  137.2849  153.5046 N   0  0  0  0  0  0  0  0  0  0  0  0
  140.4612  137.9017  153.9458 C   0  0  0  0  0  0  0  0  0  0  0  0
  139.1572  137.3760  153.3864 C   0  0  0  0  0  0  0  0  0  0  0  0
  139.6797  138.7117  152.9344 C   0  0  0  0  0  0  0  0  0  0  0  0
  143.2707  135.5361  152.9113 C   0  0  1  0  0  0  0  0  0  0  0  0
  143.1967  134.8906  151.5179 C   0  0  0  0  0  0  0  0  0  0  0  0
  144.5655  135.1789  150.9104 C   0  0  0  0  0  0  0  0  0  0  0  0
  144.9128  136.5588  151.4662 C   0  0  0  0  0  0  0  0  0  0  0  0
  144.1742  136.6741  152.7175 N   0  0  0  0  0  0  0  0  0  0  0  0
  144.7095  137.3722  153.7553 C   0  0  0  0  0  0  0  0  0  0  0  0
  144.2655  137.1347  155.0187 N   0  0  0  0  0  0  0  0  0  0  0  0
  144.7721  137.8077  156.0553 C   0  0  0  0  0  0  0  0  0  0  0  0
  145.7138  138.7522  156.0564 N   0  0  0  0  0  0  0  0  0  0  0  0
  146.1594  139.0037  154.7928 C   0  0  0  0  0  0  0  0  0  0  0  0
  145.7192  138.3662  153.5973 C   0  0  0  0  0  0  0  0  0  0  0  0
  146.3996  138.8979  152.5065 N   0  0  0  0  0  0  0  0  0  0  0  0
  147.1967  139.7905  153.0269 C   0  0  0  0  0  0  0  0  0  0  0  0
  147.1154  139.9198  154.3942 N   0  0  0  0  0  0  0  0  0  0  0  0
  147.8750  140.8312  155.2309 C   0  0  0  0  0  0  0  0  0  0  0  0
  149.3400  140.9662  154.7732 C   0  0  1  0  0  0  0  0  0  0  0  0
  149.9300  142.1302  155.3212 O   0  0  0  0  0  0  0  0  0  0  0  0
  150.1884  139.7250  155.1159 C   0  0  1  0  0  0  0  0  0  0  0  0
  149.7928  138.4151  154.4123 C   0  0  0  0  0  0  0  0  0  0  0  0
  151.0995  137.9087  153.8226 C   0  0  0  0  0  0  0  0  0  0  0  0
  152.1578  138.6677  154.6142 C   0  0  0  0  0  0  0  0  0  0  0  0
  151.5607  139.9391  154.8036 O   0  0  0  0  0  0  0  0  0  0  0  0
  142.4256  137.9019  153.2452 H   0  0  0  0  0  0  0  0  0  0  0  0
  140.4301  138.2640  154.9725 H   0  0  0  0  0  0  0  0  0  0  0  0
  139.2038  136.5513  152.6773 H   0  0  0  0  0  0  0  0  0  0  0  0
  138.2934  137.3722  154.0480 H   0  0  0  0  0  0  0  0  0  0  0  0
  139.1656  139.6006  153.2945 H   0  0  0  0  0  0  0  0  0  0  0  0
  140.0727  138.7796  151.9216 H   0  0  0  0  0  0  0  0  0  0  0  0
  143.7259  134.8306  153.6094 H   0  0  0  0  0  0  0  0  0  0  0  0
  142.9797  133.8229  151.5627 H   0  0  0  0  0  0  0  0  0  0  0  0
  142.4252  135.3610  150.9052 H   0  0  0  0  0  0  0  0  0  0  0  0
  145.2869  134.4439  151.2697 H   0  0  0  0  0  0  0  0  0  0  0  0
  144.5651  135.1475  149.8206 H   0  0  0  0  0  0  0  0  0  0  0  0
  145.9905  136.6631  151.5998 H   0  0  0  0  0  0  0  0  0  0  0  0
  144.5746  137.3424  150.7870 H   0  0  0  0  0  0  0  0  0  0  0  0
  144.3628  137.5534  157.0220 H   0  0  0  0  0  0  0  0  0  0  0  0
  147.8694  140.3831  152.4242 H   0  0  0  0  0  0  0  0  0  0  0  0
  147.3780  141.8022  155.2261 H   0  0  0  0  0  0  0  0  0  0  0  0
  147.8337  140.4653  156.2576 H   0  0  0  0  0  0  0  0  0  0  0  0
  149.3529  141.0912  153.6896 H   0  0  0  0  0  0  0  0  0  0  0  0
  149.3024  142.8346  155.2661 H   0  0  0  0  0  0  0  0  0  0  0  0
  150.1374  139.5578  156.1932 H   0  0  0  0  0  0  0  0  0  0  0  0
  149.3953  137.7057  155.1390 H   0  0  0  0  0  0  0  0  0  0  0  0
  149.0363  138.5470  153.6381 H   0  0  0  0  0  0  0  0  0  0  0  0
  151.2105  136.8265  153.8945 H   0  0  0  0  0  0  0  0  0  0  0  0
  151.1600  138.1864  152.7694 H   0  0  0  0  0  0  0  0  0  0  0  0
  152.3347  138.1975  155.5830 H   0  0  0  0  0  0  0  0  0  0  0  0
  153.1088  138.7420  154.0861 H   0  0  0  0  0  0  0  0  0  0  0  0
  1  2  2  0  0  0  0
  2  3  1  0  0  0  0
  2  7  1  0  0  0  0
  3  4  1  0  0  0  0
  3 29  1  0  0  0  0
  4  6  1  0  0  0  0
  4  5  1  0  0  0  0
  4 30  1  0  0  0  0
  5  6  1  0  0  0  0
  5 31  1  0  0  0  0
  5 32  1  0  0  0  0
  6 33  1  0  0  0  0
  6 34  1  0  0  0  0
  7 11  1  0  0  0  0
  7  8  1  0  0  0  0
  7 35  1  0  0  0  0
  8  9  1  0  0  0  0
  8 36  1  0  0  0  0
  8 37  1  0  0  0  0
  9 10  1  0  0  0  0
  9 38  1  0  0  0  0
  9 39  1  0  0  0  0
 10 11  1  0  0  0  0
 10 40  1  0  0  0  0
 10 41  1  0  0  0  0
 11 12  1  0  0  0  0
 12 17  1  0  0  0  0
 12 13  2  0  0  0  0
 13 14  1  0  0  0  0
 14 15  2  0  0  0  0
 14 42  1  0  0  0  0
 15 16  1  0  0  0  0
 16 20  1  0  0  0  0
 16 17  2  0  0  0  0
 17 18  1  0  0  0  0
 18 19  2  0  0  0  0
 19 20  1  0  0  0  0
 19 43  1  0  0  0  0
 20 21  1  0  0  0  0
 21 22  1  0  0  0  0
 21 44  1  0  0  0  0
 21 45  1  0  0  0  0
 22 23  1  0  0  0  0
 22 24  1  0  0  0  0
 22 46  1  0  0  0  0
 23 47  1  0  0  0  0
 24 28  1  0  0  0  0
 24 25  1  0  0  0  0
 24 48  1  0  0  0  0
 25 26  1  0  0  0  0
 25 49  1  0  0  0  0
 25 50  1  0  0  0  0
 26 27  1  0  0  0  0
 26 51  1  0  0  0  0
 26 52  1  0  0  0  0
 27 28  1  0  0  0  0
 27 53  1  0  0  0  0
 27 54  1  0  0  0  0
M  END
> <s_m_source_file>
AV-unprocessed.smi

> <i_m_source_file_index>
235

> <i_lp_mmshare_version>
43012

> <i_f3d_flags>
0

> <s_epik_input>
W0NIMl0xW0NIMl1bQ0hdMVtOSF1DKD1PKVtDQEBIXTJbQ0gyXVtDSDJdW0NIMl1OMmMobltjSF1uMyljKGMzNCluW2NIXW40W0NIMl1bQ0BIXShbT0hdKVtDQEBIXTVbQ0gyXVtDSDJdW0NIMl1PNQ==

> <s_epik_cmdline>
J2VwaWtfcHl0aG9uJywgJy1waCcsICc3LjAnLCAnLXRuJywgJzgnLCAnLW1hJywgJzIwMCcsICctbWV0YWxfYmluZGluZycsICctaW1hZScsICc8aW5maWxlLm1hZT4nLCAnLW9tYWUnLCAnPG91dGZpbGUubWFlPic=

> <r_lp_tautomer_probability>
1

> <r_epik_Ionization_Penalty>
0.000526714

> <r_epik_Ionization_Penalty_Charging>
0

> <r_epik_Ionization_Penalty_Neutral>
0.000526714

> <r_epik_State_Penalty>
0.000272704

> <r_epik_Charging_Adjusted_Penalty>
0.000272704

> <i_epik_Tot_Q>
0

> <i_epik_Tot_abs_Q>
0

> <r_epik_Metal_State_Penalty>
-0

> <b_epik_Metal_Only>
0

> <s_lp_Force_Field>
OPLS_2005

> <r_lp_Energy>
60.2581

> <b_lp_Chiralities_Consistent>
1

> <s_lp_Variant>
AV-unprocessed.smi:235-8

> <Gold.Version>
5.8.1

> <Gold.Id.Protein>
6NUR|6NUR_protein|mol2

> <Gold.PLP.Fitness>
53.2472

> <Gold.PLP.PLP>
-43.2976

> <Gold.PLP.part.hbond>
-3.6318

> <Gold.PLP.part.metal>
0.0000

> <Gold.PLP.part.buried>
-6.7973

> <Gold.PLP.part.nonpolar>
-33.9893

> <Gold.PLP.part.repulsive>
0.5746

> <Gold.PLP.ligand.clash>
0.0000

> <Gold.PLP.ligand.torsion>
0.7897

> <Gold.PLP.Chemscore.Hbond>
2.7040

> <Gold.PLP.Chemscore.CHOScore>
1.0000

> <Gold.PLP.Chemscore.Metal>
0.0000

> <Gold.Chemscore.Hbonds>
donor molecule, donor type, donor heavy atom, donor atom, acceptor molecule, acceptor atom, score
      L1  H    23    47       P1  8028  0.96
      P1  H  7989  7998       L1    28  1.00
      P1  H 11000 11005       L1     1  0.32
      L1  C    19    43       P1  7957  1.00

> <Gold.PLP.Chemscore.Internal.Correction>
0.4170

> <Gold.Rescore>
     Score         DG    S(hbond)    S(metal)    S(lipo)     H(rot)  DE(clash)    DE(int)     intcor
     11.49     -17.02       2.88        0.00      74.94       2.68       0.01       5.52       ----

> <Gold.Chemscore.Fitness>
11.4925

> <Gold.Chemscore.DG>
-17.0195

> <Gold.Chemscore.ZeroCoef>
-5.4800

> <Gold.Chemscore.Hbond>
2.8809

> <Gold.Chemscore.Metal>
0.0000

> <Gold.Chemscore.Lipo>
74.9410

> <Gold.Chemscore.Internal_Hbond>
0.0000

> <Gold.Chemscore.DEClash>
0.0106

> <Gold.Chemscore.DEInternal>
5.5163

> <Gold.Chemscore.Rot>
2.6760

> <Gold.Chemscore.Internal.Correction>
   9.000000E+99

> <Gold.Chemscore.Hbonds>
donor molecule, donor type, donor heavy atom, donor atom, acceptor molecule, acceptor atom, score
      L1  H    23    47       P1  8028  0.91
      P1  H  7989  7998       L1    28  0.58
      P1  H 11000 11005       L1     1  0.33

> <Gold.Chemscore.Hbond.Weighted>
-9.6220

> <Gold.Chemscore.Metal.Weighted>
-0.0000

> <Gold.Chemscore.Lipo.Weighted>
-8.7681

> <Gold.Chemscore.Internal_Hbond.Weighted>
0.0000

> <Gold.Chemscore.DEClash.Weighted>
0.0106

> <Gold.Chemscore.DEInternal.Weighted>
5.5163

> <Gold.Chemscore.Rot.Weighted>
6.8506

> <Gold.Chemscore.Internal.Correction.Weighted>
   9.000000E+99

> <Gold.Protein.RotatedTorsions>
[ 6907 6896 6895 6894 ] final  -79.02 input  -60.11 | X-H torsion
[ 7974 7965 7964 7962 ] final  109.76 input  175.53 | X-H torsion
[ 8008 7997 7996 7995 ] final   45.90 input   59.86 | X-H torsion
[ 10167 10162 10161 10158 ] final -116.00 input  -65.29 | X-H torsion
[ 10718 10713 10712 10709 ] final -178.27 input   66.30 | X-H torsion
[ 10763 10752 10751 10750 ] final  -91.11 input  -60.55 | X-H torsion
[ 11005 11000 10999 10996 ] final   17.38 input  -57.11 | X-H torsion

> <Gold.Protein.ActiveResidues>
 VAL166  LYS551  ARG553  GLY616  TRP617  ASP618  TYR619  PRO620  LYS621  CYS622 
 ASP623  PHE694  ASN695  SER759  ASP760  ASP761  ALA762  ILE779  LEU786  VAL792 
 PHE793  MET794  SER795  GLU796  ALA797  LYS798  CYS799  TRP800  GLU811  SER814 

> <Gold.Protein.RotatedAtoms>
  150.6959  134.4184  159.5193 H   0  0  0  0  0  0  0  0  0  0  0  0  # atno 6907 bound_to 6896
  152.1931  134.8651  160.0524 H   0  0  0  0  0  0  0  0  0  0  0  0  # atno 6908 bound_to 6896
  151.9599  133.3657  159.4068 H   0  0  0  0  0  0  0  0  0  0  0  0  # atno 6909 bound_to 6896
  145.2636  139.2693  143.4003 H   0  0  0  0  0  0  0  0  0  0  0  0  # atno 7974 bound_to 7965
  155.3436  140.3409  155.4239 H   0  0  0  0  0  0  0  0  0  0  0  0  # atno 8008 bound_to 7997
  156.1800  140.1661  156.8327 H   0  0  0  0  0  0  0  0  0  0  0  0  # atno 8009 bound_to 7997
  154.5323  140.0742  156.8350 H   0  0  0  0  0  0  0  0  0  0  0  0  # atno 8010 bound_to 7997
  140.0839  143.4762  152.1909 H   0  0  0  0  0  0  0  0  0  0  0  0  # atno 10167 bound_to 10162
  156.8418  130.9689  151.3099 H   0  0  0  0  0  0  0  0  0  0  0  0  # atno 10718 bound_to 10713
  154.6727  135.5280  153.8159 H   0  0  0  0  0  0  0  0  0  0  0  0  # atno 10763 bound_to 10752
  153.0512  135.6533  154.0700 H   0  0  0  0  0  0  0  0  0  0  0  0  # atno 10764 bound_to 10752
  154.0597  135.2962  155.3307 H   0  0  0  0  0  0  0  0  0  0  0  0  # atno 10765 bound_to 10752
  140.4365  134.1365  155.7686 H   0  0  0  0  0  0  0  0  0  0  0  0  # atno 11005 bound_to 11000
  146.3268  140.3060  142.8623 LP  0  0  0  0  0  0  0  0  0  0  0  0  # atno 17320 bound_to 7965
  144.9396  140.8064  143.5638 LP  0  0  0  0  0  0  0  0  0  0  0  0  # atno 17321 bound_to 7965
  139.5763  144.7489  151.3755 LP  0  0  0  0  0  0  0  0  0  0  0  0  # atno 17342 bound_to 10162
  140.7063  143.7504  150.7488 LP  0  0  0  0  0  0  0  0  0  0  0  0  # atno 17343 bound_to 10162
  157.6351  130.8761  149.9345 LP  0  0  0  0  0  0  0  0  0  0  0  0  # atno 17370 bound_to 10713
  156.0876  130.3666  150.0456 LP  0  0  0  0  0  0  0  0  0  0  0  0  # atno 17371 bound_to 10713
  141.1723  133.8583  157.1531 LP  0  0  0  0  0  0  0  0  0  0  0  0  # atno 17394 bound_to 11000
  140.0098  134.9993  157.0371 LP  0  0  0  0  0  0  0  0  0  0  0  0  # atno 17395 bound_to 11000

$$$$
