#       Name:                AV-unprocessed.smi:1029
#       Creating user name   scv26
#       Creation time:       Fri Mar 27 02:45:14 2020


#       File generated by GOLD software.
#

@<TRIPOS>MOLECULE
AV-unprocessed.smi:1029
    53    54     1
SMALL
NO_CHARGES


@<TRIPOS>ATOM
      1 ****        -4.3546   5.7886   4.1647 C.3            1 S1                 0.0000
      2 ****        -4.1594   5.1335   2.8293 C.2            1 S1                 0.0000
      3 ****        -3.6587   3.8315   2.5483 C.2            1 S1                 0.0000
      4 ****        -3.7052   3.7778   1.1806 C.2            1 S1                 0.0000
      5 ****        -3.3361   2.7585   0.3617 N.am           1 S1                 0.0000
      6 ****        -2.9074   1.5265   0.6876 C.2            1 S1                 0.0000
      7 ****        -2.7955   1.0871   1.8324 O.2            1 S1                 0.0000
      8 ****        -2.6118   0.8115  -0.4076 N.am           1 S1                 0.0000
      9 ****        -2.1134  -0.5599  -0.4025 C.3            1 S1                 0.0000
     10 ****        -0.5727  -0.6134  -0.3522 C.3            1 S1                 0.0000
     11 ****        -0.1570  -0.4417   0.9891 O.3            1 S1                 0.0000
     12 ****        -0.0378  -1.9809  -0.8256 C.3            1 S1                 0.0000
     13 ****         1.4471  -2.0368  -0.8482 N.4            1 S1                 1.0000
     14 ****         2.0470  -1.3501  -2.0231 C.3            1 S1                 0.0000
     15 ****         3.5815  -1.3206  -1.9238 C.3            1 S1                 0.0000
     16 ****         4.1606  -2.7378  -1.7784 C.3            1 S1                 0.0000
     17 ****         5.6899  -2.7165  -1.6457 C.3            1 S1                 0.0000
     18 ****         3.4950  -3.4354  -0.5805 C.3            1 S1                 0.0000
     19 ****         1.9623  -3.4228  -0.7068 C.3            1 S1                 0.0000
     20 ****        -4.1804   4.9349   0.6595 O.3            1 S1                 0.0000
     21 ****        -4.4712   5.7953   1.7246 N.2            1 S1                 0.0000
     22 ****        -4.1069   5.1062   4.9779 H              1 S1                 0.0000
     23 ****        -5.3894   6.1040   4.3005 H              1 S1                 0.0000
     24 ****        -3.7206   6.6698   4.2662 H              1 S1                 0.0000
     25 ****        -3.3258   3.0798   3.2477 H              1 S1                 0.0000
     26 ****        -3.3975   2.9607  -0.6252 H              1 S1                 0.0000
     27 ****        -2.7389   1.2476  -1.3093 H              1 S1                 0.0000
     28 ****        -2.5628  -1.1494   0.3991 H              1 S1                 0.0000
     29 ****        -2.4608  -1.0080  -1.3340 H              1 S1                 0.0000
     30 ****        -0.1595   0.1892  -0.9626 H              1 S1                 0.0000
     31 ****        -0.6432  -1.0393   1.5371 H              1 S1                 0.0000
     32 ****        -0.4273  -2.7523  -0.1590 H              1 S1                 0.0000
     33 ****        -0.4187  -2.2209  -1.8194 H              1 S1                 0.0000
     34 ****         1.7413  -1.8581  -2.9392 H              1 S1                 0.0000
     35 ****         1.6806  -0.3267  -2.0945 H              1 S1                 0.0000
     36 ****         3.9967  -0.8364  -2.8084 H              1 S1                 0.0000
     37 ****         3.8787  -0.7092  -1.0703 H              1 S1                 0.0000
     38 ****         3.9140  -3.3005  -2.6801 H              1 S1                 0.0000
     39 ****         6.0049  -2.1683  -0.7572 H              1 S1                 0.0000
     40 ****         6.1522  -2.2412  -2.5112 H              1 S1                 0.0000
     41 ****         6.0914  -3.7276  -1.5726 H              1 S1                 0.0000
     42 ****         3.8479  -4.4645  -0.5034 H              1 S1                 0.0000
     43 ****         3.7868  -2.9388   0.3460 H              1 S1                 0.0000
     44 ****         1.5299  -3.8886   0.1797 H              1 S1                 0.0000
     45 ****         1.6481  -4.0197  -1.5646 H              1 S1                 0.0000
     46 ****         1.7572  -1.5383  -0.0258 H              1 S1                 0.0000
     47 ****        -3.0332   1.6631   2.6145 LP             1 S1                 0.0000
     48 ****        -2.4669   0.1543   1.9800 LP             1 S1                 0.0000
     49 ****        -0.3339   0.4992   1.2781 LP             1 S1                 0.0000
     50 ****         0.8210  -0.6355   1.0654 LP             1 S1                 0.0000
     51 ****        -5.0102   4.7548   0.1312 LP             1 S1                 0.0000
     52 ****        -3.4907   5.3494   0.0658 LP             1 S1                 0.0000
     53 ****        -4.8401   6.7228   1.6640 LP             1 S1                 0.0000
@<TRIPOS>BOND
    1    1    2 1     
    2    1   22 1     
    3    1   23 1     
    4    1   24 1     
    5    2   21 2     
    6    2    3 1     
    7    3    4 2     
    8    3   25 1     
    9    4    5 1     
   10    4   20 1     
   11    5    6 am    
   12    5   26 1     
   13    6    7 2     
   14    6    8 am    
   15    8    9 1     
   16    8   27 1     
   17    9   10 1     
   18    9   28 1     
   19    9   29 1     
   20   10   11 1     
   21   10   12 1     
   22   10   30 1     
   23   11   31 1     
   24   12   13 1     
   25   12   32 1     
   26   12   33 1     
   27   13   19 1     
   28   13   14 1     
   29   13   46 1     
   30   14   15 1     
   31   14   34 1     
   32   14   35 1     
   33   15   16 1     
   34   15   36 1     
   35   15   37 1     
   36   16   17 1     
   37   16   18 1     
   38   16   38 1     
   39   17   39 1     
   40   17   40 1     
   41   17   41 1     
   42   18   19 1     
   43   18   42 1     
   44   18   43 1     
   45   19   44 1     
   46   19   45 1     
   47   20   21 1     
   48    7   47 1     
   49    7   48 1     
   50   11   49 1     
   51   11   50 1     
   52   20   51 1     
   53   20   52 1     
   54   21   53 1     
@<TRIPOS>SUBSTRUCTURE
      1 S1             1
@<TRIPOS>SET
LONE_PAIRS      STATIC     ATOMS    <user>   **** ""
7 47 48 49 50 51 52 53
DONOR_HYDROGENS      STATIC     ATOMS    <user>   **** ""
4 26 27 31 46
ATOM$BLUE        STATIC     ATOMS    COLORGROUP SYSTEM
7 47 48 49 50 51 52 53
ATOM$RED        STATIC     ATOMS    COLORGROUP SYSTEM
4 26 27 31 46
