#       Name:                AV-unprocessed.smi:2822
#       Creating user name   scv26
#       Creation time:       Fri Mar 27 15:32:26 2020


#       File generated by GOLD software.
#

@<TRIPOS>MOLECULE
AV-unprocessed.smi:2822
    43    45     1
SMALL
NO_CHARGES


@<TRIPOS>ATOM
      1 ****        -5.2669   1.2161  -0.4414 Cl             1 S1                 0.0000
      2 ****        -4.3739   2.6969  -0.4267 C.ar           1 S1                 0.0000
      3 ****        -5.0618   3.9267  -0.3765 C.ar           1 S1                 0.0000
      4 ****        -4.4431   5.1260  -0.3619 N.ar           1 S1                 0.0000
      5 ****        -3.0943   5.1362  -0.3969 C.ar           1 S1                 0.0000
      6 ****        -2.3100   3.9666  -0.4472 C.ar           1 S1                 0.0000
      7 ****        -2.9603   2.7098  -0.4627 C.ar           1 S1                 0.0000
      8 ****        -2.2571   1.4965  -0.5152 N.pl3          1 S1                 0.0000
      9 ****        -0.8102   1.4633  -0.3674 C.3            1 S1                 0.0000
     10 ****        -0.2735   0.0255  -0.3788 C.3            1 S1                 0.0000
     11 ****         1.2653  -0.0043  -0.4349 C.3            1 S1                 0.0000
     12 ****         1.7884  -1.3628  -0.3621 N.3            1 S1                 0.0000
     13 ****         3.2499  -1.3722  -0.4045 C.3            1 S1                 0.0000
     14 ****         3.8283  -2.7957  -0.3641 C.3            1 S1                 0.0000
     15 ****         3.3276  -3.5392   0.8823 C.3            1 S1                 0.0000
     16 ****         1.7938  -3.4796   0.9514 C.3            1 S1                 0.0000
     17 ****         1.2926  -2.0242   0.8486 C.3            1 S1                 0.0000
     18 ****        -0.2474  -1.9719   0.9110 C.3            1 S1                 0.0000
     19 ****        -0.6904  -0.6215   0.8211 O.3            1 S1                 0.0000
     20 ****        -6.1413   3.9488  -0.3472 H              1 S1                 0.0000
     21 ****        -2.6235   6.1081  -0.3855 H              1 S1                 0.0000
     22 ****        -1.2344   4.0539  -0.4745 H              1 S1                 0.0000
     23 ****        -2.7674   0.6275  -0.4452 H              1 S1                 0.0000
     24 ****        -0.3673   2.0195  -1.1942 H              1 S1                 0.0000
     25 ****        -0.5193   1.9656   0.5563 H              1 S1                 0.0000
     26 ****        -0.6771  -0.5080  -1.2419 H              1 S1                 0.0000
     27 ****         1.6036   0.4690  -1.3575 H              1 S1                 0.0000
     28 ****         1.6688   0.5907   0.3861 H              1 S1                 0.0000
     29 ****         3.5928  -0.8748  -1.3125 H              1 S1                 0.0000
     30 ****         3.6484  -0.7959   0.4319 H              1 S1                 0.0000
     31 ****         3.5294  -3.3382  -1.2619 H              1 S1                 0.0000
     32 ****         4.9180  -2.7599  -0.3686 H              1 S1                 0.0000
     33 ****         3.6674  -4.5751   0.8690 H              1 S1                 0.0000
     34 ****         3.7523  -3.0814   1.7765 H              1 S1                 0.0000
     35 ****         1.3703  -4.0736   0.1402 H              1 S1                 0.0000
     36 ****         1.4494  -3.9335   1.8813 H              1 S1                 0.0000
     37 ****         1.6715  -1.4823   1.7169 H              1 S1                 0.0000
     38 ****        -0.6919  -2.5592   0.1056 H              1 S1                 0.0000
     39 ****        -0.6053  -2.3953   1.8497 H              1 S1                 0.0000
     40 ****        -4.9662   5.9776  -0.3263 LP             1 S1                 0.0000
     41 ****         1.4649  -1.8701  -1.1608 LP             1 S1                 0.0000
     42 ****        -1.6897  -0.6113   0.8574 LP             1 S1                 0.0000
     43 ****        -0.3234  -0.1136   1.6005 LP             1 S1                 0.0000
@<TRIPOS>BOND
    1    1    2 1     
    2    2    7 ar    
    3    2    3 ar    
    4    3    4 ar    
    5    3   20 1     
    6    4    5 ar    
    7    5    6 ar    
    8    5   21 1     
    9    6    7 ar    
   10    6   22 1     
   11    7    8 1     
   12    8    9 1     
   13    8   23 1     
   14    9   10 1     
   15    9   24 1     
   16    9   25 1     
   17   10   19 1     
   18   10   11 1     
   19   10   26 1     
   20   11   12 1     
   21   11   27 1     
   22   11   28 1     
   23   12   17 1     
   24   12   13 1     
   25   13   14 1     
   26   13   29 1     
   27   13   30 1     
   28   14   15 1     
   29   14   31 1     
   30   14   32 1     
   31   15   16 1     
   32   15   33 1     
   33   15   34 1     
   34   16   17 1     
   35   16   35 1     
   36   16   36 1     
   37   17   18 1     
   38   17   37 1     
   39   18   19 1     
   40   18   38 1     
   41   18   39 1     
   42    4   40 1     
   43   12   41 1     
   44   19   42 1     
   45   19   43 1     
@<TRIPOS>SUBSTRUCTURE
      1 S1             1
@<TRIPOS>SET
LONE_PAIRS      STATIC     ATOMS    <user>   **** ""
4 40 41 42 43
DONOR_HYDROGENS      STATIC     ATOMS    <user>   **** ""
1 23
ATOM$BLUE        STATIC     ATOMS    COLORGROUP SYSTEM
4 40 41 42 43
ATOM$RED        STATIC     ATOMS    COLORGROUP SYSTEM
1 23
