AV-unprocessed.smi:158|AV-procd|sdf|1333|dock5
  -GOLD-   2262019 33D 1   1.00000     0.00000
 Structure written by MMmdl.
 31 33  0  0  0  0  0  0  0  0  1 V2000
  151.1724  131.2297  155.2376 N   0  0  0  0  0  0  0  0  0  0  0  0
  149.9568  130.9357  154.7555 C   0  0  0  0  0  0  0  0  0  0  0  0
  149.5339  129.6523  154.8173 N   0  0  0  0  0  0  0  0  0  0  0  0
  148.3274  129.3169  154.3461 C   0  0  0  0  0  0  0  0  0  0  0  0
  147.8874  127.6549  154.4741 Cl  0  0  0  0  0  0  0  0  0  0  0  0
  147.4241  130.1263  153.7845 N   0  0  0  0  0  0  0  0  0  0  0  0
  147.8424  131.4240  153.7179 C   0  0  0  0  0  0  0  0  0  0  0  0
  149.0963  131.9050  154.1844 C   0  0  0  0  0  0  0  0  0  0  0  0
  149.1935  133.2711  153.9642 N   0  0  0  0  0  0  0  0  0  0  0  0
  148.0581  133.5769  153.3975 C   0  0  0  0  0  0  0  0  0  0  0  0
  147.1848  132.5285  153.2029 N   0  0  0  0  0  0  0  0  0  0  0  0
  145.8251  132.6122  152.5681 C   0  0  2  0  0  0  0  0  0  0  0  0
  145.7826  131.7897  151.4363 O   0  0  0  0  0  0  0  0  0  0  0  0
  145.7877  132.5557  150.2238 C   0  0  1  0  0  0  0  0  0  0  0  0
  144.3956  132.3997  149.5757 C   0  0  0  0  0  0  0  0  0  0  0  0
  144.4074  132.9530  148.2772 O   0  0  0  0  0  0  0  0  0  0  0  0
  146.1421  133.9794  150.6884 C   0  0  1  0  0  0  0  0  0  0  0  0
  145.6910  135.0340  149.8611 O   0  0  0  0  0  0  0  0  0  0  0  0
  145.5651  134.0396  152.0887 C   0  0  1  0  0  0  0  0  0  0  0  0
  144.2455  134.2387  152.0760 F   0  0  0  0  0  0  0  0  0  0  0  0
  145.1434  132.2689  153.3470 H   0  0  0  0  0  0  0  0  0  0  0  0
  146.5559  132.1925  149.5396 H   0  0  0  0  0  0  0  0  0  0  0  0
  147.2273  134.0651  150.7574 H   0  0  0  0  0  0  0  0  0  0  0  0
  146.0204  134.7892  152.7372 H   0  0  0  0  0  0  0  0  0  0  0  0
  151.5105  132.1806  155.2021 H   0  0  0  0  0  0  0  0  0  0  0  0
  151.7476  130.5014  155.6353 H   0  0  0  0  0  0  0  0  0  0  0  0
  147.8240  134.5880  153.0973 H   0  0  0  0  0  0  0  0  0  0  0  0
  144.0816  131.3567  149.5341 H   0  0  0  0  0  0  0  0  0  0  0  0
  143.6374  132.9436  150.1385 H   0  0  0  0  0  0  0  0  0  0  0  0
  145.2430  133.3710  148.1361 H   0  0  0  0  0  0  0  0  0  0  0  0
  145.8334  134.7892  148.9594 H   0  0  0  0  0  0  0  0  0  0  0  0
  1  2  1  0  0  0  0
  1 25  1  0  0  0  0
  1 26  1  0  0  0  0
  2  8  1  0  0  0  0
  2  3  2  0  0  0  0
  3  4  1  0  0  0  0
  4  5  1  0  0  0  0
  4  6  2  0  0  0  0
  6  7  1  0  0  0  0
  7 11  1  0  0  0  0
  7  8  2  0  0  0  0
  8  9  1  0  0  0  0
  9 10  2  0  0  0  0
 10 11  1  0  0  0  0
 10 27  1  0  0  0  0
 11 12  1  0  0  0  0
 12 21  1  0  0  0  0
 12 19  1  0  0  0  0
 12 13  1  0  0  0  0
 13 14  1  0  0  0  0
 14 22  1  0  0  0  0
 14 15  1  0  0  0  0
 14 17  1  0  0  0  0
 15 16  1  0  0  0  0
 15 28  1  0  0  0  0
 15 29  1  0  0  0  0
 16 30  1  0  0  0  0
 17 23  1  0  0  0  0
 17 18  1  0  0  0  0
 17 19  1  0  0  0  0
 18 31  1  0  0  0  0
 19 24  1  0  0  0  0
 19 20  1  0  0  0  0
M  END
> <s_m_source_file>
AV-unprocessed.smi

> <i_m_source_file_index>
158

> <i_lp_mmshare_version>
43012

> <i_f3d_flags>
0

> <s_epik_input>
Q2xjKG4xKW5jKFtOSDJdKWMoYzEyKW5bY0hdbjJbQ0BASF0zT1tDQEhdKFtDSDJdW09IXSlbQ0BASF0oW09IXSlbQ0BASF0zRg==

> <s_epik_cmdline>
J2VwaWtfcHl0aG9uJywgJy1waCcsICc3LjAnLCAnLXRuJywgJzgnLCAnLW1hJywgJzIwMCcsICctbWV0YWxfYmluZGluZycsICctaW1hZScsICc8aW5maWxlLm1hZT4nLCAnLW9tYWUnLCAnPG91dGZpbGUubWFlPic=

> <r_lp_tautomer_probability>
1

> <r_epik_Ionization_Penalty>
6.51543e-05

> <r_epik_Ionization_Penalty_Charging>
0

> <r_epik_Ionization_Penalty_Neutral>
6.51543e-05

> <r_epik_State_Penalty>
-0

> <r_epik_Charging_Adjusted_Penalty>
0

> <i_epik_Tot_Q>
0

> <i_epik_Tot_abs_Q>
0

> <r_epik_Metal_State_Penalty>
-0

> <b_epik_Metal_Only>
0

> <s_epik_Chemistry_Notes>
This compound contains an acetal/aminal-like group ( X-CH(R)-Y where X, Y are N, S, or O) that may be acid/base labile, releasing an aldehyde.

> <s_lp_Force_Field>
OPLS_2005

> <r_lp_Energy>
36.1336

> <b_lp_Chiralities_Consistent>
1

> <s_lp_Variant>
AV-unprocessed.smi:158-11

> <Gold.Version>
5.8.1

> <Gold.Id.Protein>
6NUR|6NUR_protein|mol2

> <Gold.PLP.Fitness>
38.5896

> <Gold.PLP.PLP>
-29.7361

> <Gold.PLP.part.hbond>
-2.8958

> <Gold.PLP.part.metal>
0.0000

> <Gold.PLP.part.buried>
-3.5683

> <Gold.PLP.part.nonpolar>
-22.5489

> <Gold.PLP.part.repulsive>
0.4394

> <Gold.PLP.ligand.clash>
0.0000

> <Gold.PLP.ligand.torsion>
0.0796

> <Gold.PLP.Chemscore.Hbond>
2.0000

> <Gold.PLP.Chemscore.CHOScore>
0.9993

> <Gold.PLP.Chemscore.Metal>
0.0000

> <Gold.Chemscore.Hbonds>
donor molecule, donor type, donor heavy atom, donor atom, acceptor molecule, acceptor atom, score
      L1  H    16    30       P1  7921  0.98
      L1  H    18    31       P1  7921  0.57
      L1  C    10    27       P1  7948  1.00

> <Gold.PLP.Chemscore.Internal.Correction>
0.0148

> <Gold.Rescore>
     Score         DG    S(hbond)    S(metal)    S(lipo)     H(rot)  DE(clash)    DE(int)     intcor
      8.70      -8.71       1.99        0.00      39.04       3.12       0.00       0.02       ----

> <Gold.Chemscore.Fitness>
8.6964

> <Gold.Chemscore.DG>
-8.7143

> <Gold.Chemscore.ZeroCoef>
-5.4800

> <Gold.Chemscore.Hbond>
1.9945

> <Gold.Chemscore.Metal>
0.0000

> <Gold.Chemscore.Lipo>
39.0411

> <Gold.Chemscore.Internal_Hbond>
0.0000

> <Gold.Chemscore.DEClash>
0.0000

> <Gold.Chemscore.DEInternal>
0.0179

> <Gold.Chemscore.Rot>
3.1230

> <Gold.Chemscore.Internal.Correction>
   9.000000E+99

> <Gold.Chemscore.Hbonds>
donor molecule, donor type, donor heavy atom, donor atom, acceptor molecule, acceptor atom, score
      L1  H    16    30       P1  7921  0.28
      L1  H    18    31       P1  7921  0.53

> <Gold.Chemscore.Hbond.Weighted>
-6.6615

> <Gold.Chemscore.Metal.Weighted>
-0.0000

> <Gold.Chemscore.Lipo.Weighted>
-4.5678

> <Gold.Chemscore.Internal_Hbond.Weighted>
0.0000

> <Gold.Chemscore.DEClash.Weighted>
0.0000

> <Gold.Chemscore.DEInternal.Weighted>
0.0179

> <Gold.Chemscore.Rot.Weighted>
7.9950

> <Gold.Chemscore.Internal.Correction.Weighted>
   9.000000E+99

> <Gold.Protein.RotatedTorsions>
[ 6907 6896 6895 6894 ] final -118.76 input  -60.11 | X-H torsion
[ 7974 7965 7964 7962 ] final -178.55 input  175.53 | X-H torsion
[ 8008 7997 7996 7995 ] final -103.69 input   59.86 | X-H torsion
[ 10167 10162 10161 10158 ] final -126.34 input  -65.29 | X-H torsion
[ 10718 10713 10712 10709 ] final   41.76 input   66.30 | X-H torsion
[ 10763 10752 10751 10750 ] final  -94.78 input  -60.55 | X-H torsion
[ 11005 11000 10999 10996 ] final -134.60 input  -57.11 | X-H torsion

> <Gold.Protein.ActiveResidues>
 VAL166  LYS551  ARG553  GLY616  TRP617  ASP618  TYR619  PRO620  LYS621  CYS622 
 ASP623  PHE694  ASN695  SER759  ASP760  ASP761  ALA762  ILE779  LEU786  VAL792 
 PHE793  MET794  SER795  GLU796  ALA797  LYS798  CYS799  TRP800  GLU811  SER814 

> <Gold.Protein.RotatedAtoms>
  150.8247  133.8192  159.3123 H   0  0  0  0  0  0  0  0  0  0  0  0  # atno 6907 bound_to 6896
  151.5940  135.1050  160.0055 H   0  0  0  0  0  0  0  0  0  0  0  0  # atno 6908 bound_to 6896
  152.4333  133.7275  159.6625 H   0  0  0  0  0  0  0  0  0  0  0  0  # atno 6909 bound_to 6896
  144.7131  140.0851  143.6424 H   0  0  0  0  0  0  0  0  0  0  0  0  # atno 7974 bound_to 7965
  154.8745  140.0421  157.1745 H   0  0  0  0  0  0  0  0  0  0  0  0  # atno 8008 bound_to 7997
  154.8704  140.2957  155.5464 H   0  0  0  0  0  0  0  0  0  0  0  0  # atno 8009 bound_to 7997
  156.2999  140.2430  156.3692 H   0  0  0  0  0  0  0  0  0  0  0  0  # atno 8010 bound_to 7997
  139.9725  143.5830  152.2408 H   0  0  0  0  0  0  0  0  0  0  0  0  # atno 10167 bound_to 10162
  157.3972  130.7839  149.7318 H   0  0  0  0  0  0  0  0  0  0  0  0  # atno 10718 bound_to 10713
  154.7087  135.5145  153.8634 H   0  0  0  0  0  0  0  0  0  0  0  0  # atno 10763 bound_to 10752
  153.0762  135.6617  154.0149 H   0  0  0  0  0  0  0  0  0  0  0  0  # atno 10764 bound_to 10752
  153.9995  135.3012  155.3383 H   0  0  0  0  0  0  0  0  0  0  0  0  # atno 10765 bound_to 10752
  140.8975  134.1733  157.4484 H   0  0  0  0  0  0  0  0  0  0  0  0  # atno 11005 bound_to 11000
  145.9669  139.2841  143.1122 LP  0  0  0  0  0  0  0  0  0  0  0  0  # atno 17320 bound_to 7965
  145.9160  140.9148  143.0430 LP  0  0  0  0  0  0  0  0  0  0  0  0  # atno 17321 bound_to 7965
  139.6470  144.7659  151.2223 LP  0  0  0  0  0  0  0  0  0  0  0  0  # atno 17342 bound_to 10162
  140.7517  143.6222  150.8502 LP  0  0  0  0  0  0  0  0  0  0  0  0  # atno 17343 bound_to 10162
  155.9813  130.4020  150.3477 LP  0  0  0  0  0  0  0  0  0  0  0  0  # atno 17370 bound_to 10713
  157.1600  131.0342  151.2845 LP  0  0  0  0  0  0  0  0  0  0  0  0  # atno 17371 bound_to 10713
  139.8737  134.9884  156.5411 LP  0  0  0  0  0  0  0  0  0  0  0  0  # atno 17394 bound_to 11000
  140.8271  133.8308  155.8950 LP  0  0  0  0  0  0  0  0  0  0  0  0  # atno 17395 bound_to 11000

$$$$
