#       Name:                AV-unprocessed.smi:2592
#       Creating user name   scv26
#       Creation time:       Fri Mar 27 14:17:25 2020


#       File generated by GOLD software.
#

@<TRIPOS>MOLECULE
AV-unprocessed.smi:2592
    48    49     1
SMALL
NO_CHARGES


@<TRIPOS>ATOM
      1 ****        -5.6150   3.2525  -3.2580 C.3            1 S1                 0.0000
      2 ****        -4.9469   2.3304  -2.2851 C.2            1 S1                 0.0000
      3 ****        -3.9814   1.4279  -2.7385 N.2            1 S1                 0.0000
      4 ****        -3.4573   0.6712  -1.7693 C.2            1 S1                 0.0000
      5 ****        -2.5163  -0.2605  -1.9937 N.pl3          1 S1                -1.0000
      6 ****        -1.2177   0.0148  -1.7375 C.2            1 S1                 0.0000
      7 ****        -0.7667   1.0777  -1.3038 O.2            1 S1                 0.0000
      8 ****        -0.3893  -1.0085  -1.9913 N.am           1 S1                 0.0000
      9 ****         1.0547  -1.0089  -1.7851 C.3            1 S1                 0.0000
     10 ****         1.4095  -1.2223  -0.3045 C.3            1 S1                 0.0000
     11 ****         2.9270  -1.2490  -0.0625 C.3            1 S1                 0.0000
     12 ****         3.2660  -1.5402   1.3528 N.4            1 S1                 1.0000
     13 ****         4.6458  -2.0595   1.5092 C.3            1 S1                 0.0000
     14 ****         4.9315  -2.3974   2.9824 C.3            1 S1                 0.0000
     15 ****         4.7213  -1.2434   3.7859 O.3            1 S1                 0.0000
     16 ****         3.3772  -0.7844   3.7153 C.3            1 S1                 0.0000
     17 ****         3.0390  -0.3929   2.2670 C.3            1 S1                 0.0000
     18 ****        -4.1677   1.0335  -0.1960 S.3            1 S1                 0.0000
     19 ****        -5.1734   2.2519  -0.9333 C.2            1 S1                 0.0000
     20 ****        -6.1274   3.0578  -0.1163 C.3            1 S1                 0.0000
     21 ****        -6.6701   3.0035  -3.3720 H              1 S1                 0.0000
     22 ****        -5.1555   3.1993  -4.2456 H              1 S1                 0.0000
     23 ****        -5.5531   4.2882  -2.9234 H              1 S1                 0.0000
     24 ****        -0.8010  -1.8578  -2.3499 H              1 S1                 0.0000
     25 ****         1.4807  -1.8091  -2.3904 H              1 S1                 0.0000
     26 ****         1.4856  -0.0767  -2.1544 H              1 S1                 0.0000
     27 ****         0.9514  -0.4304   0.2873 H              1 S1                 0.0000
     28 ****         0.9698  -2.1591   0.0403 H              1 S1                 0.0000
     29 ****         3.3561  -2.0256  -0.6975 H              1 S1                 0.0000
     30 ****         3.3861  -0.3084  -0.3709 H              1 S1                 0.0000
     31 ****         4.7783  -2.9529   0.8977 H              1 S1                 0.0000
     32 ****         5.3590  -1.3157   1.1506 H              1 S1                 0.0000
     33 ****         4.2970  -3.2161   3.3254 H              1 S1                 0.0000
     34 ****         5.9648  -2.7252   3.0990 H              1 S1                 0.0000
     35 ****         2.6964  -1.5556   4.0795 H              1 S1                 0.0000
     36 ****         3.2633   0.0769   4.3737 H              1 S1                 0.0000
     37 ****         3.6560   0.4519   1.9566 H              1 S1                 0.0000
     38 ****         2.0015  -0.0645   2.2200 H              1 S1                 0.0000
     39 ****        -5.7524   4.0718   0.0235 H              1 S1                 0.0000
     40 ****        -6.2758   2.6139   0.8682 H              1 S1                 0.0000
     41 ****        -7.1000   3.1211  -0.6047 H              1 S1                 0.0000
     42 ****         2.6483  -2.2822   1.6497 H              1 S1                 0.0000
     43 ****        -3.7082   1.3550  -3.6977 LP             1 S1                 0.0000
     44 ****        -2.7762  -1.1578  -2.3503 LP             1 S1                 0.0000
     45 ****        -1.3838   1.8397  -1.1074 LP             1 S1                 0.0000
     46 ****         0.2161   1.1776  -1.1486 LP             1 S1                 0.0000
     47 ****         5.3287  -0.5145   3.4697 LP             1 S1                 0.0000
     48 ****         4.9366  -1.4678   4.7363 LP             1 S1                 0.0000
@<TRIPOS>BOND
    1    1    2 1     
    2    1   21 1     
    3    1   22 1     
    4    1   23 1     
    5    2   19 2     
    6    2    3 1     
    7    3    4 2     
    8    4    5 1     
    9    4   18 1     
   10    5    6 1     
   11    6    7 2     
   12    6    8 am    
   13    8    9 1     
   14    8   24 1     
   15    9   10 1     
   16    9   25 1     
   17    9   26 1     
   18   10   11 1     
   19   10   27 1     
   20   10   28 1     
   21   11   12 1     
   22   11   29 1     
   23   11   30 1     
   24   12   17 1     
   25   12   13 1     
   26   12   42 1     
   27   13   14 1     
   28   13   31 1     
   29   13   32 1     
   30   14   15 1     
   31   14   33 1     
   32   14   34 1     
   33   15   16 1     
   34   16   17 1     
   35   16   35 1     
   36   16   36 1     
   37   17   37 1     
   38   17   38 1     
   39   18   19 1     
   40   19   20 1     
   41   20   39 1     
   42   20   40 1     
   43   20   41 1     
   44    3   43 1     
   45    5   44 1     
   46    7   45 1     
   47    7   46 1     
   48   15   47 1     
   49   15   48 1     
@<TRIPOS>SUBSTRUCTURE
      1 S1             1
@<TRIPOS>SET
LONE_PAIRS      STATIC     ATOMS    <user>   **** ""
6 43 44 45 46 47 48
DONOR_HYDROGENS      STATIC     ATOMS    <user>   **** ""
2 24 42
ATOM$BLUE        STATIC     ATOMS    COLORGROUP SYSTEM
6 43 44 45 46 47 48
ATOM$RED        STATIC     ATOMS    COLORGROUP SYSTEM
2 24 42
