AV-unprocessed.smi:3303|AV-procd|sdf|12679|dock9
  -GOLD-   2272019 13D 1   1.00000     0.00000
 Structure written by MMmdl.
 44 45  0  0  0  0  0  0  0  0  2 V2000
  146.8869  142.6687  153.9635 C   0  0  0  0  0  0  0  0  0  0  0  0
  147.6447  141.3385  153.8180 C   0  0  2  0  0  0  0  0  0  0  0  0
  146.8090  140.1395  154.3094 C   0  0  0  0  0  0  0  0  0  0  0  0
  147.5145  138.8886  154.0289 N   0  0  0  0  0  0  0  0  0  0  0  0
  146.6508  137.7427  154.2862 C   0  0  0  0  0  0  0  0  0  0  0  0
  148.8181  138.7864  154.7024 C   0  0  2  0  0  0  0  0  0  0  0  0
  148.7316  138.5932  156.2344 C   0  0  0  0  0  0  0  0  0  0  0  0
  149.7083  139.9798  154.2816 C   0  0  0  0  0  0  0  0  0  0  0  0
  149.0408  141.3599  154.4767 C   0  0  2  0  0  0  0  0  0  0  0  0
  148.9624  141.7584  155.9026 N   0  3  0  0  0  0  0  0  0  0  0  0
  150.1501  141.4365  156.7200 C   0  0  0  0  0  0  0  0  0  0  0  0
  150.6999  142.6935  157.4069 C   0  0  0  0  0  0  0  0  0  0  0  0
  151.6303  142.3549  158.5557 C   0  0  0  0  0  0  0  0  0  0  0  0
  152.1676  143.3715  159.3739 C   0  0  0  0  0  0  0  0  0  0  0  0
  153.0359  143.0018  160.4195 C   0  0  0  0  0  0  0  0  0  0  0  0
  153.3325  141.6376  160.6041 C   0  0  0  0  0  0  0  0  0  0  0  0
  152.7447  140.6995  159.7325 C   0  0  0  0  0  0  0  0  0  0  0  0
  151.9115  141.0435  158.7264 N   0  0  0  0  0  0  0  0  0  0  0  0
  146.6259  142.8756  155.0018 H   0  0  0  0  0  0  0  0  0  0  0  0
  145.9588  142.6513  153.3913 H   0  0  0  0  0  0  0  0  0  0  0  0
  147.4835  143.5034  153.5943 H   0  0  0  0  0  0  0  0  0  0  0  0
  147.8025  141.1960  152.7472 H   0  0  0  0  0  0  0  0  0  0  0  0
  146.5774  140.2277  155.3709 H   0  0  0  0  0  0  0  0  0  0  0  0
  145.8545  140.1313  153.7814 H   0  0  0  0  0  0  0  0  0  0  0  0
  147.1729  136.8107  154.0681 H   0  0  0  0  0  0  0  0  0  0  0  0
  145.7680  137.7842  153.6472 H   0  0  0  0  0  0  0  0  0  0  0  0
  146.3121  137.7163  155.3223 H   0  0  0  0  0  0  0  0  0  0  0  0
  149.2992  137.8898  154.3091 H   0  0  0  0  0  0  0  0  0  0  0  0
  149.7270  138.6065  156.6796 H   0  0  0  0  0  0  0  0  0  0  0  0
  148.2901  137.6302  156.4911 H   0  0  0  0  0  0  0  0  0  0  0  0
  148.1428  139.3633  156.7299 H   0  0  0  0  0  0  0  0  0  0  0  0
  150.6747  139.9276  154.7818 H   0  0  0  0  0  0  0  0  0  0  0  0
  149.9364  139.8668  153.2205 H   0  0  0  0  0  0  0  0  0  0  0  0
  149.6415  142.1127  153.9639 H   0  0  0  0  0  0  0  0  0  0  0  0
  148.8397  142.7604  155.9313 H   0  0  0  0  0  0  0  0  0  0  0  0
  149.8897  140.6937  157.4738 H   0  0  0  0  0  0  0  0  0  0  0  0
  150.9190  140.9971  156.0830 H   0  0  0  0  0  0  0  0  0  0  0  0
  151.2319  143.3133  156.6838 H   0  0  0  0  0  0  0  0  0  0  0  0
  149.8780  143.3024  157.7871 H   0  0  0  0  0  0  0  0  0  0  0  0
  151.9236  144.4103  159.2069 H   0  0  0  0  0  0  0  0  0  0  0  0
  153.4667  143.7508  161.0676 H   0  0  0  0  0  0  0  0  0  0  0  0
  153.9945  141.3174  161.3949 H   0  0  0  0  0  0  0  0  0  0  0  0
  152.9506  139.6455  159.8455 H   0  0  0  0  0  0  0  0  0  0  0  0
  148.1484  141.3249  156.3149 H   0  0  0  0  0  0  0  0  0  0  0  0
  1  2  1  0  0  0  0
  1 19  1  0  0  0  0
  1 20  1  0  0  0  0
  1 21  1  0  0  0  0
  2  9  1  0  0  0  0
  2  3  1  0  0  0  0
  2 22  1  0  0  0  0
  3  4  1  0  0  0  0
  3 23  1  0  0  0  0
  3 24  1  0  0  0  0
  4  5  1  0  0  0  0
  4  6  1  0  0  0  0
  5 25  1  0  0  0  0
  5 26  1  0  0  0  0
  5 27  1  0  0  0  0
  6  7  1  0  0  0  0
  6  8  1  0  0  0  0
  6 28  1  0  0  0  0
  7 29  1  0  0  0  0
  7 30  1  0  0  0  0
  7 31  1  0  0  0  0
  8  9  1  0  0  0  0
  8 32  1  0  0  0  0
  8 33  1  0  0  0  0
  9 10  1  0  0  0  0
  9 34  1  0  0  0  0
 10 11  1  0  0  0  0
 10 35  1  0  0  0  0
 10 44  1  0  0  0  0
 11 12  1  0  0  0  0
 11 36  1  0  0  0  0
 11 37  1  0  0  0  0
 12 13  1  0  0  0  0
 12 38  1  0  0  0  0
 12 39  1  0  0  0  0
 13 18  1  0  0  0  0
 13 14  2  0  0  0  0
 14 15  1  0  0  0  0
 14 40  1  0  0  0  0
 15 16  2  0  0  0  0
 15 41  1  0  0  0  0
 16 17  1  0  0  0  0
 16 42  1  0  0  0  0
 17 18  2  0  0  0  0
 17 43  1  0  0  0  0
M  CHG  1  10   1
M  END
> <s_m_source_file>
AV-unprocessed.smi

> <i_m_source_file_index>
3303

> <i_lp_mmshare_version>
43012

> <i_f3d_flags>
0

> <s_epik_input>
W0NIM11bQ0BASF0xW0NIMl1OKFtDSDNdKVtDQEBIXShbQ0gzXSlbQ0gyXVtDQEhdMVtOSF1bQ0gyXVtDSDJdYzJbY0hdW2NIXVtjSF1bY0hdbjI=

> <s_epik_cmdline>
J2VwaWtfcHl0aG9uJywgJy1waCcsICc3LjAnLCAnLXRuJywgJzgnLCAnLW1hJywgJzIwMCcsICctbWV0YWxfYmluZGluZycsICctaW1hZScsICc8aW5maWxlLm1hZT4nLCAnLW9tYWUnLCAnPG91dGZpbGUubWFlPic=

> <r_epik_Ionization_Penalty>
1.37325

> <r_epik_Ionization_Penalty_Charging>
0.000251572

> <r_epik_Ionization_Penalty_Neutral>
1.373

> <r_epik_State_Penalty>
1.46343

> <r_epik_Charging_Adjusted_Penalty>
1.46368

> <i_epik_Tot_Q>
1

> <i_epik_Tot_abs_Q>
1

> <r_epik_Metal_State_Penalty>
1.46331

> <b_epik_Metal_Only>
0

> <s_lp_Force_Field>
OPLS_2005

> <r_lp_Energy>
24.8082

> <b_lp_Chiralities_Consistent>
1

> <s_lp_Variant>
AV-unprocessed.smi:3303-23

> <Gold.Version>
5.8.1

> <Gold.Id.Protein>
6NUR|6NUR_protein|mol2

> <Gold.PLP.Fitness>
40.3531

> <Gold.PLP.PLP>
-35.5983

> <Gold.PLP.part.hbond>
-1.0000

> <Gold.PLP.part.metal>
0.0000

> <Gold.PLP.part.buried>
-1.9481

> <Gold.PLP.part.nonpolar>
-32.8004

> <Gold.PLP.part.repulsive>
0.2385

> <Gold.PLP.ligand.clash>
0.0000

> <Gold.PLP.ligand.torsion>
0.6276

> <Gold.PLP.Chemscore.Hbond>
2.0000

> <Gold.PLP.Chemscore.CHOScore>
0.0000

> <Gold.PLP.Chemscore.Metal>
0.0000

> <Gold.Chemscore.Hbonds>
donor molecule, donor type, donor heavy atom, donor atom, acceptor molecule, acceptor atom, score
      L1  H    10    35       P1  8028  2.00

> <Gold.PLP.Chemscore.Internal.Correction>
0.0100

> <Gold.Rescore>
     Score         DG    S(hbond)    S(metal)    S(lipo)     H(rot)  DE(clash)    DE(int)     intcor
     17.56     -18.71       1.00        0.00     113.64       1.33       0.52       0.64       ----

> <Gold.Chemscore.Fitness>
17.5569

> <Gold.Chemscore.DG>
-18.7116

> <Gold.Chemscore.ZeroCoef>
-5.4800

> <Gold.Chemscore.Hbond>
0.9999

> <Gold.Chemscore.Metal>
0.0000

> <Gold.Chemscore.Lipo>
113.6442

> <Gold.Chemscore.Internal_Hbond>
0.0000

> <Gold.Chemscore.DEClash>
0.5182

> <Gold.Chemscore.DEInternal>
0.6365

> <Gold.Chemscore.Rot>
1.3298

> <Gold.Chemscore.Internal.Correction>
   9.000000E+99

> <Gold.Chemscore.Hbonds>
donor molecule, donor type, donor heavy atom, donor atom, acceptor molecule, acceptor atom, score
      L1  H    10    35       P1  8028  0.98

> <Gold.Chemscore.Hbond.Weighted>
-3.3395

> <Gold.Chemscore.Metal.Weighted>
-0.0000

> <Gold.Chemscore.Lipo.Weighted>
-13.2964

> <Gold.Chemscore.Internal_Hbond.Weighted>
0.0000

> <Gold.Chemscore.DEClash.Weighted>
0.5182

> <Gold.Chemscore.DEInternal.Weighted>
0.6365

> <Gold.Chemscore.Rot.Weighted>
3.4043

> <Gold.Chemscore.Internal.Correction.Weighted>
   9.000000E+99

> <Gold.Protein.RotatedTorsions>
[ 6907 6896 6895 6894 ] final   52.25 input  -60.11 | X-H torsion
[ 7974 7965 7964 7962 ] final    9.62 input  175.53 | X-H torsion
[ 8008 7997 7996 7995 ] final  -81.84 input   59.86 | X-H torsion
[ 10167 10162 10161 10158 ] final -161.76 input  -65.29 | X-H torsion
[ 10718 10713 10712 10709 ] final  -57.54 input   66.30 | X-H torsion
[ 10763 10752 10751 10750 ] final  -19.67 input  -60.55 | X-H torsion
[ 11005 11000 10999 10996 ] final  111.37 input  -57.11 | X-H torsion

> <Gold.Protein.ActiveResidues>
 VAL166  LYS551  ARG553  GLY616  TRP617  ASP618  TYR619  PRO620  LYS621  CYS622 
 ASP623  PHE694  ASN695  SER759  ASP760  ASP761  ALA762  ILE779  LEU786  VAL792 
 PHE793  MET794  SER795  GLU796  ALA797  LYS798  CYS799  TRP800  GLU811  SER814 

> <Gold.Protein.RotatedAtoms>
  152.3213  134.7376  160.0312 H   0  0  0  0  0  0  0  0  0  0  0  0  # atno 6907 bound_to 6896
  151.7824  133.3345  159.3483 H   0  0  0  0  0  0  0  0  0  0  0  0  # atno 6908 bound_to 6896
  150.7371  134.5850  159.6002 H   0  0  0  0  0  0  0  0  0  0  0  0  # atno 6909 bound_to 6896
  146.2401  139.9756  142.8442 H   0  0  0  0  0  0  0  0  0  0  0  0  # atno 7974 bound_to 7965
  154.6025  140.0642  156.9387 H   0  0  0  0  0  0  0  0  0  0  0  0  # atno 8008 bound_to 7997
  155.2109  140.3322  155.4311 H   0  0  0  0  0  0  0  0  0  0  0  0  # atno 8009 bound_to 7997
  156.2327  140.1848  156.7185 H   0  0  0  0  0  0  0  0  0  0  0  0  # atno 8010 bound_to 7997
  139.6441  144.0204  152.2114 H   0  0  0  0  0  0  0  0  0  0  0  0  # atno 10167 bound_to 10162
  156.1203  130.4167  150.0455 H   0  0  0  0  0  0  0  0  0  0  0  0  # atno 10718 bound_to 10713
  153.6084  135.6997  153.5357 H   0  0  0  0  0  0  0  0  0  0  0  0  # atno 10763 bound_to 10752
  153.3038  135.4121  155.1275 H   0  0  0  0  0  0  0  0  0  0  0  0  # atno 10764 bound_to 10752
  154.8568  135.3655  154.5621 H   0  0  0  0  0  0  0  0  0  0  0  0  # atno 10765 bound_to 10752
  139.8902  134.9506  156.6421 H   0  0  0  0  0  0  0  0  0  0  0  0  # atno 11005 bound_to 11000
  145.1640  140.9687  143.4360 LP  0  0  0  0  0  0  0  0  0  0  0  0  # atno 17320 bound_to 7965
  145.0090  139.3528  143.6129 LP  0  0  0  0  0  0  0  0  0  0  0  0  # atno 17321 bound_to 7965
  139.9901  144.6367  150.7822 LP  0  0  0  0  0  0  0  0  0  0  0  0  # atno 17342 bound_to 10162
  140.7506  143.2958  151.3209 LP  0  0  0  0  0  0  0  0  0  0  0  0  # atno 17343 bound_to 10162
  156.8395  130.9421  151.3632 LP  0  0  0  0  0  0  0  0  0  0  0  0  # atno 17370 bound_to 10713
  157.6386  130.8787  149.9406 LP  0  0  0  0  0  0  0  0  0  0  0  0  # atno 17371 bound_to 10713
  140.7585  133.8837  155.8400 LP  0  0  0  0  0  0  0  0  0  0  0  0  # atno 17394 bound_to 11000
  140.9942  134.1238  157.4380 LP  0  0  0  0  0  0  0  0  0  0  0  0  # atno 17395 bound_to 11000

$$$$
