AV-unprocessed.smi:3245|AV-procd|sdf|12405|dock10
  -GOLD-   2272018283D 1   1.00000     0.00000
 Structure written by MMmdl.
 35 36  0  0  0  0  0  0  0  0  1 V2000
  153.7784  139.4029  159.4441 C   0  0  0  0  0  0  0  0  0  0  0  0
  152.7697  140.5636  159.5631 C   0  0  1  0  0  0  0  0  0  0  0  0
  153.4178  141.8641  160.0825 C   0  0  0  0  0  0  0  0  0  0  0  0
  152.5590  143.0255  159.9338 N   0  0  0  0  0  0  0  0  0  0  0  0
  151.8965  143.7329  160.9149 C   0  0  0  0  0  0  0  0  0  0  0  0
  151.2200  144.7464  160.2987 C   0  0  0  0  0  0  0  0  0  0  0  0
  151.5396  144.5779  158.9224 C   0  0  0  0  0  0  0  0  0  0  0  0
  152.3446  143.5499  158.7074 N   0  0  0  0  0  0  0  0  0  0  0  0
  152.1816  140.8589  158.2623 N   0  0  0  0  0  0  0  0  0  0  0  0
  151.8168  139.6511  157.5343 C   0  0  0  0  0  0  0  0  0  0  0  0
  152.3921  139.6976  156.1073 C   0  0  0  0  0  0  0  0  0  0  0  0
  151.8409  138.6370  155.2556 N   0  0  0  0  0  0  0  0  0  0  0  0
  152.1126  137.3327  155.3984 C   0  0  0  0  0  0  0  0  0  0  0  0
  152.8554  136.8067  156.2267 O   0  0  0  0  0  0  0  0  0  0  0  0
  151.3363  136.5637  154.3517 C   0  0  0  0  0  0  0  0  0  0  0  0
  150.6651  137.6671  153.6994 N   0  0  0  0  0  0  0  0  0  0  0  0
  150.9759  138.8493  154.2466 C   0  0  0  0  0  0  0  0  0  0  0  0
  150.5343  139.9372  153.8793 O   0  0  0  0  0  0  0  0  0  0  0  0
  154.2304  139.1709  160.4084 H   0  0  0  0  0  0  0  0  0  0  0  0
  154.5847  139.6498  158.7526 H   0  0  0  0  0  0  0  0  0  0  0  0
  153.3087  138.4852  159.0924 H   0  0  0  0  0  0  0  0  0  0  0  0
  151.9747  140.2819  160.2554 H   0  0  0  0  0  0  0  0  0  0  0  0
  153.6751  141.7633  161.1381 H   0  0  0  0  0  0  0  0  0  0  0  0
  154.3506  142.0626  159.5523 H   0  0  0  0  0  0  0  0  0  0  0  0
  151.9583  143.4577  161.9576 H   0  0  0  0  0  0  0  0  0  0  0  0
  150.5934  145.4947  160.7608 H   0  0  0  0  0  0  0  0  0  0  0  0
  151.2138  145.1687  158.0790 H   0  0  0  0  0  0  0  0  0  0  0  0
  151.3520  141.4207  158.3907 H   0  0  0  0  0  0  0  0  0  0  0  0
  152.1655  138.7573  158.0507 H   0  0  0  0  0  0  0  0  0  0  0  0
  150.7293  139.5879  157.4836 H   0  0  0  0  0  0  0  0  0  0  0  0
  152.1559  140.6637  155.6588 H   0  0  0  0  0  0  0  0  0  0  0  0
  153.4823  139.6512  156.1352 H   0  0  0  0  0  0  0  0  0  0  0  0
  151.9981  136.0330  153.6666 H   0  0  0  0  0  0  0  0  0  0  0  0
  150.6261  135.8713  154.8050 H   0  0  0  0  0  0  0  0  0  0  0  0
  150.0315  137.5444  152.9228 H   0  0  0  0  0  0  0  0  0  0  0  0
  1  2  1  0  0  0  0
  1 19  1  0  0  0  0
  1 20  1  0  0  0  0
  1 21  1  0  0  0  0
  2  3  1  0  0  0  0
  2  9  1  0  0  0  0
  2 22  1  0  0  0  0
  3  4  1  0  0  0  0
  3 23  1  0  0  0  0
  3 24  1  0  0  0  0
  4  8  1  0  0  0  0
  4  5  1  0  0  0  0
  5  6  2  0  0  0  0
  5 25  1  0  0  0  0
  6  7  1  0  0  0  0
  6 26  1  0  0  0  0
  7  8  2  0  0  0  0
  7 27  1  0  0  0  0
  9 10  1  0  0  0  0
  9 28  1  0  0  0  0
 10 11  1  0  0  0  0
 10 29  1  0  0  0  0
 10 30  1  0  0  0  0
 11 12  1  0  0  0  0
 11 31  1  0  0  0  0
 11 32  1  0  0  0  0
 12 17  1  0  0  0  0
 12 13  1  0  0  0  0
 13 14  2  0  0  0  0
 13 15  1  0  0  0  0
 15 16  1  0  0  0  0
 15 33  1  0  0  0  0
 15 34  1  0  0  0  0
 16 17  1  0  0  0  0
 16 35  1  0  0  0  0
 17 18  2  0  0  0  0
M  END
> <s_m_source_file>
AV-unprocessed.smi

> <i_m_source_file_index>
3245

> <i_lp_mmshare_version>
43012

> <i_f3d_flags>
0

> <s_epik_input>
bjFbY0hdW2NIXVtjSF1uMVtDSDJdW0NAQEhdKFtDSDNdKVtOSF1bQ0gyXVtDSDJdTjJDKD1PKVtDSDJdW05IXUMyPU8=

> <s_epik_cmdline>
J2VwaWtfcHl0aG9uJywgJy1waCcsICc3LjAnLCAnLXRuJywgJzgnLCAnLW1hJywgJzIwMCcsICctbWV0YWxfYmluZGluZycsICctaW1hZScsICc8aW5maWxlLm1hZT4nLCAnLW9tYWUnLCAnPG91dGZpbGUubWFlPic=

> <r_lp_tautomer_probability>
1

> <r_epik_Ionization_Penalty>
2.14948

> <r_epik_Ionization_Penalty_Charging>
0

> <r_epik_Ionization_Penalty_Neutral>
2.14948

> <r_epik_State_Penalty>
2.28912

> <r_epik_Charging_Adjusted_Penalty>
2.28912

> <i_epik_Tot_Q>
0

> <i_epik_Tot_abs_Q>
0

> <r_epik_Metal_State_Penalty>
2.36471

> <b_epik_Metal_Only>
0

> <s_lp_Force_Field>
OPLS_2005

> <r_lp_Energy>
25.1449

> <b_lp_Chiralities_Consistent>
1

> <s_lp_Variant>
AV-unprocessed.smi:3245-4

> <Gold.Version>
5.8.1

> <Gold.Id.Protein>
6NUR|6NUR_protein|mol2

> <Gold.PLP.Fitness>
47.5113

> <Gold.PLP.PLP>
-40.8955

> <Gold.PLP.part.hbond>
-3.5109

> <Gold.PLP.part.metal>
0.0000

> <Gold.PLP.part.buried>
-5.6239

> <Gold.PLP.part.nonpolar>
-33.6045

> <Gold.PLP.part.repulsive>
0.9158

> <Gold.PLP.ligand.clash>
0.0364

> <Gold.PLP.ligand.torsion>
0.8124

> <Gold.PLP.Chemscore.Hbond>
2.7263

> <Gold.PLP.Chemscore.CHOScore>
0.0000

> <Gold.PLP.Chemscore.Metal>
0.0000

> <Gold.Chemscore.Hbonds>
donor molecule, donor type, donor heavy atom, donor atom, acceptor molecule, acceptor atom, score
      L1  H    16    35       P1  7948  0.78
      P1  H  7989  7998       L1    18  0.88
      P1  H 10752 10765       L1    14  0.83

> <Gold.PLP.Chemscore.Internal.Correction>
0.0983

> <Gold.Rescore>
     Score         DG    S(hbond)    S(metal)    S(lipo)     H(rot)  DE(clash)    DE(int)     intcor
     13.20     -14.01       1.83        0.00      78.95       2.66       0.03       0.78       ----

> <Gold.Chemscore.Fitness>
13.1954

> <Gold.Chemscore.DG>
-14.0069

> <Gold.Chemscore.ZeroCoef>
-5.4800

> <Gold.Chemscore.Hbond>
1.8268

> <Gold.Chemscore.Metal>
0.0000

> <Gold.Chemscore.Lipo>
78.9500

> <Gold.Chemscore.Internal_Hbond>
0.0000

> <Gold.Chemscore.DEClash>
0.0270

> <Gold.Chemscore.DEInternal>
0.7845

> <Gold.Chemscore.Rot>
2.6609

> <Gold.Chemscore.Internal.Correction>
   9.000000E+99

> <Gold.Chemscore.Hbonds>
donor molecule, donor type, donor heavy atom, donor atom, acceptor molecule, acceptor atom, score
      L1  H    16    35       P1  7948  0.13
      P1  H  7989  7998       L1    18  0.68
      P1  H 10752 10765       L1    14  0.21

> <Gold.Chemscore.Hbond.Weighted>
-6.1015

> <Gold.Chemscore.Metal.Weighted>
-0.0000

> <Gold.Chemscore.Lipo.Weighted>
-9.2372

> <Gold.Chemscore.Internal_Hbond.Weighted>
0.0000

> <Gold.Chemscore.DEClash.Weighted>
0.0270

> <Gold.Chemscore.DEInternal.Weighted>
0.7845

> <Gold.Chemscore.Rot.Weighted>
6.8118

> <Gold.Chemscore.Internal.Correction.Weighted>
   9.000000E+99

> <Gold.Protein.RotatedTorsions>
[ 6907 6896 6895 6894 ] final  -42.98 input  -60.11 | X-H torsion
[ 7974 7965 7964 7962 ] final  117.10 input  175.53 | X-H torsion
[ 8008 7997 7996 7995 ] final  132.11 input   59.86 | X-H torsion
[ 10167 10162 10161 10158 ] final   49.92 input  -65.29 | X-H torsion
[ 10718 10713 10712 10709 ] final  152.11 input   66.30 | X-H torsion
[ 10763 10752 10751 10750 ] final -128.59 input  -60.55 | X-H torsion
[ 11005 11000 10999 10996 ] final   44.36 input  -57.11 | X-H torsion

> <Gold.Protein.ActiveResidues>
 VAL166  LYS551  ARG553  GLY616  TRP617  ASP618  TYR619  PRO620  LYS621  CYS622 
 ASP623  PHE694  ASN695  SER759  ASP760  ASP761  ALA762  ILE779  LEU786  VAL792 
 PHE793  MET794  SER795  GLU796  ALA797  LYS798  CYS799  TRP800  GLU811  SER814 

> <Gold.Protein.RotatedAtoms>
  150.9491  134.8893  159.7660 H   0  0  0  0  0  0  0  0  0  0  0  0  # atno 6907 bound_to 6896
  152.5112  134.3832  159.9368 H   0  0  0  0  0  0  0  0  0  0  0  0  # atno 6908 bound_to 6896
  151.3849  133.3768  159.2749 H   0  0  0  0  0  0  0  0  0  0  0  0  # atno 6909 bound_to 6896
  145.1715  139.3099  143.4465 H   0  0  0  0  0  0  0  0  0  0  0  0  # atno 7974 bound_to 7965
  156.2978  140.2554  156.3036 H   0  0  0  0  0  0  0  0  0  0  0  0  # atno 8008 bound_to 7997
  154.9394  140.0396  157.2108 H   0  0  0  0  0  0  0  0  0  0  0  0  # atno 8009 bound_to 7997
  154.8141  140.2849  155.5837 H   0  0  0  0  0  0  0  0  0  0  0  0  # atno 8010 bound_to 7997
  140.2779  144.3191  150.6272 H   0  0  0  0  0  0  0  0  0  0  0  0  # atno 10167 bound_to 10162
  157.2620  131.0800  151.1659 H   0  0  0  0  0  0  0  0  0  0  0  0  # atno 10718 bound_to 10713
  154.8756  135.3923  154.3781 H   0  0  0  0  0  0  0  0  0  0  0  0  # atno 10763 bound_to 10752
  153.4532  135.7028  153.6101 H   0  0  0  0  0  0  0  0  0  0  0  0  # atno 10764 bound_to 10752
  153.4632  135.3807  155.2318 H   0  0  0  0  0  0  0  0  0  0  0  0  # atno 10765 bound_to 10752
  140.1559  134.4402  155.8350 H   0  0  0  0  0  0  0  0  0  0  0  0  # atno 11005 bound_to 11000
  146.3468  140.1862  142.8589 LP  0  0  0  0  0  0  0  0  0  0  0  0  # atno 17320 bound_to 7965
  145.0228  140.8808  143.5156 LP  0  0  0  0  0  0  0  0  0  0  0  0  # atno 17321 bound_to 7965
  140.5836  143.2171  151.7383 LP  0  0  0  0  0  0  0  0  0  0  0  0  # atno 17342 bound_to 10162
  139.4971  144.4043  152.0148 LP  0  0  0  0  0  0  0  0  0  0  0  0  # atno 17343 bound_to 10162
  157.3165  130.6916  149.6245 LP  0  0  0  0  0  0  0  0  0  0  0  0  # atno 17370 bound_to 10713
  155.9664  130.4348  150.5064 LP  0  0  0  0  0  0  0  0  0  0  0  0  # atno 17371 bound_to 10713
  141.2204  133.6892  156.7507 LP  0  0  0  0  0  0  0  0  0  0  0  0  # atno 17394 bound_to 11000
  140.2548  134.8513  157.3702 LP  0  0  0  0  0  0  0  0  0  0  0  0  # atno 17395 bound_to 11000

$$$$
