AV-unprocessed.smi:1272|AV-procd|sdf|5337|dock4
  -GOLD-   22720 4463D 1   1.00000     0.00000
 Structure written by MMmdl.
 46 48  0  0  0  0  0  0  0  0  2 V2000
  154.9321  140.1054  160.0612 C   0  0  0  0  0  0  0  0  0  0  0  0
  153.6201  140.6120  160.6727 C   0  0  0  0  0  0  0  0  0  0  0  0
  152.8995  141.4741  159.7395 N   0  0  0  0  0  0  0  0  0  0  0  0
  152.5129  141.1563  158.4818 C   0  0  0  0  0  0  0  0  0  0  0  0
  152.7019  140.0801  157.9148 O   0  0  0  0  0  0  0  0  0  0  0  0
  151.8600  142.2217  157.9604 N   0  0  0  0  0  0  0  0  0  0  0  0
  151.2617  142.3052  156.6293 C   0  0  0  0  0  0  0  0  0  0  0  0
  149.9900  141.4390  156.5223 C   0  0  1  0  0  0  0  0  0  0  0  0
  148.8944  142.2075  156.9806 O   0  0  0  0  0  0  0  0  0  0  0  0
  149.6969  141.0312  155.0639 C   0  0  0  0  0  0  0  0  0  0  0  0
  150.4035  139.7873  154.6629 N   0  3  0  0  0  0  0  0  0  0  0  0
  151.7851  139.7218  155.1965 C   0  0  0  0  0  0  0  0  0  0  0  0
  152.4949  138.4513  154.6980 C   0  0  0  0  0  0  0  0  0  0  0  0
  151.7413  137.3051  155.0728 O   0  0  0  0  0  0  0  0  0  0  0  0
  150.4406  137.3122  154.4979 C   0  0  0  0  0  0  0  0  0  0  0  0
  149.6643  138.5435  154.9949 C   0  0  0  0  0  0  0  0  0  0  0  0
  151.8004  143.2397  158.9230 C   0  0  0  0  0  0  0  0  0  0  0  0
  151.2136  144.5167  158.8857 C   0  0  0  0  0  0  0  0  0  0  0  0
  151.3197  145.3113  160.0512 C   0  0  0  0  0  0  0  0  0  0  0  0
  151.9921  144.8269  161.2030 C   0  0  0  0  0  0  0  0  0  0  0  0
  152.5725  143.5370  161.2142 C   0  0  0  0  0  0  0  0  0  0  0  0
  152.4541  142.7688  160.0427 C   0  0  0  0  0  0  0  0  0  0  0  0
  155.4640  139.4632  160.7633 H   0  0  0  0  0  0  0  0  0  0  0  0
  155.5927  140.9334  159.8023 H   0  0  0  0  0  0  0  0  0  0  0  0
  154.7478  139.5270  159.1554 H   0  0  0  0  0  0  0  0  0  0  0  0
  152.9882  139.7693  160.9539 H   0  0  0  0  0  0  0  0  0  0  0  0
  153.8267  141.1552  161.5961 H   0  0  0  0  0  0  0  0  0  0  0  0
  151.0646  143.3416  156.3522 H   0  0  0  0  0  0  0  0  0  0  0  0
  152.0070  141.9521  155.9145 H   0  0  0  0  0  0  0  0  0  0  0  0
  150.0933  140.5526  157.1475 H   0  0  0  0  0  0  0  0  0  0  0  0
  148.8096  142.9714  156.4305 H   0  0  0  0  0  0  0  0  0  0  0  0
  148.6199  140.8952  154.9503 H   0  0  0  0  0  0  0  0  0  0  0  0
  149.9751  141.8333  154.3785 H   0  0  0  0  0  0  0  0  0  0  0  0
  152.3479  140.6014  154.8817 H   0  0  0  0  0  0  0  0  0  0  0  0
  151.7574  139.7309  156.2874 H   0  0  0  0  0  0  0  0  0  0  0  0
  152.6265  138.4773  153.6152 H   0  0  0  0  0  0  0  0  0  0  0  0
  153.4898  138.3795  155.1380 H   0  0  0  0  0  0  0  0  0  0  0  0
  150.5098  137.3084  153.4088 H   0  0  0  0  0  0  0  0  0  0  0  0
  149.9210  136.3984  154.7867 H   0  0  0  0  0  0  0  0  0  0  0  0
  149.5181  138.4799  156.0744 H   0  0  0  0  0  0  0  0  0  0  0  0
  148.6750  138.5485  154.5392 H   0  0  0  0  0  0  0  0  0  0  0  0
  150.6977  144.8796  158.0094 H   0  0  0  0  0  0  0  0  0  0  0  0
  150.8816  146.2983  160.0654 H   0  0  0  0  0  0  0  0  0  0  0  0
  152.0598  145.4496  162.0829 H   0  0  0  0  0  0  0  0  0  0  0  0
  153.0808  143.1611  162.0897 H   0  0  0  0  0  0  0  0  0  0  0  0
  150.4891  139.8212  153.6567 H   0  0  0  0  0  0  0  0  0  0  0  0
  1  2  1  0  0  0  0
  1 23  1  0  0  0  0
  1 24  1  0  0  0  0
  1 25  1  0  0  0  0
  2  3  1  0  0  0  0
  2 26  1  0  0  0  0
  2 27  1  0  0  0  0
  3 22  1  0  0  0  0
  3  4  1  0  0  0  0
  4  5  2  0  0  0  0
  4  6  1  0  0  0  0
  6  7  1  0  0  0  0
  6 17  1  0  0  0  0
  7  8  1  0  0  0  0
  7 28  1  0  0  0  0
  7 29  1  0  0  0  0
  8  9  1  0  0  0  0
  8 10  1  0  0  0  0
  8 30  1  0  0  0  0
  9 31  1  0  0  0  0
 10 11  1  0  0  0  0
 10 32  1  0  0  0  0
 10 33  1  0  0  0  0
 11 16  1  0  0  0  0
 11 12  1  0  0  0  0
 11 46  1  0  0  0  0
 12 13  1  0  0  0  0
 12 34  1  0  0  0  0
 12 35  1  0  0  0  0
 13 14  1  0  0  0  0
 13 36  1  0  0  0  0
 13 37  1  0  0  0  0
 14 15  1  0  0  0  0
 15 16  1  0  0  0  0
 15 38  1  0  0  0  0
 15 39  1  0  0  0  0
 16 40  1  0  0  0  0
 16 41  1  0  0  0  0
 17 22  2  0  0  0  0
 17 18  1  0  0  0  0
 18 19  2  0  0  0  0
 18 42  1  0  0  0  0
 19 20  1  0  0  0  0
 19 43  1  0  0  0  0
 20 21  2  0  0  0  0
 20 44  1  0  0  0  0
 21 22  1  0  0  0  0
 21 45  1  0  0  0  0
M  CHG  1  11   1
M  END
> <s_m_source_file>
AV-unprocessed.smi

> <i_m_source_file_index>
1272

> <i_lp_mmshare_version>
43012

> <i_f3d_flags>
0

> <s_epik_input>
W2NIXTFbY0hdW2NIXVtjSF1jKGMxMiluKFtDSDJdW0NIM10pYyg9TyluMltDSDJdW0NASF0oW09IXSlbQ0gyXU4zW0NIMl1bQ0gyXU9bQ0gyXVtDSDJdMw==

> <s_epik_cmdline>
J2VwaWtfcHl0aG9uJywgJy1waCcsICc3LjAnLCAnLXRuJywgJzgnLCAnLW1hJywgJzIwMCcsICctbWV0YWxfYmluZGluZycsICctaW1hZScsICc8aW5maWxlLm1hZT4nLCAnLW9tYWUnLCAnPG91dGZpbGUubWFlPic=

> <r_epik_Ionization_Penalty>
0.706332

> <r_epik_Ionization_Penalty_Charging>
0.706318

> <r_epik_Ionization_Penalty_Neutral>
1.42224e-05

> <r_epik_State_Penalty>
0.729493

> <r_epik_Charging_Adjusted_Penalty>
1.43581

> <i_epik_Tot_Q>
1

> <i_epik_Tot_abs_Q>
1

> <r_epik_Metal_State_Penalty>
0.729493

> <b_epik_Metal_Only>
0

> <s_lp_Force_Field>
OPLS_2005

> <r_lp_Energy>
52.83

> <b_lp_Chiralities_Consistent>
1

> <s_lp_Variant>
AV-unprocessed.smi:1272-4

> <Gold.Version>
5.8.1

> <Gold.Id.Protein>
6NUR|6NUR_protein|mol2

> <Gold.PLP.Fitness>
56.9704

> <Gold.PLP.PLP>
-50.0686

> <Gold.PLP.part.hbond>
-3.0000

> <Gold.PLP.part.metal>
0.0000

> <Gold.PLP.part.buried>
-4.4384

> <Gold.PLP.part.nonpolar>
-43.6213

> <Gold.PLP.part.repulsive>
0.7735

> <Gold.PLP.ligand.clash>
0.0000

> <Gold.PLP.ligand.torsion>
1.0022

> <Gold.PLP.Chemscore.Hbond>
2.9111

> <Gold.PLP.Chemscore.CHOScore>
0.0000

> <Gold.PLP.Chemscore.Metal>
0.0000

> <Gold.Chemscore.Hbonds>
donor molecule, donor type, donor heavy atom, donor atom, acceptor molecule, acceptor atom, score
      L1  H     9    31       P1  8028  1.00
      P1  H  7997  8008       L1     5  0.89
      P1  H 10752 10764       L1    14  0.73

> <Gold.PLP.Chemscore.Internal.Correction>
0.1727

> <Gold.Rescore>
     Score         DG    S(hbond)    S(metal)    S(lipo)     H(rot)  DE(clash)    DE(int)     intcor
     18.30     -20.93       1.60        0.00     135.08       2.23       0.96       1.67       ----

> <Gold.Chemscore.Fitness>
18.2956

> <Gold.Chemscore.DG>
-20.9305

> <Gold.Chemscore.ZeroCoef>
-5.4800

> <Gold.Chemscore.Hbond>
1.6023

> <Gold.Chemscore.Metal>
0.0000

> <Gold.Chemscore.Lipo>
135.0793

> <Gold.Chemscore.Internal_Hbond>
0.0000

> <Gold.Chemscore.DEClash>
0.9629

> <Gold.Chemscore.DEInternal>
1.6719

> <Gold.Chemscore.Rot>
2.2287

> <Gold.Chemscore.Internal.Correction>
   9.000000E+99

> <Gold.Chemscore.Hbonds>
donor molecule, donor type, donor heavy atom, donor atom, acceptor molecule, acceptor atom, score
      L1  H     9    31       P1  8028  0.97
      P1  H  7997  8008       L1     5  0.65
      P1  H 10752 10764       L1    14  0.34

> <Gold.Chemscore.Hbond.Weighted>
-5.3516

> <Gold.Chemscore.Metal.Weighted>
-0.0000

> <Gold.Chemscore.Lipo.Weighted>
-15.8043

> <Gold.Chemscore.Internal_Hbond.Weighted>
0.0000

> <Gold.Chemscore.DEClash.Weighted>
0.9629

> <Gold.Chemscore.DEInternal.Weighted>
1.6719

> <Gold.Chemscore.Rot.Weighted>
5.7054

> <Gold.Chemscore.Internal.Correction.Weighted>
   9.000000E+99

> <Gold.Protein.RotatedTorsions>
[ 6907 6896 6895 6894 ] final   86.75 input  -60.11 | X-H torsion
[ 7974 7965 7964 7962 ] final   21.82 input  175.53 | X-H torsion
[ 8008 7997 7996 7995 ] final  -83.40 input   59.86 | X-H torsion
[ 10167 10162 10161 10158 ] final   46.82 input  -65.29 | X-H torsion
[ 10718 10713 10712 10709 ] final  -27.86 input   66.30 | X-H torsion
[ 10763 10752 10751 10750 ] final  -63.69 input  -60.55 | X-H torsion
[ 11005 11000 10999 10996 ] final   87.46 input  -57.11 | X-H torsion

> <Gold.Protein.ActiveResidues>
 VAL166  LYS551  ARG553  GLY616  TRP617  ASP618  TYR619  PRO620  LYS621  CYS622 
 ASP623  PHE694  ASN695  SER759  ASP760  ASP761  ALA762  ILE779  LEU786  VAL792 
 PHE793  MET794  SER795  GLU796  ALA797  LYS798  CYS799  TRP800  GLU811  SER814 

> <Gold.Protein.RotatedAtoms>
  152.5400  134.2383  159.8851 H   0  0  0  0  0  0  0  0  0  0  0  0  # atno 6907 bound_to 6896
  151.2351  133.4422  159.2613 H   0  0  0  0  0  0  0  0  0  0  0  0  # atno 6908 bound_to 6896
  151.0679  134.9793  159.8349 H   0  0  0  0  0  0  0  0  0  0  0  0  # atno 6909 bound_to 6896
  146.2055  139.7972  142.8729 H   0  0  0  0  0  0  0  0  0  0  0  0  # atno 7974 bound_to 7965
  154.6187  140.0619  156.9587 H   0  0  0  0  0  0  0  0  0  0  0  0  # atno 8008 bound_to 7997
  155.1853  140.3302  155.4349 H   0  0  0  0  0  0  0  0  0  0  0  0  # atno 8009 bound_to 7997
  156.2419  140.1890  156.6946 H   0  0  0  0  0  0  0  0  0  0  0  0  # atno 8010 bound_to 7997
  140.3100  144.2832  150.6202 H   0  0  0  0  0  0  0  0  0  0  0  0  # atno 10167 bound_to 10162
  156.4327  130.4448  149.7106 H   0  0  0  0  0  0  0  0  0  0  0  0  # atno 10718 bound_to 10713
  154.3189  135.6200  153.5498 H   0  0  0  0  0  0  0  0  0  0  0  0  # atno 10763 bound_to 10752
  152.9822  135.5719  154.5093 H   0  0  0  0  0  0  0  0  0  0  0  0  # atno 10764 bound_to 10752
  154.4757  135.2861  155.1585 H   0  0  0  0  0  0  0  0  0  0  0  0  # atno 10765 bound_to 10752
  139.8919  134.8424  156.2864 H   0  0  0  0  0  0  0  0  0  0  0  0  # atno 11005 bound_to 11000
  145.3334  141.0272  143.3433 LP  0  0  0  0  0  0  0  0  0  0  0  0  # atno 17320 bound_to 7965
  144.8782  139.4941  143.6735 LP  0  0  0  0  0  0  0  0  0  0  0  0  # atno 17321 bound_to 7965
  140.5577  143.2196  151.7820 LP  0  0  0  0  0  0  0  0  0  0  0  0  # atno 17342 bound_to 10162
  139.4896  144.4392  151.9784 LP  0  0  0  0  0  0  0  0  0  0  0  0  # atno 17343 bound_to 10162
  156.4002  130.7671  151.2678 LP  0  0  0  0  0  0  0  0  0  0  0  0  # atno 17370 bound_to 10713
  157.7508  131.0242  150.3866 LP  0  0  0  0  0  0  0  0  0  0  0  0  # atno 17371 bound_to 10713
  141.0005  133.7154  156.0953 LP  0  0  0  0  0  0  0  0  0  0  0  0  # atno 17394 bound_to 11000
  140.7504  134.4051  157.5542 LP  0  0  0  0  0  0  0  0  0  0  0  0  # atno 17395 bound_to 11000

$$$$
