#       Name:                AV-unprocessed.smi:2981
#       Creating user name   scv26
#       Creation time:       Fri Mar 27 16:29:26 2020


#       File generated by GOLD software.
#

@<TRIPOS>MOLECULE
AV-unprocessed.smi:2981
    36    37     1
SMALL
NO_CHARGES


@<TRIPOS>ATOM
      1 ****        -0.2591   1.0754  -0.7441 O.2            1 S1                 0.0000
      2 ****         0.4027   0.1686  -0.2370 C.2            1 S1                 0.0000
      3 ****         1.9289   0.2845  -0.1097 C.3            1 S1                 0.0000
      4 ****         2.4103   1.6742  -0.1025 N.am           1 S1                 0.0000
      5 ****         2.9213   2.1006  -1.3159 N.2            1 S1                 0.0000
      6 ****         3.3590   3.3070  -1.4311 C.2            1 S1                 0.0000
      7 ****         3.3408   4.2420  -0.3279 C.2            1 S1                 0.0000
      8 ****         3.9416   5.8484  -0.5424 Cl             1 S1                 0.0000
      9 ****         2.8436   3.8120   0.8591 C.2            1 S1                 0.0000
     10 ****         2.7904   4.8723   2.2256 Cl             1 S1                 0.0000
     11 ****         2.3360   2.4433   1.0274 C.2            1 S1                 0.0000
     12 ****         1.8795   2.0141   2.0880 O.2            1 S1                 0.0000
     13 ****        -0.1403  -0.9722   0.2140 N.am           1 S1                 0.0000
     14 ****        -1.5649  -1.2881   0.1929 C.3            1 S1                 0.0000
     15 ****        -1.9032  -2.3997   1.2033 C.3            1 S1                 0.0000
     16 ****        -3.3077  -2.9338   0.8955 C.3            1 S1                 0.0000
     17 ****        -3.5403  -2.7440  -0.9132 S.o2           1 S1                 0.0000
     18 ****        -3.3931  -4.0520  -1.5698 O.2            1 S1                 0.0000
     19 ****        -4.7238  -1.9049  -1.1546 O.2            1 S1                 0.0000
     20 ****        -2.0234  -1.7564  -1.1971 C.3            1 S1                 0.0000
     21 ****         2.2611  -0.2277   0.7955 H              1 S1                 0.0000
     22 ****         2.3777  -0.2666  -0.9381 H              1 S1                 0.0000
     23 ****         3.7673   3.6877  -2.3674 H              1 S1                 0.0000
     24 ****         0.4761  -1.6667   0.6109 H              1 S1                 0.0000
     25 ****        -2.1403  -0.4023   0.4697 H              1 S1                 0.0000
     26 ****        -1.1887  -3.2166   1.0911 H              1 S1                 0.0000
     27 ****        -1.8260  -2.0492   2.2332 H              1 S1                 0.0000
     28 ****        -3.4403  -3.9760   1.1864 H              1 S1                 0.0000
     29 ****        -4.0675  -2.3331   1.3959 H              1 S1                 0.0000
     30 ****        -2.2334  -0.9310  -1.8778 H              1 S1                 0.0000
     31 ****        -1.2829  -2.4099  -1.6595 H              1 S1                 0.0000
     32 ****         0.1967   1.9000  -1.0791 LP             1 S1                 0.0000
     33 ****        -1.2523   0.9869  -0.8208 LP             1 S1                 0.0000
     34 ****         2.9506   1.4772  -2.0973 LP             1 S1                 0.0000
     35 ****         1.5466   1.0728   2.1445 LP             1 S1                 0.0000
     36 ****         1.8418   2.6070   2.8924 LP             1 S1                 0.0000
@<TRIPOS>BOND
    1    1    2 2     
    2    2    3 1     
    3    2   13 am    
    4    3    4 1     
    5    3   21 1     
    6    3   22 1     
    7    4   11 am    
    8    4    5 1     
    9    5    6 2     
   10    6    7 1     
   11    6   23 1     
   12    7    8 1     
   13    7    9 2     
   14    9   10 1     
   15    9   11 1     
   16   11   12 2     
   17   13   14 1     
   18   13   24 1     
   19   14   20 1     
   20   14   15 1     
   21   14   25 1     
   22   15   16 1     
   23   15   26 1     
   24   15   27 1     
   25   16   17 1     
   26   16   28 1     
   27   16   29 1     
   28   17   18 2     
   29   17   19 2     
   30   17   20 1     
   31   20   30 1     
   32   20   31 1     
   33    1   32 1     
   34    1   33 1     
   35    5   34 1     
   36   12   35 1     
   37   12   36 1     
@<TRIPOS>SUBSTRUCTURE
      1 S1             1
@<TRIPOS>SET
LONE_PAIRS      STATIC     ATOMS    <user>   **** ""
7 32 33 34 35 36 18 19
DONOR_HYDROGENS      STATIC     ATOMS    <user>   **** ""
1 24
ATOM$BLUE        STATIC     ATOMS    COLORGROUP SYSTEM
7 32 33 34 35 36 18 19
ATOM$RED        STATIC     ATOMS    COLORGROUP SYSTEM
1 24
