AV-unprocessed.smi:550|AV-procd|sdf|2894|dock10
  -GOLD-   2262023393D 1   1.00000     0.00000
 Structure written by MMmdl.
 45 47  0  0  0  0  0  0  0  0  1 V2000
  155.8301  142.3694  164.8799 O   0  0  0  0  0  0  0  0  0  0  0  0
  155.9711  141.1875  164.5673 C   0  0  0  0  0  0  0  0  0  0  0  0
  156.6943  140.3138  165.2822 N   0  0  0  0  0  0  0  0  0  0  0  0
  157.4235  140.6201  166.5095 C   0  0  0  0  0  0  0  0  0  0  0  0
  156.5042  140.6037  167.7461 C   0  0  2  0  0  0  0  0  0  0  0  0
  155.7413  141.9311  167.9234 C   0  0  0  0  0  0  0  0  0  0  0  0
  155.0604  141.9257  169.2955 C   0  0  0  0  0  0  0  0  0  0  0  0
  156.1921  141.0058  170.4023 S   0  0  0  0  0  0  0  0  0  0  0  0
  156.9915  141.9582  171.1878 O   0  0  0  0  0  0  0  0  0  0  0  0
  155.4438  139.9230  171.0585 O   0  0  0  0  0  0  0  0  0  0  0  0
  157.2376  140.3096  169.0670 C   0  0  0  0  0  0  0  0  0  0  0  0
  155.4203  140.5968  163.4931 N   0  0  0  0  0  0  0  0  0  0  0  0
  154.6261  141.1850  162.4721 C   0  0  0  0  0  0  0  0  0  0  0  0
  153.8444  142.3082  162.8043 C   0  0  0  0  0  0  0  0  0  0  0  0
  153.0324  142.8988  161.8179 C   0  0  0  0  0  0  0  0  0  0  0  0
  153.0181  142.3434  160.5167 C   0  0  0  0  0  0  0  0  0  0  0  0
  152.2165  142.8996  159.5003 N   0  0  0  0  0  0  0  0  0  0  0  0
  151.8397  142.1385  158.3190 C   0  0  0  0  0  0  0  0  0  0  0  0
  151.1133  143.1443  157.4274 C   0  0  0  0  0  0  0  0  0  0  0  0
  151.8206  144.4617  157.7451 C   0  0  0  0  0  0  0  0  0  0  0  0
  152.2154  144.3289  159.2207 C   0  0  0  0  0  0  0  0  0  0  0  0
  153.7536  141.2509  160.2020 N   0  0  0  0  0  0  0  0  0  0  0  0
  154.5325  140.6888  161.1502 C   0  0  0  0  0  0  0  0  0  0  0  0
  156.7477  139.3618  164.9507 H   0  0  0  0  0  0  0  0  0  0  0  0
  158.2633  139.9367  166.6466 H   0  0  0  0  0  0  0  0  0  0  0  0
  157.8589  141.6128  166.3930 H   0  0  0  0  0  0  0  0  0  0  0  0
  155.7557  139.8220  167.6068 H   0  0  0  0  0  0  0  0  0  0  0  0
  156.4497  142.7599  167.8851 H   0  0  0  0  0  0  0  0  0  0  0  0
  155.0188  142.0927  167.1227 H   0  0  0  0  0  0  0  0  0  0  0  0
  154.8767  142.9260  169.6876 H   0  0  0  0  0  0  0  0  0  0  0  0
  154.1143  141.3856  169.2561 H   0  0  0  0  0  0  0  0  0  0  0  0
  157.4033  139.2454  169.2363 H   0  0  0  0  0  0  0  0  0  0  0  0
  158.2011  140.8189  169.1026 H   0  0  0  0  0  0  0  0  0  0  0  0
  155.5514  139.5989  163.4182 H   0  0  0  0  0  0  0  0  0  0  0  0
  153.8649  142.7176  163.8038 H   0  0  0  0  0  0  0  0  0  0  0  0
  152.4301  143.7578  162.0730 H   0  0  0  0  0  0  0  0  0  0  0  0
  152.7376  141.7646  157.8249 H   0  0  0  0  0  0  0  0  0  0  0  0
  151.2035  141.2896  158.5713 H   0  0  0  0  0  0  0  0  0  0  0  0
  151.1536  142.8805  156.3705 H   0  0  0  0  0  0  0  0  0  0  0  0
  150.0647  143.2093  157.7211 H   0  0  0  0  0  0  0  0  0  0  0  0
  152.7198  144.5469  157.1335 H   0  0  0  0  0  0  0  0  0  0  0  0
  151.1993  145.3362  157.5504 H   0  0  0  0  0  0  0  0  0  0  0  0
  151.4789  144.8126  159.8628 H   0  0  0  0  0  0  0  0  0  0  0  0
  153.1876  144.7870  159.4063 H   0  0  0  0  0  0  0  0  0  0  0  0
  155.0680  139.8094  160.8287 H   0  0  0  0  0  0  0  0  0  0  0  0
  1  2  2  0  0  0  0
  2  3  1  0  0  0  0
  2 12  1  0  0  0  0
  3  4  1  0  0  0  0
  3 24  1  0  0  0  0
  4  5  1  0  0  0  0
  4 25  1  0  0  0  0
  4 26  1  0  0  0  0
  5 11  1  0  0  0  0
  5  6  1  0  0  0  0
  5 27  1  0  0  0  0
  6  7  1  0  0  0  0
  6 28  1  0  0  0  0
  6 29  1  0  0  0  0
  7  8  1  0  0  0  0
  7 30  1  0  0  0  0
  7 31  1  0  0  0  0
  8  9  2  0  0  0  0
  8 10  2  0  0  0  0
  8 11  1  0  0  0  0
 11 32  1  0  0  0  0
 11 33  1  0  0  0  0
 12 13  1  0  0  0  0
 12 34  1  0  0  0  0
 13 23  1  0  0  0  0
 13 14  2  0  0  0  0
 14 15  1  0  0  0  0
 14 35  1  0  0  0  0
 15 16  2  0  0  0  0
 15 36  1  0  0  0  0
 16 17  1  0  0  0  0
 16 22  1  0  0  0  0
 17 21  1  0  0  0  0
 17 18  1  0  0  0  0
 18 19  1  0  0  0  0
 18 37  1  0  0  0  0
 18 38  1  0  0  0  0
 19 20  1  0  0  0  0
 19 39  1  0  0  0  0
 19 40  1  0  0  0  0
 20 21  1  0  0  0  0
 20 41  1  0  0  0  0
 20 42  1  0  0  0  0
 21 43  1  0  0  0  0
 21 44  1  0  0  0  0
 22 23  2  0  0  0  0
 23 45  1  0  0  0  0
M  END
> <s_m_source_file>
AV-unprocessed.smi

> <i_m_source_file_index>
550

> <i_lp_mmshare_version>
43012

> <i_f3d_flags>
0

> <s_epik_input>
Tz1TMSg9TylbQ0gyXVtDSDJdW0NASF0oW0NIMl0xKVtDSDJdW05IXUMoPU8pW05IXWMyW2NIXVtjSF1jKG5bY0hdMilOM1tDSDJdW0NIMl1bQ0gyXVtDSDJdMw==

> <s_epik_cmdline>
J2VwaWtfcHl0aG9uJywgJy1waCcsICc3LjAnLCAnLXRuJywgJzgnLCAnLW1hJywgJzIwMCcsICctbWV0YWxfYmluZGluZycsICctaW1hZScsICc8aW5maWxlLm1hZT4nLCAnLW9tYWUnLCAnPG91dGZpbGUubWFlPic=

> <r_lp_tautomer_probability>
1

> <r_epik_Ionization_Penalty>
0.0965651

> <r_epik_Ionization_Penalty_Charging>
0

> <r_epik_Ionization_Penalty_Neutral>
0.0965651

> <r_epik_State_Penalty>
0.0861592

> <r_epik_Charging_Adjusted_Penalty>
0.0861592

> <i_epik_Tot_Q>
0

> <i_epik_Tot_abs_Q>
0

> <r_epik_Metal_State_Penalty>
0.0740405

> <b_epik_Metal_Only>
0

> <s_lp_Force_Field>
OPLS_2005

> <r_lp_Energy>
29.4066

> <b_lp_Chiralities_Consistent>
1

> <s_lp_Variant>
AV-unprocessed.smi:550-1

> <Gold.Version>
5.8.1

> <Gold.Id.Protein>
6NUR|6NUR_protein|mol2

> <Gold.PLP.Fitness>
42.3805

> <Gold.PLP.PLP>
-44.3505

> <Gold.PLP.part.hbond>
-2.5651

> <Gold.PLP.part.metal>
0.0000

> <Gold.PLP.part.buried>
-1.7414

> <Gold.PLP.part.nonpolar>
-39.4869

> <Gold.PLP.part.repulsive>
0.2161

> <Gold.PLP.ligand.clash>
0.0000

> <Gold.PLP.ligand.torsion>
1.0821

> <Gold.PLP.Chemscore.Hbond>
0.0000

> <Gold.PLP.Chemscore.CHOScore>
0.0000

> <Gold.PLP.Chemscore.Metal>
0.0000

> <Gold.PLP.Chemscore.Internal.Correction>
0.1942

> <Gold.Rescore>
     Score         DG    S(hbond)    S(metal)    S(lipo)     H(rot)  DE(clash)    DE(int)     intcor
     11.61     -14.07       0.00        0.00     100.78       1.25       0.18       2.28       ----

> <Gold.Chemscore.Fitness>
11.6122

> <Gold.Chemscore.DG>
-14.0693

> <Gold.Chemscore.ZeroCoef>
-5.4800

> <Gold.Chemscore.Hbond>
0.0000

> <Gold.Chemscore.Metal>
0.0000

> <Gold.Chemscore.Lipo>
100.7770

> <Gold.Chemscore.Internal_Hbond>
0.0000

> <Gold.Chemscore.DEClash>
0.1757

> <Gold.Chemscore.DEInternal>
2.2815

> <Gold.Chemscore.Rot>
1.2506

> <Gold.Chemscore.Internal.Correction>
   9.000000E+99

> <Gold.Chemscore.Hbond.Weighted>
-0.0000

> <Gold.Chemscore.Metal.Weighted>
-0.0000

> <Gold.Chemscore.Lipo.Weighted>
-11.7909

> <Gold.Chemscore.Internal_Hbond.Weighted>
0.0000

> <Gold.Chemscore.DEClash.Weighted>
0.1757

> <Gold.Chemscore.DEInternal.Weighted>
2.2815

> <Gold.Chemscore.Rot.Weighted>
3.2016

> <Gold.Chemscore.Internal.Correction.Weighted>
   9.000000E+99

> <Gold.Protein.RotatedTorsions>
[ 6907 6896 6895 6894 ] final  174.80 input  -60.11 | X-H torsion
[ 7974 7965 7964 7962 ] final   70.53 input  175.53 | X-H torsion
[ 8008 7997 7996 7995 ] final  -40.32 input   59.86 | X-H torsion
[ 10167 10162 10161 10158 ] final   96.97 input  -65.29 | X-H torsion
[ 10718 10713 10712 10709 ] final  116.35 input   66.30 | X-H torsion
[ 10763 10752 10751 10750 ] final   74.99 input  -60.55 | X-H torsion
[ 11005 11000 10999 10996 ] final  141.40 input  -57.11 | X-H torsion

> <Gold.Protein.ActiveResidues>
 VAL166  LYS551  ARG553  GLY616  TRP617  ASP618  TYR619  PRO620  LYS621  CYS622 
 ASP623  PHE694  ASN695  SER759  ASP760  ASP761  ALA762  ILE779  LEU786  VAL792 
 PHE793  MET794  SER795  GLU796  ALA797  LYS798  CYS799  TRP800  GLU811  SER814 

> <Gold.Protein.RotatedAtoms>
  151.7465  133.3325  159.3379 H   0  0  0  0  0  0  0  0  0  0  0  0  # atno 6907 bound_to 6896
  150.7552  134.6231  159.6156 H   0  0  0  0  0  0  0  0  0  0  0  0  # atno 6908 bound_to 6896
  152.3496  134.7025  160.0292 H   0  0  0  0  0  0  0  0  0  0  0  0  # atno 6909 bound_to 6896
  145.7771  139.2870  143.1287 H   0  0  0  0  0  0  0  0  0  0  0  0  # atno 7974 bound_to 7965
  154.4013  140.1528  156.3007 H   0  0  0  0  0  0  0  0  0  0  0  0  # atno 8008 bound_to 7997
  155.8703  140.3449  155.5795 H   0  0  0  0  0  0  0  0  0  0  0  0  # atno 8009 bound_to 7997
  155.7782  140.0839  157.2063 H   0  0  0  0  0  0  0  0  0  0  0  0  # atno 8010 bound_to 7997
  139.7845  144.6876  150.9977 H   0  0  0  0  0  0  0  0  0  0  0  0  # atno 10167 bound_to 10162
  157.6166  131.1024  150.7460 H   0  0  0  0  0  0  0  0  0  0  0  0  # atno 10718 bound_to 10713
  153.0624  135.5005  154.8124 H   0  0  0  0  0  0  0  0  0  0  0  0  # atno 10763 bound_to 10752
  154.6903  135.2983  154.9491 H   0  0  0  0  0  0  0  0  0  0  0  0  # atno 10764 bound_to 10752
  154.0248  135.6737  153.4828 H   0  0  0  0  0  0  0  0  0  0  0  0  # atno 10765 bound_to 10752
  140.0398  134.9310  157.0822 H   0  0  0  0  0  0  0  0  0  0  0  0  # atno 11005 bound_to 11000
  146.0112  140.8434  142.9970 LP  0  0  0  0  0  0  0  0  0  0  0  0  # atno 17320 bound_to 7965
  144.6802  140.2492  143.7334 LP  0  0  0  0  0  0  0  0  0  0  0  0  # atno 17321 bound_to 7965
  140.7819  143.4447  151.0500 LP  0  0  0  0  0  0  0  0  0  0  0  0  # atno 17342 bound_to 10162
  139.8126  143.7929  152.3172 LP  0  0  0  0  0  0  0  0  0  0  0  0  # atno 17343 bound_to 10162
  156.7826  130.4864  149.5398 LP  0  0  0  0  0  0  0  0  0  0  0  0  # atno 17370 bound_to 10713
  156.1291  130.6165  151.0306 LP  0  0  0  0  0  0  0  0  0  0  0  0  # atno 17371 bound_to 10713
  140.4087  134.2004  155.7163 LP  0  0  0  0  0  0  0  0  0  0  0  0  # atno 17394 bound_to 11000
  141.1877  133.8276  157.1022 LP  0  0  0  0  0  0  0  0  0  0  0  0  # atno 17395 bound_to 11000

$$$$
