AV-unprocessed.smi:753|AV-procd|sdf|3603|dock6
  -GOLD-   22720 0593D 1   1.00000     0.00000
 Structure written by MMmdl.
 44 46  0  0  0  0  0  0  0  0  2 V2000
  146.0076  136.2458  150.9475 C   0  0  0  0  0  0  0  0  0  0  0  0
  146.3583  137.4586  151.7832 C   0  0  0  0  0  0  0  0  0  0  0  0
  146.6663  138.7098  151.2067 C   0  0  0  0  0  0  0  0  0  0  0  0
  146.9883  139.7950  152.0485 C   0  0  0  0  0  0  0  0  0  0  0  0
  146.9943  139.6077  153.4482 C   0  0  0  0  0  0  0  0  0  0  0  0
  147.3458  140.7521  154.3781 C   0  0  0  0  0  0  0  0  0  0  0  0
  148.8226  141.1604  154.2563 C   0  0  0  0  0  0  0  0  0  0  0  0
  149.1894  142.1417  155.2694 N   0  0  0  0  0  0  0  0  0  0  0  0
  149.8221  141.8597  156.4208 C   0  0  0  0  0  0  0  0  0  0  0  0
  150.1578  140.7226  156.7473 O   0  0  0  0  0  0  0  0  0  0  0  0
  150.0706  142.9264  157.2007 N   0  0  0  0  0  0  0  0  0  0  0  0
  150.7376  142.9514  158.5044 C   0  0  2  0  0  0  0  0  0  0  0  0
  150.1261  143.9863  159.4789 C   0  0  0  0  0  0  0  0  0  0  0  0
  151.3274  144.8868  159.8214 C   0  0  1  0  0  0  0  0  0  0  0  0
  152.3359  144.0982  160.6795 C   0  0  0  0  0  0  0  0  0  0  0  0
  152.9541  143.1161  159.6650 C   0  0  0  0  0  0  0  0  0  0  0  0
  152.1929  143.4497  158.3683 C   0  0  2  0  0  0  0  0  0  0  0  0
  152.0465  144.9645  158.4817 C   0  0  0  0  0  0  0  0  0  0  0  0
  146.6771  138.3346  153.9677 C   0  0  0  0  0  0  0  0  0  0  0  0
  146.3754  137.3201  153.1280 N   0  3  0  0  0  0  0  0  0  0  0  0
  145.9725  136.4958  149.8867 H   0  0  0  0  0  0  0  0  0  0  0  0
  145.0327  135.8525  151.2369 H   0  0  0  0  0  0  0  0  0  0  0  0
  146.7512  135.4609  151.0882 H   0  0  0  0  0  0  0  0  0  0  0  0
  146.6584  138.8395  150.1343 H   0  0  0  0  0  0  0  0  0  0  0  0
  147.2302  140.7581  151.6227 H   0  0  0  0  0  0  0  0  0  0  0  0
  146.6980  141.6012  154.1553 H   0  0  0  0  0  0  0  0  0  0  0  0
  147.1223  140.4569  155.4044 H   0  0  0  0  0  0  0  0  0  0  0  0
  149.4633  140.2873  154.3827 H   0  0  0  0  0  0  0  0  0  0  0  0
  149.0305  141.5570  153.2608 H   0  0  0  0  0  0  0  0  0  0  0  0
  148.9513  143.1052  155.0828 H   0  0  0  0  0  0  0  0  0  0  0  0
  149.7588  143.8214  156.8519 H   0  0  0  0  0  0  0  0  0  0  0  0
  150.7258  141.9470  158.9319 H   0  0  0  0  0  0  0  0  0  0  0  0
  149.3387  144.5719  159.0015 H   0  0  0  0  0  0  0  0  0  0  0  0
  149.6965  143.5163  160.3643 H   0  0  0  0  0  0  0  0  0  0  0  0
  151.0448  145.8488  160.2496 H   0  0  0  0  0  0  0  0  0  0  0  0
  153.1012  144.7595  161.0882 H   0  0  0  0  0  0  0  0  0  0  0  0
  151.8549  143.5869  161.5143 H   0  0  0  0  0  0  0  0  0  0  0  0
  154.0215  143.3086  159.5478 H   0  0  0  0  0  0  0  0  0  0  0  0
  152.8348  142.0744  159.9651 H   0  0  0  0  0  0  0  0  0  0  0  0
  152.7011  143.1001  157.4687 H   0  0  0  0  0  0  0  0  0  0  0  0
  151.4390  145.4041  157.6888 H   0  0  0  0  0  0  0  0  0  0  0  0
  153.0021  145.4896  158.5325 H   0  0  0  0  0  0  0  0  0  0  0  0
  146.6595  138.0970  155.0215 H   0  0  0  0  0  0  0  0  0  0  0  0
  146.1517  136.4080  153.5266 H   0  0  0  0  0  0  0  0  0  0  0  0
  1  2  1  0  0  0  0
  1 21  1  0  0  0  0
  1 22  1  0  0  0  0
  1 23  1  0  0  0  0
  2 20  1  0  0  0  0
  2  3  2  0  0  0  0
  3  4  1  0  0  0  0
  3 24  1  0  0  0  0
  4  5  2  0  0  0  0
  4 25  1  0  0  0  0
  5  6  1  0  0  0  0
  5 19  1  0  0  0  0
  6  7  1  0  0  0  0
  6 26  1  0  0  0  0
  6 27  1  0  0  0  0
  7  8  1  0  0  0  0
  7 28  1  0  0  0  0
  7 29  1  0  0  0  0
  8  9  1  0  0  0  0
  8 30  1  0  0  0  0
  9 10  2  0  0  0  0
  9 11  1  0  0  0  0
 11 12  1  0  0  0  0
 11 31  1  0  0  0  0
 12 17  1  0  0  0  0
 12 13  1  0  0  0  0
 12 32  1  0  0  0  0
 13 14  1  0  0  0  0
 13 33  1  0  0  0  0
 13 34  1  0  0  0  0
 14 18  1  0  0  0  0
 14 15  1  0  0  0  0
 14 35  1  0  0  0  0
 15 16  1  0  0  0  0
 15 36  1  0  0  0  0
 15 37  1  0  0  0  0
 16 17  1  0  0  0  0
 16 38  1  0  0  0  0
 16 39  1  0  0  0  0
 17 18  1  0  0  0  0
 17 40  1  0  0  0  0
 18 41  1  0  0  0  0
 18 42  1  0  0  0  0
 19 20  2  0  0  0  0
 19 43  1  0  0  0  0
 20 44  1  0  0  0  0
M  CHG  1  20   1
M  END
> <s_m_source_file>
AV-unprocessed.smi

> <i_m_source_file_index>
753

> <i_lp_mmshare_version>
43012

> <i_f3d_flags>
0

> <s_epik_input>
W0NIM11jMVtjSF1bY0hdYyhbY0hdbjEpW0NIMl1bQ0gyXVtOSF1DKD1PKVtOSF1bQ0BIXShbQ0gyXVtDQEBIXTIzKVtDQEBIXShbQ0gyXTMpW0NIMl1bQ0gyXTI=

> <s_epik_cmdline>
J2VwaWtfcHl0aG9uJywgJy1waCcsICc3LjAnLCAnLXRuJywgJzgnLCAnLW1hJywgJzIwMCcsICctbWV0YWxfYmluZGluZycsICctaW1hZScsICc8aW5maWxlLm1hZT4nLCAnLW9tYWUnLCAnPG91dGZpbGUubWFlPic=

> <r_epik_Ionization_Penalty>
1.41708

> <r_epik_Ionization_Penalty_Charging>
1.41702

> <r_epik_Ionization_Penalty_Neutral>
5.73163e-05

> <r_epik_State_Penalty>
1.50048

> <r_epik_Charging_Adjusted_Penalty>
2.9175

> <i_epik_Tot_Q>
1

> <i_epik_Tot_abs_Q>
1

> <r_epik_Metal_State_Penalty>
1.55295

> <b_epik_Metal_Only>
0

> <s_lp_Force_Field>
OPLS_2005

> <r_lp_Energy>
57.028

> <b_lp_Chiralities_Consistent>
1

> <s_lp_Variant>
AV-unprocessed.smi:753-5

> <Gold.Version>
5.8.1

> <Gold.Id.Protein>
6NUR|6NUR_protein|mol2

> <Gold.PLP.Fitness>
48.8021

> <Gold.PLP.PLP>
-44.4219

> <Gold.PLP.part.hbond>
-2.0000

> <Gold.PLP.part.metal>
0.0000

> <Gold.PLP.part.buried>
-0.6521

> <Gold.PLP.part.nonpolar>
-43.0039

> <Gold.PLP.part.repulsive>
0.2244

> <Gold.PLP.ligand.clash>
0.0000

> <Gold.PLP.ligand.torsion>
0.5096

> <Gold.PLP.Chemscore.Hbond>
1.7920

> <Gold.PLP.Chemscore.CHOScore>
0.0000

> <Gold.PLP.Chemscore.Metal>
0.0000

> <Gold.Chemscore.Hbonds>
donor molecule, donor type, donor heavy atom, donor atom, acceptor molecule, acceptor atom, score
      L1  H     8    30       P1  8028  0.98
      L1  H    11    31       P1  8028  1.00

> <Gold.PLP.Chemscore.Internal.Correction>
0.0234

> <Gold.Rescore>
     Score         DG    S(hbond)    S(metal)    S(lipo)     H(rot)  DE(clash)    DE(int)     intcor
     22.40     -23.26       1.87        0.00     131.45       1.50       0.54       0.33       ----

> <Gold.Chemscore.Fitness>
22.3995

> <Gold.Chemscore.DG>
-23.2619

> <Gold.Chemscore.ZeroCoef>
-5.4800

> <Gold.Chemscore.Hbond>
1.8710

> <Gold.Chemscore.Metal>
0.0000

> <Gold.Chemscore.Lipo>
131.4501

> <Gold.Chemscore.Internal_Hbond>
0.0000

> <Gold.Chemscore.DEClash>
0.5373

> <Gold.Chemscore.DEInternal>
0.3250

> <Gold.Chemscore.Rot>
1.5027

> <Gold.Chemscore.Internal.Correction>
   9.000000E+99

> <Gold.Chemscore.Hbonds>
donor molecule, donor type, donor heavy atom, donor atom, acceptor molecule, acceptor atom, score
      L1  H     8    30       P1  8028  0.93
      L1  H    11    31       P1  8028  0.91

> <Gold.Chemscore.Hbond.Weighted>
-6.2490

> <Gold.Chemscore.Metal.Weighted>
-0.0000

> <Gold.Chemscore.Lipo.Weighted>
-15.3797

> <Gold.Chemscore.Internal_Hbond.Weighted>
0.0000

> <Gold.Chemscore.DEClash.Weighted>
0.5373

> <Gold.Chemscore.DEInternal.Weighted>
0.3250

> <Gold.Chemscore.Rot.Weighted>
3.8468

> <Gold.Chemscore.Internal.Correction.Weighted>
   9.000000E+99

> <Gold.Protein.RotatedTorsions>
[ 6907 6896 6895 6894 ] final  -42.27 input  -60.11 | X-H torsion
[ 7974 7965 7964 7962 ] final  149.46 input  175.53 | X-H torsion
[ 8008 7997 7996 7995 ] final  173.41 input   59.86 | X-H torsion
[ 10167 10162 10161 10158 ] final  -23.40 input  -65.29 | X-H torsion
[ 10718 10713 10712 10709 ] final   40.08 input   66.30 | X-H torsion
[ 10763 10752 10751 10750 ] final  -43.54 input  -60.55 | X-H torsion
[ 11005 11000 10999 10996 ] final  118.88 input  -57.11 | X-H torsion

> <Gold.Protein.ActiveResidues>
 VAL166  LYS551  ARG553  GLY616  TRP617  ASP618  TYR619  PRO620  LYS621  CYS622 
 ASP623  PHE694  ASN695  SER759  ASP760  ASP761  ALA762  ILE779  LEU786  VAL792 
 PHE793  MET794  SER795  GLU796  ALA797  LYS798  CYS799  TRP800  GLU811  SER814 

> <Gold.Protein.RotatedAtoms>
  150.9571  134.8964  159.7707 H   0  0  0  0  0  0  0  0  0  0  0  0  # atno 6907 bound_to 6896
  152.5142  134.3724  159.9333 H   0  0  0  0  0  0  0  0  0  0  0  0  # atno 6908 bound_to 6896
  151.3738  133.3805  159.2737 H   0  0  0  0  0  0  0  0  0  0  0  0  # atno 6909 bound_to 6896
  144.8436  139.6283  143.6005 H   0  0  0  0  0  0  0  0  0  0  0  0  # atno 7974 bound_to 7965
  156.1078  140.1461  156.9380 H   0  0  0  0  0  0  0  0  0  0  0  0  # atno 8008 bound_to 7997
  154.4746  140.0899  156.7273 H   0  0  0  0  0  0  0  0  0  0  0  0  # atno 8009 bound_to 7997
  155.4649  140.3439  155.4320 H   0  0  0  0  0  0  0  0  0  0  0  0  # atno 8010 bound_to 7997
  140.7288  143.4447  151.0605 H   0  0  0  0  0  0  0  0  0  0  0  0  # atno 10167 bound_to 10162
  157.3780  130.7738  149.7170 H   0  0  0  0  0  0  0  0  0  0  0  0  # atno 10718 bound_to 10713
  153.9972  135.6698  153.4757 H   0  0  0  0  0  0  0  0  0  0  0  0  # atno 10763 bound_to 10752
  153.0678  135.4991  154.8235 H   0  0  0  0  0  0  0  0  0  0  0  0  # atno 10764 bound_to 10752
  154.7074  135.3090  154.9212 H   0  0  0  0  0  0  0  0  0  0  0  0  # atno 10765 bound_to 10752
  139.9126  134.9624  156.7571 H   0  0  0  0  0  0  0  0  0  0  0  0  # atno 11005 bound_to 11000
  146.2725  139.6670  142.9286 LP  0  0  0  0  0  0  0  0  0  0  0  0  # atno 17320 bound_to 7965
  145.4643  141.0434  143.2734 LP  0  0  0  0  0  0  0  0  0  0  0  0  # atno 17321 bound_to 7965
  139.8117  143.7941  152.3171 LP  0  0  0  0  0  0  0  0  0  0  0  0  # atno 17342 bound_to 10162
  139.7993  144.7380  150.9846 LP  0  0  0  0  0  0  0  0  0  0  0  0  # atno 17343 bound_to 10162
  155.9769  130.4069  150.3745 LP  0  0  0  0  0  0  0  0  0  0  0  0  # atno 17370 bound_to 10713
  157.1845  131.0400  151.2732 LP  0  0  0  0  0  0  0  0  0  0  0  0  # atno 17371 bound_to 10713
  140.6727  133.9545  155.7865 LP  0  0  0  0  0  0  0  0  0  0  0  0  # atno 17394 bound_to 11000
  141.0566  134.0407  157.3714 LP  0  0  0  0  0  0  0  0  0  0  0  0  # atno 17395 bound_to 11000

$$$$
