AV-unprocessed.smi:1638|AV-procd|sdf|6547|dock8
  -GOLD-   22720 7233D 1   1.00000     0.00000
 Structure written by MMmdl.
 40 41  0  0  0  0  0  0  0  0  3 V2000
  144.3875  135.3544  161.2827 C   0  0  0  0  0  0  0  0  0  0  0  0
  145.2627  136.2830  160.5128 C   0  0  0  0  0  0  0  0  0  0  0  0
  145.4164  137.5693  160.8377 N   0  0  0  0  0  0  0  0  0  0  0  0
  146.2810  138.2256  159.9749 N   0  0  0  0  0  0  0  0  0  0  0  0
  146.7806  137.4251  159.0218 C   0  0  0  0  0  0  0  0  0  0  0  0
  147.6509  137.8667  158.0991 N   0  5  0  0  0  0  0  0  0  0  0  0
  148.9203  138.1489  158.4633 C   0  0  0  0  0  0  0  0  0  0  0  0
  149.6263  137.4808  159.2215 O   0  0  0  0  0  0  0  0  0  0  0  0
  149.3819  139.3034  157.9617 N   0  0  0  0  0  0  0  0  0  0  0  0
  150.6125  139.9831  158.3638 C   0  0  0  0  0  0  0  0  0  0  0  0
  150.7230  141.3704  157.6975 C   0  0  0  0  0  0  0  0  0  0  0  0
  151.3038  142.3908  158.6125 N   0  3  0  0  0  0  0  0  0  0  0  0
  151.6906  143.6650  157.9564 C   0  0  0  0  0  0  0  0  0  0  0  0
  151.1470  144.8518  158.7699 C   0  0  0  0  0  0  0  0  0  0  0  0
  151.9211  145.1475  160.0644 C   0  0  0  0  0  0  0  0  0  0  0  0
  152.0608  143.9493  161.0199 C   0  0  0  0  0  0  0  0  0  0  0  0
  152.9951  142.8583  160.4670 C   0  0  0  0  0  0  0  0  0  0  0  0
  152.3288  141.8283  159.5313 C   0  0  0  0  0  0  0  0  0  0  0  0
  146.1822  135.7698  159.1078 S   0  0  0  0  0  0  0  0  0  0  0  0
  144.9576  134.8862  162.0854 H   0  0  0  0  0  0  0  0  0  0  0  0
  143.9978  134.5747  160.6280 H   0  0  0  0  0  0  0  0  0  0  0  0
  143.5467  135.8959  161.7175 H   0  0  0  0  0  0  0  0  0  0  0  0
  148.7760  139.8010  157.3250 H   0  0  0  0  0  0  0  0  0  0  0  0
  150.6782  140.0675  159.4495 H   0  0  0  0  0  0  0  0  0  0  0  0
  151.4570  139.3640  158.0606 H   0  0  0  0  0  0  0  0  0  0  0  0
  151.2982  141.3149  156.7724 H   0  0  0  0  0  0  0  0  0  0  0  0
  149.7121  141.6563  157.4057 H   0  0  0  0  0  0  0  0  0  0  0  0
  152.7696  143.7298  157.8097 H   0  0  0  0  0  0  0  0  0  0  0  0
  151.2554  143.7318  156.9594 H   0  0  0  0  0  0  0  0  0  0  0  0
  151.1733  145.7467  158.1474 H   0  0  0  0  0  0  0  0  0  0  0  0
  150.0939  144.6839  159.0019 H   0  0  0  0  0  0  0  0  0  0  0  0
  152.9110  145.5321  159.8165 H   0  0  0  0  0  0  0  0  0  0  0  0
  151.4132  145.9567  160.5905 H   0  0  0  0  0  0  0  0  0  0  0  0
  152.4834  144.3187  161.9548 H   0  0  0  0  0  0  0  0  0  0  0  0
  151.0848  143.5382  161.2784 H   0  0  0  0  0  0  0  0  0  0  0  0
  153.8401  143.3268  159.9613 H   0  0  0  0  0  0  0  0  0  0  0  0
  153.4332  142.3125  161.3033 H   0  0  0  0  0  0  0  0  0  0  0  0
  151.8550  141.0585  160.1399 H   0  0  0  0  0  0  0  0  0  0  0  0
  153.1035  141.3243  158.9521 H   0  0  0  0  0  0  0  0  0  0  0  0
  150.5283  142.6561  159.2045 H   0  0  0  0  0  0  0  0  0  0  0  0
  1  2  1  0  0  0  0
  1 20  1  0  0  0  0
  1 21  1  0  0  0  0
  1 22  1  0  0  0  0
  2 19  1  0  0  0  0
  2  3  2  0  0  0  0
  3  4  1  0  0  0  0
  4  5  2  0  0  0  0
  5  6  1  0  0  0  0
  5 19  1  0  0  0  0
  6  7  1  0  0  0  0
  7  8  2  0  0  0  0
  7  9  1  0  0  0  0
  9 10  1  0  0  0  0
  9 23  1  0  0  0  0
 10 11  1  0  0  0  0
 10 24  1  0  0  0  0
 10 25  1  0  0  0  0
 11 12  1  0  0  0  0
 11 26  1  0  0  0  0
 11 27  1  0  0  0  0
 12 18  1  0  0  0  0
 12 13  1  0  0  0  0
 12 40  1  0  0  0  0
 13 14  1  0  0  0  0
 13 28  1  0  0  0  0
 13 29  1  0  0  0  0
 14 15  1  0  0  0  0
 14 30  1  0  0  0  0
 14 31  1  0  0  0  0
 15 16  1  0  0  0  0
 15 32  1  0  0  0  0
 15 33  1  0  0  0  0
 16 17  1  0  0  0  0
 16 34  1  0  0  0  0
 16 35  1  0  0  0  0
 17 18  1  0  0  0  0
 17 36  1  0  0  0  0
 17 37  1  0  0  0  0
 18 38  1  0  0  0  0
 18 39  1  0  0  0  0
M  CHG  1   6  -1
M  CHG  1  12   1
M  END
> <s_m_source_file>
AV-unprocessed.smi

> <i_m_source_file_index>
1638

> <i_lp_mmshare_version>
43012

> <i_f3d_flags>
0

> <s_epik_input>
W0NIM11jMW5uYyhzMSlbTkhdQyg9TylbTkhdW0NIMl1bQ0gyXU4yW0NIMl1bQ0gyXVtDSDJdW0NIMl1bQ0gyXVtDSDJdMg==

> <s_epik_cmdline>
J2VwaWtfcHl0aG9uJywgJy1waCcsICc3LjAnLCAnLXRuJywgJzgnLCAnLW1hJywgJzIwMCcsICctbWV0YWxfYmluZGluZycsICctaW1hZScsICc8aW5maWxlLm1hZT4nLCAnLW9tYWUnLCAnPG91dGZpbGUubWFlPic=

> <r_lp_tautomer_probability>
1

> <r_epik_Ionization_Penalty>
3.03755

> <r_epik_Ionization_Penalty_Charging>
2.92994

> <r_epik_Ionization_Penalty_Neutral>
0.107609

> <r_epik_State_Penalty>
2.92594

> <r_epik_Charging_Adjusted_Penalty>
5.85589

> <i_epik_Tot_Q>
0

> <i_epik_Tot_abs_Q>
2

> <r_epik_Metal_State_Penalty>
0.448256

> <b_epik_Metal_Only>
1

> <s_lp_Force_Field>
OPLS_2005

> <r_lp_Energy>
18.025

> <b_lp_Chiralities_Consistent>
1

> <s_lp_Variant>
AV-unprocessed.smi:1638-2

> <Gold.Version>
5.8.1

> <Gold.Id.Protein>
6NUR|6NUR_protein|mol2

> <Gold.PLP.Fitness>
45.9166

> <Gold.PLP.PLP>
-40.6163

> <Gold.PLP.part.hbond>
-3.0000

> <Gold.PLP.part.metal>
0.0000

> <Gold.PLP.part.buried>
-6.6637

> <Gold.PLP.part.nonpolar>
-31.3421

> <Gold.PLP.part.repulsive>
0.2078

> <Gold.PLP.ligand.clash>
0.0000

> <Gold.PLP.ligand.torsion>
1.5050

> <Gold.PLP.Chemscore.Hbond>
2.7440

> <Gold.PLP.Chemscore.CHOScore>
0.0000

> <Gold.PLP.Chemscore.Metal>
0.0000

> <Gold.Chemscore.Hbonds>
donor molecule, donor type, donor heavy atom, donor atom, acceptor molecule, acceptor atom, score
      P1  H  6934  6947       L1     4  0.78

> <Gold.PLP.Chemscore.Internal.Correction>
0.0784

> <Gold.Rescore>
     Score         DG    S(hbond)    S(metal)    S(lipo)     H(rot)  DE(clash)    DE(int)     intcor
     16.17     -17.35       1.47        0.00      93.75       1.57       0.01       1.17       ----

> <Gold.Chemscore.Fitness>
16.1677

> <Gold.Chemscore.DG>
-17.3460

> <Gold.Chemscore.ZeroCoef>
-5.4800

> <Gold.Chemscore.Hbond>
1.4710

> <Gold.Chemscore.Metal>
0.0000

> <Gold.Chemscore.Lipo>
93.7477

> <Gold.Chemscore.Internal_Hbond>
0.0000

> <Gold.Chemscore.DEClash>
0.0072

> <Gold.Chemscore.DEInternal>
1.1711

> <Gold.Chemscore.Rot>
1.5686

> <Gold.Chemscore.Internal.Correction>
   9.000000E+99

> <Gold.Chemscore.Hbonds>
donor molecule, donor type, donor heavy atom, donor atom, acceptor molecule, acceptor atom, score
      P1  H  6934  6947       L1     4  0.33

> <Gold.Chemscore.Hbond.Weighted>
-4.9132

> <Gold.Chemscore.Metal.Weighted>
-0.0000

> <Gold.Chemscore.Lipo.Weighted>
-10.9685

> <Gold.Chemscore.Internal_Hbond.Weighted>
0.0000

> <Gold.Chemscore.DEClash.Weighted>
0.0072

> <Gold.Chemscore.DEInternal.Weighted>
1.1711

> <Gold.Chemscore.Rot.Weighted>
4.0157

> <Gold.Chemscore.Internal.Correction.Weighted>
   9.000000E+99

> <Gold.Protein.RotatedTorsions>
[ 6907 6896 6895 6894 ] final -150.51 input  -60.11 | X-H torsion
[ 7974 7965 7964 7962 ] final    3.95 input  175.53 | X-H torsion
[ 8008 7997 7996 7995 ] final  -11.27 input   59.86 | X-H torsion
[ 10167 10162 10161 10158 ] final  -30.77 input  -65.29 | X-H torsion
[ 10718 10713 10712 10709 ] final  145.23 input   66.30 | X-H torsion
[ 10763 10752 10751 10750 ] final  167.27 input  -60.55 | X-H torsion
[ 11005 11000 10999 10996 ] final    4.35 input  -57.11 | X-H torsion

> <Gold.Protein.ActiveResidues>
 VAL166  LYS551  ARG553  GLY616  TRP617  ASP618  TYR619  PRO620  LYS621  CYS622 
 ASP623  PHE694  ASN695  SER759  ASP760  ASP761  ALA762  ILE779  LEU786  VAL792 
 PHE793  MET794  SER795  GLU796  ALA797  LYS798  CYS799  TRP800  GLU811  SER814 

> <Gold.Protein.RotatedAtoms>
  151.1996  133.4619  159.2595 H   0  0  0  0  0  0  0  0  0  0  0  0  # atno 6907 bound_to 6896
  151.1083  135.0012  159.8491 H   0  0  0  0  0  0  0  0  0  0  0  0  # atno 6908 bound_to 6896
  152.5448  134.1917  159.8729 H   0  0  0  0  0  0  0  0  0  0  0  0  # atno 6909 bound_to 6896
  146.2445  140.0608  142.8368 H   0  0  0  0  0  0  0  0  0  0  0  0  # atno 7974 bound_to 7965
  154.5480  140.2307  155.8531 H   0  0  0  0  0  0  0  0  0  0  0  0  # atno 8008 bound_to 7997
  156.1920  140.3074  155.9313 H   0  0  0  0  0  0  0  0  0  0  0  0  # atno 8009 bound_to 7997
  155.3126  140.0436  157.3026 H   0  0  0  0  0  0  0  0  0  0  0  0  # atno 8010 bound_to 7997
  140.7245  143.3823  151.1578 H   0  0  0  0  0  0  0  0  0  0  0  0  # atno 10167 bound_to 10162
  157.3477  131.0946  151.1027 H   0  0  0  0  0  0  0  0  0  0  0  0  # atno 10718 bound_to 10713
  154.3514  135.2753  155.2370 H   0  0  0  0  0  0  0  0  0  0  0  0  # atno 10763 bound_to 10752
  154.4598  135.5910  153.6251 H   0  0  0  0  0  0  0  0  0  0  0  0  # atno 10764 bound_to 10752
  152.9849  135.6062  154.3724 H   0  0  0  0  0  0  0  0  0  0  0  0  # atno 10765 bound_to 10752
  140.5829  133.9996  155.8055 H   0  0  0  0  0  0  0  0  0  0  0  0  # atno 11005 bound_to 11000
  145.0902  140.9279  143.4774 LP  0  0  0  0  0  0  0  0  0  0  0  0  # atno 17320 bound_to 7965
  145.0779  139.2982  143.5798 LP  0  0  0  0  0  0  0  0  0  0  0  0  # atno 17321 bound_to 7965
  139.7414  143.8919  152.3051 LP  0  0  0  0  0  0  0  0  0  0  0  0  # atno 17342 bound_to 10162
  139.8741  144.7053  150.8953 LP  0  0  0  0  0  0  0  0  0  0  0  0  # atno 17343 bound_to 10162
  157.2214  130.6483  149.5813 LP  0  0  0  0  0  0  0  0  0  0  0  0  # atno 17370 bound_to 10713
  155.9717  130.4628  150.6158 LP  0  0  0  0  0  0  0  0  0  0  0  0  # atno 17371 bound_to 10713
  141.0985  133.9806  157.3120 LP  0  0  0  0  0  0  0  0  0  0  0  0  # atno 17394 bound_to 11000
  139.9309  135.0200  156.8396 LP  0  0  0  0  0  0  0  0  0  0  0  0  # atno 17395 bound_to 11000

$$$$
