AV-unprocessed.smi:32|AV-procd|sdf|198|dock8
  -GOLD-   2262015473D 1   1.00000     0.00000
 Structure written by MMmdl.
 49 51  0  0  0  0  0  0  0  0  1 V2000
  154.0353  140.5100  159.2187 O   0  0  0  0  0  0  0  0  0  0  0  0
  152.9007  140.0522  159.3602 C   0  0  0  0  0  0  0  0  0  0  0  0
  152.6671  138.5346  159.4012 C   0  0  0  0  0  0  0  0  0  0  0  0
  151.8051  138.0479  158.3022 N   0  0  0  0  0  0  0  0  0  0  0  0
  152.1276  138.4277  156.9755 C   0  0  0  0  0  0  0  0  0  0  0  0
  153.1067  139.1356  156.7345 O   0  0  0  0  0  0  0  0  0  0  0  0
  151.2255  137.9340  155.9414 C   0  0  0  0  0  0  0  0  0  0  0  0
  151.4533  138.2468  154.6544 F   0  0  0  0  0  0  0  0  0  0  0  0
  150.1603  137.1692  156.2567 C   0  0  0  0  0  0  0  0  0  0  0  0
  149.8560  136.8073  157.5566 N   0  0  0  0  0  0  0  0  0  0  0  0
  148.6403  135.9649  157.8795 C   0  0  1  0  0  0  0  0  0  0  0  0
  147.7472  136.6895  158.8918 C   0  0  0  0  0  0  0  0  0  0  0  0
  146.8053  137.4487  157.9830 C   0  0  0  0  0  0  0  0  0  0  0  0
  146.6408  136.4732  156.8221 C   0  0  0  0  0  0  0  0  0  0  0  0
  147.8844  135.7814  156.7168 O   0  0  0  0  0  0  0  0  0  0  0  0
  150.6764  137.2534  158.6158 C   0  0  0  0  0  0  0  0  0  0  0  0
  150.4066  136.9655  159.7838 O   0  0  0  0  0  0  0  0  0  0  0  0
  151.7997  140.8151  159.4737 N   0  0  0  0  0  0  0  0  0  0  0  0
  151.7185  142.2788  159.4602 C   0  0  0  0  0  0  0  0  0  0  0  0
  152.0054  142.8163  158.0381 C   0  0  0  0  0  0  0  0  0  0  0  0
  151.5752  144.2691  157.7878 C   0  0  0  0  0  0  0  0  0  0  0  0
  152.1975  145.3049  158.7385 C   0  0  0  0  0  0  0  0  0  0  0  0
  151.5798  145.2630  160.1443 C   0  0  0  0  0  0  0  0  0  0  0  0
  152.2074  144.2479  161.1150 C   0  0  0  0  0  0  0  0  0  0  0  0
  152.6523  142.8951  160.5287 C   0  0  0  0  0  0  0  0  0  0  0  0
  153.6302  138.0210  159.3848 H   0  0  0  0  0  0  0  0  0  0  0  0
  152.2517  138.2826  160.3776 H   0  0  0  0  0  0  0  0  0  0  0  0
  149.5250  136.8393  155.4487 H   0  0  0  0  0  0  0  0  0  0  0  0
  149.0225  135.0041  158.2284 H   0  0  0  0  0  0  0  0  0  0  0  0
  147.2012  135.9439  159.4711 H   0  0  0  0  0  0  0  0  0  0  0  0
  148.3158  137.3224  159.5741 H   0  0  0  0  0  0  0  0  0  0  0  0
  145.8600  137.7055  158.4618 H   0  0  0  0  0  0  0  0  0  0  0  0
  147.2752  138.3709  157.6397 H   0  0  0  0  0  0  0  0  0  0  0  0
  145.8573  135.7478  157.0451 H   0  0  0  0  0  0  0  0  0  0  0  0
  146.3830  136.9742  155.8889 H   0  0  0  0  0  0  0  0  0  0  0  0
  150.9212  140.3299  159.5849 H   0  0  0  0  0  0  0  0  0  0  0  0
  150.6843  142.5041  159.7225 H   0  0  0  0  0  0  0  0  0  0  0  0
  153.0667  142.7165  157.8076 H   0  0  0  0  0  0  0  0  0  0  0  0
  151.4874  142.1905  157.3099 H   0  0  0  0  0  0  0  0  0  0  0  0
  151.8502  144.5297  156.7652 H   0  0  0  0  0  0  0  0  0  0  0  0
  150.4875  144.3405  157.8248 H   0  0  0  0  0  0  0  0  0  0  0  0
  153.2826  145.2033  158.7804 H   0  0  0  0  0  0  0  0  0  0  0  0
  152.0063  146.2929  158.3182 H   0  0  0  0  0  0  0  0  0  0  0  0
  151.6631  146.2521  160.5961 H   0  0  0  0  0  0  0  0  0  0  0  0
  150.5081  145.0767  160.0639 H   0  0  0  0  0  0  0  0  0  0  0  0
  153.0732  144.7053  161.5949 H   0  0  0  0  0  0  0  0  0  0  0  0
  151.4935  144.0671  161.9194 H   0  0  0  0  0  0  0  0  0  0  0  0
  152.7646  142.2043  161.3657 H   0  0  0  0  0  0  0  0  0  0  0  0
  153.6545  143.0013  160.1117 H   0  0  0  0  0  0  0  0  0  0  0  0
  1  2  2  0  0  0  0
  2  3  1  0  0  0  0
  2 18  1  0  0  0  0
  3  4  1  0  0  0  0
  3 26  1  0  0  0  0
  3 27  1  0  0  0  0
  4 16  1  0  0  0  0
  4  5  1  0  0  0  0
  5  6  2  0  0  0  0
  5  7  1  0  0  0  0
  7  8  1  0  0  0  0
  7  9  2  0  0  0  0
  9 10  1  0  0  0  0
  9 28  1  0  0  0  0
 10 11  1  0  0  0  0
 10 16  1  0  0  0  0
 11 15  1  0  0  0  0
 11 12  1  0  0  0  0
 11 29  1  0  0  0  0
 12 13  1  0  0  0  0
 12 30  1  0  0  0  0
 12 31  1  0  0  0  0
 13 14  1  0  0  0  0
 13 32  1  0  0  0  0
 13 33  1  0  0  0  0
 14 15  1  0  0  0  0
 14 34  1  0  0  0  0
 14 35  1  0  0  0  0
 16 17  2  0  0  0  0
 18 19  1  0  0  0  0
 18 36  1  0  0  0  0
 19 25  1  0  0  0  0
 19 20  1  0  0  0  0
 19 37  1  0  0  0  0
 20 21  1  0  0  0  0
 20 38  1  0  0  0  0
 20 39  1  0  0  0  0
 21 22  1  0  0  0  0
 21 40  1  0  0  0  0
 21 41  1  0  0  0  0
 22 23  1  0  0  0  0
 22 42  1  0  0  0  0
 22 43  1  0  0  0  0
 23 24  1  0  0  0  0
 23 44  1  0  0  0  0
 23 45  1  0  0  0  0
 24 25  1  0  0  0  0
 24 46  1  0  0  0  0
 24 47  1  0  0  0  0
 25 48  1  0  0  0  0
 25 49  1  0  0  0  0
M  END
> <s_m_source_file>
AV-unprocessed.smi

> <i_m_source_file_index>
32

> <i_lp_mmshare_version>
43012

> <i_f3d_flags>
0

> <s_epik_input>
W0NIMl0xW0NIMl1bQ0gyXVtDSDJdW0NIMl1bQ0gyXVtDSF0xW05IXUMoPU8pW0NIMl1uMmMoPU8pYyhGKVtjSF1uKGMyPU8pW0NAQEhdM1tDSDJdW0NIMl1bQ0gyXU8z

> <s_epik_cmdline>
J2VwaWtfcHl0aG9uJywgJy1waCcsICc3LjAnLCAnLXRuJywgJzgnLCAnLW1hJywgJzIwMCcsICctbWV0YWxfYmluZGluZycsICctaW1hZScsICc8aW5maWxlLm1hZT4nLCAnLW9tYWUnLCAnPG91dGZpbGUubWFlPic=

> <r_lp_tautomer_probability>
1

> <r_epik_Ionization_Penalty>
2.43741e-08

> <r_epik_Ionization_Penalty_Charging>
4.15308e-09

> <r_epik_Ionization_Penalty_Neutral>
2.0221e-08

> <r_epik_State_Penalty>
-0

> <r_epik_Charging_Adjusted_Penalty>
4.15308e-09

> <i_epik_Tot_Q>
0

> <i_epik_Tot_abs_Q>
0

> <r_epik_Metal_State_Penalty>
-0

> <b_epik_Metal_Only>
0

> <s_epik_Chemistry_Notes>
This compound contains an acetal/aminal-like group ( X-CH(R)-Y where X, Y are N, S, or O) that may be acid/base labile, releasing an aldehyde.

> <s_lp_Force_Field>
OPLS_2005

> <r_lp_Energy>
36.3437

> <b_lp_Chiralities_Consistent>
1

> <s_lp_Variant>
AV-unprocessed.smi:32-2

> <Gold.Version>
5.8.1

> <Gold.Id.Protein>
6NUR|6NUR_protein|mol2

> <Gold.PLP.Fitness>
46.7648

> <Gold.PLP.PLP>
-41.1432

> <Gold.PLP.part.hbond>
-3.2275

> <Gold.PLP.part.metal>
0.0000

> <Gold.PLP.part.buried>
-6.8673

> <Gold.PLP.part.nonpolar>
-31.2937

> <Gold.PLP.part.repulsive>
0.1804

> <Gold.PLP.ligand.clash>
0.0000

> <Gold.PLP.ligand.torsion>
0.2085

> <Gold.PLP.Chemscore.Hbond>
2.0000

> <Gold.PLP.Chemscore.CHOScore>
0.0000

> <Gold.PLP.Chemscore.Metal>
0.0000

> <Gold.Chemscore.Hbonds>
donor molecule, donor type, donor heavy atom, donor atom, acceptor molecule, acceptor atom, score
      P1  H  6896  6907       L1    17  1.00
      P1  H  7997  8010       L1     6  1.00

> <Gold.PLP.Chemscore.Internal.Correction>
0.0385

> <Gold.Rescore>
     Score         DG    S(hbond)    S(metal)    S(lipo)     H(rot)  DE(clash)    DE(int)     intcor
     15.74     -18.43       1.99        0.00      93.95       1.82       0.02       2.67       ----

> <Gold.Chemscore.Fitness>
15.7420

> <Gold.Chemscore.DG>
-18.4322

> <Gold.Chemscore.ZeroCoef>
-5.4800

> <Gold.Chemscore.Hbond>
1.9855

> <Gold.Chemscore.Metal>
0.0000

> <Gold.Chemscore.Lipo>
93.9490

> <Gold.Chemscore.Internal_Hbond>
0.0000

> <Gold.Chemscore.DEClash>
0.0189

> <Gold.Chemscore.DEInternal>
2.6713

> <Gold.Chemscore.Rot>
1.8248

> <Gold.Chemscore.Internal.Correction>
   9.000000E+99

> <Gold.Chemscore.Hbonds>
donor molecule, donor type, donor heavy atom, donor atom, acceptor molecule, acceptor atom, score
      P1  H  6896  6907       L1    17  0.24
      P1  H  7997  8010       L1     6  0.97

> <Gold.Chemscore.Hbond.Weighted>
-6.6316

> <Gold.Chemscore.Metal.Weighted>
-0.0000

> <Gold.Chemscore.Lipo.Weighted>
-10.9920

> <Gold.Chemscore.Internal_Hbond.Weighted>
0.0000

> <Gold.Chemscore.DEClash.Weighted>
0.0189

> <Gold.Chemscore.DEInternal.Weighted>
2.6713

> <Gold.Chemscore.Rot.Weighted>
4.6714

> <Gold.Chemscore.Internal.Correction.Weighted>
   9.000000E+99

> <Gold.Protein.RotatedTorsions>
[ 6907 6896 6895 6894 ] final  -32.78 input  -60.11 | X-H torsion
[ 7974 7965 7964 7962 ] final  138.43 input  175.53 | X-H torsion
[ 8008 7997 7996 7995 ] final   61.73 input   59.86 | X-H torsion
[ 10167 10162 10161 10158 ] final -126.55 input  -65.29 | X-H torsion
[ 10718 10713 10712 10709 ] final   25.42 input   66.30 | X-H torsion
[ 10763 10752 10751 10750 ] final   33.69 input  -60.55 | X-H torsion
[ 11005 11000 10999 10996 ] final  -61.73 input  -57.11 | X-H torsion

> <Gold.Protein.ActiveResidues>
 VAL166  LYS551  ARG553  GLY616  TRP617  ASP618  TYR619  PRO620  LYS621  CYS622 
 ASP623  PHE694  ASN695  SER759  ASP760  ASP761  ALA762  ILE779  LEU786  VAL792 
 PHE793  MET794  SER795  GLU796  ALA797  LYS798  CYS799  TRP800  GLU811  SER814 

> <Gold.Protein.RotatedAtoms>
  151.0742  134.9818  159.8323 H   0  0  0  0  0  0  0  0  0  0  0  0  # atno 6907 bound_to 6896
  152.5412  134.2261  159.8817 H   0  0  0  0  0  0  0  0  0  0  0  0  # atno 6908 bound_to 6896
  151.2288  133.4418  159.2636 H   0  0  0  0  0  0  0  0  0  0  0  0  # atno 6909 bound_to 6896
  144.9373  139.4974  143.5589 H   0  0  0  0  0  0  0  0  0  0  0  0  # atno 7974 bound_to 7965
  155.6030  140.3494  155.4599 H   0  0  0  0  0  0  0  0  0  0  0  0  # atno 8008 bound_to 7997
  156.0213  140.1254  157.0378 H   0  0  0  0  0  0  0  0  0  0  0  0  # atno 8009 bound_to 7997
  154.4316  140.1062  156.5954 H   0  0  0  0  0  0  0  0  0  0  0  0  # atno 8010 bound_to 7997
  139.9702  143.5853  152.2415 H   0  0  0  0  0  0  0  0  0  0  0  0  # atno 10167 bound_to 10162
  157.1931  130.6855  149.6158 H   0  0  0  0  0  0  0  0  0  0  0  0  # atno 10718 bound_to 10713
  153.0199  135.6380  154.1551 H   0  0  0  0  0  0  0  0  0  0  0  0  # atno 10763 bound_to 10752
  154.1287  135.2842  155.3192 H   0  0  0  0  0  0  0  0  0  0  0  0  # atno 10764 bound_to 10752
  154.6210  135.5524  153.7637 H   0  0  0  0  0  0  0  0  0  0  0  0  # atno 10765 bound_to 10752
  141.1335  133.6633  156.5420 H   0  0  0  0  0  0  0  0  0  0  0  0  # atno 11005 bound_to 11000
  146.3271  139.8366  142.8898 LP  0  0  0  0  0  0  0  0  0  0  0  0  # atno 17320 bound_to 7965
  145.3047  141.0204  143.3589 LP  0  0  0  0  0  0  0  0  0  0  0  0  # atno 17321 bound_to 7965
  139.6487  144.7659  151.2192 LP  0  0  0  0  0  0  0  0  0  0  0  0  # atno 17342 bound_to 10162
  140.7524  143.6197  150.8525 LP  0  0  0  0  0  0  0  0  0  0  0  0  # atno 17343 bound_to 10162
  155.9709  130.4608  150.6086 LP  0  0  0  0  0  0  0  0  0  0  0  0  # atno 17370 bound_to 10713
  157.3841  131.0785  151.1451 LP  0  0  0  0  0  0  0  0  0  0  0  0  # atno 17371 bound_to 10713
  140.4132  134.7254  157.4848 LP  0  0  0  0  0  0  0  0  0  0  0  0  # atno 17394 bound_to 11000
  140.0412  134.6264  155.8978 LP  0  0  0  0  0  0  0  0  0  0  0  0  # atno 17395 bound_to 11000

$$$$
