AV-unprocessed.smi:1326|AV-procd|sdf|5475|dock5
  -GOLD-   22720 5 43D 1   1.00000     0.00000
 Structure written by MMmdl.
 39 39  0  0  0  0  0  0  0  0  1 V2000
  150.9826  143.2224  157.7738 C   0  0  0  0  0  0  0  0  0  0  0  0
  150.9742  142.0036  156.8770 C   0  0  0  0  0  0  0  0  0  0  0  0
  149.9373  141.9961  155.9589 N   0  0  0  0  0  0  0  0  0  0  0  0
  149.8502  140.9236  155.0890 C   0  0  0  0  0  0  0  0  0  0  0  0
  148.6880  140.9956  154.1141 C   0  0  0  0  0  0  0  0  0  0  0  0
  150.7486  139.9072  155.1345 C   0  0  0  0  0  0  0  0  0  0  0  0
  150.6880  138.7073  154.1898 C   0  0  0  0  0  0  0  0  0  0  0  0
  150.5629  137.3375  154.8598 C   0  0  0  0  0  0  0  0  0  0  0  0
  151.5425  136.5957  154.9301 O   0  0  0  0  0  0  0  0  0  0  0  0
  149.3578  137.0202  155.3583 N   0  0  0  0  0  0  0  0  0  0  0  0
  149.0364  135.7789  156.0519 C   0  0  0  0  0  0  0  0  0  0  0  0
  148.4420  134.7386  155.0851 C   0  0  0  0  0  0  0  0  0  0  0  0
  149.4957  133.8865  154.3491 C   0  0  0  0  0  0  0  0  0  0  0  0
  148.8727  132.9748  153.2783 C   0  0  0  0  0  0  0  0  0  0  0  0
  150.3141  133.0555  155.3494 C   0  0  0  0  0  0  0  0  0  0  0  0
  151.8315  139.9673  156.1451 C   0  0  0  0  0  0  0  0  0  0  0  0
  152.6663  139.0694  156.2490 O   0  0  0  0  0  0  0  0  0  0  0  0
  151.8796  141.0811  156.9992 N   0  0  0  0  0  0  0  0  0  0  0  0
  149.2485  142.7315  155.8898 H   0  0  0  0  0  0  0  0  0  0  0  0
  151.7431  143.1301  158.5504 H   0  0  0  0  0  0  0  0  0  0  0  0
  150.0143  143.3457  158.2598 H   0  0  0  0  0  0  0  0  0  0  0  0
  151.1959  144.1192  157.1912 H   0  0  0  0  0  0  0  0  0  0  0  0
  148.0351  140.1311  154.2344 H   0  0  0  0  0  0  0  0  0  0  0  0
  149.0525  141.0129  153.0872 H   0  0  0  0  0  0  0  0  0  0  0  0
  148.0864  141.8917  154.2705 H   0  0  0  0  0  0  0  0  0  0  0  0
  151.5553  138.6886  153.5291 H   0  0  0  0  0  0  0  0  0  0  0  0
  149.8378  138.8394  153.5200 H   0  0  0  0  0  0  0  0  0  0  0  0
  148.6110  137.6928  155.2578 H   0  0  0  0  0  0  0  0  0  0  0  0
  149.9581  135.4051  156.4965 H   0  0  0  0  0  0  0  0  0  0  0  0
  148.3492  135.9738  156.8769 H   0  0  0  0  0  0  0  0  0  0  0  0
  147.7898  134.0730  155.6525 H   0  0  0  0  0  0  0  0  0  0  0  0
  147.8007  135.2383  154.3576 H   0  0  0  0  0  0  0  0  0  0  0  0
  150.1895  134.5640  153.8496 H   0  0  0  0  0  0  0  0  0  0  0  0
  148.1326  132.3016  153.7124 H   0  0  0  0  0  0  0  0  0  0  0  0
  149.6344  132.3623  152.7951 H   0  0  0  0  0  0  0  0  0  0  0  0
  148.3818  133.5506  152.4943 H   0  0  0  0  0  0  0  0  0  0  0  0
  149.6788  132.3613  155.9006 H   0  0  0  0  0  0  0  0  0  0  0  0
  150.8160  133.6952  156.0760 H   0  0  0  0  0  0  0  0  0  0  0  0
  151.0830  132.4720  154.8423 H   0  0  0  0  0  0  0  0  0  0  0  0
  1 20  1  0  0  0  0
  1 21  1  0  0  0  0
  1 22  1  0  0  0  0
  1  2  1  0  0  0  0
  2  3  1  0  0  0  0
  2 18  2  0  0  0  0
  3  4  1  0  0  0  0
  3 19  1  0  0  0  0
  4  6  2  0  0  0  0
  4  5  1  0  0  0  0
  5 23  1  0  0  0  0
  5 24  1  0  0  0  0
  5 25  1  0  0  0  0
  6 16  1  0  0  0  0
  6  7  1  0  0  0  0
  7  8  1  0  0  0  0
  7 26  1  0  0  0  0
  7 27  1  0  0  0  0
  8  9  2  0  0  0  0
  8 10  1  0  0  0  0
 10 11  1  0  0  0  0
 10 28  1  0  0  0  0
 11 12  1  0  0  0  0
 11 29  1  0  0  0  0
 11 30  1  0  0  0  0
 12 13  1  0  0  0  0
 12 31  1  0  0  0  0
 12 32  1  0  0  0  0
 13 14  1  0  0  0  0
 13 15  1  0  0  0  0
 13 33  1  0  0  0  0
 14 34  1  0  0  0  0
 14 35  1  0  0  0  0
 14 36  1  0  0  0  0
 15 37  1  0  0  0  0
 15 38  1  0  0  0  0
 15 39  1  0  0  0  0
 16 17  2  0  0  0  0
 16 18  1  0  0  0  0
M  END
> <s_m_source_file>
AV-unprocessed.smi

> <i_m_source_file_index>
1326

> <i_lp_mmshare_version>
43012

> <i_f3d_flags>
0

> <s_epik_input>
W0NIM11jMW5jKFtDSDNdKWMoYyg9TylbbkhdMSlbQ0gyXUMoPU8pW05IXVtDSDJdW0NIMl1bQ0hdKFtDSDNdKVtDSDNd

> <s_epik_cmdline>
J2VwaWtfcHl0aG9uJywgJy1waCcsICc3LjAnLCAnLXRuJywgJzgnLCAnLW1hJywgJzIwMCcsICctbWV0YWxfYmluZGluZycsICctaW1hZScsICc8aW5maWxlLm1hZT4nLCAnLW9tYWUnLCAnPG91dGZpbGUubWFlPic=

> <r_lp_tautomer_probability>
0.156392

> <r_epik_Ionization_Penalty>
0.0135605

> <r_epik_Ionization_Penalty_Charging>
0.013428

> <r_epik_Ionization_Penalty_Neutral>
0.000132491

> <r_epik_State_Penalty>
1.15342

> <r_epik_Charging_Adjusted_Penalty>
1.16684

> <i_epik_Tot_Q>
0

> <i_epik_Tot_abs_Q>
0

> <r_epik_Metal_State_Penalty>
1.31299

> <b_epik_Metal_Only>
0

> <s_lp_Force_Field>
OPLS_2005

> <r_lp_Energy>
9.03726

> <b_lp_Chiralities_Consistent>
1

> <s_lp_Variant>
AV-unprocessed.smi:1326-2

> <Gold.Version>
5.8.1

> <Gold.Id.Protein>
6NUR|6NUR_protein|mol2

> <Gold.PLP.Fitness>
41.1021

> <Gold.PLP.PLP>
-33.2677

> <Gold.PLP.part.hbond>
-3.0000

> <Gold.PLP.part.metal>
0.0000

> <Gold.PLP.part.buried>
-0.1912

> <Gold.PLP.part.nonpolar>
-28.5049

> <Gold.PLP.part.repulsive>
0.2603

> <Gold.PLP.ligand.clash>
0.0000

> <Gold.PLP.ligand.torsion>
0.5402

> <Gold.PLP.Chemscore.Hbond>
2.9600

> <Gold.PLP.Chemscore.CHOScore>
0.0000

> <Gold.PLP.Chemscore.Metal>
0.0000

> <Gold.Chemscore.Hbonds>
donor molecule, donor type, donor heavy atom, donor atom, acceptor molecule, acceptor atom, score
      L1  H     3    19       P1  8028  0.94
      P1  H  7997  8010       L1    17  0.89
      P1  H 10752 10764       L1     9  1.00

> <Gold.PLP.Chemscore.Internal.Correction>
0.0347

> <Gold.Rescore>
     Score         DG    S(hbond)    S(metal)    S(lipo)     H(rot)  DE(clash)    DE(int)     intcor
     15.90     -16.41       2.53        0.00      62.70       1.89       0.07       0.44       ----

> <Gold.Chemscore.Fitness>
15.9043

> <Gold.Chemscore.DG>
-16.4091

> <Gold.Chemscore.ZeroCoef>
-5.4800

> <Gold.Chemscore.Hbond>
2.5257

> <Gold.Chemscore.Metal>
0.0000

> <Gold.Chemscore.Lipo>
62.6994

> <Gold.Chemscore.Internal_Hbond>
0.0000

> <Gold.Chemscore.DEClash>
0.0663

> <Gold.Chemscore.DEInternal>
0.4386

> <Gold.Chemscore.Rot>
1.8916

> <Gold.Chemscore.Internal.Correction>
   9.000000E+99

> <Gold.Chemscore.Hbonds>
donor molecule, donor type, donor heavy atom, donor atom, acceptor molecule, acceptor atom, score
      L1  H     3    19       P1  8028  0.85
      P1  H  7997  8010       L1    17  0.21
      P1  H 10752 10764       L1     9  0.99

> <Gold.Chemscore.Hbond.Weighted>
-8.4357

> <Gold.Chemscore.Metal.Weighted>
-0.0000

> <Gold.Chemscore.Lipo.Weighted>
-7.3358

> <Gold.Chemscore.Internal_Hbond.Weighted>
0.0000

> <Gold.Chemscore.DEClash.Weighted>
0.0663

> <Gold.Chemscore.DEInternal.Weighted>
0.4386

> <Gold.Chemscore.Rot.Weighted>
4.8424

> <Gold.Chemscore.Internal.Correction.Weighted>
   9.000000E+99

> <Gold.Protein.RotatedTorsions>
[ 6907 6896 6895 6894 ] final   98.56 input  -60.11 | X-H torsion
[ 7974 7965 7964 7962 ] final   43.90 input  175.53 | X-H torsion
[ 8008 7997 7996 7995 ] final   97.31 input   59.86 | X-H torsion
[ 10167 10162 10161 10158 ] final  161.16 input  -65.29 | X-H torsion
[ 10718 10713 10712 10709 ] final -115.97 input   66.30 | X-H torsion
[ 10763 10752 10751 10750 ] final  -76.00 input  -60.55 | X-H torsion
[ 11005 11000 10999 10996 ] final  -61.98 input  -57.11 | X-H torsion

> <Gold.Protein.ActiveResidues>
 VAL166  LYS551  ARG553  GLY616  TRP617  ASP618  TYR619  PRO620  LYS621  CYS622 
 ASP623  PHE694  ASN695  SER759  ASP760  ASP761  ALA762  ILE779  LEU786  VAL792 
 PHE793  MET794  SER795  GLU796  ALA797  LYS798  CYS799  TRP800  GLU811  SER814 

> <Gold.Protein.RotatedAtoms>
  152.5407  134.0563  159.8131 H   0  0  0  0  0  0  0  0  0  0  0  0  # atno 6907 bound_to 6896
  151.0697  133.5469  159.2635 H   0  0  0  0  0  0  0  0  0  0  0  0  # atno 6908 bound_to 6896
  151.2336  135.0572  159.9051 H   0  0  0  0  0  0  0  0  0  0  0  0  # atno 6909 bound_to 6896
  146.0616  139.5135  142.9655 H   0  0  0  0  0  0  0  0  0  0  0  0  # atno 7974 bound_to 7965
  156.0888  140.3260  155.7789 H   0  0  0  0  0  0  0  0  0  0  0  0  # atno 8008 bound_to 7997
  155.5030  140.0571  157.2953 H   0  0  0  0  0  0  0  0  0  0  0  0  # atno 8009 bound_to 7997
  154.4625  140.1973  156.0222 H   0  0  0  0  0  0  0  0  0  0  0  0  # atno 8010 bound_to 7997
  139.4846  144.4563  151.8764 H   0  0  0  0  0  0  0  0  0  0  0  0  # atno 10167 bound_to 10162
  156.0931  130.6110  150.8975 H   0  0  0  0  0  0  0  0  0  0  0  0  # atno 10718 bound_to 10713
  154.4940  135.5812  153.6480 H   0  0  0  0  0  0  0  0  0  0  0  0  # atno 10763 bound_to 10752
  152.9867  135.6119  154.3088 H   0  0  0  0  0  0  0  0  0  0  0  0  # atno 10764 bound_to 10752
  154.2990  135.2847  155.2599 H   0  0  0  0  0  0  0  0  0  0  0  0  # atno 10765 bound_to 10752
  141.1344  133.6635  156.5458 H   0  0  0  0  0  0  0  0  0  0  0  0  # atno 11005 bound_to 11000
  145.6551  141.0254  143.1739 LP  0  0  0  0  0  0  0  0  0  0  0  0  # atno 17320 bound_to 7965
  144.7178  139.8136  143.7392 LP  0  0  0  0  0  0  0  0  0  0  0  0  # atno 17321 bound_to 7965
  140.4023  144.2477  150.5892 LP  0  0  0  0  0  0  0  0  0  0  0  0  # atno 17342 bound_to 10162
  140.5045  143.2308  151.8628 LP  0  0  0  0  0  0  0  0  0  0  0  0  # atno 17343 bound_to 10162
  157.6086  131.0937  150.8835 LP  0  0  0  0  0  0  0  0  0  0  0  0  # atno 17370 bound_to 10713
  156.8979  130.5236  149.5283 LP  0  0  0  0  0  0  0  0  0  0  0  0  # atno 17371 bound_to 10713
  140.4103  134.7278  157.4832 LP  0  0  0  0  0  0  0  0  0  0  0  0  # atno 17394 bound_to 11000
  140.0432  134.6237  155.8954 LP  0  0  0  0  0  0  0  0  0  0  0  0  # atno 17395 bound_to 11000

$$$$
