#       Name:                AV-unprocessed.smi:1060
#       Creating user name   scv26
#       Creation time:       Fri Mar 27 03:16:55 2020


#       File generated by GOLD software.
#

@<TRIPOS>MOLECULE
AV-unprocessed.smi:1060
    45    46     1
SMALL
NO_CHARGES


@<TRIPOS>ATOM
      1 ****        -1.1777   0.1758  -0.6477 O.2            1 S1                 0.0000
      2 ****        -0.6135  -0.8486  -0.2644 C.2            1 S1                 0.0000
      3 ****         0.9014  -0.8451  -0.0504 C.3            1 S1                 0.0000
      4 ****         1.3838   0.4897  -0.0795 O.3            1 S1                 0.0000
      5 ****         2.7883   0.5711   0.0903 C.3            1 S1                 0.0000
      6 ****         3.2054   2.0462   0.0490 C.3            1 S1                 0.0000
      7 ****         4.7137   2.2594  -0.0395 C.3            1 S1                 0.0000
      8 ****         4.8873   3.6723   0.4896 C.3            1 S1                 0.0000
      9 ****         3.6320   3.9047   1.3370 C.3            1 S1                 0.0000
     10 ****         2.8928   2.6909   1.2737 O.3            1 S1                 0.0000
     11 ****        -1.2164  -2.0253  -0.0033 N.am           1 S1                 0.0000
     12 ****        -2.5706  -2.3948  -0.0968 C.2            1 S1                 0.0000
     13 ****        -3.5772  -1.5943  -0.5470 C.2            1 S1                 0.0000
     14 ****        -4.9610  -2.0461  -0.6206 C.2            1 S1                 0.0000
     15 ****        -6.1193  -1.1542  -1.0316 C.3            1 S1                 0.0000
     16 ****        -6.4061  -1.3464  -2.3183 F              1 S1                 0.0000
     17 ****        -7.2112  -1.4288  -0.3175 F              1 S1                 0.0000
     18 ****        -5.8178   0.1329  -0.8601 F              1 S1                 0.0000
     19 ****        -5.1141  -3.3434  -0.1725 C.2            1 S1                 0.0000
     20 ****        -4.1738  -4.2070   0.2683 N.pl3          1 S1                -1.0000
     21 ****        -2.8826  -3.7754   0.3298 C.2            1 S1                 0.0000
     22 ****        -1.9781  -4.5094   0.7297 O.2            1 S1                 0.0000
     23 ****         1.1367  -1.3091   0.9090 H              1 S1                 0.0000
     24 ****         1.3725  -1.4372  -0.8365 H              1 S1                 0.0000
     25 ****         3.0972   0.1093   1.0294 H              1 S1                 0.0000
     26 ****         3.2763   0.0286  -0.7208 H              1 S1                 0.0000
     27 ****         2.7109   2.5637  -0.7754 H              1 S1                 0.0000
     28 ****         5.2323   1.5564   0.6140 H              1 S1                 0.0000
     29 ****         5.1019   2.1323  -1.0505 H              1 S1                 0.0000
     30 ****         5.8048   3.7755   1.0698 H              1 S1                 0.0000
     31 ****         4.9252   4.3899  -0.3306 H              1 S1                 0.0000
     32 ****         3.8701   4.1505   2.3719 H              1 S1                 0.0000
     33 ****         3.0341   4.7176   0.9235 H              1 S1                 0.0000
     34 ****        -0.6120  -2.7683   0.3167 H              1 S1                 0.0000
     35 ****        -3.3873  -0.5873  -0.8756 H              1 S1                 0.0000
     36 ****        -6.1494  -3.7464  -0.1634 H              1 S1                 0.0000
     37 ****        -0.6461   1.0056  -0.8178 LP             1 S1                 0.0000
     38 ****        -2.1676   0.1784  -0.7890 LP             1 S1                 0.0000
     39 ****         0.9430   1.0046   0.6557 LP             1 S1                 0.0000
     40 ****         1.1447   0.8965  -0.9612 LP             1 S1                 0.0000
     41 ****         3.1442   2.1008   2.0409 LP             1 S1                 0.0000
     42 ****         1.9133   2.8885   1.3121 LP             1 S1                 0.0000
     43 ****        -4.4182  -5.1372   0.5419 LP             1 S1                 0.0000
     44 ****        -1.0378  -4.1706   0.7647 LP             1 S1                 0.0000
     45 ****        -2.1839  -5.4441   1.0194 LP             1 S1                 0.0000
@<TRIPOS>BOND
    1    1    2 2     
    2    2    3 1     
    3    2   11 am    
    4    3    4 1     
    5    3   23 1     
    6    3   24 1     
    7    4    5 1     
    8    5    6 1     
    9    5   25 1     
   10    5   26 1     
   11    6   10 1     
   12    6    7 1     
   13    6   27 1     
   14    7    8 1     
   15    7   28 1     
   16    7   29 1     
   17    8    9 1     
   18    8   30 1     
   19    8   31 1     
   20    9   10 1     
   21    9   32 1     
   22    9   33 1     
   23   11   12 1     
   24   11   34 1     
   25   12   21 1     
   26   12   13 2     
   27   13   14 1     
   28   13   35 1     
   29   14   15 1     
   30   14   19 2     
   31   15   16 1     
   32   15   17 1     
   33   15   18 1     
   34   19   20 1     
   35   19   36 1     
   36   20   21 1     
   37   21   22 2     
   38    1   37 1     
   39    1   38 1     
   40    4   39 1     
   41    4   40 1     
   42   10   41 1     
   43   10   42 1     
   44   20   43 1     
   45   22   44 1     
   46   22   45 1     
@<TRIPOS>SUBSTRUCTURE
      1 S1             1
@<TRIPOS>SET
LONE_PAIRS      STATIC     ATOMS    <user>   **** ""
9 37 38 39 40 41 42 43 44 45
DONOR_HYDROGENS      STATIC     ATOMS    <user>   **** ""
1 34
ATOM$BLUE        STATIC     ATOMS    COLORGROUP SYSTEM
9 37 38 39 40 41 42 43 44 45
ATOM$RED        STATIC     ATOMS    COLORGROUP SYSTEM
1 34
