AV-unprocessed.smi:633|AV-procd|sdf|3132|dock5
  -GOLD-   22720 0 53D 1   1.00000     0.00000
 Structure written by MMmdl.
 53 56  0  0  0  0  0  0  0  0  1 V2000
  152.1927  144.4117  157.6897 C   0  0  0  0  0  0  0  0  0  0  0  0
  151.2903  143.6088  158.6439 C   0  0  1  0  0  0  0  0  0  0  0  0
  150.6097  142.3993  157.9729 C   0  0  0  0  0  0  0  0  0  0  0  0
  151.5589  141.3063  157.7726 N   0  0  0  0  0  0  0  0  0  0  0  0
  151.1712  140.2364  156.9378 C   0  0  0  0  0  0  0  0  0  0  0  0
  151.6179  140.1845  155.5967 C   0  0  0  0  0  0  0  0  0  0  0  0
  151.2216  139.1093  154.7784 C   0  0  0  0  0  0  0  0  0  0  0  0
  150.3782  138.1115  155.3195 C   0  0  0  0  0  0  0  0  0  0  0  0
  149.9289  136.9676  154.6060 N   0  0  0  0  0  0  0  0  0  0  0  0
  149.7412  135.7171  155.0616 C   0  0  0  0  0  0  0  0  0  0  0  0
  149.9798  135.3364  156.2073 O   0  0  0  0  0  0  0  0  0  0  0  0
  149.2732  134.9165  154.0914 N   0  0  0  0  0  0  0  0  0  0  0  0
  148.9586  133.4932  154.2066 C   0  0  0  0  0  0  0  0  0  0  0  0
  150.1002  132.6532  154.7610 C   0  0  0  0  0  0  0  0  0  0  0  0
  149.8585  131.2663  155.3081 C   0  0  0  0  0  0  0  0  0  0  0  0
  150.2315  132.3954  156.2428 C   0  0  0  0  0  0  0  0  0  0  0  0
  148.4049  132.8812  152.9283 C   0  0  0  0  0  0  0  0  0  0  0  0
  147.0649  133.3047  152.3767 C   0  0  0  0  0  0  0  0  0  0  0  0
  147.2397  131.9206  152.9608 C   0  0  0  0  0  0  0  0  0  0  0  0
  149.9924  138.2444  156.6678 C   0  0  0  0  0  0  0  0  0  0  0  0
  150.3675  139.2746  157.4544 N   0  0  0  0  0  0  0  0  0  0  0  0
  152.2682  140.9313  158.9914 C   0  0  0  0  0  0  0  0  0  0  0  0
  152.9496  142.1622  159.6160 C   0  0  2  0  0  0  0  0  0  0  0  0
  153.5891  141.8347  160.9695 C   0  0  0  0  0  0  0  0  0  0  0  0
  151.9841  143.1931  159.8225 O   0  0  0  0  0  0  0  0  0  0  0  0
  151.6100  144.8291  156.8680 H   0  0  0  0  0  0  0  0  0  0  0  0
  152.9782  143.7987  157.2480 H   0  0  0  0  0  0  0  0  0  0  0  0
  152.6683  145.2426  158.2112 H   0  0  0  0  0  0  0  0  0  0  0  0
  150.5044  144.2869  158.9776 H   0  0  0  0  0  0  0  0  0  0  0  0
  149.7935  142.0428  158.6029 H   0  0  0  0  0  0  0  0  0  0  0  0
  150.1719  142.7060  157.0219 H   0  0  0  0  0  0  0  0  0  0  0  0
  152.2486  140.9582  155.1850 H   0  0  0  0  0  0  0  0  0  0  0  0
  151.5815  139.0684  153.7622 H   0  0  0  0  0  0  0  0  0  0  0  0
  149.7750  137.1082  153.6182 H   0  0  0  0  0  0  0  0  0  0  0  0
  149.1180  135.3308  153.1841 H   0  0  0  0  0  0  0  0  0  0  0  0
  148.1559  133.4540  154.9444 H   0  0  0  0  0  0  0  0  0  0  0  0
  151.0370  132.7781  154.2209 H   0  0  0  0  0  0  0  0  0  0  0  0
  148.8333  130.9039  155.3476 H   0  0  0  0  0  0  0  0  0  0  0  0
  150.6131  130.5092  155.1062 H   0  0  0  0  0  0  0  0  0  0  0  0
  151.2348  132.3906  156.6636 H   0  0  0  0  0  0  0  0  0  0  0  0
  149.4528  132.7826  156.8967 H   0  0  0  0  0  0  0  0  0  0  0  0
  149.1684  132.6559  152.1858 H   0  0  0  0  0  0  0  0  0  0  0  0
  146.4837  134.0228  152.9519 H   0  0  0  0  0  0  0  0  0  0  0  0
  146.9711  133.3875  151.2958 H   0  0  0  0  0  0  0  0  0  0  0  0
  147.2623  131.0811  152.2688 H   0  0  0  0  0  0  0  0  0  0  0  0
  146.7680  131.7210  153.9208 H   0  0  0  0  0  0  0  0  0  0  0  0
  149.3577  137.5037  157.1321 H   0  0  0  0  0  0  0  0  0  0  0  0
  151.5515  140.5028  159.6930 H   0  0  0  0  0  0  0  0  0  0  0  0
  153.0194  140.1657  158.8018 H   0  0  0  0  0  0  0  0  0  0  0  0
  153.7352  142.5220  158.9511 H   0  0  0  0  0  0  0  0  0  0  0  0
  154.3464  141.0570  160.8679 H   0  0  0  0  0  0  0  0  0  0  0  0
  152.8432  141.4845  161.6837 H   0  0  0  0  0  0  0  0  0  0  0  0
  154.0714  142.7148  161.3955 H   0  0  0  0  0  0  0  0  0  0  0  0
  1  2  1  0  0  0  0
  1 26  1  0  0  0  0
  1 27  1  0  0  0  0
  1 28  1  0  0  0  0
  2 25  1  0  0  0  0
  2  3  1  0  0  0  0
  2 29  1  0  0  0  0
  3  4  1  0  0  0  0
  3 30  1  0  0  0  0
  3 31  1  0  0  0  0
  4  5  1  0  0  0  0
  4 22  1  0  0  0  0
  5 21  1  0  0  0  0
  5  6  2  0  0  0  0
  6  7  1  0  0  0  0
  6 32  1  0  0  0  0
  7  8  2  0  0  0  0
  7 33  1  0  0  0  0
  8  9  1  0  0  0  0
  8 20  1  0  0  0  0
  9 10  1  0  0  0  0
  9 34  1  0  0  0  0
 10 11  2  0  0  0  0
 10 12  1  0  0  0  0
 12 13  1  0  0  0  0
 12 35  1  0  0  0  0
 13 14  1  0  0  0  0
 13 17  1  0  0  0  0
 13 36  1  0  0  0  0
 14 16  1  0  0  0  0
 14 15  1  0  0  0  0
 14 37  1  0  0  0  0
 15 16  1  0  0  0  0
 15 38  1  0  0  0  0
 15 39  1  0  0  0  0
 16 40  1  0  0  0  0
 16 41  1  0  0  0  0
 17 19  1  0  0  0  0
 17 18  1  0  0  0  0
 17 42  1  0  0  0  0
 18 19  1  0  0  0  0
 18 43  1  0  0  0  0
 18 44  1  0  0  0  0
 19 45  1  0  0  0  0
 19 46  1  0  0  0  0
 20 21  2  0  0  0  0
 20 47  1  0  0  0  0
 22 23  1  0  0  0  0
 22 48  1  0  0  0  0
 22 49  1  0  0  0  0
 23 24  1  0  0  0  0
 23 25  1  0  0  0  0
 23 50  1  0  0  0  0
 24 51  1  0  0  0  0
 24 52  1  0  0  0  0
 24 53  1  0  0  0  0
M  END
> <s_m_source_file>
AV-unprocessed.smi

> <i_m_source_file_index>
633

> <i_lp_mmshare_version>
43012

> <i_f3d_flags>
0

> <s_epik_input>
W0NIM11bQ0BASF0xW0NIMl1OKFtDSDJdW0NASF0oTzEpW0NIM10pYzJbY0hdW2NIXWMoW2NIXW4yKVtOSF1DKD1PKVtOSF1bQ0hdKFtDSF0zW0NIMl1bQ0gyXTMpW0NIXTRbQ0gyXVtDSDJdNA==

> <s_epik_cmdline>
J2VwaWtfcHl0aG9uJywgJy1waCcsICc3LjAnLCAnLXRuJywgJzgnLCAnLW1hJywgJzIwMCcsICctbWV0YWxfYmluZGluZycsICctaW1hZScsICc8aW5maWxlLm1hZT4nLCAnLW9tYWUnLCAnPG91dGZpbGUubWFlPic=

> <r_lp_tautomer_probability>
1

> <r_epik_Ionization_Penalty>
0.00291159

> <r_epik_Ionization_Penalty_Charging>
0

> <r_epik_Ionization_Penalty_Neutral>
0.00291159

> <r_epik_State_Penalty>
0.00200877

> <r_epik_Charging_Adjusted_Penalty>
0.00200877

> <i_epik_Tot_Q>
0

> <i_epik_Tot_abs_Q>
0

> <r_epik_Metal_State_Penalty>
-0

> <b_epik_Metal_Only>
0

> <s_lp_Force_Field>
OPLS_2005

> <r_lp_Energy>
43.3159

> <b_lp_Chiralities_Consistent>
1

> <s_lp_Variant>
AV-unprocessed.smi:633-3

> <Gold.Version>
5.8.1

> <Gold.Id.Protein>
6NUR|6NUR_protein|mol2

> <Gold.PLP.Fitness>
51.4707

> <Gold.PLP.PLP>
-47.1487

> <Gold.PLP.part.hbond>
-2.0000

> <Gold.PLP.part.metal>
0.0000

> <Gold.PLP.part.buried>
-3.6054

> <Gold.PLP.part.nonpolar>
-40.9881

> <Gold.PLP.part.repulsive>
0.0888

> <Gold.PLP.ligand.clash>
0.0000

> <Gold.PLP.ligand.torsion>
1.7252

> <Gold.PLP.Chemscore.Hbond>
1.7571

> <Gold.PLP.Chemscore.CHOScore>
0.0000

> <Gold.PLP.Chemscore.Metal>
0.0000

> <Gold.Chemscore.Hbonds>
donor molecule, donor type, donor heavy atom, donor atom, acceptor molecule, acceptor atom, score
      L1  H     9    34       P1  7948  0.76
      L1  H    12    35       P1  7948  1.00

> <Gold.PLP.Chemscore.Internal.Correction>
2.5010

> <Gold.Rescore>
     Score         DG    S(hbond)    S(metal)    S(lipo)     H(rot)  DE(clash)    DE(int)     intcor
     16.77     -21.29       1.67        0.00     118.24       1.40       1.44       3.09       ----

> <Gold.Chemscore.Fitness>
16.7669

> <Gold.Chemscore.DG>
-21.2921

> <Gold.Chemscore.ZeroCoef>
-5.4800

> <Gold.Chemscore.Hbond>
1.6668

> <Gold.Chemscore.Metal>
0.0000

> <Gold.Chemscore.Lipo>
118.2437

> <Gold.Chemscore.Internal_Hbond>
0.0000

> <Gold.Chemscore.DEClash>
1.4385

> <Gold.Chemscore.DEInternal>
3.0866

> <Gold.Chemscore.Rot>
1.4022

> <Gold.Chemscore.Internal.Correction>
   9.000000E+99

> <Gold.Chemscore.Hbonds>
donor molecule, donor type, donor heavy atom, donor atom, acceptor molecule, acceptor atom, score
      L1  H     9    34       P1  7948  0.47
      L1  H    12    35       P1  7948  0.25

> <Gold.Chemscore.Hbond.Weighted>
-5.5672

> <Gold.Chemscore.Metal.Weighted>
-0.0000

> <Gold.Chemscore.Lipo.Weighted>
-13.8345

> <Gold.Chemscore.Internal_Hbond.Weighted>
0.0000

> <Gold.Chemscore.DEClash.Weighted>
1.4385

> <Gold.Chemscore.DEInternal.Weighted>
3.0866

> <Gold.Chemscore.Rot.Weighted>
3.5897

> <Gold.Chemscore.Internal.Correction.Weighted>
   9.000000E+99

> <Gold.Protein.RotatedTorsions>
[ 6907 6896 6895 6894 ] final -124.14 input  -60.11 | X-H torsion
[ 7974 7965 7964 7962 ] final   80.92 input  175.53 | X-H torsion
[ 8008 7997 7996 7995 ] final  129.20 input   59.86 | X-H torsion
[ 10167 10162 10161 10158 ] final  178.16 input  -65.29 | X-H torsion
[ 10718 10713 10712 10709 ] final  114.50 input   66.30 | X-H torsion
[ 10763 10752 10751 10750 ] final  -71.58 input  -60.55 | X-H torsion
[ 11005 11000 10999 10996 ] final  -81.58 input  -57.11 | X-H torsion

> <Gold.Protein.ActiveResidues>
 VAL166  LYS551  ARG553  GLY616  TRP617  ASP618  TYR619  PRO620  LYS621  CYS622 
 ASP623  PHE694  ASN695  SER759  ASP760  ASP761  ALA762  ILE779  LEU786  VAL792 
 PHE793  MET794  SER795  GLU796  ALA797  LYS798  CYS799  TRP800  GLU811  SER814 

> <Gold.Protein.RotatedAtoms>
  150.8739  133.7467  159.2952 H   0  0  0  0  0  0  0  0  0  0  0  0  # atno 6907 bound_to 6896
  151.5070  135.1062  159.9853 H   0  0  0  0  0  0  0  0  0  0  0  0  # atno 6908 bound_to 6896
  152.4714  133.7993  159.7000 H   0  0  0  0  0  0  0  0  0  0  0  0  # atno 6909 bound_to 6896
  145.6449  139.2434  143.2009 H   0  0  0  0  0  0  0  0  0  0  0  0  # atno 7974 bound_to 7965
  156.2931  140.2626  156.2561 H   0  0  0  0  0  0  0  0  0  0  0  0  # atno 8008 bound_to 7997
  154.9835  140.0389  157.2306 H   0  0  0  0  0  0  0  0  0  0  0  0  # atno 8009 bound_to 7997
  154.7750  140.2785  155.6112 H   0  0  0  0  0  0  0  0  0  0  0  0  # atno 8010 bound_to 7997
  139.5282  144.2713  152.0625 H   0  0  0  0  0  0  0  0  0  0  0  0  # atno 10167 bound_to 10162
  157.6277  131.0999  150.7195 H   0  0  0  0  0  0  0  0  0  0  0  0  # atno 10718 bound_to 10713
  154.4338  135.5957  153.6085 H   0  0  0  0  0  0  0  0  0  0  0  0  # atno 10763 bound_to 10752
  152.9800  135.5981  154.3807 H   0  0  0  0  0  0  0  0  0  0  0  0  # atno 10764 bound_to 10752
  154.3648  135.2841  155.2278 H   0  0  0  0  0  0  0  0  0  0  0  0  # atno 10765 bound_to 10752
  141.1666  133.7203  156.8444 H   0  0  0  0  0  0  0  0  0  0  0  0  # atno 11005 bound_to 11000
  146.1251  140.7259  142.9439 LP  0  0  0  0  0  0  0  0  0  0  0  0  # atno 17320 bound_to 7965
  144.7144  140.4155  143.7056 LP  0  0  0  0  0  0  0  0  0  0  0  0  # atno 17321 bound_to 7965
  140.2173  144.4502  150.6358 LP  0  0  0  0  0  0  0  0  0  0  0  0  # atno 17342 bound_to 10162
  140.6442  143.2210  151.6224 LP  0  0  0  0  0  0  0  0  0  0  0  0  # atno 17343 bound_to 10162
  156.7540  130.4777  149.5450 LP  0  0  0  0  0  0  0  0  0  0  0  0  # atno 17370 bound_to 10713
  156.1460  130.6277  151.0532 LP  0  0  0  0  0  0  0  0  0  0  0  0  # atno 17371 bound_to 10713
  140.1960  134.8931  157.3115 LP  0  0  0  0  0  0  0  0  0  0  0  0  # atno 17394 bound_to 11000
  140.2238  134.3991  155.7553 LP  0  0  0  0  0  0  0  0  0  0  0  0  # atno 17395 bound_to 11000

$$$$
