#       Name:                AV-unprocessed.smi:2855
#       Creating user name   scv26
#       Creation time:       Fri Mar 27 15:43:13 2020


#       File generated by GOLD software.
#

@<TRIPOS>MOLECULE
AV-unprocessed.smi:2855
    53    54     1
SMALL
NO_CHARGES


@<TRIPOS>ATOM
      1 ****        -0.5594  -4.7463   1.7549 C.3            1 S1                 0.0000
      2 ****        -0.8890  -3.2491   1.6725 C.3            1 S1                 0.0000
      3 ****        -0.5094  -2.5156   2.9750 C.3            1 S1                 0.0000
      4 ****        -0.7669  -1.0001   2.8738 C.3            1 S1                 0.0000
      5 ****        -0.0041  -0.3557   1.6885 C.3            1 S1                 0.0000
      6 ****         1.5513  -0.3211   1.8998 C.3            1 S1                 0.0000
      7 ****         1.9463   0.2901   3.2596 C.3            1 S1                 0.0000
      8 ****         2.3193   0.4362   0.7981 C.3            1 S1                 0.0000
      9 ****        -0.5213  -1.0773   0.4058 C.3            1 S1                 0.0000
     10 ****        -0.0657  -0.4898  -0.8505 N.am           1 S1                 0.0000
     11 ****        -0.5046   0.6643  -1.3767 C.2            1 S1                 0.0000
     12 ****        -1.3732   1.3589  -0.8467 O.2            1 S1                 0.0000
     13 ****         0.1629   1.0936  -2.6914 C.3            1 S1                 0.0000
     14 ****        -0.3540   2.3649  -3.2191 N.am           1 S1                 0.0000
     15 ****         0.2750   3.5595  -2.8976 C.2            1 S1                 0.0000
     16 ****        -0.1553   4.7687  -3.3292 C.2            1 S1                 0.0000
     17 ****        -1.3379   4.8724  -4.1771 C.2            1 S1                 0.0000
     18 ****        -1.8054   5.9203  -4.6173 O.2            1 S1                 0.0000
     19 ****        -1.9434   3.6493  -4.4772 N.am           1 S1                 0.0000
     20 ****        -1.5061   2.3997  -4.0348 C.2            1 S1                 0.0000
     21 ****        -2.1191   1.3819  -4.3544 O.2            1 S1                 0.0000
     22 ****        -0.2233  -2.5883   0.4481 C.3            1 S1                 0.0000
     23 ****        -2.7681   3.6714  -5.0593 H              1 S1                 0.0000
     24 ****         0.5102  -4.9095   1.8908 H              1 S1                 0.0000
     25 ****        -0.8630  -5.2662   0.8460 H              1 S1                 0.0000
     26 ****        -1.0767  -5.2159   2.5922 H              1 S1                 0.0000
     27 ****        -1.9692  -3.1596   1.5477 H              1 S1                 0.0000
     28 ****        -1.0842  -2.9248   3.8065 H              1 S1                 0.0000
     29 ****         0.5381  -2.6986   3.2154 H              1 S1                 0.0000
     30 ****        -1.8370  -0.8381   2.7373 H              1 S1                 0.0000
     31 ****        -0.5364  -0.5108   3.8186 H              1 S1                 0.0000
     32 ****        -0.3345   0.6828   1.6393 H              1 S1                 0.0000
     33 ****         1.9317  -1.3419   1.9004 H              1 S1                 0.0000
     34 ****         1.5089   1.2802   3.3922 H              1 S1                 0.0000
     35 ****         3.0280   0.3930   3.3499 H              1 S1                 0.0000
     36 ****         1.6342  -0.3351   4.0952 H              1 S1                 0.0000
     37 ****         1.8826   1.4172   0.6083 H              1 S1                 0.0000
     38 ****         2.3417  -0.1185  -0.1380 H              1 S1                 0.0000
     39 ****         3.3628   0.5901   1.0738 H              1 S1                 0.0000
     40 ****        -1.6093  -0.9818   0.3910 H              1 S1                 0.0000
     41 ****         0.6504  -0.9945  -1.3525 H              1 S1                 0.0000
     42 ****         1.2374   1.1759  -2.5199 H              1 S1                 0.0000
     43 ****         0.0509   0.2947  -3.4270 H              1 S1                 0.0000
     44 ****         1.1521   3.5307  -2.2667 H              1 S1                 0.0000
     45 ****         0.3770   5.6645  -3.0435 H              1 S1                 0.0000
     46 ****         0.8526  -2.7629   0.4600 H              1 S1                 0.0000
     47 ****        -0.5962  -3.0610  -0.4613 H              1 S1                 0.0000
     48 ****        -1.7862   1.0703   0.0171 LP             1 S1                 0.0000
     49 ****        -1.6653   2.2114  -1.2803 LP             1 S1                 0.0000
     50 ****        -1.3688   6.7932  -4.3993 LP             1 S1                 0.0000
     51 ****        -2.6225   5.9002  -5.1935 LP             1 S1                 0.0000
     52 ****        -1.8052   0.4880  -4.0345 LP             1 S1                 0.0000
     53 ****        -2.9312   1.4487  -4.9341 LP             1 S1                 0.0000
@<TRIPOS>BOND
    1    1    2 1     
    2    1   24 1     
    3    1   25 1     
    4    1   26 1     
    5    2   22 1     
    6    2    3 1     
    7    2   27 1     
    8    3    4 1     
    9    3   28 1     
   10    3   29 1     
   11    4    5 1     
   12    4   30 1     
   13    4   31 1     
   14    5    6 1     
   15    5    9 1     
   16    5   32 1     
   17    6    7 1     
   18    6    8 1     
   19    6   33 1     
   20    7   34 1     
   21    7   35 1     
   22    7   36 1     
   23    8   37 1     
   24    8   38 1     
   25    8   39 1     
   26    9   10 1     
   27    9   22 1     
   28    9   40 1     
   29   10   11 am    
   30   10   41 1     
   31   11   12 2     
   32   11   13 1     
   33   13   14 1     
   34   13   42 1     
   35   13   43 1     
   36   14   20 1     
   37   14   15 1     
   38   15   16 2     
   39   15   44 1     
   40   16   17 1     
   41   16   45 1     
   42   17   18 2     
   43   17   19 1     
   44   19   23 1     
   45   19   20 1     
   46   20   21 2     
   47   22   46 1     
   48   22   47 1     
   49   12   48 1     
   50   12   49 1     
   51   18   50 1     
   52   18   51 1     
   53   21   52 1     
   54   21   53 1     
@<TRIPOS>SUBSTRUCTURE
      1 S1             1
@<TRIPOS>SET
LONE_PAIRS      STATIC     ATOMS    <user>   **** ""
6 48 49 50 51 52 53
DONOR_HYDROGENS      STATIC     ATOMS    <user>   **** ""
2 41 23
ATOM$BLUE        STATIC     ATOMS    COLORGROUP SYSTEM
6 48 49 50 51 52 53
ATOM$RED        STATIC     ATOMS    COLORGROUP SYSTEM
2 41 23
