AV-unprocessed.smi:3181|AV-procd|sdf|12143|dock2
  -GOLD-   2272017583D 1   1.00000     0.00000
 Structure written by MMmdl.
 42 43  0  0  0  0  0  0  0  0  2 V2000
  151.0824  140.3239  155.6173 C   0  0  0  0  0  0  0  0  0  0  0  0
  150.0142  141.4111  155.8214 C   0  0  2  0  0  0  0  0  0  0  0  0
  149.2033  141.6855  154.5338 C   0  0  0  0  0  0  0  0  0  0  0  0
  148.3981  140.5511  154.1211 N   0  0  0  0  0  0  0  0  0  0  0  0
  148.6316  139.2402  154.2073 C   0  0  0  0  0  0  0  0  0  0  0  0
  147.6575  138.4904  153.7117 N   0  0  0  0  0  0  0  0  0  0  0  0
  146.8000  139.4712  153.3001 C   0  0  0  0  0  0  0  0  0  0  0  0
  147.1979  140.7245  153.5199 N   0  0  0  0  0  0  0  0  0  0  0  0
  150.6663  142.6491  156.3086 N   0  3  0  0  0  0  0  0  0  0  0  0
  150.8715  142.7528  157.7722 C   0  0  2  0  0  0  0  0  0  0  0  0
  151.3328  144.1742  158.1290 C   0  0  0  0  0  0  0  0  0  0  0  0
  151.5767  144.3157  159.6375 C   0  0  0  0  0  0  0  0  0  0  0  0
  152.6086  143.2929  160.1541 C   0  0  1  0  0  0  0  0  0  0  0  0
  152.8243  143.4873  161.6655 C   0  0  0  0  0  0  0  0  0  0  0  0
  152.1776  141.8489  159.7838 C   0  0  2  0  0  0  0  0  0  0  0  0
  153.2047  140.7879  160.2180 C   0  0  0  0  0  0  0  0  0  0  0  0
  151.9115  141.7283  158.2683 C   0  0  0  0  0  0  0  0  0  0  0  0
  150.6356  139.3677  155.3434 H   0  0  0  0  0  0  0  0  0  0  0  0
  151.6540  140.1600  156.5315 H   0  0  0  0  0  0  0  0  0  0  0  0
  151.7856  140.6001  154.8307 H   0  0  0  0  0  0  0  0  0  0  0  0
  149.3353  141.0490  156.5933 H   0  0  0  0  0  0  0  0  0  0  0  0
  148.5335  142.5356  154.6638 H   0  0  0  0  0  0  0  0  0  0  0  0
  149.8757  141.9438  153.7143 H   0  0  0  0  0  0  0  0  0  0  0  0
  149.5285  138.8257  154.6442 H   0  0  0  0  0  0  0  0  0  0  0  0
  145.8548  139.2553  152.8241 H   0  0  0  0  0  0  0  0  0  0  0  0
  151.5731  142.7273  155.8704 H   0  0  0  0  0  0  0  0  0  0  0  0
  149.9240  142.5712  158.2797 H   0  0  0  0  0  0  0  0  0  0  0  0
  152.2489  144.4179  157.5886 H   0  0  0  0  0  0  0  0  0  0  0  0
  150.5837  144.9009  157.8118 H   0  0  0  0  0  0  0  0  0  0  0  0
  151.9166  145.3291  159.8537 H   0  0  0  0  0  0  0  0  0  0  0  0
  150.6331  144.1892  160.1706 H   0  0  0  0  0  0  0  0  0  0  0  0
  153.5579  143.5013  159.6582 H   0  0  0  0  0  0  0  0  0  0  0  0
  151.9294  143.2267  162.2313 H   0  0  0  0  0  0  0  0  0  0  0  0
  153.0698  144.5247  161.8943 H   0  0  0  0  0  0  0  0  0  0  0  0
  153.6475  142.8796  162.0399 H   0  0  0  0  0  0  0  0  0  0  0  0
  151.2424  141.6303  160.3019 H   0  0  0  0  0  0  0  0  0  0  0  0
  154.1882  140.9902  159.7926 H   0  0  0  0  0  0  0  0  0  0  0  0
  152.9013  139.7928  159.8914 H   0  0  0  0  0  0  0  0  0  0  0  0
  153.3097  140.7446  161.3017 H   0  0  0  0  0  0  0  0  0  0  0  0
  151.5757  140.7149  158.0478 H   0  0  0  0  0  0  0  0  0  0  0  0
  152.8470  141.8643  157.7231 H   0  0  0  0  0  0  0  0  0  0  0  0
  150.1016  143.4304  156.0071 H   0  0  0  0  0  0  0  0  0  0  0  0
  1  2  1  0  0  0  0
  1 18  1  0  0  0  0
  1 19  1  0  0  0  0
  1 20  1  0  0  0  0
  2  3  1  0  0  0  0
  2  9  1  0  0  0  0
  2 21  1  0  0  0  0
  3  4  1  0  0  0  0
  3 22  1  0  0  0  0
  3 23  1  0  0  0  0
  4  8  1  0  0  0  0
  4  5  1  0  0  0  0
  5  6  2  0  0  0  0
  5 24  1  0  0  0  0
  6  7  1  0  0  0  0
  7  8  2  0  0  0  0
  7 25  1  0  0  0  0
  9 10  1  0  0  0  0
  9 26  1  0  0  0  0
  9 42  1  0  0  0  0
 10 17  1  0  0  0  0
 10 11  1  0  0  0  0
 10 27  1  0  0  0  0
 11 12  1  0  0  0  0
 11 28  1  0  0  0  0
 11 29  1  0  0  0  0
 12 13  1  0  0  0  0
 12 30  1  0  0  0  0
 12 31  1  0  0  0  0
 13 14  1  0  0  0  0
 13 15  1  0  0  0  0
 13 32  1  0  0  0  0
 14 33  1  0  0  0  0
 14 34  1  0  0  0  0
 14 35  1  0  0  0  0
 15 16  1  0  0  0  0
 15 17  1  0  0  0  0
 15 36  1  0  0  0  0
 16 37  1  0  0  0  0
 16 38  1  0  0  0  0
 16 39  1  0  0  0  0
 17 40  1  0  0  0  0
 17 41  1  0  0  0  0
M  CHG  1   9   1
M  END
> <s_m_source_file>
AV-unprocessed.smi

> <i_m_source_file_index>
3181

> <i_lp_mmshare_version>
43012

> <i_f3d_flags>
0

> <s_epik_input>
bjFbY0hdbltjSF1uMVtDSDJdW0NAQEhdKFtDSDNdKVtOSF1bQ0BASF0yW0NIMl1bQ0gyXVtDQEBIXShbQ0gzXSlbQ0BASF0oW0NIM10pW0NIMl0y

> <s_epik_cmdline>
J2VwaWtfcHl0aG9uJywgJy1waCcsICc3LjAnLCAnLXRuJywgJzgnLCAnLW1hJywgJzIwMCcsICctbWV0YWxfYmluZGluZycsICctaW1hZScsICc8aW5maWxlLm1hZT4nLCAnLW9tYWUnLCAnPG91dGZpbGUubWFlPic=

> <r_lp_tautomer_probability>
1

> <r_epik_Ionization_Penalty>
0.000617007

> <r_epik_Ionization_Penalty_Charging>
0.000616215

> <r_epik_Ionization_Penalty_Neutral>
7.92544e-07

> <r_epik_State_Penalty>
0.000388807

> <r_epik_Charging_Adjusted_Penalty>
0.00100502

> <i_epik_Tot_Q>
1

> <i_epik_Tot_abs_Q>
1

> <r_epik_Metal_State_Penalty>
-0

> <b_epik_Metal_Only>
0

> <s_lp_Force_Field>
OPLS_2005

> <r_lp_Energy>
18.1842

> <b_lp_Chiralities_Consistent>
1

> <s_lp_Variant>
AV-unprocessed.smi:3181-9

> <Gold.Version>
5.8.1

> <Gold.Id.Protein>
6NUR|6NUR_protein|mol2

> <Gold.PLP.Fitness>
46.9665

> <Gold.PLP.PLP>
-39.4467

> <Gold.PLP.part.hbond>
-1.0000

> <Gold.PLP.part.metal>
0.0000

> <Gold.PLP.part.buried>
-1.9457

> <Gold.PLP.part.nonpolar>
-36.0847

> <Gold.PLP.part.repulsive>
0.4584

> <Gold.PLP.ligand.clash>
0.0000

> <Gold.PLP.ligand.torsion>
0.7520

> <Gold.PLP.Chemscore.Hbond>
2.0000

> <Gold.PLP.Chemscore.CHOScore>
1.0000

> <Gold.PLP.Chemscore.Metal>
0.0000

> <Gold.Chemscore.Hbonds>
donor molecule, donor type, donor heavy atom, donor atom, acceptor molecule, acceptor atom, score
      L1  H     9    42       P1  8028  2.00
      L1  C     7    25       P1 10175  1.00

> <Gold.PLP.Chemscore.Internal.Correction>
0.0238

> <Gold.Rescore>
     Score         DG    S(hbond)    S(metal)    S(lipo)     H(rot)  DE(clash)    DE(int)     intcor
     14.86     -15.71       1.00        0.00     105.15       2.11       0.02       0.83       ----

> <Gold.Chemscore.Fitness>
14.8621

> <Gold.Chemscore.DG>
-15.7061

> <Gold.Chemscore.ZeroCoef>
-5.4800

> <Gold.Chemscore.Hbond>
0.9953

> <Gold.Chemscore.Metal>
0.0000

> <Gold.Chemscore.Lipo>
105.1455

> <Gold.Chemscore.Internal_Hbond>
0.0000

> <Gold.Chemscore.DEClash>
0.0170

> <Gold.Chemscore.DEInternal>
0.8270

> <Gold.Chemscore.Rot>
2.1095

> <Gold.Chemscore.Internal.Correction>
   9.000000E+99

> <Gold.Chemscore.Hbonds>
donor molecule, donor type, donor heavy atom, donor atom, acceptor molecule, acceptor atom, score
      L1  H     9    42       P1  8028  1.00

> <Gold.Chemscore.Hbond.Weighted>
-3.3244

> <Gold.Chemscore.Metal.Weighted>
-0.0000

> <Gold.Chemscore.Lipo.Weighted>
-12.3020

> <Gold.Chemscore.Internal_Hbond.Weighted>
0.0000

> <Gold.Chemscore.DEClash.Weighted>
0.0170

> <Gold.Chemscore.DEInternal.Weighted>
0.8270

> <Gold.Chemscore.Rot.Weighted>
5.4003

> <Gold.Chemscore.Internal.Correction.Weighted>
   9.000000E+99

> <Gold.Protein.RotatedTorsions>
[ 6907 6896 6895 6894 ] final   -7.83 input  -60.11 | X-H torsion
[ 7974 7965 7964 7962 ] final -170.91 input  175.53 | X-H torsion
[ 8008 7997 7996 7995 ] final -178.15 input   59.86 | X-H torsion
[ 10167 10162 10161 10158 ] final  -55.49 input  -65.29 | X-H torsion
[ 10718 10713 10712 10709 ] final -177.75 input   66.30 | X-H torsion
[ 10763 10752 10751 10750 ] final  111.80 input  -60.55 | X-H torsion
[ 11005 11000 10999 10996 ] final -107.48 input  -57.11 | X-H torsion

> <Gold.Protein.ActiveResidues>
 VAL166  LYS551  ARG553  GLY616  TRP617  ASP618  TYR619  PRO620  LYS621  CYS622 
 ASP623  PHE694  ASN695  SER759  ASP760  ASP761  ALA762  ILE779  LEU786  VAL792 
 PHE793  MET794  SER795  GLU796  ALA797  LYS798  CYS799  TRP800  GLU811  SER814 

> <Gold.Protein.RotatedAtoms>
  151.4434  135.1022  159.9676 H   0  0  0  0  0  0  0  0  0  0  0  0  # atno 6907 bound_to 6896
  152.4914  133.8508  159.7211 H   0  0  0  0  0  0  0  0  0  0  0  0  # atno 6908 bound_to 6896
  150.9072  133.6984  159.2891 H   0  0  0  0  0  0  0  0  0  0  0  0  # atno 6909 bound_to 6896
  144.7163  140.2001  143.6339 H   0  0  0  0  0  0  0  0  0  0  0  0  # atno 7974 bound_to 7965
  156.0155  140.1250  157.0411 H   0  0  0  0  0  0  0  0  0  0  0  0  # atno 8008 bound_to 7997
  154.4291  140.1079  156.5959 H   0  0  0  0  0  0  0  0  0  0  0  0  # atno 8009 bound_to 7997
  155.6020  140.3470  155.4599 H   0  0  0  0  0  0  0  0  0  0  0  0  # atno 8010 bound_to 7997
  140.6371  143.2488  151.5088 H   0  0  0  0  0  0  0  0  0  0  0  0  # atno 10167 bound_to 10162
  156.8340  130.9663  151.3104 H   0  0  0  0  0  0  0  0  0  0  0  0  # atno 10718 bound_to 10713
  153.4686  135.3706  155.2378 H   0  0  0  0  0  0  0  0  0  0  0  0  # atno 10763 bound_to 10752
  154.8757  135.3926  154.3839 H   0  0  0  0  0  0  0  0  0  0  0  0  # atno 10764 bound_to 10752
  153.4424  135.7084  153.6225 H   0  0  0  0  0  0  0  0  0  0  0  0  # atno 10765 bound_to 10752
  141.0952  133.8984  157.1981 H   0  0  0  0  0  0  0  0  0  0  0  0  # atno 11005 bound_to 11000
  145.8688  139.2261  143.1673 LP  0  0  0  0  0  0  0  0  0  0  0  0  # atno 17320 bound_to 7965
  146.0104  140.8440  142.9973 LP  0  0  0  0  0  0  0  0  0  0  0  0  # atno 17321 bound_to 7965
  139.5581  144.2224  152.1647 LP  0  0  0  0  0  0  0  0  0  0  0  0  # atno 17342 bound_to 10162
  140.1483  144.5138  150.6702 LP  0  0  0  0  0  0  0  0  0  0  0  0  # atno 17343 bound_to 10162
  157.6391  130.8791  149.9415 LP  0  0  0  0  0  0  0  0  0  0  0  0  # atno 17370 bound_to 10713
  156.0918  130.3663  150.0381 LP  0  0  0  0  0  0  0  0  0  0  0  0  # atno 17371 bound_to 10713
  139.9787  135.0105  156.9695 LP  0  0  0  0  0  0  0  0  0  0  0  0  # atno 17394 bound_to 11000
  140.5158  134.0957  155.7280 LP  0  0  0  0  0  0  0  0  0  0  0  0  # atno 17395 bound_to 11000

$$$$
