AV-unprocessed.smi:3236|AV-procd|sdf|12362|dock4
  -GOLD-   2272018223D 1   1.00000     0.00000
 Structure written by MMmdl.
 40 41  0  0  0  0  0  0  0  0  1 V2000
  153.2775  142.9702  163.1022 C   0  0  0  0  0  0  0  0  0  0  0  0
  153.2821  143.2342  161.5902 C   0  0  0  0  0  0  0  0  0  0  0  0
  152.1078  144.1418  161.1648 C   0  0  0  0  0  0  0  0  0  0  0  0
  152.0672  144.3190  159.6362 C   0  0  0  0  0  0  0  0  0  0  0  0
  151.9794  142.9931  159.0093 N   0  0  0  0  0  0  0  0  0  0  0  0
  150.8968  142.4956  158.3625 C   0  0  0  0  0  0  0  0  0  0  0  0
  149.8736  143.1616  158.1904 O   0  0  0  0  0  0  0  0  0  0  0  0
  150.9505  141.0567  157.8201 C   0  0  0  0  0  0  0  0  0  0  0  0
  149.6943  140.6288  157.1922 N   0  0  0  0  0  0  0  0  0  0  0  0
  149.8395  139.3153  156.5813 C   0  0  0  0  0  0  0  0  0  0  0  0
  149.6991  139.4196  155.0533 C   0  0  0  0  0  0  0  0  0  0  0  0
  148.4760  140.0923  154.6531 N   0  0  0  0  0  0  0  0  0  0  0  0
  148.1715  141.4349  154.7322 C   0  0  0  0  0  0  0  0  0  0  0  0
  146.9070  141.5941  154.2423 C   0  0  0  0  0  0  0  0  0  0  0  0
  146.5146  140.2741  153.8841 C   0  0  0  0  0  0  0  0  0  0  0  0
  147.4566  139.3773  154.1290 N   0  0  0  0  0  0  0  0  0  0  0  0
  153.1843  142.1947  159.2694 C   0  0  0  0  0  0  0  0  0  0  0  0
  153.2828  141.9196  160.7810 C   0  0  0  0  0  0  0  0  0  0  0  0
  152.3755  142.4403  163.4097 H   0  0  0  0  0  0  0  0  0  0  0  0
  153.3232  143.9037  163.6635 H   0  0  0  0  0  0  0  0  0  0  0  0
  154.1357  142.3661  163.3976 H   0  0  0  0  0  0  0  0  0  0  0  0
  154.2062  143.7636  161.3535 H   0  0  0  0  0  0  0  0  0  0  0  0
  151.1644  143.7107  161.5032 H   0  0  0  0  0  0  0  0  0  0  0  0
  152.1942  145.1157  161.6478 H   0  0  0  0  0  0  0  0  0  0  0  0
  151.2541  144.9900  159.3653 H   0  0  0  0  0  0  0  0  0  0  0  0
  152.9766  144.8159  159.2953 H   0  0  0  0  0  0  0  0  0  0  0  0
  151.7576  140.9839  157.0895 H   0  0  0  0  0  0  0  0  0  0  0  0
  151.1813  140.3822  158.6459 H   0  0  0  0  0  0  0  0  0  0  0  0
  149.3862  141.2919  156.4953 H   0  0  0  0  0  0  0  0  0  0  0  0
  150.8226  138.9120  156.8282 H   0  0  0  0  0  0  0  0  0  0  0  0
  149.0970  138.6241  156.9831 H   0  0  0  0  0  0  0  0  0  0  0  0
  150.5500  139.9495  154.6231 H   0  0  0  0  0  0  0  0  0  0  0  0
  149.7003  138.4220  154.6120 H   0  0  0  0  0  0  0  0  0  0  0  0
  148.8709  142.1559  155.1292 H   0  0  0  0  0  0  0  0  0  0  0  0
  146.3470  142.5131  154.1557 H   0  0  0  0  0  0  0  0  0  0  0  0
  145.5796  139.9436  153.4564 H   0  0  0  0  0  0  0  0  0  0  0  0
  153.1965  141.2519  158.7212 H   0  0  0  0  0  0  0  0  0  0  0  0
  154.0626  142.7453  158.9297 H   0  0  0  0  0  0  0  0  0  0  0  0
  154.1874  141.3490  160.9942 H   0  0  0  0  0  0  0  0  0  0  0  0
  152.4430  141.2947  161.0892 H   0  0  0  0  0  0  0  0  0  0  0  0
  1  2  1  0  0  0  0
  1 19  1  0  0  0  0
  1 20  1  0  0  0  0
  1 21  1  0  0  0  0
  2 18  1  0  0  0  0
  2  3  1  0  0  0  0
  2 22  1  0  0  0  0
  3  4  1  0  0  0  0
  3 23  1  0  0  0  0
  3 24  1  0  0  0  0
  4  5  1  0  0  0  0
  4 25  1  0  0  0  0
  4 26  1  0  0  0  0
  5  6  1  0  0  0  0
  5 17  1  0  0  0  0
  6  7  2  0  0  0  0
  6  8  1  0  0  0  0
  8  9  1  0  0  0  0
  8 27  1  0  0  0  0
  8 28  1  0  0  0  0
  9 10  1  0  0  0  0
  9 29  1  0  0  0  0
 10 11  1  0  0  0  0
 10 30  1  0  0  0  0
 10 31  1  0  0  0  0
 11 12  1  0  0  0  0
 11 32  1  0  0  0  0
 11 33  1  0  0  0  0
 12 16  1  0  0  0  0
 12 13  1  0  0  0  0
 13 14  2  0  0  0  0
 13 34  1  0  0  0  0
 14 15  1  0  0  0  0
 14 35  1  0  0  0  0
 15 16  2  0  0  0  0
 15 36  1  0  0  0  0
 17 18  1  0  0  0  0
 17 37  1  0  0  0  0
 17 38  1  0  0  0  0
 18 39  1  0  0  0  0
 18 40  1  0  0  0  0
M  END
> <s_m_source_file>
AV-unprocessed.smi

> <i_m_source_file_index>
3236

> <i_lp_mmshare_version>
43012

> <i_f3d_flags>
0

> <s_epik_input>
W0NIM11bQ0hdMVtDSDJdW0NIMl1OKFtDSDJdW0NIMl0xKUMoPU8pW0NIMl1bTkhdW0NIMl1bQ0gyXW4yW2NIXVtjSF1bY0hdbjI=

> <s_epik_cmdline>
J2VwaWtfcHl0aG9uJywgJy1waCcsICc3LjAnLCAnLXRuJywgJzgnLCAnLW1hJywgJzIwMCcsICctbWV0YWxfYmluZGluZycsICctaW1hZScsICc8aW5maWxlLm1hZT4nLCAnLW9tYWUnLCAnPG91dGZpbGUubWFlPic=

> <r_lp_tautomer_probability>
1

> <r_epik_Ionization_Penalty>
0.778591

> <r_epik_Ionization_Penalty_Charging>
0

> <r_epik_Ionization_Penalty_Neutral>
0.778591

> <r_epik_State_Penalty>
0.806071

> <r_epik_Charging_Adjusted_Penalty>
0.806071

> <i_epik_Tot_Q>
0

> <i_epik_Tot_abs_Q>
0

> <r_epik_Metal_State_Penalty>
0.80479

> <b_epik_Metal_Only>
0

> <s_lp_Force_Field>
OPLS_2005

> <r_lp_Energy>
26.1059

> <b_lp_Chiralities_Consistent>
1

> <s_lp_Variant>
AV-unprocessed.smi:3236-2

> <Gold.Version>
5.8.1

> <Gold.Id.Protein>
6NUR|6NUR_protein|mol2

> <Gold.PLP.Fitness>
46.9154

> <Gold.PLP.PLP>
-41.9846

> <Gold.PLP.part.hbond>
0.0000

> <Gold.PLP.part.metal>
0.0000

> <Gold.PLP.part.buried>
-3.9768

> <Gold.PLP.part.nonpolar>
-38.5109

> <Gold.PLP.part.repulsive>
1.9281

> <Gold.PLP.ligand.clash>
0.0000

> <Gold.PLP.ligand.torsion>
0.5525

> <Gold.PLP.Chemscore.Hbond>
0.0000

> <Gold.PLP.Chemscore.CHOScore>
2.0000

> <Gold.PLP.Chemscore.Metal>
0.0000

> <Gold.Chemscore.Hbonds>
donor molecule, donor type, donor heavy atom, donor atom, acceptor molecule, acceptor atom, score
      L1  C    13    34       P1  8028  0.81
      L1  C    15    36       P1 10175  1.00

> <Gold.PLP.Chemscore.Internal.Correction>
0.0356

> <Gold.Rescore>
     Score         DG    S(hbond)    S(metal)    S(lipo)     H(rot)  DE(clash)    DE(int)     intcor
     12.46     -13.68       0.00        0.00     107.96       1.73       0.61       0.61       ----

> <Gold.Chemscore.Fitness>
12.4595

> <Gold.Chemscore.DG>
-13.6834

> <Gold.Chemscore.ZeroCoef>
-5.4800

> <Gold.Chemscore.Hbond>
0.0000

> <Gold.Chemscore.Metal>
0.0000

> <Gold.Chemscore.Lipo>
107.9590

> <Gold.Chemscore.Internal_Hbond>
0.0000

> <Gold.Chemscore.DEClash>
0.6091

> <Gold.Chemscore.DEInternal>
0.6148

> <Gold.Chemscore.Rot>
1.7296

> <Gold.Chemscore.Internal.Correction>
   9.000000E+99

> <Gold.Chemscore.Hbond.Weighted>
-0.0000

> <Gold.Chemscore.Metal.Weighted>
-0.0000

> <Gold.Chemscore.Lipo.Weighted>
-12.6312

> <Gold.Chemscore.Internal_Hbond.Weighted>
0.0000

> <Gold.Chemscore.DEClash.Weighted>
0.6091

> <Gold.Chemscore.DEInternal.Weighted>
0.6148

> <Gold.Chemscore.Rot.Weighted>
4.4278

> <Gold.Chemscore.Internal.Correction.Weighted>
   9.000000E+99

> <Gold.Protein.RotatedTorsions>
[ 6907 6896 6895 6894 ] final   89.99 input  -60.11 | X-H torsion
[ 7974 7965 7964 7962 ] final  134.38 input  175.53 | X-H torsion
[ 8008 7997 7996 7995 ] final   52.67 input   59.86 | X-H torsion
[ 10167 10162 10161 10158 ] final -144.17 input  -65.29 | X-H torsion
[ 10718 10713 10712 10709 ] final  -68.34 input   66.30 | X-H torsion
[ 10763 10752 10751 10750 ] final  -16.88 input  -60.55 | X-H torsion
[ 11005 11000 10999 10996 ] final   96.49 input  -57.11 | X-H torsion

> <Gold.Protein.ActiveResidues>
 VAL166  LYS551  ARG553  GLY616  TRP617  ASP618  TYR619  PRO620  LYS621  CYS622 
 ASP623  PHE694  ASN695  SER759  ASP760  ASP761  ALA762  ILE779  LEU786  VAL792 
 PHE793  MET794  SER795  GLU796  ALA797  LYS798  CYS799  TRP800  GLU811  SER814 

> <Gold.Protein.RotatedAtoms>
  152.5441  134.1881  159.8662 H   0  0  0  0  0  0  0  0  0  0  0  0  # atno 6907 bound_to 6896
  151.1879  133.4678  159.2602 H   0  0  0  0  0  0  0  0  0  0  0  0  # atno 6908 bound_to 6896
  151.1113  135.0040  159.8550 H   0  0  0  0  0  0  0  0  0  0  0  0  # atno 6909 bound_to 6896
  144.9770  139.4545  143.5405 H   0  0  0  0  0  0  0  0  0  0  0  0  # atno 7974 bound_to 7965
  155.4556  140.3460  155.4306 H   0  0  0  0  0  0  0  0  0  0  0  0  # atno 8008 bound_to 7997
  156.1193  140.1482  156.9257 H   0  0  0  0  0  0  0  0  0  0  0  0  # atno 8009 bound_to 7997
  154.4812  140.0869  156.7360 H   0  0  0  0  0  0  0  0  0  0  0  0  # atno 8010 bound_to 7997
  139.7924  143.7947  152.2651 H   0  0  0  0  0  0  0  0  0  0  0  0  # atno 10167 bound_to 10162
  156.0510  130.4293  150.1987 H   0  0  0  0  0  0  0  0  0  0  0  0  # atno 10718 bound_to 10713
  153.5653  135.7009  153.5529 H   0  0  0  0  0  0  0  0  0  0  0  0  # atno 10763 bound_to 10752
  153.3393  135.4025  155.1558 H   0  0  0  0  0  0  0  0  0  0  0  0  # atno 10764 bound_to 10752
  154.8641  135.3738  154.5173 H   0  0  0  0  0  0  0  0  0  0  0  0  # atno 10765 bound_to 10752
  139.8781  134.8953  156.4167 H   0  0  0  0  0  0  0  0  0  0  0  0  # atno 11005 bound_to 11000
  146.3398  139.9018  142.8793 LP  0  0  0  0  0  0  0  0  0  0  0  0  # atno 17320 bound_to 7965
  145.2476  141.0032  143.3899 LP  0  0  0  0  0  0  0  0  0  0  0  0  # atno 17321 bound_to 7965
  139.8043  144.7362  150.9783 LP  0  0  0  0  0  0  0  0  0  0  0  0  # atno 17342 bound_to 10162
  140.7820  143.4314  151.0689 LP  0  0  0  0  0  0  0  0  0  0  0  0  # atno 17343 bound_to 10162
  157.0070  130.9939  151.3376 LP  0  0  0  0  0  0  0  0  0  0  0  0  # atno 17370 bound_to 10713
  157.5436  130.8136  149.8059 LP  0  0  0  0  0  0  0  0  0  0  0  0  # atno 17371 bound_to 10713
  140.9162  133.7677  155.9851 LP  0  0  0  0  0  0  0  0  0  0  0  0  # atno 17394 bound_to 11000
  140.8491  134.2976  157.5283 LP  0  0  0  0  0  0  0  0  0  0  0  0  # atno 17395 bound_to 11000

$$$$
