AV-unprocessed.smi:1308|AV-procd|sdf|5441|dock8
  -GOLD-   22720 5 03D 1   1.00000     0.00000
 Structure written by MMmdl.
 45 45  0  0  0  0  0  0  0  0  1 V2000
  147.3960  139.6836  152.7165 C   0  0  0  0  0  0  0  0  0  0  0  0
  148.5686  139.8226  153.6627 C   0  0  0  0  0  0  0  0  0  0  0  0
  149.4272  138.7358  153.6483 N   0  0  0  0  0  0  0  0  0  0  0  0
  150.5350  138.7745  154.4768 C   0  0  0  0  0  0  0  0  0  0  0  0
  151.4245  137.5454  154.3999 C   0  0  0  0  0  0  0  0  0  0  0  0
  150.7722  139.8408  155.2825 C   0  0  0  0  0  0  0  0  0  0  0  0
  151.9830  139.9226  156.2118 C   0  0  0  0  0  0  0  0  0  0  0  0
  151.6911  140.2396  157.6807 C   0  0  0  0  0  0  0  0  0  0  0  0
  150.5333  140.2610  158.0986 O   0  0  0  0  0  0  0  0  0  0  0  0
  152.7669  140.4712  158.4519 N   0  0  0  0  0  0  0  0  0  0  0  0
  152.7882  140.7442  159.8914 C   0  0  1  0  0  0  0  0  0  0  0  0
  154.0194  140.1198  160.5718 C   0  0  0  0  0  0  0  0  0  0  0  0
  152.6326  142.2464  160.2198 C   0  0  0  0  0  0  0  0  0  0  0  0
  152.1954  143.1065  159.0168 C   0  0  0  0  0  0  0  0  0  0  0  0
  152.6604  144.5752  159.0901 C   0  0  0  0  0  0  0  0  0  0  0  0
  151.7728  145.4289  160.0117 C   0  0  0  0  0  0  0  0  0  0  0  0
  152.7213  145.1955  157.6857 C   0  0  0  0  0  0  0  0  0  0  0  0
  149.8115  140.9690  155.2625 C   0  0  0  0  0  0  0  0  0  0  0  0
  149.9613  141.9555  155.9824 O   0  0  0  0  0  0  0  0  0  0  0  0
  148.7087  140.8842  154.3971 N   0  0  0  0  0  0  0  0  0  0  0  0
  149.2874  137.9228  153.0660 H   0  0  0  0  0  0  0  0  0  0  0  0
  146.7343  140.5480  152.7849 H   0  0  0  0  0  0  0  0  0  0  0  0
  146.8163  138.7919  152.9569 H   0  0  0  0  0  0  0  0  0  0  0  0
  147.7459  139.6036  151.6868 H   0  0  0  0  0  0  0  0  0  0  0  0
  151.5160  137.0771  155.3802 H   0  0  0  0  0  0  0  0  0  0  0  0
  152.4213  137.8169  154.0526 H   0  0  0  0  0  0  0  0  0  0  0  0
  151.0221  136.8010  153.7115 H   0  0  0  0  0  0  0  0  0  0  0  0
  152.7055  140.6489  155.8382 H   0  0  0  0  0  0  0  0  0  0  0  0
  152.5061  138.9665  156.1744 H   0  0  0  0  0  0  0  0  0  0  0  0
  153.6687  140.4312  157.9995 H   0  0  0  0  0  0  0  0  0  0  0  0
  151.9130  140.2330  160.2937 H   0  0  0  0  0  0  0  0  0  0  0  0
  153.9501  140.2097  161.6561 H   0  0  0  0  0  0  0  0  0  0  0  0
  154.9454  140.6058  160.2637 H   0  0  0  0  0  0  0  0  0  0  0  0
  154.1044  139.0586  160.3360 H   0  0  0  0  0  0  0  0  0  0  0  0
  151.8979  142.3424  161.0187 H   0  0  0  0  0  0  0  0  0  0  0  0
  153.5650  142.6392  160.6265 H   0  0  0  0  0  0  0  0  0  0  0  0
  152.6003  142.6640  158.1061 H   0  0  0  0  0  0  0  0  0  0  0  0
  151.1103  143.0691  158.9119 H   0  0  0  0  0  0  0  0  0  0  0  0
  153.6745  144.5901  159.4919 H   0  0  0  0  0  0  0  0  0  0  0  0
  150.7333  145.4168  159.6827 H   0  0  0  0  0  0  0  0  0  0  0  0
  152.1046  146.4675  160.0209 H   0  0  0  0  0  0  0  0  0  0  0  0
  151.8015  145.0764  161.0423 H   0  0  0  0  0  0  0  0  0  0  0  0
  151.7384  145.2043  157.2133 H   0  0  0  0  0  0  0  0  0  0  0  0
  153.3981  144.6388  157.0367 H   0  0  0  0  0  0  0  0  0  0  0  0
  153.0804  146.2243  157.7252 H   0  0  0  0  0  0  0  0  0  0  0  0
  1 22  1  0  0  0  0
  1 23  1  0  0  0  0
  1 24  1  0  0  0  0
  1  2  1  0  0  0  0
  2  3  1  0  0  0  0
  2 20  2  0  0  0  0
  3  4  1  0  0  0  0
  3 21  1  0  0  0  0
  4  6  2  0  0  0  0
  4  5  1  0  0  0  0
  5 25  1  0  0  0  0
  5 26  1  0  0  0  0
  5 27  1  0  0  0  0
  6 18  1  0  0  0  0
  6  7  1  0  0  0  0
  7  8  1  0  0  0  0
  7 28  1  0  0  0  0
  7 29  1  0  0  0  0
  8  9  2  0  0  0  0
  8 10  1  0  0  0  0
 10 11  1  0  0  0  0
 10 30  1  0  0  0  0
 11 12  1  0  0  0  0
 11 13  1  0  0  0  0
 11 31  1  0  0  0  0
 12 32  1  0  0  0  0
 12 33  1  0  0  0  0
 12 34  1  0  0  0  0
 13 14  1  0  0  0  0
 13 35  1  0  0  0  0
 13 36  1  0  0  0  0
 14 15  1  0  0  0  0
 14 37  1  0  0  0  0
 14 38  1  0  0  0  0
 15 16  1  0  0  0  0
 15 17  1  0  0  0  0
 15 39  1  0  0  0  0
 16 40  1  0  0  0  0
 16 41  1  0  0  0  0
 16 42  1  0  0  0  0
 17 43  1  0  0  0  0
 17 44  1  0  0  0  0
 17 45  1  0  0  0  0
 18 19  2  0  0  0  0
 18 20  1  0  0  0  0
M  END
> <s_m_source_file>
AV-unprocessed.smi

> <i_m_source_file_index>
1308

> <i_lp_mmshare_version>
43012

> <i_f3d_flags>
0

> <s_epik_input>
W0NIM11jMW5jKFtDSDNdKWMoYyg9TylbbkhdMSlbQ0gyXUMoPU8pW05IXVtDQEhdKFtDSDNdKVtDSDJdW0NIMl1bQ0hdKFtDSDNdKVtDSDNd

> <s_epik_cmdline>
J2VwaWtfcHl0aG9uJywgJy1waCcsICc3LjAnLCAnLXRuJywgJzgnLCAnLW1hJywgJzIwMCcsICctbWV0YWxfYmluZGluZycsICctaW1hZScsICc8aW5maWxlLm1hZT4nLCAnLW9tYWUnLCAnPG91dGZpbGUubWFlPic=

> <r_lp_tautomer_probability>
0.156392

> <r_epik_Ionization_Penalty>
0.0141156

> <r_epik_Ionization_Penalty_Charging>
0.0139937

> <r_epik_Ionization_Penalty_Neutral>
0.00012188

> <r_epik_State_Penalty>
1.52994

> <r_epik_Charging_Adjusted_Penalty>
1.54393

> <i_epik_Tot_Q>
0

> <i_epik_Tot_abs_Q>
0

> <r_epik_Metal_State_Penalty>
1.70663

> <b_epik_Metal_Only>
0

> <s_lp_Force_Field>
OPLS_2005

> <r_lp_Energy>
10.3869

> <b_lp_Chiralities_Consistent>
1

> <s_lp_Variant>
AV-unprocessed.smi:1308-4

> <Gold.Version>
5.8.1

> <Gold.Id.Protein>
6NUR|6NUR_protein|mol2

> <Gold.PLP.Fitness>
43.9813

> <Gold.PLP.PLP>
-43.8646

> <Gold.PLP.part.hbond>
-2.0000

> <Gold.PLP.part.metal>
0.0000

> <Gold.PLP.part.buried>
-3.4741

> <Gold.PLP.part.nonpolar>
-40.4641

> <Gold.PLP.part.repulsive>
1.2182

> <Gold.PLP.ligand.clash>
0.0000

> <Gold.PLP.ligand.torsion>
1.4827

> <Gold.PLP.Chemscore.Hbond>
1.0000

> <Gold.PLP.Chemscore.CHOScore>
0.0000

> <Gold.PLP.Chemscore.Metal>
0.0000

> <Gold.Chemscore.Hbonds>
donor molecule, donor type, donor heavy atom, donor atom, acceptor molecule, acceptor atom, score
      L1  H     3    21       P1  7948  0.89

> <Gold.PLP.Chemscore.Internal.Correction>
0.0820

> <Gold.Rescore>
     Score         DG    S(hbond)    S(metal)    S(lipo)     H(rot)  DE(clash)    DE(int)     intcor
     10.44     -17.18       0.99        0.00     115.12       1.98       1.72       5.02       ----

> <Gold.Chemscore.Fitness>
10.4413

> <Gold.Chemscore.DG>
-17.1785

> <Gold.Chemscore.ZeroCoef>
-5.4800

> <Gold.Chemscore.Hbond>
0.9901

> <Gold.Chemscore.Metal>
0.0000

> <Gold.Chemscore.Lipo>
115.1222

> <Gold.Chemscore.Internal_Hbond>
0.0000

> <Gold.Chemscore.DEClash>
1.7204

> <Gold.Chemscore.DEInternal>
5.0168

> <Gold.Chemscore.Rot>
1.9835

> <Gold.Chemscore.Internal.Correction>
   9.000000E+99

> <Gold.Chemscore.Hbonds>
donor molecule, donor type, donor heavy atom, donor atom, acceptor molecule, acceptor atom, score
      L1  H     3    21       P1  7948  0.84

> <Gold.Chemscore.Hbond.Weighted>
-3.3069

> <Gold.Chemscore.Metal.Weighted>
-0.0000

> <Gold.Chemscore.Lipo.Weighted>
-13.4693

> <Gold.Chemscore.Internal_Hbond.Weighted>
0.0000

> <Gold.Chemscore.DEClash.Weighted>
1.7204

> <Gold.Chemscore.DEInternal.Weighted>
5.0168

> <Gold.Chemscore.Rot.Weighted>
5.0778

> <Gold.Chemscore.Internal.Correction.Weighted>
   9.000000E+99

> <Gold.Protein.RotatedTorsions>
[ 6907 6896 6895 6894 ] final  -13.03 input  -60.11 | X-H torsion
[ 7974 7965 7964 7962 ] final   91.00 input  175.53 | X-H torsion
[ 8008 7997 7996 7995 ] final -101.07 input   59.86 | X-H torsion
[ 10167 10162 10161 10158 ] final   50.94 input  -65.29 | X-H torsion
[ 10718 10713 10712 10709 ] final  115.54 input   66.30 | X-H torsion
[ 10763 10752 10751 10750 ] final  104.26 input  -60.55 | X-H torsion
[ 11005 11000 10999 10996 ] final  -64.72 input  -57.11 | X-H torsion

> <Gold.Protein.ActiveResidues>
 VAL166  LYS551  ARG553  GLY616  TRP617  ASP618  TYR619  PRO620  LYS621  CYS622 
 ASP623  PHE694  ASN695  SER759  ASP760  ASP761  ALA762  ILE779  LEU786  VAL792 
 PHE793  MET794  SER795  GLU796  ALA797  LYS798  CYS799  TRP800  GLU811  SER814 

> <Gold.Protein.RotatedAtoms>
  151.3613  135.0904  159.9434 H   0  0  0  0  0  0  0  0  0  0  0  0  # atno 6907 bound_to 6896
  152.5161  133.9256  159.7566 H   0  0  0  0  0  0  0  0  0  0  0  0  # atno 6908 bound_to 6896
  150.9651  133.6350  159.2777 H   0  0  0  0  0  0  0  0  0  0  0  0  # atno 6909 bound_to 6896
  145.5116  139.2277  143.2721 H   0  0  0  0  0  0  0  0  0  0  0  0  # atno 7974 bound_to 7965
  154.8374  140.0437  157.1518 H   0  0  0  0  0  0  0  0  0  0  0  0  # atno 8008 bound_to 7997
  154.9085  140.3010  155.5259 H   0  0  0  0  0  0  0  0  0  0  0  0  # atno 8009 bound_to 7997
  156.2990  140.2362  156.4121 H   0  0  0  0  0  0  0  0  0  0  0  0  # atno 8010 bound_to 7997
  140.2671  144.3307  150.6301 H   0  0  0  0  0  0  0  0  0  0  0  0  # atno 10167 bound_to 10162
  157.6216  131.1014  150.7344 H   0  0  0  0  0  0  0  0  0  0  0  0  # atno 10718 bound_to 10713
  153.3636  135.3949  155.1736 H   0  0  0  0  0  0  0  0  0  0  0  0  # atno 10763 bound_to 10752
  154.8683  135.3685  154.5068 H   0  0  0  0  0  0  0  0  0  0  0  0  # atno 10764 bound_to 10752
  153.5529  135.7082  153.5643 H   0  0  0  0  0  0  0  0  0  0  0  0  # atno 10765 bound_to 10752
  141.1433  133.6670  156.5877 H   0  0  0  0  0  0  0  0  0  0  0  0  # atno 11005 bound_to 11000
  146.2163  140.5923  142.9037 LP  0  0  0  0  0  0  0  0  0  0  0  0  # atno 17320 bound_to 7965
  144.7724  140.5667  143.6661 LP  0  0  0  0  0  0  0  0  0  0  0  0  # atno 17321 bound_to 7965
  140.5919  143.2168  151.7236 LP  0  0  0  0  0  0  0  0  0  0  0  0  # atno 17342 bound_to 10162
  139.4999  144.3926  152.0264 LP  0  0  0  0  0  0  0  0  0  0  0  0  # atno 17343 bound_to 10162
  156.7700  130.4826  149.5420 LP  0  0  0  0  0  0  0  0  0  0  0  0  # atno 17370 bound_to 10713
  156.1364  130.6214  151.0406 LP  0  0  0  0  0  0  0  0  0  0  0  0  # atno 17371 bound_to 10713
  140.3788  134.7542  157.4647 LP  0  0  0  0  0  0  0  0  0  0  0  0  # atno 17394 bound_to 11000
  140.0654  134.5937  155.8701 LP  0  0  0  0  0  0  0  0  0  0  0  0  # atno 17395 bound_to 11000

$$$$
