AV-unprocessed.smi:137|AV-procd|sdf|1177|dock3
  -GOLD-   2262018323D 1   1.00000     0.00000
 Structure written by MMmdl.
 51 54  0  0  0  0  0  0  0  0  1 V2000
  151.7983  145.0771  158.8433 C   0  0  0  0  0  0  0  0  0  0  0  0
  152.4073  143.7082  159.1905 C   0  0  2  0  0  0  0  0  0  0  0  0
  151.6068  142.5948  158.4801 C   0  0  0  0  0  0  0  0  0  0  0  0
  152.3979  141.4267  158.0841 N   0  0  0  0  0  0  0  0  0  0  0  0
  151.9706  140.7020  157.0166 C   0  0  0  0  0  0  0  0  0  0  0  0
  152.7535  139.6963  156.5425 N   0  0  0  0  0  0  0  0  0  0  0  0
  152.3605  138.9707  155.4918 C   0  0  0  0  0  0  0  0  0  0  0  0
  151.2407  139.0791  154.7749 N   0  0  0  0  0  0  0  0  0  0  0  0
  150.4470  140.0835  155.2454 C   0  0  0  0  0  0  0  0  0  0  0  0
  150.7299  140.9317  156.3540 C   0  0  0  0  0  0  0  0  0  0  0  0
  149.6734  141.8135  156.5528 N   0  0  0  0  0  0  0  0  0  0  0  0
  148.8193  141.5069  155.6151 C   0  0  0  0  0  0  0  0  0  0  0  0
  149.2168  140.4995  154.7653 N   0  0  0  0  0  0  0  0  0  0  0  0
  148.4576  139.9409  153.6841 C   0  0  0  0  0  0  0  0  0  0  0  0
  146.9766  140.2842  153.4963 C   0  0  0  0  0  0  0  0  0  0  0  0
  146.6862  138.8395  153.0313 C   0  0  0  0  0  0  0  0  0  0  0  0
  145.4438  138.2055  153.6758 C   0  0  0  0  0  0  0  0  0  0  0  0
  144.5277  139.1891  154.1128 O   0  0  0  0  0  0  0  0  0  0  0  0
  146.5691  138.6208  151.5065 C   0  0  0  0  0  0  0  0  0  0  0  0
  146.2823  137.2826  151.1532 O   0  0  0  0  0  0  0  0  0  0  0  0
  148.0312  138.4696  153.6947 C   0  0  0  0  0  0  0  0  0  0  0  0
  153.3925  140.7997  158.9555 C   0  0  0  0  0  0  0  0  0  0  0  0
  153.0010  140.7771  160.4389 C   0  0  0  0  0  0  0  0  0  0  0  0
  153.6942  142.2955  161.2461 S   0  0  2  0  0  0  0  0  0  0  0  0
  153.5392  142.1048  162.7558 O   0  0  0  0  0  0  0  0  0  0  0  0
  152.4150  143.5339  160.7239 C   0  0  0  0  0  0  0  0  0  0  0  0
  150.7646  145.1493  159.1841 H   0  0  0  0  0  0  0  0  0  0  0  0
  151.8076  145.2524  157.7672 H   0  0  0  0  0  0  0  0  0  0  0  0
  152.3592  145.8894  159.3067 H   0  0  0  0  0  0  0  0  0  0  0  0
  153.4321  143.7220  158.8161 H   0  0  0  0  0  0  0  0  0  0  0  0
  150.7585  142.2778  159.0879 H   0  0  0  0  0  0  0  0  0  0  0  0
  151.1780  143.0186  157.5705 H   0  0  0  0  0  0  0  0  0  0  0  0
  153.0421  138.1933  155.1796 H   0  0  0  0  0  0  0  0  0  0  0  0
  147.8707  142.0147  155.5162 H   0  0  0  0  0  0  0  0  0  0  0  0
  149.0215  140.1698  152.7792 H   0  0  0  0  0  0  0  0  0  0  0  0
  146.4896  140.5349  154.4402 H   0  0  0  0  0  0  0  0  0  0  0  0
  146.7873  141.0548  152.7483 H   0  0  0  0  0  0  0  0  0  0  0  0
  144.9235  137.5611  152.9664 H   0  0  0  0  0  0  0  0  0  0  0  0
  145.7162  137.5741  154.5222 H   0  0  0  0  0  0  0  0  0  0  0  0
  144.0488  139.5079  153.3629 H   0  0  0  0  0  0  0  0  0  0  0  0
  145.7810  139.2434  151.0822 H   0  0  0  0  0  0  0  0  0  0  0  0
  147.4945  138.9042  151.0042 H   0  0  0  0  0  0  0  0  0  0  0  0
  147.0686  136.7690  151.2592 H   0  0  0  0  0  0  0  0  0  0  0  0
  148.6681  137.8134  153.1009 H   0  0  0  0  0  0  0  0  0  0  0  0
  147.9063  138.0792  154.7061 H   0  0  0  0  0  0  0  0  0  0  0  0
  153.5313  139.7609  158.6543 H   0  0  0  0  0  0  0  0  0  0  0  0
  154.3598  141.2823  158.8122 H   0  0  0  0  0  0  0  0  0  0  0  0
  151.9278  140.6775  160.6045 H   0  0  0  0  0  0  0  0  0  0  0  0
  153.4799  139.9214  160.9151 H   0  0  0  0  0  0  0  0  0  0  0  0
  152.6792  144.4739  161.2091 H   0  0  0  0  0  0  0  0  0  0  0  0
  151.4340  143.2479  161.1044 H   0  0  0  0  0  0  0  0  0  0  0  0
  1  2  1  0  0  0  0
  1 27  1  0  0  0  0
  1 28  1  0  0  0  0
  1 29  1  0  0  0  0
  2 26  1  0  0  0  0
  2  3  1  0  0  0  0
  2 30  1  0  0  0  0
  3  4  1  0  0  0  0
  3 31  1  0  0  0  0
  3 32  1  0  0  0  0
  4  5  1  0  0  0  0
  4 22  1  0  0  0  0
  5 10  1  0  0  0  0
  5  6  2  0  0  0  0
  6  7  1  0  0  0  0
  7  8  2  0  0  0  0
  7 33  1  0  0  0  0
  8  9  1  0  0  0  0
  9 13  1  0  0  0  0
  9 10  2  0  0  0  0
 10 11  1  0  0  0  0
 11 12  2  0  0  0  0
 12 13  1  0  0  0  0
 12 34  1  0  0  0  0
 13 14  1  0  0  0  0
 14 21  1  0  0  0  0
 14 15  1  0  0  0  0
 14 35  1  0  0  0  0
 15 16  1  0  0  0  0
 15 36  1  0  0  0  0
 15 37  1  0  0  0  0
 16 17  1  0  0  0  0
 16 19  1  0  0  0  0
 16 21  1  0  0  0  0
 17 18  1  0  0  0  0
 17 38  1  0  0  0  0
 17 39  1  0  0  0  0
 18 40  1  0  0  0  0
 19 20  1  0  0  0  0
 19 41  1  0  0  0  0
 19 42  1  0  0  0  0
 20 43  1  0  0  0  0
 21 44  1  0  0  0  0
 21 45  1  0  0  0  0
 22 23  1  0  0  0  0
 22 46  1  0  0  0  0
 22 47  1  0  0  0  0
 23 24  1  0  0  0  0
 23 48  1  0  0  0  0
 23 49  1  0  0  0  0
 24 25  2  0  0  0  0
 24 26  1  0  0  0  0
 26 50  1  0  0  0  0
 26 51  1  0  0  0  0
M  END
> <s_m_source_file>
AV-unprocessed.smi

> <i_m_source_file_index>
137

> <i_lp_mmshare_version>
43012

> <i_f3d_flags>
0

> <s_epik_input>
Tz1bU0BAXShbQ0gyXTEpW0NIMl1bQ0gyXU4oW0NIMl1bQ0BIXTFbQ0gzXSljKG5bY0hdbjIpYyhjMjMpbltjSF1uM1tDSF0oW0NIMl00KVtDSDJdQzQoW0NIMl1bT0hdKVtDSDJdW09IXQ==

> <s_epik_cmdline>
J2VwaWtfcHl0aG9uJywgJy1waCcsICc3LjAnLCAnLXRuJywgJzgnLCAnLW1hJywgJzIwMCcsICctbWV0YWxfYmluZGluZycsICctaW1hZScsICc8aW5maWxlLm1hZT4nLCAnLW9tYWUnLCAnPG91dGZpbGUubWFlPic=

> <r_lp_tautomer_probability>
1

> <r_epik_Ionization_Penalty>
0.000811024

> <r_epik_Ionization_Penalty_Charging>
0

> <r_epik_Ionization_Penalty_Neutral>
0.000811024

> <r_epik_State_Penalty>
0.000429598

> <r_epik_Charging_Adjusted_Penalty>
0.000429598

> <i_epik_Tot_Q>
0

> <i_epik_Tot_abs_Q>
0

> <r_epik_Metal_State_Penalty>
-0

> <b_epik_Metal_Only>
0

> <s_lp_Force_Field>
OPLS_2005

> <r_lp_Energy>
45.689

> <b_lp_Chiralities_Consistent>
1

> <s_lp_Variant>
AV-unprocessed.smi:137-3

> <Gold.Version>
5.8.1

> <Gold.Id.Protein>
6NUR|6NUR_protein|mol2

> <Gold.PLP.Fitness>
52.1366

> <Gold.PLP.PLP>
-45.3315

> <Gold.PLP.part.hbond>
-3.5965

> <Gold.PLP.part.metal>
0.0000

> <Gold.PLP.part.buried>
-2.3911

> <Gold.PLP.part.nonpolar>
-40.1073

> <Gold.PLP.part.repulsive>
0.2495

> <Gold.PLP.ligand.clash>
0.0000

> <Gold.PLP.ligand.torsion>
1.3436

> <Gold.PLP.Chemscore.Hbond>
3.0000

> <Gold.PLP.Chemscore.CHOScore>
0.0000

> <Gold.PLP.Chemscore.Metal>
0.0000

> <Gold.Chemscore.Hbonds>
donor molecule, donor type, donor heavy atom, donor atom, acceptor molecule, acceptor atom, score
      L1  H    18    40       P1 10175  0.55
      L1  H    20    43       P1  7948  1.00
      P1  H  7997  8008       L1     6  1.00
      L1  C    12    34       P1  8028  0.05

> <Gold.PLP.Chemscore.Internal.Correction>
0.4923

> <Gold.Rescore>
     Score         DG    S(hbond)    S(metal)    S(lipo)     H(rot)  DE(clash)    DE(int)     intcor
     16.61     -19.60       2.79        0.00     104.02       2.87       0.26       2.74       ----

> <Gold.Chemscore.Fitness>
16.6063

> <Gold.Chemscore.DG>
-19.6032

> <Gold.Chemscore.ZeroCoef>
-5.4800

> <Gold.Chemscore.Hbond>
2.7864

> <Gold.Chemscore.Metal>
0.0000

> <Gold.Chemscore.Lipo>
104.0195

> <Gold.Chemscore.Internal_Hbond>
0.0000

> <Gold.Chemscore.DEClash>
0.2563

> <Gold.Chemscore.DEInternal>
2.7407

> <Gold.Chemscore.Rot>
2.8725

> <Gold.Chemscore.Internal.Correction>
   9.000000E+99

> <Gold.Chemscore.Hbonds>
donor molecule, donor type, donor heavy atom, donor atom, acceptor molecule, acceptor atom, score
      L1  H    18    40       P1 10175  0.53
      L1  H    20    43       P1  7948  0.95
      P1  H  7997  8008       L1     6  0.67

> <Gold.Chemscore.Hbond.Weighted>
-9.3065

> <Gold.Chemscore.Metal.Weighted>
-0.0000

> <Gold.Chemscore.Lipo.Weighted>
-12.1703

> <Gold.Chemscore.Internal_Hbond.Weighted>
0.0000

> <Gold.Chemscore.DEClash.Weighted>
0.2563

> <Gold.Chemscore.DEInternal.Weighted>
2.7407

> <Gold.Chemscore.Rot.Weighted>
7.3535

> <Gold.Chemscore.Internal.Correction.Weighted>
   9.000000E+99

> <Gold.Protein.RotatedTorsions>
[ 6907 6896 6895 6894 ] final  -12.16 input  -60.11 | X-H torsion
[ 7974 7965 7964 7962 ] final -130.20 input  175.53 | X-H torsion
[ 8008 7997 7996 7995 ] final  -46.69 input   59.86 | X-H torsion
[ 10167 10162 10161 10158 ] final  -27.89 input  -65.29 | X-H torsion
[ 10718 10713 10712 10709 ] final  -18.68 input   66.30 | X-H torsion
[ 10763 10752 10751 10750 ] final  -30.20 input  -60.55 | X-H torsion
[ 11005 11000 10999 10996 ] final  -57.45 input  -57.11 | X-H torsion

> <Gold.Protein.ActiveResidues>
 VAL166  LYS551  ARG553  GLY616  TRP617  ASP618  TYR619  PRO620  LYS621  CYS622 
 ASP623  PHE694  ASN695  SER759  ASP760  ASP761  ALA762  ILE779  LEU786  VAL792 
 PHE793  MET794  SER795  GLU796  ALA797  LYS798  CYS799  TRP800  GLU811  SER814 

> <Gold.Protein.RotatedAtoms>
  151.3748  135.0929  159.9476 H   0  0  0  0  0  0  0  0  0  0  0  0  # atno 6907 bound_to 6896
  152.5125  133.9129  159.7507 H   0  0  0  0  0  0  0  0  0  0  0  0  # atno 6908 bound_to 6896
  150.9550  133.6452  159.2794 H   0  0  0  0  0  0  0  0  0  0  0  0  # atno 6909 bound_to 6896
  144.9498  140.7332  143.4795 H   0  0  0  0  0  0  0  0  0  0  0  0  # atno 7974 bound_to 7965
  154.4009  140.1365  156.4053 H   0  0  0  0  0  0  0  0  0  0  0  0  # atno 8008 bound_to 7997
  155.7785  140.3482  155.5264 H   0  0  0  0  0  0  0  0  0  0  0  0  # atno 8009 bound_to 7997
  155.8697  140.0970  157.1549 H   0  0  0  0  0  0  0  0  0  0  0  0  # atno 8010 bound_to 7997
  140.7274  143.4055  151.1192 H   0  0  0  0  0  0  0  0  0  0  0  0  # atno 10167 bound_to 10162
  156.5561  130.4714  149.6428 H   0  0  0  0  0  0  0  0  0  0  0  0  # atno 10718 bound_to 10713
  153.7771  135.6908  153.4895 H   0  0  0  0  0  0  0  0  0  0  0  0  # atno 10763 bound_to 10752
  153.1836  135.4497  155.0058 H   0  0  0  0  0  0  0  0  0  0  0  0  # atno 10764 bound_to 10752
  154.8096  135.3371  154.7276 H   0  0  0  0  0  0  0  0  0  0  0  0  # atno 10765 bound_to 10752
  141.1165  133.6610  156.4772 H   0  0  0  0  0  0  0  0  0  0  0  0  # atno 11005 bound_to 11000
  145.2862  139.1900  143.4765 LP  0  0  0  0  0  0  0  0  0  0  0  0  # atno 17320 bound_to 7965
  146.3317  140.2831  142.8611 LP  0  0  0  0  0  0  0  0  0  0  0  0  # atno 17321 bound_to 7965
  139.7681  143.8534  152.3115 LP  0  0  0  0  0  0  0  0  0  0  0  0  # atno 17342 bound_to 10162
  139.8444  144.7195  150.9291 LP  0  0  0  0  0  0  0  0  0  0  0  0  # atno 17343 bound_to 10162
  156.2840  130.7087  151.1919 LP  0  0  0  0  0  0  0  0  0  0  0  0  # atno 17370 bound_to 10713
  157.7378  131.0548  150.5335 LP  0  0  0  0  0  0  0  0  0  0  0  0  # atno 17371 bound_to 10713
  140.4630  134.6823  157.5094 LP  0  0  0  0  0  0  0  0  0  0  0  0  # atno 17394 bound_to 11000
  140.0091  134.6718  155.9408 LP  0  0  0  0  0  0  0  0  0  0  0  0  # atno 17395 bound_to 11000

$$$$
