AV-unprocessed.smi:1303|AV-procd|sdf|5428|dock5
  -GOLD-   22720 4583D 1   1.00000     0.00000
 Structure written by MMmdl.
 40 41  0  0  0  0  0  0  0  0  1 V2000
  145.3633  143.4881  156.3040 C   0  0  0  0  0  0  0  0  0  0  0  0
  146.2898  143.5663  155.0792 C   0  0  0  0  0  0  0  0  0  0  0  0
  145.5533  144.1373  153.8562 C   0  0  0  0  0  0  0  0  0  0  0  0
  146.8833  142.1899  154.7532 C   0  0  0  0  0  0  0  0  0  0  0  0
  146.1435  141.2245  154.5593 O   0  0  0  0  0  0  0  0  0  0  0  0
  148.2213  142.1158  154.6813 N   0  0  0  0  0  0  0  0  0  0  0  0
  148.9730  140.9165  154.3237 C   0  0  0  0  0  0  0  0  0  0  0  0
  150.0773  140.5466  155.3059 C   0  0  0  0  0  0  0  0  0  0  0  0
  150.7861  139.3410  155.1389 C   0  0  0  0  0  0  0  0  0  0  0  0
  151.7979  139.0236  156.0638 C   0  0  0  0  0  0  0  0  0  0  0  0
  152.1257  139.8178  157.1041 N   0  0  0  0  0  0  0  0  0  0  0  0
  151.4526  140.9821  157.2770 C   0  0  0  0  0  0  0  0  0  0  0  0
  151.8116  141.8107  158.3621 N   0  0  0  0  0  0  0  0  0  0  0  0
  152.7803  141.2942  159.3273 C   0  0  0  0  0  0  0  0  0  0  0  0
  152.8343  142.2001  160.5690 C   0  0  0  0  0  0  0  0  0  0  0  0
  153.1135  143.5391  160.1741 O   0  0  0  0  0  0  0  0  0  0  0  0
  152.1006  144.0612  159.3204 C   0  0  0  0  0  0  0  0  0  0  0  0
  152.0170  143.2200  158.0353 C   0  0  0  0  0  0  0  0  0  0  0  0
  150.4110  141.3729  156.4026 C   0  0  0  0  0  0  0  0  0  0  0  0
  145.8808  143.0677  157.1672 H   0  0  0  0  0  0  0  0  0  0  0  0
  144.4870  142.8695  156.1063 H   0  0  0  0  0  0  0  0  0  0  0  0
  145.0091  144.4795  156.5871 H   0  0  0  0  0  0  0  0  0  0  0  0
  147.1095  144.2439  155.3239 H   0  0  0  0  0  0  0  0  0  0  0  0
  146.2083  144.1851  152.9849 H   0  0  0  0  0  0  0  0  0  0  0  0
  145.1982  145.1490  154.0530 H   0  0  0  0  0  0  0  0  0  0  0  0
  144.6875  143.5300  153.5885 H   0  0  0  0  0  0  0  0  0  0  0  0
  148.7551  142.9550  154.8549 H   0  0  0  0  0  0  0  0  0  0  0  0
  148.2741  140.0821  154.2661 H   0  0  0  0  0  0  0  0  0  0  0  0
  149.3953  141.0356  153.3244 H   0  0  0  0  0  0  0  0  0  0  0  0
  150.5626  138.6725  154.3205 H   0  0  0  0  0  0  0  0  0  0  0  0
  152.3612  138.1075  155.9647 H   0  0  0  0  0  0  0  0  0  0  0  0
  152.5088  140.2823  159.6298 H   0  0  0  0  0  0  0  0  0  0  0  0
  153.7646  141.2431  158.8600 H   0  0  0  0  0  0  0  0  0  0  0  0
  151.8940  142.1601  161.1211 H   0  0  0  0  0  0  0  0  0  0  0  0
  153.6163  141.8593  161.2478 H   0  0  0  0  0  0  0  0  0  0  0  0
  151.1414  144.0727  159.8405 H   0  0  0  0  0  0  0  0  0  0  0  0
  152.3417  145.0955  159.0755 H   0  0  0  0  0  0  0  0  0  0  0  0
  152.9423  143.3171  157.4661 H   0  0  0  0  0  0  0  0  0  0  0  0
  151.2178  143.6120  157.4079 H   0  0  0  0  0  0  0  0  0  0  0  0
  149.8683  142.2902  156.5737 H   0  0  0  0  0  0  0  0  0  0  0  0
  1  2  1  0  0  0  0
  1 20  1  0  0  0  0
  1 21  1  0  0  0  0
  1 22  1  0  0  0  0
  2  3  1  0  0  0  0
  2  4  1  0  0  0  0
  2 23  1  0  0  0  0
  3 24  1  0  0  0  0
  3 25  1  0  0  0  0
  3 26  1  0  0  0  0
  4  5  2  0  0  0  0
  4  6  1  0  0  0  0
  6  7  1  0  0  0  0
  6 27  1  0  0  0  0
  7  8  1  0  0  0  0
  7 28  1  0  0  0  0
  7 29  1  0  0  0  0
  8 19  1  0  0  0  0
  8  9  2  0  0  0  0
  9 10  1  0  0  0  0
  9 30  1  0  0  0  0
 10 11  2  0  0  0  0
 10 31  1  0  0  0  0
 11 12  1  0  0  0  0
 12 13  1  0  0  0  0
 12 19  2  0  0  0  0
 13 18  1  0  0  0  0
 13 14  1  0  0  0  0
 14 15  1  0  0  0  0
 14 32  1  0  0  0  0
 14 33  1  0  0  0  0
 15 16  1  0  0  0  0
 15 34  1  0  0  0  0
 15 35  1  0  0  0  0
 16 17  1  0  0  0  0
 17 18  1  0  0  0  0
 17 36  1  0  0  0  0
 17 37  1  0  0  0  0
 18 38  1  0  0  0  0
 18 39  1  0  0  0  0
 19 40  1  0  0  0  0
M  END
> <s_m_source_file>
AV-unprocessed.smi

> <i_m_source_file_index>
1303

> <i_lp_mmshare_version>
43012

> <i_f3d_flags>
0

> <s_epik_input>
W0NIM11bQ0hdKFtDSDNdKUMoPU8pW05IXVtDSDJdYzFbY0hdW2NIXW5jKFtjSF0xKU4yW0NIMl1bQ0gyXU9bQ0gyXVtDSDJdMg==

> <s_epik_cmdline>
J2VwaWtfcHl0aG9uJywgJy1waCcsICc3LjAnLCAnLXRuJywgJzgnLCAnLW1hJywgJzIwMCcsICctbWV0YWxfYmluZGluZycsICctaW1hZScsICc8aW5maWxlLm1hZT4nLCAnLW9tYWUnLCAnPG91dGZpbGUubWFlPic=

> <r_lp_tautomer_probability>
1

> <r_epik_Ionization_Penalty>
0.00576177

> <r_epik_Ionization_Penalty_Charging>
0

> <r_epik_Ionization_Penalty_Neutral>
0.00576177

> <r_epik_State_Penalty>
0.00422935

> <r_epik_Charging_Adjusted_Penalty>
0.00422935

> <i_epik_Tot_Q>
0

> <i_epik_Tot_abs_Q>
0

> <r_epik_Metal_State_Penalty>
-0

> <b_epik_Metal_Only>
0

> <s_lp_Force_Field>
OPLS_2005

> <r_lp_Energy>
14.5519

> <b_lp_Chiralities_Consistent>
1

> <s_lp_Variant>
AV-unprocessed.smi:1303-1

> <Gold.Version>
5.8.1

> <Gold.Id.Protein>
6NUR|6NUR_protein|mol2

> <Gold.PLP.Fitness>
44.4746

> <Gold.PLP.PLP>
-38.8129

> <Gold.PLP.part.hbond>
-2.0000

> <Gold.PLP.part.metal>
0.0000

> <Gold.PLP.part.buried>
-2.1119

> <Gold.PLP.part.nonpolar>
-34.7074

> <Gold.PLP.part.repulsive>
0.3029

> <Gold.PLP.ligand.clash>
0.0000

> <Gold.PLP.ligand.torsion>
0.3276

> <Gold.PLP.Chemscore.Hbond>
1.9913

> <Gold.PLP.Chemscore.CHOScore>
0.0000

> <Gold.PLP.Chemscore.Metal>
0.0000

> <Gold.Chemscore.Hbonds>
donor molecule, donor type, donor heavy atom, donor atom, acceptor molecule, acceptor atom, score
      L1  H     6    27       P1  8028  0.98
      P1  H  7997  8009       L1    11  0.25

> <Gold.PLP.Chemscore.Internal.Correction>
0.3431

> <Gold.Rescore>
     Score         DG    S(hbond)    S(metal)    S(lipo)     H(rot)  DE(clash)    DE(int)     intcor
     15.80     -16.38       1.29        0.00      90.47       1.56       0.38       0.20       ----

> <Gold.Chemscore.Fitness>
15.7965

> <Gold.Chemscore.DG>
-16.3788

> <Gold.Chemscore.ZeroCoef>
-5.4800

> <Gold.Chemscore.Hbond>
1.2885

> <Gold.Chemscore.Metal>
0.0000

> <Gold.Chemscore.Lipo>
90.4687

> <Gold.Chemscore.Internal_Hbond>
0.0000

> <Gold.Chemscore.DEClash>
0.3816

> <Gold.Chemscore.DEInternal>
0.2007

> <Gold.Chemscore.Rot>
1.5584

> <Gold.Chemscore.Internal.Correction>
   9.000000E+99

> <Gold.Chemscore.Hbonds>
donor molecule, donor type, donor heavy atom, donor atom, acceptor molecule, acceptor atom, score
      L1  H     6    27       P1  8028  0.93
      P1  H  7997  8009       L1    11  0.04

> <Gold.Chemscore.Hbond.Weighted>
-4.3035

> <Gold.Chemscore.Metal.Weighted>
-0.0000

> <Gold.Chemscore.Lipo.Weighted>
-10.5848

> <Gold.Chemscore.Internal_Hbond.Weighted>
0.0000

> <Gold.Chemscore.DEClash.Weighted>
0.3816

> <Gold.Chemscore.DEInternal.Weighted>
0.2007

> <Gold.Chemscore.Rot.Weighted>
3.9895

> <Gold.Chemscore.Internal.Correction.Weighted>
   9.000000E+99

> <Gold.Protein.RotatedTorsions>
[ 6907 6896 6895 6894 ] final  -14.15 input  -60.11 | X-H torsion
[ 7974 7965 7964 7962 ] final  113.47 input  175.53 | X-H torsion
[ 8008 7997 7996 7995 ] final -172.45 input   59.86 | X-H torsion
[ 10167 10162 10161 10158 ] final  140.13 input  -65.29 | X-H torsion
[ 10718 10713 10712 10709 ] final    7.13 input   66.30 | X-H torsion
[ 10763 10752 10751 10750 ] final   95.57 input  -60.55 | X-H torsion
[ 11005 11000 10999 10996 ] final  156.74 input  -57.11 | X-H torsion

> <Gold.Protein.ActiveResidues>
 VAL166  LYS551  ARG553  GLY616  TRP617  ASP618  TYR619  PRO620  LYS621  CYS622 
 ASP623  PHE694  ASN695  SER759  ASP760  ASP761  ALA762  ILE779  LEU786  VAL792 
 PHE793  MET794  SER795  GLU796  ALA797  LYS798  CYS799  TRP800  GLU811  SER814 

> <Gold.Protein.RotatedAtoms>
  151.3439  135.0870  159.9380 H   0  0  0  0  0  0  0  0  0  0  0  0  # atno 6907 bound_to 6896
  152.5204  133.9419  159.7641 H   0  0  0  0  0  0  0  0  0  0  0  0  # atno 6908 bound_to 6896
  150.9782  133.6220  159.2756 H   0  0  0  0  0  0  0  0  0  0  0  0  # atno 6909 bound_to 6896
  145.2165  139.2881  143.4240 H   0  0  0  0  0  0  0  0  0  0  0  0  # atno 7974 bound_to 7965
  155.9448  140.1115  157.1026 H   0  0  0  0  0  0  0  0  0  0  0  0  # atno 8008 bound_to 7997
  154.4097  140.1212  156.5040 H   0  0  0  0  0  0  0  0  0  0  0  0  # atno 8009 bound_to 7997
  155.6917  140.3472  155.4898 H   0  0  0  0  0  0  0  0  0  0  0  0  # atno 8010 bound_to 7997
  139.5058  144.6253  151.5952 H   0  0  0  0  0  0  0  0  0  0  0  0  # atno 10167 bound_to 10162
  156.9323  130.5831  149.5650 H   0  0  0  0  0  0  0  0  0  0  0  0  # atno 10718 bound_to 10713
  153.2548  135.4249  155.0834 H   0  0  0  0  0  0  0  0  0  0  0  0  # atno 10763 bound_to 10752
  154.8396  135.3434  154.6461 H   0  0  0  0  0  0  0  0  0  0  0  0  # atno 10764 bound_to 10752
  153.6882  135.7035  153.5154 H   0  0  0  0  0  0  0  0  0  0  0  0  # atno 10765 bound_to 10752
  140.1703  134.8547  157.2682 H   0  0  0  0  0  0  0  0  0  0  0  0  # atno 11005 bound_to 11000
  146.3386  140.2458  142.8597 LP  0  0  0  0  0  0  0  0  0  0  0  0  # atno 17320 bound_to 7965
  144.9806  140.8455  143.5400 LP  0  0  0  0  0  0  0  0  0  0  0  0  # atno 17321 bound_to 7965
  140.5968  143.9682  150.6359 LP  0  0  0  0  0  0  0  0  0  0  0  0  # atno 17342 bound_to 10162
  140.2880  143.3343  152.1089 LP  0  0  0  0  0  0  0  0  0  0  0  0  # atno 17343 bound_to 10162
  156.0441  130.5520  150.8840 LP  0  0  0  0  0  0  0  0  0  0  0  0  # atno 17370 bound_to 10713
  157.5838  131.0946  150.9228 LP  0  0  0  0  0  0  0  0  0  0  0  0  # atno 17371 bound_to 10713
  140.2385  134.3824  155.7491 LP  0  0  0  0  0  0  0  0  0  0  0  0  # atno 17394 bound_to 11000
  141.2217  133.7252  156.8751 LP  0  0  0  0  0  0  0  0  0  0  0  0  # atno 17395 bound_to 11000

$$$$
