AV-unprocessed.smi:1046|AV-procd|sdf|4556|dock3
  -GOLD-   22720 2593D 1   1.00000     0.00000
 Structure written by MMmdl.
 54 56  0  0  0  0  0  0  0  0  3 V2000
  153.7196  142.0046  163.2745 C   0  0  0  0  0  0  0  0  0  0  0  0
  153.2008  142.3773  161.8969 C   0  0  0  0  0  0  0  0  0  0  0  0
  152.3495  143.4972  161.7636 C   0  0  0  0  0  0  0  0  0  0  0  0
  151.8474  143.8790  160.5005 C   0  0  0  0  0  0  0  0  0  0  0  0
  151.0192  144.9285  160.1418 N   0  0  0  0  0  0  0  0  0  0  0  0
  150.9199  144.7558  158.8273 C   0  0  0  0  0  0  0  0  0  0  0  0
  151.5957  143.7227  158.2887 N   0  0  0  0  0  0  0  0  0  0  0  0
  151.6479  143.3521  156.8865 C   0  0  0  0  0  0  0  0  0  0  0  0
  150.5731  142.3131  156.5103 C   0  0  2  0  0  0  0  0  0  0  0  0
  149.3507  142.7296  157.0839 O   0  0  0  0  0  0  0  0  0  0  0  0
  150.8940  140.8846  157.0036 C   0  0  0  0  0  0  0  0  0  0  0  0
  150.3276  139.8315  156.1216 N   0  3  2  0  0  0  0  0  0  0  0  0
  150.8622  139.9107  154.7392 C   0  0  0  0  0  0  0  0  0  0  0  0
  150.3345  138.7529  153.8715 C   0  0  0  0  0  0  0  0  0  0  0  0
  148.8512  138.7109  153.8524 N   0  3  2  0  0  0  0  0  0  0  0  0
  148.2378  139.7468  152.9777 C   0  0  0  0  0  0  0  0  0  0  0  0
  146.7581  139.4574  152.6736 C   0  0  0  0  0  0  0  0  0  0  0  0
  146.6367  138.8529  151.4036 O   0  0  0  0  0  0  0  0  0  0  0  0
  148.3023  138.6556  155.2327 C   0  0  0  0  0  0  0  0  0  0  0  0
  148.8413  139.7943  156.1238 C   0  0  0  0  0  0  0  0  0  0  0  0
  152.2228  143.1032  159.3649 C   0  0  0  0  0  0  0  0  0  0  0  0
  153.0661  141.9843  159.4851 C   0  0  0  0  0  0  0  0  0  0  0  0
  153.5593  141.6173  160.7547 C   0  0  0  0  0  0  0  0  0  0  0  0
  154.4709  140.4089  160.8748 C   0  0  0  0  0  0  0  0  0  0  0  0
  153.3845  142.7136  164.0320 H   0  0  0  0  0  0  0  0  0  0  0  0
  154.8096  141.9968  163.2841 H   0  0  0  0  0  0  0  0  0  0  0  0
  153.3634  141.0149  163.5610 H   0  0  0  0  0  0  0  0  0  0  0  0
  152.0748  144.0746  162.6342 H   0  0  0  0  0  0  0  0  0  0  0  0
  150.3274  145.4236  158.2189 H   0  0  0  0  0  0  0  0  0  0  0  0
  151.5372  144.2550  156.2844 H   0  0  0  0  0  0  0  0  0  0  0  0
  152.6438  142.9591  156.6759 H   0  0  0  0  0  0  0  0  0  0  0  0
  150.4539  142.3228  155.4273 H   0  0  0  0  0  0  0  0  0  0  0  0
  149.1759  143.6192  156.8152 H   0  0  0  0  0  0  0  0  0  0  0  0
  151.9700  140.7269  157.0827 H   0  0  0  0  0  0  0  0  0  0  0  0
  150.4973  140.7733  158.0142 H   0  0  0  0  0  0  0  0  0  0  0  0
  150.5944  140.8716  154.2972 H   0  0  0  0  0  0  0  0  0  0  0  0
  151.9518  139.8681  154.7652 H   0  0  0  0  0  0  0  0  0  0  0  0
  150.7277  138.8215  152.8565 H   0  0  0  0  0  0  0  0  0  0  0  0
  150.6988  137.8062  154.2727 H   0  0  0  0  0  0  0  0  0  0  0  0
  148.3409  140.7332  153.4296 H   0  0  0  0  0  0  0  0  0  0  0  0
  148.7759  139.7947  152.0298 H   0  0  0  0  0  0  0  0  0  0  0  0
  146.2972  138.8224  153.4291 H   0  0  0  0  0  0  0  0  0  0  0  0
  146.1956  140.3914  152.6617 H   0  0  0  0  0  0  0  0  0  0  0  0
  147.3926  138.3037  151.2560 H   0  0  0  0  0  0  0  0  0  0  0  0
  147.2130  138.6662  155.2206 H   0  0  0  0  0  0  0  0  0  0  0  0
  148.5865  137.6968  155.6688 H   0  0  0  0  0  0  0  0  0  0  0  0
  148.4703  139.6487  157.1377 H   0  0  0  0  0  0  0  0  0  0  0  0
  148.4518  140.7564  155.7890 H   0  0  0  0  0  0  0  0  0  0  0  0
  153.3323  141.4130  158.6083 H   0  0  0  0  0  0  0  0  0  0  0  0
  154.6089  139.9166  159.9117 H   0  0  0  0  0  0  0  0  0  0  0  0
  154.0495  139.6782  161.5656 H   0  0  0  0  0  0  0  0  0  0  0  0
  155.4525  140.7076  161.2432 H   0  0  0  0  0  0  0  0  0  0  0  0
  150.6474  138.9498  156.4981 H   0  0  0  0  0  0  0  0  0  0  0  0
  148.6093  137.8338  153.4114 H   0  0  0  0  0  0  0  0  0  0  0  0
  1  2  1  0  0  0  0
  1 25  1  0  0  0  0
  1 26  1  0  0  0  0
  1 27  1  0  0  0  0
  2 23  1  0  0  0  0
  2  3  2  0  0  0  0
  3  4  1  0  0  0  0
  3 28  1  0  0  0  0
  4 21  2  0  0  0  0
  4  5  1  0  0  0  0
  5  6  2  0  0  0  0
  6  7  1  0  0  0  0
  6 29  1  0  0  0  0
  7  8  1  0  0  0  0
  7 21  1  0  0  0  0
  8  9  1  0  0  0  0
  8 30  1  0  0  0  0
  8 31  1  0  0  0  0
  9 10  1  0  0  0  0
  9 11  1  0  0  0  0
  9 32  1  0  0  0  0
 10 33  1  0  0  0  0
 11 12  1  0  0  0  0
 11 34  1  0  0  0  0
 11 35  1  0  0  0  0
 12 20  1  0  0  0  0
 12 13  1  0  0  0  0
 12 53  1  0  0  0  0
 13 14  1  0  0  0  0
 13 36  1  0  0  0  0
 13 37  1  0  0  0  0
 14 15  1  0  0  0  0
 14 38  1  0  0  0  0
 14 39  1  0  0  0  0
 15 16  1  0  0  0  0
 15 19  1  0  0  0  0
 15 54  1  0  0  0  0
 16 17  1  0  0  0  0
 16 40  1  0  0  0  0
 16 41  1  0  0  0  0
 17 18  1  0  0  0  0
 17 42  1  0  0  0  0
 17 43  1  0  0  0  0
 18 44  1  0  0  0  0
 19 20  1  0  0  0  0
 19 45  1  0  0  0  0
 19 46  1  0  0  0  0
 20 47  1  0  0  0  0
 20 48  1  0  0  0  0
 21 22  1  0  0  0  0
 22 23  2  0  0  0  0
 22 49  1  0  0  0  0
 23 24  1  0  0  0  0
 24 50  1  0  0  0  0
 24 51  1  0  0  0  0
 24 52  1  0  0  0  0
M  CHG  1  12   1
M  CHG  1  15   1
M  END
> <s_m_source_file>
AV-unprocessed.smi

> <i_m_source_file_index>
1046

> <i_lp_mmshare_version>
43012

> <i_f3d_flags>
0

> <s_epik_input>
W0NIM11jKFtjSF0xKWMoW0NIM10pW2NIXWMoYzEyKW4oW2NIXW4yKVtDSDJdW0NASF0oW09IXSlbQ0gyXU4zW0NIMl1bQ0gyXU4oW0NIMl1bQ0gyXTMpW0NIMl1bQ0gyXVtPSF0=

> <s_epik_cmdline>
J2VwaWtfcHl0aG9uJywgJy1waCcsICc3LjAnLCAnLXRuJywgJzgnLCAnLW1hJywgJzIwMCcsICctbWV0YWxfYmluZGluZycsICctaW1hZScsICc8aW5maWxlLm1hZT4nLCAnLW9tYWUnLCAnPG91dGZpbGUubWFlPic=

> <r_epik_Ionization_Penalty>
3.17398

> <r_epik_Ionization_Penalty_Charging>
3.09061

> <r_epik_Ionization_Penalty_Neutral>
0.0833726

> <r_epik_State_Penalty>
2.17606

> <r_epik_Charging_Adjusted_Penalty>
5.26667

> <i_epik_Tot_Q>
2

> <i_epik_Tot_abs_Q>
2

> <r_epik_Metal_State_Penalty>
2.08587

> <b_epik_Metal_Only>
0

> <s_lp_Force_Field>
OPLS_2005

> <r_lp_Energy>
31.2877

> <b_lp_Chiralities_Consistent>
1

> <s_lp_Variant>
AV-unprocessed.smi:1046-9

> <Gold.Version>
5.8.1

> <Gold.Id.Protein>
6NUR|6NUR_protein|mol2

> <Gold.PLP.Fitness>
62.5659

> <Gold.PLP.PLP>
-51.4537

> <Gold.PLP.part.hbond>
-5.0164

> <Gold.PLP.part.metal>
0.0000

> <Gold.PLP.part.buried>
1.9025

> <Gold.PLP.part.nonpolar>
-49.6372

> <Gold.PLP.part.repulsive>
0.2597

> <Gold.PLP.ligand.clash>
0.0000

> <Gold.PLP.ligand.torsion>
1.1943

> <Gold.PLP.Chemscore.Hbond>
3.4591

> <Gold.PLP.Chemscore.CHOScore>
0.9474

> <Gold.PLP.Chemscore.Metal>
0.0000

> <Gold.Chemscore.Hbonds>
donor molecule, donor type, donor heavy atom, donor atom, acceptor molecule, acceptor atom, score
      L1  H    10    33       P1  8028  1.00
      L1  H    15    54       P1  7948  0.94
      L1  C     6    29       P1  8029  0.71

> <Gold.PLP.Chemscore.Internal.Correction>
0.2813

> <Gold.Rescore>
     Score         DG    S(hbond)    S(metal)    S(lipo)     H(rot)  DE(clash)    DE(int)     intcor
     18.98     -23.97       2.80        0.00     150.07       3.28       3.95       1.04       ----

> <Gold.Chemscore.Fitness>
18.9825

> <Gold.Chemscore.DG>
-23.9742

> <Gold.Chemscore.ZeroCoef>
-5.4800

> <Gold.Chemscore.Hbond>
2.7962

> <Gold.Chemscore.Metal>
0.0000

> <Gold.Chemscore.Lipo>
150.0746

> <Gold.Chemscore.Internal_Hbond>
0.0000

> <Gold.Chemscore.DEClash>
3.9510

> <Gold.Chemscore.DEInternal>
1.0407

> <Gold.Chemscore.Rot>
3.2828

> <Gold.Chemscore.Internal.Correction>
   9.000000E+99

> <Gold.Chemscore.Hbonds>
donor molecule, donor type, donor heavy atom, donor atom, acceptor molecule, acceptor atom, score
      L1  H    10    33       P1  8028  0.81
      L1  H    15    54       P1  7948  0.45

> <Gold.Chemscore.Hbond.Weighted>
-9.3394

> <Gold.Chemscore.Metal.Weighted>
-0.0000

> <Gold.Chemscore.Lipo.Weighted>
-17.5587

> <Gold.Chemscore.Internal_Hbond.Weighted>
0.0000

> <Gold.Chemscore.DEClash.Weighted>
3.9510

> <Gold.Chemscore.DEInternal.Weighted>
1.0407

> <Gold.Chemscore.Rot.Weighted>
8.4039

> <Gold.Chemscore.Internal.Correction.Weighted>
   9.000000E+99

> <Gold.Protein.RotatedTorsions>
[ 6907 6896 6895 6894 ] final -175.40 input  -60.11 | X-H torsion
[ 7974 7965 7964 7962 ] final  131.69 input  175.53 | X-H torsion
[ 8008 7997 7996 7995 ] final  -68.70 input   59.86 | X-H torsion
[ 10167 10162 10161 10158 ] final  173.25 input  -65.29 | X-H torsion
[ 10718 10713 10712 10709 ] final   11.88 input   66.30 | X-H torsion
[ 10763 10752 10751 10750 ] final  -18.20 input  -60.55 | X-H torsion
[ 11005 11000 10999 10996 ] final  130.77 input  -57.11 | X-H torsion

> <Gold.Protein.ActiveResidues>
 VAL166  LYS551  ARG553  GLY616  TRP617  ASP618  TYR619  PRO620  LYS621  CYS622 
 ASP623  PHE694  ASN695  SER759  ASP760  ASP761  ALA762  ILE779  LEU786  VAL792 
 PHE793  MET794  SER795  GLU796  ALA797  LYS798  CYS799  TRP800  GLU811  SER814 

> <Gold.Protein.RotatedAtoms>
  151.5879  133.3370  159.3021 H   0  0  0  0  0  0  0  0  0  0  0  0  # atno 6907 bound_to 6896
  150.8276  134.7518  159.6838 H   0  0  0  0  0  0  0  0  0  0  0  0  # atno 6908 bound_to 6896
  152.4364  134.5684  159.9966 H   0  0  0  0  0  0  0  0  0  0  0  0  # atno 6909 bound_to 6896
  145.0046  139.4279  143.5275 H   0  0  0  0  0  0  0  0  0  0  0  0  # atno 7974 bound_to 7965
  154.4886  140.0868  156.7544 H   0  0  0  0  0  0  0  0  0  0  0  0  # atno 8008 bound_to 7997
  155.4287  140.3449  155.4260 H   0  0  0  0  0  0  0  0  0  0  0  0  # atno 8009 bound_to 7997
  156.1298  140.1498  156.9071 H   0  0  0  0  0  0  0  0  0  0  0  0  # atno 8010 bound_to 7997
  139.5102  144.3282  152.0137 H   0  0  0  0  0  0  0  0  0  0  0  0  # atno 10167 bound_to 10162
  157.0021  130.6083  149.5697 H   0  0  0  0  0  0  0  0  0  0  0  0  # atno 10718 bound_to 10713
  153.5856  135.7004  153.5445 H   0  0  0  0  0  0  0  0  0  0  0  0  # atno 10763 bound_to 10752
  153.3223  135.4070  155.1426 H   0  0  0  0  0  0  0  0  0  0  0  0  # atno 10764 bound_to 10752
  154.8610  135.3698  154.5386 H   0  0  0  0  0  0  0  0  0  0  0  0  # atno 10765 bound_to 10752
  139.9691  134.9582  156.9341 H   0  0  0  0  0  0  0  0  0  0  0  0  # atno 11005 bound_to 11000
  146.3458  139.9455  142.8735 LP  0  0  0  0  0  0  0  0  0  0  0  0  # atno 17320 bound_to 7965
  145.2106  140.9894  143.4103 LP  0  0  0  0  0  0  0  0  0  0  0  0  # atno 17321 bound_to 7965
  140.2722  144.3951  150.6147 LP  0  0  0  0  0  0  0  0  0  0  0  0  # atno 17342 bound_to 10162
  140.6080  143.2168  151.6943 LP  0  0  0  0  0  0  0  0  0  0  0  0  # atno 17343 bound_to 10162
  156.0167  130.5261  150.8156 LP  0  0  0  0  0  0  0  0  0  0  0  0  # atno 17370 bound_to 10713
  157.5383  131.0939  150.9862 LP  0  0  0  0  0  0  0  0  0  0  0  0  # atno 17371 bound_to 10713
  140.5332  134.0793  155.7321 LP  0  0  0  0  0  0  0  0  0  0  0  0  # atno 17394 bound_to 11000
  141.1371  133.9203  157.2410 LP  0  0  0  0  0  0  0  0  0  0  0  0  # atno 17395 bound_to 11000

$$$$
