AV-unprocessed.smi:2090|AV-procd|sdf|8534|dock1
  -GOLD-   2272011253D 1   1.00000     0.00000
 Structure written by MMmdl.
 41 42  0  0  0  0  0  0  0  0  3 V2000
  152.6782  142.5413  159.3975 C   0  0  0  0  0  0  0  0  0  0  0  0
  151.8229  142.0016  158.3023 C   0  0  0  0  0  0  0  0  0  0  0  0
  150.7912  142.5346  157.5828 C   0  0  0  0  0  0  0  0  0  0  0  0
  150.4367  141.4825  156.6947 C   0  0  0  0  0  0  0  0  0  0  0  0
  149.4540  141.5200  155.7812 N   0  5  0  0  0  0  0  0  0  0  0  0
  149.3563  140.5466  154.8470 C   0  0  0  0  0  0  0  0  0  0  0  0
  150.2907  139.9334  154.3256 O   0  0  0  0  0  0  0  0  0  0  0  0
  148.0957  140.2654  154.4921 N   0  0  0  0  0  0  0  0  0  0  0  0
  147.7070  139.2645  153.5085 C   0  0  0  0  0  0  0  0  0  0  0  0
  146.9576  138.1080  154.1875 C   0  0  0  0  0  0  0  0  0  0  0  0
  146.6904  136.9874  153.2516 N   0  3  2  0  0  0  0  0  0  0  0  0
  145.8328  137.3987  152.1102 C   0  0  0  0  0  0  0  0  0  0  0  0
  145.6882  136.2617  151.0845 C   0  0  0  0  0  0  0  0  0  0  0  0
  145.1312  134.9863  151.7382 C   0  0  1  0  0  0  0  0  0  0  0  0
  145.0144  133.8349  150.7293 C   0  0  0  0  0  0  0  0  0  0  0  0
  146.0153  134.6053  152.9377 C   0  0  0  0  0  0  0  0  0  0  0  0
  146.1533  135.7759  153.9260 C   0  0  0  0  0  0  0  0  0  0  0  0
  151.1757  140.4001  156.8724 N   0  0  0  0  0  0  0  0  0  0  0  0
  152.0728  140.7278  157.8961 O   0  0  0  0  0  0  0  0  0  0  0  0
  152.0668  143.0090  160.1690 H   0  0  0  0  0  0  0  0  0  0  0  0
  153.3694  143.2909  159.0119 H   0  0  0  0  0  0  0  0  0  0  0  0
  153.2640  141.7500  159.8657 H   0  0  0  0  0  0  0  0  0  0  0  0
  150.3608  143.5206  157.6730 H   0  0  0  0  0  0  0  0  0  0  0  0
  147.3574  140.7857  154.9434 H   0  0  0  0  0  0  0  0  0  0  0  0
  147.0704  139.7240  152.7504 H   0  0  0  0  0  0  0  0  0  0  0  0
  148.6074  138.9115  153.0055 H   0  0  0  0  0  0  0  0  0  0  0  0
  147.5062  137.7431  155.0574 H   0  0  0  0  0  0  0  0  0  0  0  0
  146.0100  138.4980  154.5628 H   0  0  0  0  0  0  0  0  0  0  0  0
  144.8519  137.7007  152.4807 H   0  0  0  0  0  0  0  0  0  0  0  0
  146.2676  138.2687  151.6164 H   0  0  0  0  0  0  0  0  0  0  0  0
  145.0341  136.5815  150.2726 H   0  0  0  0  0  0  0  0  0  0  0  0
  146.6597  136.0534  150.6335 H   0  0  0  0  0  0  0  0  0  0  0  0
  144.1288  135.2042  152.1102 H   0  0  0  0  0  0  0  0  0  0  0  0
  145.9866  133.5716  150.3117 H   0  0  0  0  0  0  0  0  0  0  0  0
  144.3584  134.1042  149.9009 H   0  0  0  0  0  0  0  0  0  0  0  0
  144.6013  132.9420  151.1994 H   0  0  0  0  0  0  0  0  0  0  0  0
  145.5941  133.7408  153.4523 H   0  0  0  0  0  0  0  0  0  0  0  0
  147.0048  134.3053  152.5895 H   0  0  0  0  0  0  0  0  0  0  0  0
  146.8091  135.4716  154.7409 H   0  0  0  0  0  0  0  0  0  0  0  0
  145.1841  136.0056  154.3715 H   0  0  0  0  0  0  0  0  0  0  0  0
  147.5834  136.7329  152.8540 H   0  0  0  0  0  0  0  0  0  0  0  0
  1  2  1  0  0  0  0
  1 20  1  0  0  0  0
  1 21  1  0  0  0  0
  1 22  1  0  0  0  0
  2 19  1  0  0  0  0
  2  3  2  0  0  0  0
  3  4  1  0  0  0  0
  3 23  1  0  0  0  0
  4  5  1  0  0  0  0
  4 18  2  0  0  0  0
  5  6  1  0  0  0  0
  6  7  2  0  0  0  0
  6  8  1  0  0  0  0
  8  9  1  0  0  0  0
  8 24  1  0  0  0  0
  9 10  1  0  0  0  0
  9 25  1  0  0  0  0
  9 26  1  0  0  0  0
 10 11  1  0  0  0  0
 10 27  1  0  0  0  0
 10 28  1  0  0  0  0
 11 17  1  0  0  0  0
 11 12  1  0  0  0  0
 11 41  1  0  0  0  0
 12 13  1  0  0  0  0
 12 29  1  0  0  0  0
 12 30  1  0  0  0  0
 13 14  1  0  0  0  0
 13 31  1  0  0  0  0
 13 32  1  0  0  0  0
 14 15  1  0  0  0  0
 14 16  1  0  0  0  0
 14 33  1  0  0  0  0
 15 34  1  0  0  0  0
 15 35  1  0  0  0  0
 15 36  1  0  0  0  0
 16 17  1  0  0  0  0
 16 37  1  0  0  0  0
 16 38  1  0  0  0  0
 17 39  1  0  0  0  0
 17 40  1  0  0  0  0
 18 19  1  0  0  0  0
M  CHG  1   5  -1
M  CHG  1  11   1
M  END
> <s_m_source_file>
AV-unprocessed.smi

> <i_m_source_file_index>
2090

> <i_lp_mmshare_version>
43012

> <i_f3d_flags>
0

> <s_epik_input>
W0NIM11jMVtjSF1jKG5vMSlbTkhdQyg9TylbTkhdW0NIMl1bQ0gyXU4yW0NIMl1bQ0gyXVtDSF0oW0NIM10pW0NIMl1bQ0gyXTI=

> <s_epik_cmdline>
J2VwaWtfcHl0aG9uJywgJy1waCcsICc3LjAnLCAnLXRuJywgJzgnLCAnLW1hJywgJzIwMCcsICctbWV0YWxfYmluZGluZycsICctaW1hZScsICc8aW5maWxlLm1hZT4nLCAnLW9tYWUnLCAnPG91dGZpbGUubWFlPic=

> <r_epik_Ionization_Penalty>
6.22503

> <r_epik_Ionization_Penalty_Charging>
6.22494

> <r_epik_Ionization_Penalty_Neutral>
9.3589e-05

> <r_epik_State_Penalty>
6.22491

> <r_epik_Charging_Adjusted_Penalty>
12.4498

> <i_epik_Tot_Q>
0

> <i_epik_Tot_abs_Q>
2

> <r_epik_Metal_State_Penalty>
2.16853

> <b_epik_Metal_Only>
1

> <s_lp_Force_Field>
OPLS_2005

> <r_lp_Energy>
5.4778

> <b_lp_Chiralities_Consistent>
1

> <s_lp_Variant>
AV-unprocessed.smi:2090-3

> <Gold.Version>
5.8.1

> <Gold.Id.Protein>
6NUR|6NUR_protein|mol2

> <Gold.PLP.Fitness>
37.5029

> <Gold.PLP.PLP>
-29.0708

> <Gold.PLP.part.hbond>
-2.0000

> <Gold.PLP.part.metal>
0.0000

> <Gold.PLP.part.buried>
-2.1717

> <Gold.PLP.part.nonpolar>
-25.5543

> <Gold.PLP.part.repulsive>
0.3434

> <Gold.PLP.ligand.clash>
0.0000

> <Gold.PLP.ligand.torsion>
0.3141

> <Gold.PLP.Chemscore.Hbond>
3.0000

> <Gold.PLP.Chemscore.CHOScore>
0.0000

> <Gold.PLP.Chemscore.Metal>
0.0000

> <Gold.Chemscore.Hbonds>
donor molecule, donor type, donor heavy atom, donor atom, acceptor molecule, acceptor atom, score
      L1  H    11    41       P1  7948  2.00
      P1  H  7989  7998       L1     7  1.00

> <Gold.PLP.Chemscore.Internal.Correction>
0.0602

> <Gold.Rescore>
     Score         DG    S(hbond)    S(metal)    S(lipo)     H(rot)  DE(clash)    DE(int)     intcor
     14.33     -16.33       1.98        0.00      69.80       1.54       0.23       1.77       ----

> <Gold.Chemscore.Fitness>
14.3306

> <Gold.Chemscore.DG>
-16.3289

> <Gold.Chemscore.ZeroCoef>
-5.4800

> <Gold.Chemscore.Hbond>
1.9840

> <Gold.Chemscore.Metal>
0.0000

> <Gold.Chemscore.Lipo>
69.8028

> <Gold.Chemscore.Internal_Hbond>
0.0000

> <Gold.Chemscore.DEClash>
0.2270

> <Gold.Chemscore.DEInternal>
1.7712

> <Gold.Chemscore.Rot>
1.5409

> <Gold.Chemscore.Internal.Correction>
   9.000000E+99

> <Gold.Chemscore.Hbonds>
donor molecule, donor type, donor heavy atom, donor atom, acceptor molecule, acceptor atom, score
      L1  H    11    41       P1  7948  1.00
      P1  H  7989  7998       L1     7  0.96

> <Gold.Chemscore.Hbond.Weighted>
-6.6266

> <Gold.Chemscore.Metal.Weighted>
-0.0000

> <Gold.Chemscore.Lipo.Weighted>
-8.1669

> <Gold.Chemscore.Internal_Hbond.Weighted>
0.0000

> <Gold.Chemscore.DEClash.Weighted>
0.2270

> <Gold.Chemscore.DEInternal.Weighted>
1.7712

> <Gold.Chemscore.Rot.Weighted>
3.9446

> <Gold.Chemscore.Internal.Correction.Weighted>
   9.000000E+99

> <Gold.Protein.RotatedTorsions>
[ 6907 6896 6895 6894 ] final  166.85 input  -60.11 | X-H torsion
[ 7974 7965 7964 7962 ] final  -74.89 input  175.53 | X-H torsion
[ 8008 7997 7996 7995 ] final  128.29 input   59.86 | X-H torsion
[ 10167 10162 10161 10158 ] final   28.18 input  -65.29 | X-H torsion
[ 10718 10713 10712 10709 ] final -171.09 input   66.30 | X-H torsion
[ 10763 10752 10751 10750 ] final  -59.65 input  -60.55 | X-H torsion
[ 11005 11000 10999 10996 ] final  -75.22 input  -57.11 | X-H torsion

> <Gold.Protein.ActiveResidues>
 VAL166  LYS551  ARG553  GLY616  TRP617  ASP618  TYR619  PRO620  LYS621  CYS622 
 ASP623  PHE694  ASN695  SER759  ASP760  ASP761  ALA762  ILE779  LEU786  VAL792 
 PHE793  MET794  SER795  GLU796  ALA797  LYS798  CYS799  TRP800  GLU811  SER814 

> <Gold.Protein.RotatedAtoms>
  151.8724  133.3478  159.3738 H   0  0  0  0  0  0  0  0  0  0  0  0  # atno 6907 bound_to 6896
  150.7149  134.5099  159.5612 H   0  0  0  0  0  0  0  0  0  0  0  0  # atno 6908 bound_to 6896
  152.2635  134.8010  160.0477 H   0  0  0  0  0  0  0  0  0  0  0  0  # atno 6909 bound_to 6896
  145.6331  140.9332  143.1076 H   0  0  0  0  0  0  0  0  0  0  0  0  # atno 7974 bound_to 7965
  156.2911  140.2648  156.2411 H   0  0  0  0  0  0  0  0  0  0  0  0  # atno 8008 bound_to 7997
  154.9976  140.0388  157.2364 H   0  0  0  0  0  0  0  0  0  0  0  0  # atno 8009 bound_to 7997
  154.7630  140.2764  155.6203 H   0  0  0  0  0  0  0  0  0  0  0  0  # atno 8010 bound_to 7997
  140.4874  144.0520  150.6285 H   0  0  0  0  0  0  0  0  0  0  0  0  # atno 10167 bound_to 10162
  156.7357  130.9323  151.3107 H   0  0  0  0  0  0  0  0  0  0  0  0  # atno 10718 bound_to 10713
  154.2570  135.6315  153.5261 H   0  0  0  0  0  0  0  0  0  0  0  0  # atno 10763 bound_to 10752
  152.9902  135.5578  154.5745 H   0  0  0  0  0  0  0  0  0  0  0  0  # atno 10764 bound_to 10752
  154.5286  135.2887  155.1175 H   0  0  0  0  0  0  0  0  0  0  0  0  # atno 10765 bound_to 10752
  141.1643  133.6939  156.7483 H   0  0  0  0  0  0  0  0  0  0  0  0  # atno 11005 bound_to 11000
  144.7186  139.8110  143.7390 LP  0  0  0  0  0  0  0  0  0  0  0  0  # atno 17320 bound_to 7965
  146.1340  139.4382  143.0150 LP  0  0  0  0  0  0  0  0  0  0  0  0  # atno 17321 bound_to 7965
  140.3779  143.2818  152.0203 LP  0  0  0  0  0  0  0  0  0  0  0  0  # atno 17342 bound_to 10162
  139.4844  144.6178  151.7313 LP  0  0  0  0  0  0  0  0  0  0  0  0  # atno 17343 bound_to 10162
  157.6840  130.9167  150.0338 LP  0  0  0  0  0  0  0  0  0  0  0  0  # atno 17370 bound_to 10713
  156.1498  130.3642  149.9455 LP  0  0  0  0  0  0  0  0  0  0  0  0  # atno 17371 bound_to 10713
  140.2623  134.8457  157.3770 LP  0  0  0  0  0  0  0  0  0  0  0  0  # atno 17394 bound_to 11000
  140.1599  134.4741  155.7901 LP  0  0  0  0  0  0  0  0  0  0  0  0  # atno 17395 bound_to 11000

$$$$
