#       Name:                AV-unprocessed.smi:2001
#       Creating user name   scv26
#       Creation time:       Fri Mar 27 10:33:57 2020


#       File generated by GOLD software.
#

@<TRIPOS>MOLECULE
AV-unprocessed.smi:2001
    60    61     1
SMALL
NO_CHARGES


@<TRIPOS>ATOM
      1 ****        -6.7373   4.1657   3.0028 C.3            1 S1                 0.0000
      2 ****        -6.4198   3.6760   1.7125 O.3            1 S1                 0.0000
      3 ****        -5.2942   4.3249   1.1441 C.3            1 S1                 0.0000
      4 ****        -5.0045   3.7451  -0.2499 C.3            1 S1                 0.0000
      5 ****        -4.4693   2.3808  -0.1743 N.am           1 S1                 0.0000
      6 ****        -3.0906   2.3256  -0.0541 N.2            1 S1                 0.0000
      7 ****        -2.4836   1.1854   0.0242 C.2            1 S1                 0.0000
      8 ****        -0.9905   1.1245   0.1364 C.2            1 S1                 0.0000
      9 ****        -0.4217   2.2226   0.2082 O.2            1 S1                 0.0000
     10 ****        -0.3745  -0.0961   0.1472 N.pl3          1 S1                -1.0000
     11 ****         1.0696  -0.3142   0.1969 C.3            1 S1                 0.0000
     12 ****         1.4018  -1.6890  -0.4142 C.3            1 S1                 0.0000
     13 ****         2.8622  -1.9708  -0.4048 N.4            1 S1                 1.0000
     14 ****         3.1717  -3.3882  -0.0973 C.3            1 S1                 0.0000
     15 ****         4.6931  -3.6245  -0.0216 C.3            1 S1                 0.0000
     16 ****         5.3407  -3.0575   1.2541 C.3            1 S1                 0.0000
     17 ****         5.3289  -3.1474  -1.2072 O.3            1 S1                 0.0000
     18 ****         5.0786  -1.7775  -1.5106 C.3            1 S1                 0.0000
     19 ****         5.8286  -1.4379  -2.8034 C.3            1 S1                 0.0000
     20 ****         3.5625  -1.5537  -1.6471 C.3            1 S1                 0.0000
     21 ****        -3.2444  -0.0581  -0.0037 C.2            1 S1                 0.0000
     22 ****        -4.5882   0.0120  -0.1206 C.2            1 S1                 0.0000
     23 ****        -5.2924   1.2905  -0.2183 C.2            1 S1                 0.0000
     24 ****        -6.5152   1.3761  -0.3299 O.2            1 S1                 0.0000
     25 ****        -7.5991   3.6270   3.3960 H              1 S1                 0.0000
     26 ****        -6.9884   5.2265   2.9711 H              1 S1                 0.0000
     27 ****        -5.9066   4.0221   3.6945 H              1 S1                 0.0000
     28 ****        -5.5019   5.3921   1.0550 H              1 S1                 0.0000
     29 ****        -4.4219   4.2178   1.7910 H              1 S1                 0.0000
     30 ****        -5.8998   3.7915  -0.8723 H              1 S1                 0.0000
     31 ****        -4.2755   4.3828  -0.7527 H              1 S1                 0.0000
     32 ****         1.6199   0.4536  -0.3485 H              1 S1                 0.0000
     33 ****         1.4458  -0.2796   1.2199 H              1 S1                 0.0000
     34 ****         0.8784  -2.4494   0.1681 H              1 S1                 0.0000
     35 ****         1.0132  -1.7696  -1.4311 H              1 S1                 0.0000
     36 ****         2.7052  -3.6798   0.8448 H              1 S1                 0.0000
     37 ****         2.7386  -4.0206  -0.8741 H              1 S1                 0.0000
     38 ****         4.8596  -4.7021  -0.0053 H              1 S1                 0.0000
     39 ****         4.9314  -3.5402   2.1417 H              1 S1                 0.0000
     40 ****         5.1734  -1.9863   1.3631 H              1 S1                 0.0000
     41 ****         6.4173  -3.2304   1.2526 H              1 S1                 0.0000
     42 ****         5.4731  -1.1442  -0.7157 H              1 S1                 0.0000
     43 ****         5.6805  -0.3940  -3.0811 H              1 S1                 0.0000
     44 ****         5.4864  -2.0569  -3.6333 H              1 S1                 0.0000
     45 ****         6.9002  -1.6012  -2.6862 H              1 S1                 0.0000
     46 ****         3.1714  -2.1209  -2.4933 H              1 S1                 0.0000
     47 ****         3.3679  -0.5009  -1.8546 H              1 S1                 0.0000
     48 ****        -2.7631  -1.0220   0.0685 H              1 S1                 0.0000
     49 ****        -5.1617  -0.9028  -0.1413 H              1 S1                 0.0000
     50 ****         3.2460  -1.4256   0.3541 H              1 S1                 0.0000
     51 ****        -7.2077   3.8180   1.1133 LP             1 S1                 0.0000
     52 ****        -6.2249   2.6975   1.7804 LP             1 S1                 0.0000
     53 ****        -2.5604   3.1730  -0.0276 LP             1 S1                 0.0000
     54 ****        -0.9587   3.0660   0.1891 LP             1 S1                 0.0000
     55 ****         0.5744   2.2656   0.2852 LP             1 S1                 0.0000
     56 ****        -0.9603  -0.9061   0.1187 LP             1 S1                 0.0000
     57 ****         5.0075  -3.7000  -1.9763 LP             1 S1                 0.0000
     58 ****         6.3159  -3.2669  -1.1003 LP             1 S1                 0.0000
     59 ****        -6.9499   2.2745  -0.3931 LP             1 S1                 0.0000
     60 ****        -7.0740   0.5472  -0.3574 LP             1 S1                 0.0000
@<TRIPOS>BOND
    1    1    2 1     
    2    1   25 1     
    3    1   26 1     
    4    1   27 1     
    5    2    3 1     
    6    3    4 1     
    7    3   28 1     
    8    3   29 1     
    9    4    5 1     
   10    4   30 1     
   11    4   31 1     
   12    5   23 am    
   13    5    6 1     
   14    6    7 2     
   15    7    8 1     
   16    7   21 1     
   17    8    9 2     
   18    8   10 1     
   19   10   11 1     
   20   11   12 1     
   21   11   32 1     
   22   11   33 1     
   23   12   13 1     
   24   12   34 1     
   25   12   35 1     
   26   13   20 1     
   27   13   14 1     
   28   13   50 1     
   29   14   15 1     
   30   14   36 1     
   31   14   37 1     
   32   15   16 1     
   33   15   17 1     
   34   15   38 1     
   35   16   39 1     
   36   16   40 1     
   37   16   41 1     
   38   17   18 1     
   39   18   19 1     
   40   18   20 1     
   41   18   42 1     
   42   19   43 1     
   43   19   44 1     
   44   19   45 1     
   45   20   46 1     
   46   20   47 1     
   47   21   22 2     
   48   21   48 1     
   49   22   23 1     
   50   22   49 1     
   51   23   24 2     
   52    2   51 1     
   53    2   52 1     
   54    6   53 1     
   55    9   54 1     
   56    9   55 1     
   57   10   56 1     
   58   17   57 1     
   59   17   58 1     
   60   24   59 1     
   61   24   60 1     
@<TRIPOS>SUBSTRUCTURE
      1 S1             1
@<TRIPOS>SET
LONE_PAIRS      STATIC     ATOMS    <user>   **** ""
10 51 52 53 54 55 56 57 58 59 60
DONOR_HYDROGENS      STATIC     ATOMS    <user>   **** ""
1 50
ATOM$BLUE        STATIC     ATOMS    COLORGROUP SYSTEM
10 51 52 53 54 55 56 57 58 59 60
ATOM$RED        STATIC     ATOMS    COLORGROUP SYSTEM
1 50
