AV-unprocessed.smi:2217|AV-procd|sdf|8973|dock4
  -GOLD-   2272012183D 1   1.00000     0.00000
 Structure written by MMmdl.
 45 48  0  0  0  0  0  0  0  0  1 V2000
  150.0788  129.5914  154.5720 C   0  0  0  0  0  0  0  0  0  0  0  0
  149.8303  131.0844  154.5245 C   0  0  0  0  0  0  0  0  0  0  0  0
  150.4122  131.9493  155.4703 C   0  0  0  0  0  0  0  0  0  0  0  0
  150.1465  133.3296  155.3823 C   0  0  0  0  0  0  0  0  0  0  0  0
  149.3042  133.8160  154.3570 C   0  0  0  0  0  0  0  0  0  0  0  0
  149.1130  135.2302  154.3686 N   0  0  0  0  0  0  0  0  0  0  0  0
  149.1053  136.1218  155.3830 C   0  0  0  0  0  0  0  0  0  0  0  0
  149.2822  135.7641  156.5463 O   0  0  0  0  0  0  0  0  0  0  0  0
  148.8926  137.4003  155.0389 N   0  0  0  0  0  0  0  0  0  0  0  0
  148.8665  138.5479  155.9442 C   0  0  1  0  0  0  0  0  0  0  0  0
  150.2827  139.0445  156.3176 C   0  0  1  0  0  0  0  0  0  0  0  0
  151.5310  138.2445  156.0323 C   0  0  0  0  0  0  0  0  0  0  0  0
  152.0277  138.8457  154.7137 C   0  0  0  0  0  0  0  0  0  0  0  0
  150.8852  139.4847  154.1482 O   0  0  0  0  0  0  0  0  0  0  0  0
  150.1472  140.0806  155.2126 C   0  0  1  0  0  0  0  0  0  0  0  0
  148.6181  139.8748  155.1884 C   0  0  0  0  0  0  0  0  0  0  0  0
  147.8100  140.9438  155.9225 C   0  0  0  0  0  0  0  0  0  0  0  0
  147.4062  142.0011  154.8892 C   0  0  0  0  0  0  0  0  0  0  0  0
  147.5418  141.3213  153.5233 C   0  0  0  0  0  0  0  0  0  0  0  0
  147.9236  139.8714  153.8263 C   0  0  0  0  0  0  0  0  0  0  0  0
  148.7512  132.9704  153.4499 N   0  0  0  0  0  0  0  0  0  0  0  0
  149.0053  131.6480  153.5330 C   0  0  0  0  0  0  0  0  0  0  0  0
  150.9938  129.3636  155.1196 H   0  0  0  0  0  0  0  0  0  0  0  0
  150.1775  129.1863  153.5645 H   0  0  0  0  0  0  0  0  0  0  0  0
  149.2478  129.0873  155.0657 H   0  0  0  0  0  0  0  0  0  0  0  0
  151.0516  131.5653  156.2515 H   0  0  0  0  0  0  0  0  0  0  0  0
  150.5869  134.0059  156.1006 H   0  0  0  0  0  0  0  0  0  0  0  0
  148.9303  135.6322  153.4607 H   0  0  0  0  0  0  0  0  0  0  0  0
  148.7561  137.6004  154.0577 H   0  0  0  0  0  0  0  0  0  0  0  0
  148.2191  138.4253  156.8142 H   0  0  0  0  0  0  0  0  0  0  0  0
  150.2787  139.5178  157.3007 H   0  0  0  0  0  0  0  0  0  0  0  0
  152.2788  138.3533  156.8183 H   0  0  0  0  0  0  0  0  0  0  0  0
  151.3229  137.1796  155.9283 H   0  0  0  0  0  0  0  0  0  0  0  0
  152.7956  139.5974  154.9021 H   0  0  0  0  0  0  0  0  0  0  0  0
  152.4411  138.0961  154.0386 H   0  0  0  0  0  0  0  0  0  0  0  0
  150.4989  141.0764  155.4863 H   0  0  0  0  0  0  0  0  0  0  0  0
  146.9107  140.4986  156.3505 H   0  0  0  0  0  0  0  0  0  0  0  0
  148.3614  141.3898  156.7510 H   0  0  0  0  0  0  0  0  0  0  0  0
  146.3912  142.3577  155.0668 H   0  0  0  0  0  0  0  0  0  0  0  0
  148.0714  142.8636  154.9432 H   0  0  0  0  0  0  0  0  0  0  0  0
  146.6263  141.3856  152.9346 H   0  0  0  0  0  0  0  0  0  0  0  0
  148.3361  141.8018  152.9508 H   0  0  0  0  0  0  0  0  0  0  0  0
  148.5430  139.4503  153.0338 H   0  0  0  0  0  0  0  0  0  0  0  0
  147.0189  139.2636  153.8736 H   0  0  0  0  0  0  0  0  0  0  0  0
  148.5360  131.0253  152.7855 H   0  0  0  0  0  0  0  0  0  0  0  0
  1  2  1  0  0  0  0
  1 23  1  0  0  0  0
  1 24  1  0  0  0  0
  1 25  1  0  0  0  0
  2 22  1  0  0  0  0
  2  3  2  0  0  0  0
  3  4  1  0  0  0  0
  3 26  1  0  0  0  0
  4  5  2  0  0  0  0
  4 27  1  0  0  0  0
  5  6  1  0  0  0  0
  5 21  1  0  0  0  0
  6  7  1  0  0  0  0
  6 28  1  0  0  0  0
  7  8  2  0  0  0  0
  7  9  1  0  0  0  0
  9 10  1  0  0  0  0
  9 29  1  0  0  0  0
 10 16  1  0  0  0  0
 10 11  1  0  0  0  0
 10 30  1  0  0  0  0
 11 15  1  0  0  0  0
 11 12  1  0  0  0  0
 11 31  1  0  0  0  0
 12 13  1  0  0  0  0
 12 32  1  0  0  0  0
 12 33  1  0  0  0  0
 13 14  1  0  0  0  0
 13 34  1  0  0  0  0
 13 35  1  0  0  0  0
 14 15  1  0  0  0  0
 15 16  1  0  0  0  0
 15 36  1  0  0  0  0
 16 20  1  0  0  0  0
 16 17  1  0  0  0  0
 17 18  1  0  0  0  0
 17 37  1  0  0  0  0
 17 38  1  0  0  0  0
 18 19  1  0  0  0  0
 18 39  1  0  0  0  0
 18 40  1  0  0  0  0
 19 20  1  0  0  0  0
 19 41  1  0  0  0  0
 19 42  1  0  0  0  0
 20 43  1  0  0  0  0
 20 44  1  0  0  0  0
 21 22  2  0  0  0  0
 22 45  1  0  0  0  0
M  END
> <s_m_source_file>
AV-unprocessed.smi

> <i_m_source_file_index>
2217

> <i_lp_mmshare_version>
43012

> <i_f3d_flags>
0

> <s_epik_input>
W0NIM11jMVtjSF1bY0hdYyhuW2NIXTEpW05IXUMoPU8pW05IXVtDQEBIXTJbQ0BASF0oW0NIMl1bQ0gyXU8zKVtDQEhdM0MyNFtDSDJdW0NIMl1bQ0gyXVtDSDJdNA==

> <s_epik_cmdline>
J2VwaWtfcHl0aG9uJywgJy1waCcsICc3LjAnLCAnLXRuJywgJzgnLCAnLW1hJywgJzIwMCcsICctbWV0YWxfYmluZGluZycsICctaW1hZScsICc8aW5maWxlLm1hZT4nLCAnLW9tYWUnLCAnPG91dGZpbGUubWFlPic=

> <r_lp_tautomer_probability>
1

> <r_epik_Ionization_Penalty>
6.14796e-05

> <r_epik_Ionization_Penalty_Charging>
0

> <r_epik_Ionization_Penalty_Neutral>
6.14796e-05

> <r_epik_State_Penalty>
-0

> <r_epik_Charging_Adjusted_Penalty>
0

> <i_epik_Tot_Q>
0

> <i_epik_Tot_abs_Q>
0

> <r_epik_Metal_State_Penalty>
-0

> <b_epik_Metal_Only>
0

> <s_lp_Force_Field>
OPLS_2005

> <r_lp_Energy>
58.8424

> <b_lp_Chiralities_Consistent>
1

> <s_lp_Variant>
AV-unprocessed.smi:2217-6

> <Gold.Version>
5.8.1

> <Gold.Id.Protein>
6NUR|6NUR_protein|mol2

> <Gold.PLP.Fitness>
39.8315

> <Gold.PLP.PLP>
-31.2866

> <Gold.PLP.part.hbond>
-2.0000

> <Gold.PLP.part.metal>
0.0000

> <Gold.PLP.part.buried>
-2.4235

> <Gold.PLP.part.nonpolar>
-26.4200

> <Gold.PLP.part.repulsive>
0.3752

> <Gold.PLP.ligand.clash>
0.0000

> <Gold.PLP.ligand.torsion>
0.3302

> <Gold.PLP.Chemscore.Hbond>
2.0000

> <Gold.PLP.Chemscore.CHOScore>
1.0000

> <Gold.PLP.Chemscore.Metal>
0.0000

> <Gold.Chemscore.Hbonds>
donor molecule, donor type, donor heavy atom, donor atom, acceptor molecule, acceptor atom, score
      L1  H     6    28       P1  7948  1.00
      P1  H  7989  7998       L1    14  0.95
      L1  C    22    45       P1 10747  0.99

> <Gold.PLP.Chemscore.Internal.Correction>
0.2053

> <Gold.Rescore>
     Score         DG    S(hbond)    S(metal)    S(lipo)     H(rot)  DE(clash)    DE(int)     intcor
     14.04     -15.74       1.27        0.00      73.35       1.00       0.03       1.66       ----

> <Gold.Chemscore.Fitness>
14.0422

> <Gold.Chemscore.DG>
-15.7387

> <Gold.Chemscore.ZeroCoef>
-5.4800

> <Gold.Chemscore.Hbond>
1.2686

> <Gold.Chemscore.Metal>
0.0000

> <Gold.Chemscore.Lipo>
73.3473

> <Gold.Chemscore.Internal_Hbond>
0.0000

> <Gold.Chemscore.DEClash>
0.0329

> <Gold.Chemscore.DEInternal>
1.6636

> <Gold.Chemscore.Rot>
1.0000

> <Gold.Chemscore.Internal.Correction>
   9.000000E+99

> <Gold.Chemscore.Hbonds>
donor molecule, donor type, donor heavy atom, donor atom, acceptor molecule, acceptor atom, score
      L1  H     6    28       P1  7948  0.85
      P1  H  7989  7998       L1    14  0.06

> <Gold.Chemscore.Hbond.Weighted>
-4.2370

> <Gold.Chemscore.Metal.Weighted>
-0.0000

> <Gold.Chemscore.Lipo.Weighted>
-8.5816

> <Gold.Chemscore.Internal_Hbond.Weighted>
0.0000

> <Gold.Chemscore.DEClash.Weighted>
0.0329

> <Gold.Chemscore.DEInternal.Weighted>
1.6636

> <Gold.Chemscore.Rot.Weighted>
2.5600

> <Gold.Chemscore.Internal.Correction.Weighted>
   9.000000E+99

> <Gold.Protein.RotatedTorsions>
[ 6907 6896 6895 6894 ] final  -26.50 input  -60.11 | X-H torsion
[ 7974 7965 7964 7962 ] final  -74.56 input  175.53 | X-H torsion
[ 8008 7997 7996 7995 ] final   79.34 input   59.86 | X-H torsion
[ 10167 10162 10161 10158 ] final  -84.99 input  -65.29 | X-H torsion
[ 10718 10713 10712 10709 ] final  100.12 input   66.30 | X-H torsion
[ 10763 10752 10751 10750 ] final  -86.62 input  -60.55 | X-H torsion
[ 11005 11000 10999 10996 ] final   31.19 input  -57.11 | X-H torsion

> <Gold.Protein.ActiveResidues>
 VAL166  LYS551  ARG553  GLY616  TRP617  ASP618  TYR619  PRO620  LYS621  CYS622 
 ASP623  PHE694  ASN695  SER759  ASP760  ASP761  ALA762  ILE779  LEU786  VAL792 
 PHE793  MET794  SER795  GLU796  ALA797  LYS798  CYS799  TRP800  GLU811  SER814 

> <Gold.Protein.RotatedAtoms>
  151.1601  135.0269  159.8706 H   0  0  0  0  0  0  0  0  0  0  0  0  # atno 6907 bound_to 6896
  152.5451  134.1289  159.8440 H   0  0  0  0  0  0  0  0  0  0  0  0  # atno 6908 bound_to 6896
  151.1383  133.4943  159.2630 H   0  0  0  0  0  0  0  0  0  0  0  0  # atno 6909 bound_to 6896
  145.6375  140.9320  143.1054 H   0  0  0  0  0  0  0  0  0  0  0  0  # atno 7974 bound_to 7965
  155.8683  140.3450  155.5803 H   0  0  0  0  0  0  0  0  0  0  0  0  # atno 8008 bound_to 7997
  155.7856  140.0864  157.2055 H   0  0  0  0  0  0  0  0  0  0  0  0  # atno 8009 bound_to 7997
  154.4016  140.1492  156.3091 H   0  0  0  0  0  0  0  0  0  0  0  0  # atno 8010 bound_to 7997
  140.4080  143.2634  151.9055 H   0  0  0  0  0  0  0  0  0  0  0  0  # atno 10167 bound_to 10162
  157.6861  131.0689  150.5052 H   0  0  0  0  0  0  0  0  0  0  0  0  # atno 10718 bound_to 10713
  154.6245  135.5442  153.7612 H   0  0  0  0  0  0  0  0  0  0  0  0  # atno 10763 bound_to 10752
  153.0254  135.6421  154.1392 H   0  0  0  0  0  0  0  0  0  0  0  0  # atno 10764 bound_to 10752
  154.1325  135.2913  155.3161 H   0  0  0  0  0  0  0  0  0  0  0  0  # atno 10765 bound_to 10752
  140.2865  134.2913  155.7787 H   0  0  0  0  0  0  0  0  0  0  0  0  # atno 11005 bound_to 11000
  144.7170  139.8162  143.7395 LP  0  0  0  0  0  0  0  0  0  0  0  0  # atno 17320 bound_to 7965
  146.1308  139.4342  143.0170 LP  0  0  0  0  0  0  0  0  0  0  0  0  # atno 17321 bound_to 7965
  139.4783  144.5566  151.8304 LP  0  0  0  0  0  0  0  0  0  0  0  0  # atno 17342 bound_to 10162
  140.4668  144.1643  150.5913 LP  0  0  0  0  0  0  0  0  0  0  0  0  # atno 17343 bound_to 10162
  156.5372  130.4199  149.6172 LP  0  0  0  0  0  0  0  0  0  0  0  0  # atno 17370 bound_to 10713
  156.3017  130.7180  151.2053 LP  0  0  0  0  0  0  0  0  0  0  0  0  # atno 17371 bound_to 10713
  141.2154  133.7558  156.9560 LP  0  0  0  0  0  0  0  0  0  0  0  0  # atno 17394 bound_to 11000
  140.1234  134.9402  157.2236 LP  0  0  0  0  0  0  0  0  0  0  0  0  # atno 17395 bound_to 11000

$$$$
