#       Name:                AV-unprocessed.smi:2768
#       Creating user name   scv26
#       Creation time:       Fri Mar 27 15:10:12 2020


#       File generated by GOLD software.
#

@<TRIPOS>MOLECULE
AV-unprocessed.smi:2768
    40    41     1
SMALL
NO_CHARGES


@<TRIPOS>ATOM
      1 ****         0.3685   2.3760  -0.9630 O.2            1 S1                 0.0000
      2 ****         0.8695   1.2502  -0.8596 C.2            1 S1                 0.0000
      3 ****         0.2633   0.0314  -0.7686 N.pl3          1 S1                -1.0000
      4 ****        -1.1861  -0.1770  -0.7875 C.3            1 S1                 0.0000
      5 ****        -1.6064  -0.9706   0.4749 C.3            1 S1                 0.0000
      6 ****        -3.1021  -1.3748   0.4814 C.3            1 S1                 0.0000
      7 ****        -3.5021  -2.1796  -0.7721 C.3            1 S1                 0.0000
      8 ****        -3.1061  -1.3915  -2.0377 C.3            1 S1                 0.0000
      9 ****        -1.6080  -0.9846  -2.0479 C.3            1 S1                 0.0000
     10 ****        -1.3701  -0.2186  -3.2131 O.3            1 S1                 0.0000
     11 ****         2.4088   1.1416  -0.8051 C.3            1 S1                 0.0000
     12 ****         2.8218   0.0356  -1.4345 F              1 S1                 0.0000
     13 ****         2.9308   2.1844  -1.4560 F              1 S1                 0.0000
     14 ****         2.8981   1.1596   0.6418 C.ar           1 S1                 0.0000
     15 ****         3.1098   2.3843   1.3158 C.ar           1 S1                 0.0000
     16 ****         3.5508   2.3537   2.6525 C.ar           1 S1                 0.0000
     17 ****         3.7644   1.1062   3.2684 C.ar           1 S1                 0.0000
     18 ****         3.5244  -0.0603   2.5160 C.ar           1 S1                 0.0000
     19 ****         3.1028  -0.0418   1.2340 N.ar           1 S1                 0.0000
     20 ****        -1.7431   0.7620  -0.7861 H              1 S1                 0.0000
     21 ****        -1.0057  -1.8921  -2.1173 H              1 S1                 0.0000
     22 ****        -1.0016  -1.8755   0.5549 H              1 S1                 0.0000
     23 ****        -1.3888  -0.3819   1.3670 H              1 S1                 0.0000
     24 ****        -3.3130  -1.9664   1.3728 H              1 S1                 0.0000
     25 ****        -3.7314  -0.4859   0.5591 H              1 S1                 0.0000
     26 ****        -2.9954  -3.1455  -0.7666 H              1 S1                 0.0000
     27 ****        -4.5732  -2.3831  -0.7693 H              1 S1                 0.0000
     28 ****        -3.3256  -1.9966  -2.9181 H              1 S1                 0.0000
     29 ****        -3.7407  -0.5063  -2.1197 H              1 S1                 0.0000
     30 ****        -1.7425   0.6394  -3.0799 H              1 S1                 0.0000
     31 ****         2.9301   3.3274   0.8211 H              1 S1                 0.0000
     32 ****         3.7201   3.2715   3.1958 H              1 S1                 0.0000
     33 ****         4.1015   1.0443   4.2923 H              1 S1                 0.0000
     34 ****         3.6773  -1.0350   2.9553 H              1 S1                 0.0000
     35 ****        -0.6257   2.4803  -0.9899 LP             1 S1                 0.0000
     36 ****         0.9575   3.1821  -1.0198 LP             1 S1                 0.0000
     37 ****         0.8487  -0.7748  -0.6832 LP             1 S1                 0.0000
     38 ****        -1.8017  -0.6571  -4.0014 LP             1 S1                 0.0000
     39 ****        -0.3860  -0.1403  -3.3726 LP             1 S1                 0.0000
     40 ****         2.9455  -0.8933   0.7338 LP             1 S1                 0.0000
@<TRIPOS>BOND
    1    1    2 2     
    2    2    3 1     
    3    2   11 1     
    4    3    4 1     
    5    4   20 1     
    6    4    9 1     
    7    4    5 1     
    8    5    6 1     
    9    5   22 1     
   10    5   23 1     
   11    6    7 1     
   12    6   24 1     
   13    6   25 1     
   14    7    8 1     
   15    7   26 1     
   16    7   27 1     
   17    8    9 1     
   18    8   28 1     
   19    8   29 1     
   20    9   21 1     
   21    9   10 1     
   22   10   30 1     
   23   11   12 1     
   24   11   13 1     
   25   11   14 1     
   26   14   19 ar    
   27   14   15 ar    
   28   15   16 ar    
   29   15   31 1     
   30   16   17 ar    
   31   16   32 1     
   32   17   18 ar    
   33   17   33 1     
   34   18   19 ar    
   35   18   34 1     
   36    1   35 1     
   37    1   36 1     
   38    3   37 1     
   39   10   38 1     
   40   10   39 1     
   41   19   40 1     
@<TRIPOS>SUBSTRUCTURE
      1 S1             1
@<TRIPOS>SET
LONE_PAIRS      STATIC     ATOMS    <user>   **** ""
6 35 36 37 38 39 40
DONOR_HYDROGENS      STATIC     ATOMS    <user>   **** ""
1 30
ATOM$BLUE        STATIC     ATOMS    COLORGROUP SYSTEM
6 35 36 37 38 39 40
ATOM$RED        STATIC     ATOMS    COLORGROUP SYSTEM
1 30
