AV-unprocessed.smi:549|AV-procd|sdf|2893|dock10
  -GOLD-   2262023393D 1   1.00000     0.00000
 Structure written by MMmdl.
 44 45  0  0  0  0  0  0  0  0  2 V2000
  145.8824  131.8406  150.3973 C   0  0  0  0  0  0  0  0  0  0  0  0
  146.4503  133.1350  150.7338 N   0  0  0  0  0  0  0  0  0  0  0  0
  145.6262  134.1843  151.1605 C   0  0  0  0  0  0  0  0  0  0  0  0
  144.2220  134.0881  151.3035 C   0  0  0  0  0  0  0  0  0  0  0  0
  143.4928  135.2120  151.7437 C   0  0  0  0  0  0  0  0  0  0  0  0
  144.1658  136.4195  152.0285 C   0  0  0  0  0  0  0  0  0  0  0  0
  143.3874  137.5192  152.4827 N   0  0  0  0  0  0  0  0  0  0  0  0
  142.1601  137.5096  153.0316 C   0  0  0  0  0  0  0  0  0  0  0  0
  141.4965  136.5019  153.2738 O   0  0  0  0  0  0  0  0  0  0  0  0
  141.7414  138.7529  153.3078 N   0  0  0  0  0  0  0  0  0  0  0  0
  140.4551  139.0908  153.9109 C   0  0  0  0  0  0  0  0  0  0  0  0
  139.5763  139.8274  152.8895 C   0  0  0  0  0  0  0  0  0  0  0  0
  138.2312  140.2486  153.5073 C   0  0  0  0  0  0  0  0  0  0  0  0
  138.4206  141.0366  154.7418 N   0  0  0  0  0  0  0  0  0  0  0  0
  138.2574  142.7689  154.7014 S   0  0  0  0  0  0  0  0  0  0  0  0
  136.8751  143.0623  153.5237 C   0  0  0  0  0  0  0  0  0  0  0  0
  137.8243  143.2111  156.0358 O   0  0  0  0  0  0  0  0  0  0  0  0
  139.4866  143.3228  154.1132 O   0  0  0  0  0  0  0  0  0  0  0  0
  139.2916  140.4012  155.7511 C   0  0  0  0  0  0  0  0  0  0  0  0
  140.6447  139.9802  155.1515 C   0  0  0  0  0  0  0  0  0  0  0  0
  145.5735  136.4539  151.8758 C   0  0  0  0  0  0  0  0  0  0  0  0
  146.2344  135.3543  151.4533 N   0  3  0  0  0  0  0  0  0  0  0  0
  146.6749  131.1552  150.0968 H   0  0  0  0  0  0  0  0  0  0  0  0
  145.1778  131.9303  149.5701 H   0  0  0  0  0  0  0  0  0  0  0  0
  145.3668  131.4081  151.2553 H   0  0  0  0  0  0  0  0  0  0  0  0
  147.4450  133.2768  150.6321 H   0  0  0  0  0  0  0  0  0  0  0  0
  143.6952  133.1713  151.0848 H   0  0  0  0  0  0  0  0  0  0  0  0
  142.4205  135.1440  151.8572 H   0  0  0  0  0  0  0  0  0  0  0  0
  143.8326  138.4227  152.4135 H   0  0  0  0  0  0  0  0  0  0  0  0
  142.3522  139.5241  153.0810 H   0  0  0  0  0  0  0  0  0  0  0  0
  139.9447  138.1709  154.2036 H   0  0  0  0  0  0  0  0  0  0  0  0
  140.1012  140.7038  152.5107 H   0  0  0  0  0  0  0  0  0  0  0  0
  139.3927  139.1865  152.0263 H   0  0  0  0  0  0  0  0  0  0  0  0
  137.6410  140.8106  152.7841 H   0  0  0  0  0  0  0  0  0  0  0  0
  137.6492  139.3596  153.7535 H   0  0  0  0  0  0  0  0  0  0  0  0
  136.7067  144.1353  153.4347 H   0  0  0  0  0  0  0  0  0  0  0  0
  135.9658  142.5923  153.8938 H   0  0  0  0  0  0  0  0  0  0  0  0
  137.1309  142.6633  152.5439 H   0  0  0  0  0  0  0  0  0  0  0  0
  139.4433  141.0700  156.5979 H   0  0  0  0  0  0  0  0  0  0  0  0
  138.7789  139.5220  156.1429 H   0  0  0  0  0  0  0  0  0  0  0  0
  141.2228  139.4503  155.9093 H   0  0  0  0  0  0  0  0  0  0  0  0
  141.2269  140.8631  154.8896 H   0  0  0  0  0  0  0  0  0  0  0  0
  146.2039  137.3052  152.0831 H   0  0  0  0  0  0  0  0  0  0  0  0
  147.2481  135.4131  151.3534 H   0  0  0  0  0  0  0  0  0  0  0  0
  1  2  1  0  0  0  0
  1 23  1  0  0  0  0
  1 24  1  0  0  0  0
  1 25  1  0  0  0  0
  2  3  1  0  0  0  0
  2 26  1  0  0  0  0
  3 22  1  0  0  0  0
  3  4  2  0  0  0  0
  4  5  1  0  0  0  0
  4 27  1  0  0  0  0
  5  6  2  0  0  0  0
  5 28  1  0  0  0  0
  6  7  1  0  0  0  0
  6 21  1  0  0  0  0
  7  8  1  0  0  0  0
  7 29  1  0  0  0  0
  8  9  2  0  0  0  0
  8 10  1  0  0  0  0
 10 11  1  0  0  0  0
 10 30  1  0  0  0  0
 11 20  1  0  0  0  0
 11 12  1  0  0  0  0
 11 31  1  0  0  0  0
 12 13  1  0  0  0  0
 12 32  1  0  0  0  0
 12 33  1  0  0  0  0
 13 14  1  0  0  0  0
 13 34  1  0  0  0  0
 13 35  1  0  0  0  0
 14 15  1  0  0  0  0
 14 19  1  0  0  0  0
 15 16  1  0  0  0  0
 15 17  2  0  0  0  0
 15 18  2  0  0  0  0
 16 36  1  0  0  0  0
 16 37  1  0  0  0  0
 16 38  1  0  0  0  0
 19 20  1  0  0  0  0
 19 39  1  0  0  0  0
 19 40  1  0  0  0  0
 20 41  1  0  0  0  0
 20 42  1  0  0  0  0
 21 22  2  0  0  0  0
 21 43  1  0  0  0  0
 22 44  1  0  0  0  0
M  CHG  1  22   1
M  END
> <s_m_source_file>
AV-unprocessed.smi

> <i_m_source_file_index>
549

> <i_lp_mmshare_version>
43012

> <i_f3d_flags>
0

> <s_epik_input>
W0NIM11bTkhdYzFbY0hdW2NIXWMoW2NIXW4xKVtOSF1DKD1PKVtOSF1bQ0hdMltDSDJdW0NIMl1OKFMoPU8pKD1PKVtDSDNdKVtDSDJdW0NIMl0y

> <s_epik_cmdline>
J2VwaWtfcHl0aG9uJywgJy1waCcsICc3LjAnLCAnLXRuJywgJzgnLCAnLW1hJywgJzIwMCcsICctbWV0YWxfYmluZGluZycsICctaW1hZScsICc8aW5maWxlLm1hZT4nLCAnLW9tYWUnLCAnPG91dGZpbGUubWFlPic=

> <r_lp_tautomer_probability>
0.999994

> <r_epik_Ionization_Penalty>
0.450019

> <r_epik_Ionization_Penalty_Charging>
0.449999

> <r_epik_Ionization_Penalty_Neutral>
1.96337e-05

> <r_epik_State_Penalty>
0.452724

> <r_epik_Charging_Adjusted_Penalty>
0.902724

> <i_epik_Tot_Q>
1

> <i_epik_Tot_abs_Q>
1

> <r_epik_Metal_State_Penalty>
0.680753

> <b_epik_Metal_Only>
0

> <s_lp_Force_Field>
OPLS_2005

> <r_lp_Energy>
8.99887

> <b_lp_Chiralities_Consistent>
1

> <s_lp_Variant>
AV-unprocessed.smi:549-2

> <Gold.Version>
5.8.1

> <Gold.Id.Protein>
6NUR|6NUR_protein|mol2

> <Gold.PLP.Fitness>
43.2139

> <Gold.PLP.PLP>
-28.9608

> <Gold.PLP.part.hbond>
-5.1729

> <Gold.PLP.part.metal>
0.0000

> <Gold.PLP.part.buried>
-0.3496

> <Gold.PLP.part.nonpolar>
-23.9710

> <Gold.PLP.part.repulsive>
0.4596

> <Gold.PLP.ligand.clash>
0.0000

> <Gold.PLP.ligand.torsion>
1.3393

> <Gold.PLP.Chemscore.Hbond>
4.9600

> <Gold.PLP.Chemscore.CHOScore>
0.0000

> <Gold.PLP.Chemscore.Metal>
0.0000

> <Gold.Chemscore.Hbonds>
donor molecule, donor type, donor heavy atom, donor atom, acceptor molecule, acceptor atom, score
      L1  H     7    29       P1 10175  0.96
      L1  H    10    30       P1 10175  1.00
      L1  H    22    44       P1  7948  2.00
      P1  H 10162 10167       L1    18  1.00

> <Gold.PLP.Chemscore.Internal.Correction>
2.0517

> <Gold.Rescore>
     Score         DG    S(hbond)    S(metal)    S(lipo)     H(rot)  DE(clash)    DE(int)     intcor
     18.33     -22.80       3.86        0.00      59.86       1.00       1.81       2.66       ----

> <Gold.Chemscore.Fitness>
18.3312

> <Gold.Chemscore.DG>
-22.8024

> <Gold.Chemscore.ZeroCoef>
-5.4800

> <Gold.Chemscore.Hbond>
3.8560

> <Gold.Chemscore.Metal>
0.0000

> <Gold.Chemscore.Lipo>
59.8590

> <Gold.Chemscore.Internal_Hbond>
0.0000

> <Gold.Chemscore.DEClash>
1.8140

> <Gold.Chemscore.DEInternal>
2.6572

> <Gold.Chemscore.Rot>
1.0000

> <Gold.Chemscore.Internal.Correction>
   9.000000E+99

> <Gold.Chemscore.Hbonds>
donor molecule, donor type, donor heavy atom, donor atom, acceptor molecule, acceptor atom, score
      L1  H     7    29       P1 10175  0.87
      L1  H    10    30       P1 10175  0.97
      L1  H    22    44       P1  7948  0.87
      P1  H 10162 10167       L1    18  1.00

> <Gold.Chemscore.Hbond.Weighted>
-12.8789

> <Gold.Chemscore.Metal.Weighted>
-0.0000

> <Gold.Chemscore.Lipo.Weighted>
-7.0035

> <Gold.Chemscore.Internal_Hbond.Weighted>
0.0000

> <Gold.Chemscore.DEClash.Weighted>
1.8140

> <Gold.Chemscore.DEInternal.Weighted>
2.6572

> <Gold.Chemscore.Rot.Weighted>
2.5600

> <Gold.Chemscore.Internal.Correction.Weighted>
   9.000000E+99

> <Gold.Protein.RotatedTorsions>
[ 6907 6896 6895 6894 ] final   18.82 input  -60.11 | X-H torsion
[ 7974 7965 7964 7962 ] final   20.43 input  175.53 | X-H torsion
[ 8008 7997 7996 7995 ] final   72.95 input   59.86 | X-H torsion
[ 10167 10162 10161 10158 ] final -130.30 input  -65.29 | X-H torsion
[ 10718 10713 10712 10709 ] final  -59.68 input   66.30 | X-H torsion
[ 10763 10752 10751 10750 ] final -126.05 input  -60.55 | X-H torsion
[ 11005 11000 10999 10996 ] final   66.46 input  -57.11 | X-H torsion

> <Gold.Protein.ActiveResidues>
 VAL166  LYS551  ARG553  GLY616  TRP617  ASP618  TYR619  PRO620  LYS621  CYS622 
 ASP623  PHE694  ASN695  SER759  ASP760  ASP761  ALA762  ILE779  LEU786  VAL792 
 PHE793  MET794  SER795  GLU796  ALA797  LYS798  CYS799  TRP800  GLU811  SER814 

> <Gold.Protein.RotatedAtoms>
  151.8713  135.0488  160.0479 H   0  0  0  0  0  0  0  0  0  0  0  0  # atno 6907 bound_to 6896
  152.2586  133.5273  159.5376 H   0  0  0  0  0  0  0  0  0  0  0  0  # atno 6908 bound_to 6896
  150.7108  134.0778  159.3929 H   0  0  0  0  0  0  0  0  0  0  0  0  # atno 6909 bound_to 6896
  146.2111  139.8171  142.8688 H   0  0  0  0  0  0  0  0  0  0  0  0  # atno 7974 bound_to 7965
  155.7765  140.3483  155.5274 H   0  0  0  0  0  0  0  0  0  0  0  0  # atno 8008 bound_to 7997
  155.8771  140.0996  157.1531 H   0  0  0  0  0  0  0  0  0  0  0  0  # atno 8009 bound_to 7997
  154.4022  140.1329  156.4137 H   0  0  0  0  0  0  0  0  0  0  0  0  # atno 8010 bound_to 7997
  139.9308  143.6274  152.2530 H   0  0  0  0  0  0  0  0  0  0  0  0  # atno 10167 bound_to 10162
  156.1044  130.4182  150.0748 H   0  0  0  0  0  0  0  0  0  0  0  0  # atno 10718 bound_to 10713
  154.8742  135.4008  154.3368 H   0  0  0  0  0  0  0  0  0  0  0  0  # atno 10763 bound_to 10752
  153.4173  135.7022  153.6323 H   0  0  0  0  0  0  0  0  0  0  0  0  # atno 10764 bound_to 10752
  153.5000  135.3730  155.2505 H   0  0  0  0  0  0  0  0  0  0  0  0  # atno 10765 bound_to 10752
  139.9831  134.6712  156.0226 H   0  0  0  0  0  0  0  0  0  0  0  0  # atno 11005 bound_to 11000
  145.3135  141.0226  143.3541 LP  0  0  0  0  0  0  0  0  0  0  0  0  # atno 17320 bound_to 7965
  144.8918  139.4764  143.6674 LP  0  0  0  0  0  0  0  0  0  0  0  0  # atno 17321 bound_to 7965
  139.6784  144.7657  151.1654 LP  0  0  0  0  0  0  0  0  0  0  0  0  # atno 17342 bound_to 10162
  140.7638  143.5761  150.8944 LP  0  0  0  0  0  0  0  0  0  0  0  0  # atno 17343 bound_to 10162
  156.8727  130.9530  151.3607 LP  0  0  0  0  0  0  0  0  0  0  0  0  # atno 17370 bound_to 10713
  157.6219  130.8662  149.9124 LP  0  0  0  0  0  0  0  0  0  0  0  0  # atno 17371 bound_to 10713
  141.1500  133.6550  156.3984 LP  0  0  0  0  0  0  0  0  0  0  0  0  # atno 17394 bound_to 11000
  140.5057  134.6443  157.5265 LP  0  0  0  0  0  0  0  0  0  0  0  0  # atno 17395 bound_to 11000

$$$$
