AV-unprocessed.smi:229|AV-procd|sdf|1761|dock9
  -GOLD-   2262020293D 1   1.00000     0.00000
 Structure written by MMmdl.
 58 62  0  0  0  0  0  0  0  0  1 V2000
  151.9062  145.1315  160.6834 C   0  0  0  0  0  0  0  0  0  0  0  0
  151.4742  144.7219  159.2699 C   0  0  0  0  0  0  0  0  0  0  0  0
  151.3655  143.1999  159.0951 C   0  0  2  0  0  0  0  0  0  0  0  0
  152.7170  142.4988  159.3168 C   0  0  0  0  0  0  0  0  0  0  0  0
  152.5863  141.0736  159.0366 N   0  0  0  0  0  0  0  0  0  0  0  0
  153.5771  140.2434  159.4460 C   0  0  0  0  0  0  0  0  0  0  0  0
  154.0805  139.3105  158.5940 N   0  0  0  0  0  0  0  0  0  0  0  0
  155.0505  138.4835  158.9960 C   0  0  0  0  0  0  0  0  0  0  0  0
  155.6551  138.4210  160.1840 N   0  0  0  0  0  0  0  0  0  0  0  0
  155.1607  139.3612  161.0390 C   0  0  0  0  0  0  0  0  0  0  0  0
  154.1306  140.3016  160.7559 C   0  0  0  0  0  0  0  0  0  0  0  0
  153.9027  141.1029  161.8691 N   0  0  0  0  0  0  0  0  0  0  0  0
  154.7463  140.6585  162.7604 C   0  0  0  0  0  0  0  0  0  0  0  0
  155.5448  139.6179  162.3427 N   0  0  0  0  0  0  0  0  0  0  0  0
  156.5687  138.9386  163.1178 C   0  0  0  0  0  0  0  0  0  0  0  0
  156.5046  137.4025  162.9698 C   0  0  1  0  0  0  0  0  0  0  0  0
  157.7444  136.8671  163.3929 O   0  0  0  0  0  0  0  0  0  0  0  0
  155.3952  136.7567  163.8242 C   0  0  1  0  0  0  0  0  0  0  0  0
  153.9869  137.2907  163.5588 C   0  0  0  0  0  0  0  0  0  0  0  0
  153.0885  136.1623  164.0337 C   0  0  0  0  0  0  0  0  0  0  0  0
  153.9982  134.9320  163.9937 C   0  0  0  0  0  0  0  0  0  0  0  0
  155.2340  135.3925  163.4623 O   0  0  0  0  0  0  0  0  0  0  0  0
  152.0727  140.7994  157.6997 C   0  0  0  0  0  0  0  0  0  0  0  0
  150.7407  141.5435  157.4594 C   0  0  2  0  0  0  0  0  0  0  0  0
  149.5577  140.9372  158.2225 C   0  0  0  0  0  0  0  0  0  0  0  0
  148.8071  140.1491  157.1588 C   0  0  0  0  0  0  0  0  0  0  0  0
  148.9459  140.9775  156.0199 O   0  0  0  0  0  0  0  0  0  0  0  0
  150.2946  141.4236  155.9892 C   0  0  0  0  0  0  0  0  0  0  0  0
  150.9110  142.9305  157.7675 O   0  0  0  0  0  0  0  0  0  0  0  0
  151.9918  146.2152  160.7641 H   0  0  0  0  0  0  0  0  0  0  0  0
  152.8746  144.7010  160.9398 H   0  0  0  0  0  0  0  0  0  0  0  0
  151.1836  144.7999  161.4298 H   0  0  0  0  0  0  0  0  0  0  0  0
  150.5183  145.1895  159.0307 H   0  0  0  0  0  0  0  0  0  0  0  0
  152.1967  145.1166  158.5548 H   0  0  0  0  0  0  0  0  0  0  0  0
  150.6444  142.8185  159.8193 H   0  0  0  0  0  0  0  0  0  0  0  0
  153.4785  142.9291  158.6646 H   0  0  0  0  0  0  0  0  0  0  0  0
  153.0448  142.6495  160.3466 H   0  0  0  0  0  0  0  0  0  0  0  0
  155.3905  137.7700  158.2600 H   0  0  0  0  0  0  0  0  0  0  0  0
  154.8146  141.0852  163.7509 H   0  0  0  0  0  0  0  0  0  0  0  0
  157.5463  139.3093  162.8061 H   0  0  0  0  0  0  0  0  0  0  0  0
  156.4425  139.2315  164.1604 H   0  0  0  0  0  0  0  0  0  0  0  0
  156.3518  137.1461  161.9206 H   0  0  0  0  0  0  0  0  0  0  0  0
  158.4377  137.3455  162.9650 H   0  0  0  0  0  0  0  0  0  0  0  0
  155.6226  136.8341  164.8895 H   0  0  0  0  0  0  0  0  0  0  0  0
  153.7857  138.2325  164.0702 H   0  0  0  0  0  0  0  0  0  0  0  0
  153.8408  137.4478  162.4891 H   0  0  0  0  0  0  0  0  0  0  0  0
  152.7424  136.3420  165.0523 H   0  0  0  0  0  0  0  0  0  0  0  0
  152.2123  136.0513  163.3939 H   0  0  0  0  0  0  0  0  0  0  0  0
  154.1587  134.5394  164.9987 H   0  0  0  0  0  0  0  0  0  0  0  0
  153.5895  134.1314  163.3768 H   0  0  0  0  0  0  0  0  0  0  0  0
  152.8170  141.1331  156.9752 H   0  0  0  0  0  0  0  0  0  0  0  0
  151.9347  139.7312  157.5338 H   0  0  0  0  0  0  0  0  0  0  0  0
  149.8524  140.3208  159.0725 H   0  0  0  0  0  0  0  0  0  0  0  0
  148.9049  141.7276  158.5956 H   0  0  0  0  0  0  0  0  0  0  0  0
  149.2796  139.1822  156.9771 H   0  0  0  0  0  0  0  0  0  0  0  0
  147.7605  139.9835  157.4142 H   0  0  0  0  0  0  0  0  0  0  0  0
  150.3773  142.3639  155.4433 H   0  0  0  0  0  0  0  0  0  0  0  0
  150.8890  140.6807  155.4550 H   0  0  0  0  0  0  0  0  0  0  0  0
  1  2  1  0  0  0  0
  1 30  1  0  0  0  0
  1 31  1  0  0  0  0
  1 32  1  0  0  0  0
  2  3  1  0  0  0  0
  2 33  1  0  0  0  0
  2 34  1  0  0  0  0
  3 29  1  0  0  0  0
  3  4  1  0  0  0  0
  3 35  1  0  0  0  0
  4  5  1  0  0  0  0
  4 36  1  0  0  0  0
  4 37  1  0  0  0  0
  5  6  1  0  0  0  0
  5 23  1  0  0  0  0
  6 11  1  0  0  0  0
  6  7  2  0  0  0  0
  7  8  1  0  0  0  0
  8  9  2  0  0  0  0
  8 38  1  0  0  0  0
  9 10  1  0  0  0  0
 10 14  1  0  0  0  0
 10 11  2  0  0  0  0
 11 12  1  0  0  0  0
 12 13  2  0  0  0  0
 13 14  1  0  0  0  0
 13 39  1  0  0  0  0
 14 15  1  0  0  0  0
 15 16  1  0  0  0  0
 15 40  1  0  0  0  0
 15 41  1  0  0  0  0
 16 17  1  0  0  0  0
 16 18  1  0  0  0  0
 16 42  1  0  0  0  0
 17 43  1  0  0  0  0
 18 22  1  0  0  0  0
 18 19  1  0  0  0  0
 18 44  1  0  0  0  0
 19 20  1  0  0  0  0
 19 45  1  0  0  0  0
 19 46  1  0  0  0  0
 20 21  1  0  0  0  0
 20 47  1  0  0  0  0
 20 48  1  0  0  0  0
 21 22  1  0  0  0  0
 21 49  1  0  0  0  0
 21 50  1  0  0  0  0
 23 24  1  0  0  0  0
 23 51  1  0  0  0  0
 23 52  1  0  0  0  0
 24 28  1  0  0  0  0
 24 25  1  0  0  0  0
 24 29  1  0  0  0  0
 25 26  1  0  0  0  0
 25 53  1  0  0  0  0
 25 54  1  0  0  0  0
 26 27  1  0  0  0  0
 26 55  1  0  0  0  0
 26 56  1  0  0  0  0
 27 28  1  0  0  0  0
 28 57  1  0  0  0  0
 28 58  1  0  0  0  0
M  END
> <s_m_source_file>
AV-unprocessed.smi

> <i_m_source_file_index>
229

> <i_lp_mmshare_version>
43012

> <i_f3d_flags>
0

> <s_epik_input>
W0NIMl0xT1tDSDJdW0NIMl1bQ0BdMTJbQ0gyXU4oW0NIMl1bQ0BIXShPMilbQ0gyXVtDSDNdKWMobltjSF1uMyljKGMzNCluW2NIXW40W0NIMl1bQ0BIXShbT0hdKVtDQEBIXTVbQ0gyXVtDSDJdW0NIMl1PNQ==

> <s_epik_cmdline>
J2VwaWtfcHl0aG9uJywgJy1waCcsICc3LjAnLCAnLXRuJywgJzgnLCAnLW1hJywgJzIwMCcsICctbWV0YWxfYmluZGluZycsICctaW1hZScsICc8aW5maWxlLm1hZT4nLCAnLW9tYWUnLCAnPG91dGZpbGUubWFlPic=

> <r_lp_tautomer_probability>
1

> <r_epik_Ionization_Penalty>
0.00318402

> <r_epik_Ionization_Penalty_Charging>
0

> <r_epik_Ionization_Penalty_Neutral>
0.00318402

> <r_epik_State_Penalty>
0.00215642

> <r_epik_Charging_Adjusted_Penalty>
0.00215642

> <i_epik_Tot_Q>
0

> <i_epik_Tot_abs_Q>
0

> <r_epik_Metal_State_Penalty>
-0

> <b_epik_Metal_Only>
0

> <s_lp_Force_Field>
OPLS_2005

> <r_lp_Energy>
54.7562

> <b_lp_Chiralities_Consistent>
1

> <s_lp_Variant>
AV-unprocessed.smi:229-15

> <Gold.Version>
5.8.1

> <Gold.Id.Protein>
6NUR|6NUR_protein|mol2

> <Gold.PLP.Fitness>
44.7808

> <Gold.PLP.PLP>
-42.5961

> <Gold.PLP.part.hbond>
-1.3533

> <Gold.PLP.part.metal>
0.0000

> <Gold.PLP.part.buried>
-3.0593

> <Gold.PLP.part.nonpolar>
-37.9336

> <Gold.PLP.part.repulsive>
0.2177

> <Gold.PLP.ligand.clash>
0.0000

> <Gold.PLP.ligand.torsion>
0.5949

> <Gold.PLP.Chemscore.Hbond>
1.0000

> <Gold.PLP.Chemscore.CHOScore>
0.0000

> <Gold.PLP.Chemscore.Metal>
0.0000

> <Gold.Chemscore.Hbonds>
donor molecule, donor type, donor heavy atom, donor atom, acceptor molecule, acceptor atom, score
      P1  H  7997  8009       L1     7  0.90

> <Gold.PLP.Chemscore.Internal.Correction>
0.3744

> <Gold.Rescore>
     Score         DG    S(hbond)    S(metal)    S(lipo)     H(rot)  DE(clash)    DE(int)     intcor
     11.24     -13.90       0.51        0.00     111.14       2.46       0.22       2.44       ----

> <Gold.Chemscore.Fitness>
11.2370

> <Gold.Chemscore.DG>
-13.8978

> <Gold.Chemscore.ZeroCoef>
-5.4800

> <Gold.Chemscore.Hbond>
0.5119

> <Gold.Chemscore.Metal>
0.0000

> <Gold.Chemscore.Lipo>
111.1415

> <Gold.Chemscore.Internal_Hbond>
0.0000

> <Gold.Chemscore.DEClash>
0.2239

> <Gold.Chemscore.DEInternal>
2.4369

> <Gold.Chemscore.Rot>
2.4591

> <Gold.Chemscore.Internal.Correction>
   9.000000E+99

> <Gold.Chemscore.Hbonds>
donor molecule, donor type, donor heavy atom, donor atom, acceptor molecule, acceptor atom, score
      P1  H  7997  8009       L1     7  0.15

> <Gold.Chemscore.Hbond.Weighted>
-1.7096

> <Gold.Chemscore.Metal.Weighted>
-0.0000

> <Gold.Chemscore.Lipo.Weighted>
-13.0036

> <Gold.Chemscore.Internal_Hbond.Weighted>
0.0000

> <Gold.Chemscore.DEClash.Weighted>
0.2239

> <Gold.Chemscore.DEInternal.Weighted>
2.4369

> <Gold.Chemscore.Rot.Weighted>
6.2953

> <Gold.Chemscore.Internal.Correction.Weighted>
   9.000000E+99

> <Gold.Protein.RotatedTorsions>
[ 6907 6896 6895 6894 ] final  113.46 input  -60.11 | X-H torsion
[ 7974 7965 7964 7962 ] final   -8.36 input  175.53 | X-H torsion
[ 8008 7997 7996 7995 ] final  132.75 input   59.86 | X-H torsion
[ 10167 10162 10161 10158 ] final   82.55 input  -65.29 | X-H torsion
[ 10718 10713 10712 10709 ] final  119.17 input   66.30 | X-H torsion
[ 10763 10752 10751 10750 ] final    3.84 input  -60.55 | X-H torsion
[ 11005 11000 10999 10996 ] final -120.82 input  -57.11 | X-H torsion

> <Gold.Protein.ActiveResidues>
 VAL166  LYS551  ARG553  GLY616  TRP617  ASP618  TYR619  PRO620  LYS621  CYS622 
 ASP623  PHE694  ASN695  SER759  ASP760  ASP761  ALA762  ILE779  LEU786  VAL792 
 PHE793  MET794  SER795  GLU796  ALA797  LYS798  CYS799  TRP800  GLU811  SER814 

> <Gold.Protein.RotatedAtoms>
  152.4859  133.8373  159.7133 H   0  0  0  0  0  0  0  0  0  0  0  0  # atno 6907 bound_to 6896
  150.8946  133.7188  159.2902 H   0  0  0  0  0  0  0  0  0  0  0  0  # atno 6908 bound_to 6896
  151.4650  135.1045  159.9787 H   0  0  0  0  0  0  0  0  0  0  0  0  # atno 6909 bound_to 6896
  146.2282  140.2457  142.8345 H   0  0  0  0  0  0  0  0  0  0  0  0  # atno 7974 bound_to 7965
  156.2986  140.2539  156.3140 H   0  0  0  0  0  0  0  0  0  0  0  0  # atno 8008 bound_to 7997
  154.9299  140.0398  157.2061 H   0  0  0  0  0  0  0  0  0  0  0  0  # atno 8009 bound_to 7997
  154.8228  140.2863  155.5779 H   0  0  0  0  0  0  0  0  0  0  0  0  # atno 8010 bound_to 7997
  139.9277  144.6172  150.8376 H   0  0  0  0  0  0  0  0  0  0  0  0  # atno 10167 bound_to 10162
  157.5980  131.1055  150.7858 H   0  0  0  0  0  0  0  0  0  0  0  0  # atno 10718 bound_to 10713
  153.2784  135.6938  153.7410 H   0  0  0  0  0  0  0  0  0  0  0  0  # atno 10763 bound_to 10752
  153.6406  135.3394  155.3071 H   0  0  0  0  0  0  0  0  0  0  0  0  # atno 10764 bound_to 10752
  154.8487  135.4431  154.1830 H   0  0  0  0  0  0  0  0  0  0  0  0  # atno 10765 bound_to 10752
  141.0115  134.0257  157.3407 H   0  0  0  0  0  0  0  0  0  0  0  0  # atno 11005 bound_to 11000
  144.9450  140.8119  143.5607 LP  0  0  0  0  0  0  0  0  0  0  0  0  # atno 17320 bound_to 7965
  145.2412  139.2071  143.4991 LP  0  0  0  0  0  0  0  0  0  0  0  0  # atno 17321 bound_to 7965
  140.7646  143.3252  151.2531 LP  0  0  0  0  0  0  0  0  0  0  0  0  # atno 17342 bound_to 10162
  139.6809  143.9857  152.2807 LP  0  0  0  0  0  0  0  0  0  0  0  0  # atno 17343 bound_to 10162
  156.8264  130.5001  149.5337 LP  0  0  0  0  0  0  0  0  0  0  0  0  # atno 17370 bound_to 10713
  156.1047  130.5995  150.9951 LP  0  0  0  0  0  0  0  0  0  0  0  0  # atno 17371 bound_to 10713
  139.9093  135.0187  156.7621 LP  0  0  0  0  0  0  0  0  0  0  0  0  # atno 17394 bound_to 11000
  140.6725  133.9547  155.7864 LP  0  0  0  0  0  0  0  0  0  0  0  0  # atno 17395 bound_to 11000

$$$$
