AV-unprocessed.smi:1029|AV-procd|sdf|4474|dock3
  -GOLD-   22720 2453D 1   1.00000     0.00000
 Structure written by MMmdl.
 46 47  0  0  0  0  0  0  0  0  2 V2000
  153.6667  141.7115  160.1378 C   0  0  0  0  0  0  0  0  0  0  0  0
  152.7419  141.3154  159.0249 C   0  0  0  0  0  0  0  0  0  0  0  0
  151.4949  141.8972  158.6638 C   0  0  0  0  0  0  0  0  0  0  0  0
  151.1059  141.1394  157.5914 C   0  0  0  0  0  0  0  0  0  0  0  0
  149.9816  141.2564  156.8377 N   0  0  0  0  0  0  0  0  0  0  0  0
  149.7934  140.9275  155.5475 C   0  0  0  0  0  0  0  0  0  0  0  0
  150.6484  140.4615  154.7943 O   0  0  0  0  0  0  0  0  0  0  0  0
  148.5345  141.1737  155.1611 N   0  0  0  0  0  0  0  0  0  0  0  0
  148.0228  140.9033  153.8236 C   0  0  0  0  0  0  0  0  0  0  0  0
  147.8311  139.3939  153.5964 C   0  0  2  0  0  0  0  0  0  0  0  0
  149.0633  138.8523  153.1608 O   0  0  0  0  0  0  0  0  0  0  0  0
  146.7809  139.1183  152.5008 C   0  0  0  0  0  0  0  0  0  0  0  0
  146.5605  137.6671  152.2693 N   0  3  2  0  0  0  0  0  0  0  0  0
  145.8635  137.4028  150.9842 C   0  0  0  0  0  0  0  0  0  0  0  0
  145.7673  135.8941  150.7010 C   0  0  0  0  0  0  0  0  0  0  0  0
  145.0655  135.1540  151.8515 C   0  0  1  0  0  0  0  0  0  0  0  0
  144.9855  133.6432  151.5922 C   0  0  0  0  0  0  0  0  0  0  0  0
  145.7907  135.4698  153.1701 C   0  0  0  0  0  0  0  0  0  0  0  0
  145.8840  136.9867  153.4060 C   0  0  0  0  0  0  0  0  0  0  0  0
  152.0222  140.1821  157.3083 O   0  0  0  0  0  0  0  0  0  0  0  0
  153.0651  140.3022  158.2343 N   0  0  0  0  0  0  0  0  0  0  0  0
  153.2832  142.5760  160.6800 H   0  0  0  0  0  0  0  0  0  0  0  0
  154.6537  141.9722  159.7547 H   0  0  0  0  0  0  0  0  0  0  0  0
  153.7896  140.8988  160.8543 H   0  0  0  0  0  0  0  0  0  0  0  0
  150.9900  142.7316  159.1268 H   0  0  0  0  0  0  0  0  0  0  0  0
  149.1833  141.6438  157.3189 H   0  0  0  0  0  0  0  0  0  0  0  0
  147.8864  141.5535  155.8360 H   0  0  0  0  0  0  0  0  0  0  0  0
  147.0611  141.4101  153.7266 H   0  0  0  0  0  0  0  0  0  0  0  0
  148.6836  141.3335  153.0687 H   0  0  0  0  0  0  0  0  0  0  0  0
  147.5404  138.9200  154.5338 H   0  0  0  0  0  0  0  0  0  0  0  0
  149.4642  139.4582  152.5559 H   0  0  0  0  0  0  0  0  0  0  0  0
  145.8282  139.5857  152.7548 H   0  0  0  0  0  0  0  0  0  0  0  0
  147.1127  139.5964  151.5774 H   0  0  0  0  0  0  0  0  0  0  0  0
  144.8666  137.8461  151.0112 H   0  0  0  0  0  0  0  0  0  0  0  0
  146.4027  137.8830  150.1667 H   0  0  0  0  0  0  0  0  0  0  0  0
  145.2276  135.7307  149.7674 H   0  0  0  0  0  0  0  0  0  0  0  0
  146.7687  135.4867  150.5538 H   0  0  0  0  0  0  0  0  0  0  0  0
  144.0446  135.5315  151.9256 H   0  0  0  0  0  0  0  0  0  0  0  0
  145.9786  133.2004  151.5074 H   0  0  0  0  0  0  0  0  0  0  0  0
  144.4469  133.4316  150.6680 H   0  0  0  0  0  0  0  0  0  0  0  0
  144.4617  133.1333  152.4014 H   0  0  0  0  0  0  0  0  0  0  0  0
  145.2679  135.0010  154.0047 H   0  0  0  0  0  0  0  0  0  0  0  0
  146.7940  135.0413  153.1547 H   0  0  0  0  0  0  0  0  0  0  0  0
  146.4257  137.1657  154.3338 H   0  0  0  0  0  0  0  0  0  0  0  0
  144.8852  137.4053  153.5397 H   0  0  0  0  0  0  0  0  0  0  0  0
  147.4781  137.2537  152.1800 H   0  0  0  0  0  0  0  0  0  0  0  0
  1  2  1  0  0  0  0
  1 22  1  0  0  0  0
  1 23  1  0  0  0  0
  1 24  1  0  0  0  0
  2 21  2  0  0  0  0
  2  3  1  0  0  0  0
  3  4  2  0  0  0  0
  3 25  1  0  0  0  0
  4  5  1  0  0  0  0
  4 20  1  0  0  0  0
  5  6  1  0  0  0  0
  5 26  1  0  0  0  0
  6  7  2  0  0  0  0
  6  8  1  0  0  0  0
  8  9  1  0  0  0  0
  8 27  1  0  0  0  0
  9 10  1  0  0  0  0
  9 28  1  0  0  0  0
  9 29  1  0  0  0  0
 10 11  1  0  0  0  0
 10 12  1  0  0  0  0
 10 30  1  0  0  0  0
 11 31  1  0  0  0  0
 12 13  1  0  0  0  0
 12 32  1  0  0  0  0
 12 33  1  0  0  0  0
 13 19  1  0  0  0  0
 13 14  1  0  0  0  0
 13 46  1  0  0  0  0
 14 15  1  0  0  0  0
 14 34  1  0  0  0  0
 14 35  1  0  0  0  0
 15 16  1  0  0  0  0
 15 36  1  0  0  0  0
 15 37  1  0  0  0  0
 16 17  1  0  0  0  0
 16 18  1  0  0  0  0
 16 38  1  0  0  0  0
 17 39  1  0  0  0  0
 17 40  1  0  0  0  0
 17 41  1  0  0  0  0
 18 19  1  0  0  0  0
 18 42  1  0  0  0  0
 18 43  1  0  0  0  0
 19 44  1  0  0  0  0
 19 45  1  0  0  0  0
 20 21  1  0  0  0  0
M  CHG  1  13   1
M  END
> <s_m_source_file>
AV-unprocessed.smi

> <i_m_source_file_index>
1029

> <i_lp_mmshare_version>
43012

> <i_f3d_flags>
0

> <s_epik_input>
W0NIM11jMVtjSF1jKG9uMSlbTkhdQyg9TylbTkhdW0NIMl1bQ0BIXShbT0hdKVtDSDJdTjJbQ0gyXVtDSDJdW0NIXShbQ0gzXSlbQ0gyXVtDSDJdMg==

> <s_epik_cmdline>
J2VwaWtfcHl0aG9uJywgJy1waCcsICc3LjAnLCAnLXRuJywgJzgnLCAnLW1hJywgJzIwMCcsICctbWV0YWxfYmluZGluZycsICctaW1hZScsICc8aW5maWxlLm1hZT4nLCAnLW9tYWUnLCAnPG91dGZpbGUubWFlPic=

> <r_lp_tautomer_probability>
1

> <r_epik_Ionization_Penalty>
0.00211787

> <r_epik_Ionization_Penalty_Charging>
0.00153238

> <r_epik_Ionization_Penalty_Neutral>
0.000585488

> <r_epik_State_Penalty>
-0

> <r_epik_Charging_Adjusted_Penalty>
0.00153238

> <i_epik_Tot_Q>
1

> <i_epik_Tot_abs_Q>
1

> <r_epik_Metal_State_Penalty>
-0

> <b_epik_Metal_Only>
0

> <s_lp_Force_Field>
OPLS_2005

> <r_lp_Energy>
21.4534

> <b_lp_Chiralities_Consistent>
1

> <s_lp_Variant>
AV-unprocessed.smi:1029-1

> <Gold.Version>
5.8.1

> <Gold.Id.Protein>
6NUR|6NUR_protein|mol2

> <Gold.PLP.Fitness>
48.3647

> <Gold.PLP.PLP>
-34.8378

> <Gold.PLP.part.hbond>
-4.7645

> <Gold.PLP.part.metal>
0.0000

> <Gold.PLP.part.buried>
-0.4366

> <Gold.PLP.part.nonpolar>
-29.2143

> <Gold.PLP.part.repulsive>
0.2486

> <Gold.PLP.ligand.clash>
0.0000

> <Gold.PLP.ligand.torsion>
0.6036

> <Gold.PLP.Chemscore.Hbond>
4.8960

> <Gold.PLP.Chemscore.CHOScore>
0.0000

> <Gold.PLP.Chemscore.Metal>
0.0000

> <Gold.Chemscore.Hbonds>
donor molecule, donor type, donor heavy atom, donor atom, acceptor molecule, acceptor atom, score
      L1  H    11    31       P1  7957  0.96
      L1  H    13    46       P1  7948  2.00
      P1  H  7989  7998       L1     7  1.00
      P1  H  7997  8008       L1    21  0.83

> <Gold.PLP.Chemscore.Internal.Correction>
0.0461

> <Gold.Rescore>
     Score         DG    S(hbond)    S(metal)    S(lipo)     H(rot)  DE(clash)    DE(int)     intcor
     16.86     -20.50       3.58        0.00      80.20       2.46       1.73       1.91       ----

> <Gold.Chemscore.Fitness>
16.8649

> <Gold.Chemscore.DG>
-20.5023

> <Gold.Chemscore.ZeroCoef>
-5.4800

> <Gold.Chemscore.Hbond>
3.5755

> <Gold.Chemscore.Metal>
0.0000

> <Gold.Chemscore.Lipo>
80.2029

> <Gold.Chemscore.Internal_Hbond>
0.0000

> <Gold.Chemscore.DEClash>
1.7306

> <Gold.Chemscore.DEInternal>
1.9068

> <Gold.Chemscore.Rot>
2.4624

> <Gold.Chemscore.Internal.Correction>
   9.000000E+99

> <Gold.Chemscore.Hbonds>
donor molecule, donor type, donor heavy atom, donor atom, acceptor molecule, acceptor atom, score
      L1  H    11    31       P1  7957  0.86
      L1  H    13    46       P1  7948  1.00
      P1  H  7989  7998       L1     7  0.97
      P1  H  7997  8008       L1    21  0.35

> <Gold.Chemscore.Hbond.Weighted>
-11.9422

> <Gold.Chemscore.Metal.Weighted>
-0.0000

> <Gold.Chemscore.Lipo.Weighted>
-9.3837

> <Gold.Chemscore.Internal_Hbond.Weighted>
0.0000

> <Gold.Chemscore.DEClash.Weighted>
1.7306

> <Gold.Chemscore.DEInternal.Weighted>
1.9068

> <Gold.Chemscore.Rot.Weighted>
6.3037

> <Gold.Chemscore.Internal.Correction.Weighted>
   9.000000E+99

> <Gold.Protein.RotatedTorsions>
[ 6907 6896 6895 6894 ] final  108.79 input  -60.11 | X-H torsion
[ 7974 7965 7964 7962 ] final -123.66 input  175.53 | X-H torsion
[ 8008 7997 7996 7995 ] final  -95.56 input   59.86 | X-H torsion
[ 10167 10162 10161 10158 ] final   35.11 input  -65.29 | X-H torsion
[ 10718 10713 10712 10709 ] final   -3.62 input   66.30 | X-H torsion
[ 10763 10752 10751 10750 ] final  154.68 input  -60.55 | X-H torsion
[ 11005 11000 10999 10996 ] final  152.84 input  -57.11 | X-H torsion

> <Gold.Protein.ActiveResidues>
 VAL166  LYS551  ARG553  GLY616  TRP617  ASP618  TYR619  PRO620  LYS621  CYS622 
 ASP623  PHE694  ASN695  SER759  ASP760  ASP761  ALA762  ILE779  LEU786  VAL792 
 PHE793  MET794  SER795  GLU796  ALA797  LYS798  CYS799  TRP800  GLU811  SER814 

> <Gold.Protein.RotatedAtoms>
  152.5097  133.9038  159.7453 H   0  0  0  0  0  0  0  0  0  0  0  0  # atno 6907 bound_to 6896
  150.9448  133.6607  159.2790 H   0  0  0  0  0  0  0  0  0  0  0  0  # atno 6908 bound_to 6896
  151.3906  135.0960  159.9578 H   0  0  0  0  0  0  0  0  0  0  0  0  # atno 6909 bound_to 6896
  145.0163  140.7950  143.4408 H   0  0  0  0  0  0  0  0  0  0  0  0  # atno 7974 bound_to 7965
  154.7630  140.0479  157.0989 H   0  0  0  0  0  0  0  0  0  0  0  0  # atno 8008 bound_to 7997
  154.9915  140.3113  155.4885 H   0  0  0  0  0  0  0  0  0  0  0  0  # atno 8009 bound_to 7997
  156.2907  140.2218  156.5020 H   0  0  0  0  0  0  0  0  0  0  0  0  # atno 8010 bound_to 7997
  140.4252  144.1403  150.6152 H   0  0  0  0  0  0  0  0  0  0  0  0  # atno 10167 bound_to 10162
  156.7733  130.5307  149.5763 H   0  0  0  0  0  0  0  0  0  0  0  0  # atno 10718 bound_to 10713
  154.1561  135.2812  155.3122 H   0  0  0  0  0  0  0  0  0  0  0  0  # atno 10763 bound_to 10752
  154.6181  135.5476  153.7549 H   0  0  0  0  0  0  0  0  0  0  0  0  # atno 10764 bound_to 10752
  153.0206  135.6432  154.1704 H   0  0  0  0  0  0  0  0  0  0  0  0  # atno 10765 bound_to 10752
  140.1344  134.8780  157.2247 H   0  0  0  0  0  0  0  0  0  0  0  0  # atno 11005 bound_to 11000
  145.1955  139.2279  143.5220 LP  0  0  0  0  0  0  0  0  0  0  0  0  # atno 17320 bound_to 7965
  146.3478  140.1760  142.8589 LP  0  0  0  0  0  0  0  0  0  0  0  0  # atno 17321 bound_to 7965
  140.4489  143.2495  151.9374 LP  0  0  0  0  0  0  0  0  0  0  0  0  # atno 17342 bound_to 10162
  139.4783  144.5582  151.8281 LP  0  0  0  0  0  0  0  0  0  0  0  0  # atno 17343 bound_to 10162
  156.1264  130.6147  151.0269 LP  0  0  0  0  0  0  0  0  0  0  0  0  # atno 17370 bound_to 10713
  157.6681  131.0867  150.7680 LP  0  0  0  0  0  0  0  0  0  0  0  0  # atno 17371 bound_to 10713
  140.2801  134.3360  155.7346 LP  0  0  0  0  0  0  0  0  0  0  0  0  # atno 17394 bound_to 11000
  141.2176  133.7473  156.9351 LP  0  0  0  0  0  0  0  0  0  0  0  0  # atno 17395 bound_to 11000

$$$$
