#       Name:                AV-unprocessed.smi:37
#       Creating user name   scv26
#       Creation time:       Thu Mar 26 16:16:08 2020


#       File generated by GOLD software.
#

@<TRIPOS>MOLECULE
AV-unprocessed.smi:37
    54    55     1
SMALL
NO_CHARGES


@<TRIPOS>ATOM
      1 ****        -5.2026   1.4856  -0.8237 C.3            1 S1                 0.0000
      2 ****        -5.1584  -0.0372  -1.0093 C.3            1 S1                 0.0000
      3 ****        -3.9894  -0.4755  -1.8881 C.2            1 S1                 0.0000
      4 ****        -4.1705  -0.9511  -3.0091 O.2            1 S1                 0.0000
      5 ****        -2.8015  -0.2832  -1.2972 O.3            1 S1                 0.0000
      6 ****        -1.6082  -0.6220  -1.9822 C.3            1 S1                 0.0000
      7 ****        -0.3792  -0.2241  -1.1528 C.3            1 S1                 0.0000
      8 ****        -0.3340   1.1955  -0.9938 O.3            1 S1                 0.0000
      9 ****         0.1157   1.5229   0.2879 C.3            1 S1                 0.0000
     10 ****         1.6348   1.6333   0.3072 N.am           1 S1                 0.0000
     11 ****         2.3967   1.4328  -0.8345 C.2            1 S1                 0.0000
     12 ****         3.7410   1.5365  -0.8108 C.2            1 S1                 0.0000
     13 ****         4.4480   1.3310  -1.9353 F              1 S1                 0.0000
     14 ****         4.4175   1.8815   0.4368 C.2            1 S1                 0.0000
     15 ****         5.6458   1.9372   0.4625 O.2            1 S1                 0.0000
     16 ****         3.6433   2.1344   1.5305 N.pl3          1 S1                -1.0000
     17 ****         2.2813   2.0483   1.5058 C.2            1 S1                 0.0000
     18 ****         1.5773   2.3212   2.4779 O.2            1 S1                 0.0000
     19 ****        -0.3781   0.3775   1.1842 C.3            1 S1                 0.0000
     20 ****        -2.2637   0.7272   1.7214 Br             1 S1                 0.0000
     21 ****        -0.3212  -0.8341   0.2588 C.3            1 S1                 0.0000
     22 ****         0.9286  -1.4994   0.4075 O.3            1 S1                 0.0000
     23 ****         1.1248  -2.3758   1.4089 C.2            1 S1                 0.0000
     24 ****         0.2819  -2.7321   2.2323 O.2            1 S1                 0.0000
     25 ****         2.5525  -2.9157   1.4458 C.3            1 S1                 0.0000
     26 ****         3.5910  -1.7966   1.6109 C.3            1 S1                 0.0000
     27 ****        -6.0491   1.7708  -0.1992 H              1 S1                 0.0000
     28 ****        -5.3096   1.9986  -1.7800 H              1 S1                 0.0000
     29 ****        -4.2980   1.8584  -0.3417 H              1 S1                 0.0000
     30 ****        -5.0717  -0.5283  -0.0398 H              1 S1                 0.0000
     31 ****        -6.0895  -0.3842  -1.4580 H              1 S1                 0.0000
     32 ****        -1.5947  -1.6961  -2.1719 H              1 S1                 0.0000
     33 ****        -1.5797  -0.1198  -2.9503 H              1 S1                 0.0000
     34 ****         0.5014  -0.5289  -1.7189 H              1 S1                 0.0000
     35 ****        -0.2339   2.5117   0.5891 H              1 S1                 0.0000
     36 ****         1.9277   1.1982  -1.7765 H              1 S1                 0.0000
     37 ****         0.1996   0.2626   2.1004 H              1 S1                 0.0000
     38 ****        -1.1426  -1.5286   0.4417 H              1 S1                 0.0000
     39 ****         2.6365  -3.6198   2.2741 H              1 S1                 0.0000
     40 ****         2.7459  -3.4770   0.5316 H              1 S1                 0.0000
     41 ****         4.5883  -2.2139   1.7475 H              1 S1                 0.0000
     42 ****         3.3725  -1.1714   2.4777 H              1 S1                 0.0000
     43 ****         3.6235  -1.1517   0.7325 H              1 S1                 0.0000
     44 ****        -5.0997  -1.0576  -3.3629 LP             1 S1                 0.0000
     45 ****        -3.3884  -1.2308  -3.5659 LP             1 S1                 0.0000
     46 ****        -1.2504   1.5725  -1.1288 LP             1 S1                 0.0000
     47 ****         0.2895   1.5843  -1.6721 LP             1 S1                 0.0000
     48 ****         6.1724   1.7471  -0.3661 LP             1 S1                 0.0000
     49 ****         6.1180   2.1726   1.3120 LP             1 S1                 0.0000
     50 ****         4.0919   2.3936   2.3858 LP             1 S1                 0.0000
     51 ****         0.5822   2.2483   2.4108 LP             1 S1                 0.0000
     52 ****         2.0004   2.6159   3.3347 LP             1 S1                 0.0000
     53 ****        -0.6460  -2.3616   2.1902 LP             1 S1                 0.0000
     54 ****         0.5251  -3.3919   2.9432 LP             1 S1                 0.0000
@<TRIPOS>BOND
    1    1    2 1     
    2    1   27 1     
    3    1   28 1     
    4    1   29 1     
    5    2    3 1     
    6    2   30 1     
    7    2   31 1     
    8    3    4 2     
    9    3    5 1     
   10    5    6 1     
   11    6    7 1     
   12    6   32 1     
   13    6   33 1     
   14    7   21 1     
   15    7    8 1     
   16    7   34 1     
   17    8    9 1     
   18    9   10 1     
   19    9   19 1     
   20    9   35 1     
   21   10   17 am    
   22   10   11 1     
   23   11   12 2     
   24   11   36 1     
   25   12   13 1     
   26   12   14 1     
   27   14   15 2     
   28   14   16 1     
   29   16   17 1     
   30   17   18 2     
   31   19   20 1     
   32   19   21 1     
   33   19   37 1     
   34   21   22 1     
   35   21   38 1     
   36   22   23 1     
   37   23   24 2     
   38   23   25 1     
   39   25   26 1     
   40   25   39 1     
   41   25   40 1     
   42   26   41 1     
   43   26   42 1     
   44   26   43 1     
   45    4   44 1     
   46    4   45 1     
   47    8   46 1     
   48    8   47 1     
   49   15   48 1     
   50   15   49 1     
   51   16   50 1     
   52   18   51 1     
   53   18   52 1     
   54   24   53 1     
   55   24   54 1     
@<TRIPOS>SUBSTRUCTURE
      1 S1             1
@<TRIPOS>SET
LONE_PAIRS      STATIC     ATOMS    <user>   **** ""
11 44 45 46 47 48 49 50 51 52 53 54
ATOM$BLUE        STATIC     ATOMS    COLORGROUP SYSTEM
11 44 45 46 47 48 49 50 51 52 53 54
