#       Name:                AV-unprocessed.smi:3157
#       Creating user name   scv26
#       Creation time:       Fri Mar 27 17:46:05 2020


#       File generated by GOLD software.
#

@<TRIPOS>MOLECULE
AV-unprocessed.smi:3157
    41    42     1
SMALL
NO_CHARGES


@<TRIPOS>ATOM
      1 ****        -1.7184  -0.3502  -1.3264 C.3            1 S1                 0.0000
      2 ****        -1.2106  -0.0988   0.1093 C.3            1 S1                 0.0000
      3 ****         0.2701  -0.0803   0.1279 N.4            1 S1                 1.0000
      4 ****         0.8938   1.1834  -0.3180 C.3            1 S1                 0.0000
      5 ****         2.4272   1.0845  -0.2837 C.3            1 S1                 0.0000
      6 ****         3.1299   2.4087  -0.5886 C.3            1 S1                 0.0000
      7 ****         4.5609   2.0056  -0.9497 C.3            1 S1                 0.0000
      8 ****         4.4590   0.6015  -1.5626 C.3            1 S1                 0.0000
      9 ****         3.0175   0.1280  -1.3278 C.3            1 S1                 0.0000
     10 ****        -1.7321  -1.1484   1.1274 C.3            1 S1                 0.0000
     11 ****        -1.3674  -0.7902   2.5813 C.3            1 S1                 0.0000
     12 ****        -3.1690  -1.3658   1.0128 N.pl3          1 S1                 0.0000
     13 ****        -3.8323  -2.5257   0.6686 C.2            1 S1                 0.0000
     14 ****        -5.1699  -2.2526   0.6875 C.2            1 S1                 0.0000
     15 ****        -5.2301  -0.8821   1.0638 C.2            1 S1                 0.0000
     16 ****        -4.0325  -0.3540   1.2572 N.2            1 S1                 0.0000
     17 ****        -2.8047  -0.2861  -1.3892 H              1 S1                 0.0000
     18 ****        -1.4244  -1.3387  -1.6806 H              1 S1                 0.0000
     19 ****        -1.3259   0.3831  -2.0303 H              1 S1                 0.0000
     20 ****        -1.5674   0.8820   0.4289 H              1 S1                 0.0000
     21 ****         0.5654  -0.2353   1.0813 H              1 S1                 0.0000
     22 ****         0.5586   1.4415  -1.3226 H              1 S1                 0.0000
     23 ****         0.5641   1.9859   0.3432 H              1 S1                 0.0000
     24 ****         2.7457   0.7580   0.7079 H              1 S1                 0.0000
     25 ****         2.6601   2.8943  -1.4456 H              1 S1                 0.0000
     26 ****         3.0933   3.1062   0.2488 H              1 S1                 0.0000
     27 ****         5.0301   2.7213  -1.6254 H              1 S1                 0.0000
     28 ****         5.1686   1.9639  -0.0448 H              1 S1                 0.0000
     29 ****         4.6886   0.6167  -2.6288 H              1 S1                 0.0000
     30 ****         5.1738  -0.0708  -1.0866 H              1 S1                 0.0000
     31 ****         2.9732  -0.9134  -1.0073 H              1 S1                 0.0000
     32 ****         2.4599   0.2048  -2.2624 H              1 S1                 0.0000
     33 ****        -1.2568  -2.1032   0.8960 H              1 S1                 0.0000
     34 ****        -0.2880  -0.7435   2.7259 H              1 S1                 0.0000
     35 ****        -1.7537  -1.5371   3.2757 H              1 S1                 0.0000
     36 ****        -1.7817   0.1760   2.8717 H              1 S1                 0.0000
     37 ****        -3.3039  -3.4393   0.4390 H              1 S1                 0.0000
     38 ****        -5.9823  -2.9292   0.4671 H              1 S1                 0.0000
     39 ****        -6.1021  -0.2596   1.2001 H              1 S1                 0.0000
     40 ****         0.6125  -0.8419  -0.4402 H              1 S1                 0.0000
     41 ****        -3.8143   0.5846   1.5246 LP             1 S1                 0.0000
@<TRIPOS>BOND
    1    1    2 1     
    2    1   17 1     
    3    1   18 1     
    4    1   19 1     
    5    2    3 1     
    6    2   10 1     
    7    2   20 1     
    8    3    4 1     
    9    3   21 1     
   10    3   40 1     
   11    4    5 1     
   12    4   22 1     
   13    4   23 1     
   14    5    9 1     
   15    5    6 1     
   16    5   24 1     
   17    6    7 1     
   18    6   25 1     
   19    6   26 1     
   20    7    8 1     
   21    7   27 1     
   22    7   28 1     
   23    8    9 1     
   24    8   29 1     
   25    8   30 1     
   26    9   31 1     
   27    9   32 1     
   28   10   11 1     
   29   10   12 1     
   30   10   33 1     
   31   11   34 1     
   32   11   35 1     
   33   11   36 1     
   34   12   16 1     
   35   12   13 1     
   36   13   14 2     
   37   13   37 1     
   38   14   15 1     
   39   14   38 1     
   40   15   16 2     
   41   15   39 1     
   42   16   41 1     
@<TRIPOS>SUBSTRUCTURE
      1 S1             1
@<TRIPOS>SET
LONE_PAIRS      STATIC     ATOMS    <user>   **** ""
1 41
DONOR_HYDROGENS      STATIC     ATOMS    <user>   **** ""
2 21 40
ATOM$BLUE        STATIC     ATOMS    COLORGROUP SYSTEM
1 41
ATOM$RED        STATIC     ATOMS    COLORGROUP SYSTEM
2 21 40
