#       Name:                AV-unprocessed.smi:740
#       Creating user name   scv26
#       Creation time:       Fri Mar 27 00:54:29 2020


#       File generated by GOLD software.
#

@<TRIPOS>MOLECULE
AV-unprocessed.smi:740
    51    53     1
SMALL
NO_CHARGES


@<TRIPOS>ATOM
      1 ****        -3.7654   4.7741   2.2205 C.3            1 S1                 0.0000
      2 ****        -3.2173   3.5967   1.4336 C.ar           1 S1                 0.0000
      3 ****        -3.0128   3.7358   0.0424 C.ar           1 S1                 0.0000
      4 ****        -2.5008   2.6671  -0.7251 C.ar           1 S1                 0.0000
      5 ****        -2.2241   2.5858  -2.0791 N.2            1 S1                 0.0000
      6 ****        -1.7658   1.3419  -2.1841 C.2            1 S1                 0.0000
      7 ****        -1.7140   0.6063  -1.0573 N.pl3          1 S1                 0.0000
      8 ****        -1.2459  -0.7623  -0.9326 C.3            1 S1                 0.0000
      9 ****         0.2884  -0.8492  -0.8213 C.3            1 S1                 0.0000
     10 ****         0.6964  -0.1636   0.3472 O.3            1 S1                 0.0000
     11 ****         0.7718  -2.3116  -0.7337 C.3            1 S1                 0.0000
     12 ****         2.1980  -2.4384  -1.0558 N.am           1 S1                 0.0000
     13 ****         2.6856  -2.4703  -2.3036 C.2            1 S1                 0.0000
     14 ****         2.0301  -2.4104  -3.3434 O.2            1 S1                 0.0000
     15 ****         4.2035  -2.5845  -2.2943 C.3            1 S1                 0.0000
     16 ****         4.5456  -2.6211  -0.7973 C.3            1 S1                 0.0000
     17 ****         5.2960  -3.8916  -0.3648 C.3            1 S1                 0.0000
     18 ****         3.1715  -2.5199  -0.1378 C.2            1 S1                 0.0000
     19 ****         3.0194  -2.5152   1.0839 O.2            1 S1                 0.0000
     20 ****        -2.1958   1.4448  -0.0576 C.ar           1 S1                 0.0000
     21 ****        -2.3968   1.2933   1.3259 C.ar           1 S1                 0.0000
     22 ****        -2.9093   2.3714   2.0778 C.ar           1 S1                 0.0000
     23 ****        -3.1208   2.1988   3.5714 C.3            1 S1                 0.0000
     24 ****        -3.9814   5.6221   1.5699 H              1 S1                 0.0000
     25 ****        -3.0430   5.1014   2.9685 H              1 S1                 0.0000
     26 ****        -4.6902   4.4992   2.7282 H              1 S1                 0.0000
     27 ****        -3.2462   4.6688  -0.4491 H              1 S1                 0.0000
     28 ****        -1.4455   0.9415  -3.1349 H              1 S1                 0.0000
     29 ****        -1.7233  -1.2210  -0.0657 H              1 S1                 0.0000
     30 ****        -1.5910  -1.3167  -1.8065 H              1 S1                 0.0000
     31 ****         0.7322  -0.3566  -1.6876 H              1 S1                 0.0000
     32 ****         0.3037  -0.5847   1.0965 H              1 S1                 0.0000
     33 ****         0.5444  -2.7356   0.2462 H              1 S1                 0.0000
     34 ****         0.2116  -2.9224  -1.4438 H              1 S1                 0.0000
     35 ****         4.5158  -3.4888  -2.8179 H              1 S1                 0.0000
     36 ****         4.6520  -1.7232  -2.7906 H              1 S1                 0.0000
     37 ****         5.1278  -1.7394  -0.5264 H              1 S1                 0.0000
     38 ****         5.5206  -3.8737   0.7023 H              1 S1                 0.0000
     39 ****         6.2431  -3.9824  -0.8971 H              1 S1                 0.0000
     40 ****         4.7140  -4.7913  -0.5688 H              1 S1                 0.0000
     41 ****        -2.1548   0.3560   1.8044 H              1 S1                 0.0000
     42 ****        -2.8224   1.2040   3.9036 H              1 S1                 0.0000
     43 ****        -4.1721   2.3350   3.8260 H              1 S1                 0.0000
     44 ****        -2.5318   2.9280   4.1278 H              1 S1                 0.0000
     45 ****        -2.3386   3.2794  -2.7904 LP             1 S1                 0.0000
     46 ****         0.3966   0.7893   0.3007 LP             1 S1                 0.0000
     47 ****         1.6927  -0.1960   0.4263 LP             1 S1                 0.0000
     48 ****         1.0342  -2.3295  -3.3027 LP             1 S1                 0.0000
     49 ****         2.4933  -2.4425  -4.2290 LP             1 S1                 0.0000
     50 ****         2.1009  -2.4456   1.4731 LP             1 S1                 0.0000
     51 ****         3.8143  -2.5808   1.6870 LP             1 S1                 0.0000
@<TRIPOS>BOND
    1    1    2 1     
    2    1   24 1     
    3    1   25 1     
    4    1   26 1     
    5    2   22 ar    
    6    2    3 ar    
    7    3    4 ar    
    8    3   27 1     
    9    4   20 ar    
   10    4    5 1     
   11    5    6 2     
   12    6    7 1     
   13    6   28 1     
   14    7    8 1     
   15    7   20 1     
   16    8    9 1     
   17    8   29 1     
   18    8   30 1     
   19    9   10 1     
   20    9   11 1     
   21    9   31 1     
   22   10   32 1     
   23   11   12 1     
   24   11   33 1     
   25   11   34 1     
   26   12   18 am    
   27   12   13 am    
   28   13   14 2     
   29   13   15 1     
   30   15   16 1     
   31   15   35 1     
   32   15   36 1     
   33   16   17 1     
   34   16   18 1     
   35   16   37 1     
   36   17   38 1     
   37   17   39 1     
   38   17   40 1     
   39   18   19 2     
   40   20   21 ar    
   41   21   22 ar    
   42   21   41 1     
   43   22   23 1     
   44   23   42 1     
   45   23   43 1     
   46   23   44 1     
   47    5   45 1     
   48   10   46 1     
   49   10   47 1     
   50   14   48 1     
   51   14   49 1     
   52   19   50 1     
   53   19   51 1     
@<TRIPOS>SUBSTRUCTURE
      1 S1             1
@<TRIPOS>SET
LONE_PAIRS      STATIC     ATOMS    <user>   **** ""
7 45 46 47 48 49 50 51
DONOR_HYDROGENS      STATIC     ATOMS    <user>   **** ""
1 32
ATOM$BLUE        STATIC     ATOMS    COLORGROUP SYSTEM
7 45 46 47 48 49 50 51
ATOM$RED        STATIC     ATOMS    COLORGROUP SYSTEM
1 32
