#       Name:                AV-unprocessed.smi:566
#       Creating user name   scv26
#       Creation time:       Thu Mar 26 23:45:49 2020


#       File generated by GOLD software.
#

@<TRIPOS>MOLECULE
AV-unprocessed.smi:566
    45    46     1
SMALL
NO_CHARGES


@<TRIPOS>ATOM
      1 ****        -4.6007   0.2086   1.0965 C.3            1 S1                 0.0000
      2 ****        -3.0817   0.3053   1.1713 C.2            1 S1                 0.0000
      3 ****        -2.4833   1.6188   1.1175 C.2            1 S1                 0.0000
      4 ****        -1.1551   1.7824   1.2252 C.2            1 S1                 0.0000
      5 ****        -0.5369   3.1756   1.1784 C.3            1 S1                 0.0000
      6 ****        -0.2990   0.6570   1.3768 N.am           1 S1                 0.0000
      7 ****         1.1625   0.8652   1.5040 C.3            1 S1                 0.0000
      8 ****         1.8784   0.8739   0.1396 C.3            1 S1                 0.0000
      9 ****         1.9308  -0.4446  -0.3874 O.3            1 S1                 0.0000
     10 ****         2.5156  -0.6348  -1.6205 C.ar           1 S1                 0.0000
     11 ****         2.4878  -1.9437  -2.1446 C.ar           1 S1                 0.0000
     12 ****         3.0602  -2.2305  -3.3987 C.ar           1 S1                 0.0000
     13 ****         3.6720  -1.2053  -4.1434 C.ar           1 S1                 0.0000
     14 ****         3.7095   0.1051  -3.6317 C.ar           1 S1                 0.0000
     15 ****         4.2994   1.0926  -4.3462 F              1 S1                 0.0000
     16 ****         3.1348   0.3920  -2.3778 C.ar           1 S1                 0.0000
     17 ****        -0.7819  -0.6272   1.4011 C.2            1 S1                 0.0000
     18 ****        -0.0038  -1.5842   1.4683 O.2            1 S1                 0.0000
     19 ****        -2.2621  -0.7698   1.3223 C.2            1 S1                 0.0000
     20 ****        -2.7983  -2.1435   1.3893 C.2            1 S1                 0.0000
     21 ****        -2.2959  -2.9039   2.3720 N.am           1 S1                 0.0000
     22 ****        -3.6982  -2.5821   0.6747 O.2            1 S1                 0.0000
     23 ****        -5.0621   1.1946   1.1600 H              1 S1                 0.0000
     24 ****        -4.9968  -0.3897   1.9177 H              1 S1                 0.0000
     25 ****        -4.9104  -0.2409   0.1528 H              1 S1                 0.0000
     26 ****        -3.1178   2.4852   0.9982 H              1 S1                 0.0000
     27 ****        -1.2670   3.9086   0.8343 H              1 S1                 0.0000
     28 ****         0.3090   3.2350   0.4959 H              1 S1                 0.0000
     29 ****        -0.2125   3.4818   2.1732 H              1 S1                 0.0000
     30 ****         1.3773   1.7924   2.0324 H              1 S1                 0.0000
     31 ****         1.6218   0.1132   2.1479 H              1 S1                 0.0000
     32 ****         1.3701   1.5401  -0.5581 H              1 S1                 0.0000
     33 ****         2.8944   1.2461   0.2780 H              1 S1                 0.0000
     34 ****         2.0199  -2.7361  -1.5787 H              1 S1                 0.0000
     35 ****         3.0296  -3.2370  -3.7889 H              1 S1                 0.0000
     36 ****         4.1123  -1.4238  -5.1051 H              1 S1                 0.0000
     37 ****         3.1843   1.4081  -2.0178 H              1 S1                 0.0000
     38 ****        -2.6227  -3.8514   2.4946 H              1 S1                 0.0000
     39 ****        -1.6019  -2.5202   2.9972 H              1 S1                 0.0000
     40 ****         0.9890  -0.7744  -0.4528 LP             1 S1                 0.0000
     41 ****         2.4356  -1.0054   0.2689 LP             1 S1                 0.0000
     42 ****         0.9827  -1.4248   1.5053 LP             1 S1                 0.0000
     43 ****        -0.3604  -2.5183   1.4858 LP             1 S1                 0.0000
     44 ****        -4.1218  -1.9934  -0.0138 LP             1 S1                 0.0000
     45 ****        -4.0063  -3.5273   0.7823 LP             1 S1                 0.0000
@<TRIPOS>BOND
    1    1    2 1     
    2    1   23 1     
    3    1   24 1     
    4    1   25 1     
    5    2   19 2     
    6    2    3 1     
    7    3    4 2     
    8    3   26 1     
    9    4    5 1     
   10    4    6 1     
   11    5   27 1     
   12    5   28 1     
   13    5   29 1     
   14    6    7 1     
   15    6   17 am    
   16    7    8 1     
   17    7   30 1     
   18    7   31 1     
   19    8    9 1     
   20    8   32 1     
   21    8   33 1     
   22    9   10 1     
   23   10   16 ar    
   24   10   11 ar    
   25   11   12 ar    
   26   11   34 1     
   27   12   13 ar    
   28   12   35 1     
   29   13   14 ar    
   30   13   36 1     
   31   14   15 1     
   32   14   16 ar    
   33   16   37 1     
   34   17   18 2     
   35   17   19 1     
   36   19   20 1     
   37   20   21 am    
   38   20   22 2     
   39   21   38 1     
   40   21   39 1     
   41    9   40 1     
   42    9   41 1     
   43   18   42 1     
   44   18   43 1     
   45   22   44 1     
   46   22   45 1     
@<TRIPOS>SUBSTRUCTURE
      1 S1             1
@<TRIPOS>SET
LONE_PAIRS      STATIC     ATOMS    <user>   **** ""
6 40 41 42 43 44 45
DONOR_HYDROGENS      STATIC     ATOMS    <user>   **** ""
2 38 39
ATOM$BLUE        STATIC     ATOMS    COLORGROUP SYSTEM
6 40 41 42 43 44 45
ATOM$RED        STATIC     ATOMS    COLORGROUP SYSTEM
2 38 39
