AV-unprocessed.smi:1533|AV-procd|sdf|6163|dock3
  -GOLD-   22720 6313D 1   1.00000     0.00000
 Structure written by MMmdl.
 37 39  0  0  0  0  0  0  0  0  1 V2000
  146.9291  142.1468  154.4347 C   0  0  0  0  0  0  0  0  0  0  0  0
  148.2155  141.3959  154.4762 C   0  0  0  0  0  0  0  0  0  0  0  0
  149.2503  141.7686  153.7332 N   0  0  0  0  0  0  0  0  0  0  0  0
  150.2388  140.8304  154.0627 O   0  0  0  0  0  0  0  0  0  0  0  0
  149.6692  139.9944  154.9648 C   0  0  0  0  0  0  0  0  0  0  0  0
  150.4988  138.9087  155.5708 C   0  0  0  0  0  0  0  0  0  0  0  0
  151.6574  139.4203  156.4484 C   0  0  0  0  0  0  0  0  0  0  0  0
  151.2679  140.5488  157.2910 N   0  0  0  0  0  0  0  0  0  0  0  0
  152.0023  141.0704  158.2865 C   0  0  0  0  0  0  0  0  0  0  0  0
  153.1146  140.6411  158.5958 O   0  0  0  0  0  0  0  0  0  0  0  0
  151.3538  142.2261  159.0683 C   0  0  1  0  0  0  0  0  0  0  0  0
  152.2953  142.9302  160.0765 C   0  0  0  0  0  0  0  0  0  0  0  0
  152.1689  144.4155  159.6879 C   0  0  1  0  0  0  0  0  0  0  0  0
  152.9104  144.6652  158.3615 C   0  0  0  0  0  0  0  0  0  0  0  0
  151.9729  144.0230  157.3226 C   0  0  0  0  0  0  0  0  0  0  0  0
  150.8579  143.4136  158.2010 C   0  0  2  0  0  0  0  0  0  0  0  0
  150.7087  144.5041  159.2579 C   0  0  0  0  0  0  0  0  0  0  0  0
  148.4103  140.3033  155.2646 N   0  0  0  0  0  0  0  0  0  0  0  0
  146.5311  142.1593  153.4198 H   0  0  0  0  0  0  0  0  0  0  0  0
  147.0821  143.1755  154.7618 H   0  0  0  0  0  0  0  0  0  0  0  0
  146.1901  141.6834  155.0889 H   0  0  0  0  0  0  0  0  0  0  0  0
  149.8463  138.2681  156.1649 H   0  0  0  0  0  0  0  0  0  0  0  0
  150.8914  138.2845  154.7676 H   0  0  0  0  0  0  0  0  0  0  0  0
  152.0558  138.6051  157.0551 H   0  0  0  0  0  0  0  0  0  0  0  0
  152.4769  139.7485  155.8091 H   0  0  0  0  0  0  0  0  0  0  0  0
  150.3623  140.9579  157.1115 H   0  0  0  0  0  0  0  0  0  0  0  0
  150.5035  141.8250  159.6235 H   0  0  0  0  0  0  0  0  0  0  0  0
  151.9396  142.7712  161.0953 H   0  0  0  0  0  0  0  0  0  0  0  0
  153.3306  142.5878  160.0417 H   0  0  0  0  0  0  0  0  0  0  0  0
  152.4581  145.1007  160.4852 H   0  0  0  0  0  0  0  0  0  0  0  0
  153.0222  145.7330  158.1695 H   0  0  0  0  0  0  0  0  0  0  0  0
  153.9050  144.2173  158.3558 H   0  0  0  0  0  0  0  0  0  0  0  0
  151.5575  144.7912  156.6691 H   0  0  0  0  0  0  0  0  0  0  0  0
  152.4778  143.3022  156.6809 H   0  0  0  0  0  0  0  0  0  0  0  0
  149.9408  143.1958  157.6527 H   0  0  0  0  0  0  0  0  0  0  0  0
  150.0064  144.2472  160.0530 H   0  0  0  0  0  0  0  0  0  0  0  0
  150.4376  145.4772  158.8438 H   0  0  0  0  0  0  0  0  0  0  0  0
  1  2  1  0  0  0  0
  1 19  1  0  0  0  0
  1 20  1  0  0  0  0
  1 21  1  0  0  0  0
  2 18  1  0  0  0  0
  2  3  2  0  0  0  0
  3  4  1  0  0  0  0
  4  5  1  0  0  0  0
  5  6  1  0  0  0  0
  5 18  2  0  0  0  0
  6  7  1  0  0  0  0
  6 22  1  0  0  0  0
  6 23  1  0  0  0  0
  7  8  1  0  0  0  0
  7 24  1  0  0  0  0
  7 25  1  0  0  0  0
  8  9  1  0  0  0  0
  8 26  1  0  0  0  0
  9 10  2  0  0  0  0
  9 11  1  0  0  0  0
 11 16  1  0  0  0  0
 11 12  1  0  0  0  0
 11 27  1  0  0  0  0
 12 13  1  0  0  0  0
 12 28  1  0  0  0  0
 12 29  1  0  0  0  0
 13 17  1  0  0  0  0
 13 14  1  0  0  0  0
 13 30  1  0  0  0  0
 14 15  1  0  0  0  0
 14 31  1  0  0  0  0
 14 32  1  0  0  0  0
 15 16  1  0  0  0  0
 15 33  1  0  0  0  0
 15 34  1  0  0  0  0
 16 17  1  0  0  0  0
 16 35  1  0  0  0  0
 17 36  1  0  0  0  0
 17 37  1  0  0  0  0
M  END
> <s_m_source_file>
AV-unprocessed.smi

> <i_m_source_file_index>
1533

> <i_lp_mmshare_version>
43012

> <i_f3d_flags>
0

> <s_epik_input>
W0NIM11jMW5vYyhuMSlbQ0gyXVtDSDJdW05IXUMoPU8pW0NASF0oW0NIMl1bQ0BASF0yMylbQ0BASF0oW0NIMl0zKVtDSDJdW0NIMl0y

> <s_epik_cmdline>
J2VwaWtfcHl0aG9uJywgJy1waCcsICc3LjAnLCAnLXRuJywgJzgnLCAnLW1hJywgJzIwMCcsICctbWV0YWxfYmluZGluZycsICctaW1hZScsICc8aW5maWxlLm1hZT4nLCAnLW9tYWUnLCAnPG91dGZpbGUubWFlPic=

> <r_lp_tautomer_probability>
1

> <r_epik_Ionization_Penalty>
1.90116e-08

> <r_epik_Ionization_Penalty_Charging>
0

> <r_epik_Ionization_Penalty_Neutral>
1.90116e-08

> <r_epik_State_Penalty>
-0

> <r_epik_Charging_Adjusted_Penalty>
0

> <i_epik_Tot_Q>
0

> <i_epik_Tot_abs_Q>
0

> <r_epik_Metal_State_Penalty>
-0

> <b_epik_Metal_Only>
0

> <s_lp_Force_Field>
OPLS_2005

> <r_lp_Energy>
44.7071

> <b_lp_Chiralities_Consistent>
1

> <s_lp_Variant>
AV-unprocessed.smi:1533-2

> <Gold.Version>
5.8.1

> <Gold.Id.Protein>
6NUR|6NUR_protein|mol2

> <Gold.PLP.Fitness>
42.0078

> <Gold.PLP.PLP>
-37.2341

> <Gold.PLP.part.hbond>
-3.5570

> <Gold.PLP.part.metal>
0.0000

> <Gold.PLP.part.buried>
-3.7190

> <Gold.PLP.part.nonpolar>
-30.7551

> <Gold.PLP.part.repulsive>
0.9499

> <Gold.PLP.ligand.clash>
0.0000

> <Gold.PLP.ligand.torsion>
0.3017

> <Gold.PLP.Chemscore.Hbond>
1.7856

> <Gold.PLP.Chemscore.CHOScore>
0.0000

> <Gold.PLP.Chemscore.Metal>
0.0000

> <Gold.Chemscore.Hbonds>
donor molecule, donor type, donor heavy atom, donor atom, acceptor molecule, acceptor atom, score
      P1  H  7989  7998       L1     4  0.56
      P1  H  7997  8010       L1    10  0.38
      P1  H  8011  8017       L1     3  0.62

> <Gold.PLP.Chemscore.Internal.Correction>
0.0202

> <Gold.Rescore>
     Score         DG    S(hbond)    S(metal)    S(lipo)     H(rot)  DE(clash)    DE(int)     intcor
     15.33     -15.99       1.22        0.00      95.43       1.85       0.46       0.20       ----

> <Gold.Chemscore.Fitness>
15.3301

> <Gold.Chemscore.DG>
-15.9878

> <Gold.Chemscore.ZeroCoef>
-5.4800

> <Gold.Chemscore.Hbond>
1.2203

> <Gold.Chemscore.Metal>
0.0000

> <Gold.Chemscore.Lipo>
95.4293

> <Gold.Chemscore.Internal_Hbond>
0.0000

> <Gold.Chemscore.DEClash>
0.4557

> <Gold.Chemscore.DEInternal>
0.2020

> <Gold.Chemscore.Rot>
1.8490

> <Gold.Chemscore.Internal.Correction>
   9.000000E+99

> <Gold.Chemscore.Hbonds>
donor molecule, donor type, donor heavy atom, donor atom, acceptor molecule, acceptor atom, score
      P1  H  7989  7998       L1     4  0.52
      P1  H  7997  8010       L1    10  0.38
      P1  H  8011  8017       L1     3  0.28

> <Gold.Chemscore.Hbond.Weighted>
-4.0759

> <Gold.Chemscore.Metal.Weighted>
-0.0000

> <Gold.Chemscore.Lipo.Weighted>
-11.1652

> <Gold.Chemscore.Internal_Hbond.Weighted>
0.0000

> <Gold.Chemscore.DEClash.Weighted>
0.4557

> <Gold.Chemscore.DEInternal.Weighted>
0.2020

> <Gold.Chemscore.Rot.Weighted>
4.7334

> <Gold.Chemscore.Internal.Correction.Weighted>
   9.000000E+99

> <Gold.Protein.RotatedTorsions>
[ 6907 6896 6895 6894 ] final   69.57 input  -60.11 | X-H torsion
[ 7974 7965 7964 7962 ] final -127.68 input  175.53 | X-H torsion
[ 8008 7997 7996 7995 ] final   33.12 input   59.86 | X-H torsion
[ 10167 10162 10161 10158 ] final  168.67 input  -65.29 | X-H torsion
[ 10718 10713 10712 10709 ] final   12.41 input   66.30 | X-H torsion
[ 10763 10752 10751 10750 ] final -148.80 input  -60.55 | X-H torsion
[ 11005 11000 10999 10996 ] final  170.93 input  -57.11 | X-H torsion

> <Gold.Protein.ActiveResidues>
 VAL166  LYS551  ARG553  GLY616  TRP617  ASP618  TYR619  PRO620  LYS621  CYS622 
 ASP623  PHE694  ASN695  SER759  ASP760  ASP761  ALA762  ILE779  LEU786  VAL792 
 PHE793  MET794  SER795  GLU796  ALA797  LYS798  CYS799  TRP800  GLU811  SER814 

> <Gold.Protein.RotatedAtoms>
  152.4694  134.4997  159.9720 H   0  0  0  0  0  0  0  0  0  0  0  0  # atno 6907 bound_to 6896
  151.5027  133.3495  159.2879 H   0  0  0  0  0  0  0  0  0  0  0  0  # atno 6908 bound_to 6896
  150.8696  134.8095  159.7206 H   0  0  0  0  0  0  0  0  0  0  0  0  # atno 6909 bound_to 6896
  144.9746  140.7580  143.4649 H   0  0  0  0  0  0  0  0  0  0  0  0  # atno 7974 bound_to 7965
  155.1336  140.3259  155.4468 H   0  0  0  0  0  0  0  0  0  0  0  0  # atno 8008 bound_to 7997
  156.2627  140.2006  156.6403 H   0  0  0  0  0  0  0  0  0  0  0  0  # atno 8009 bound_to 7997
  154.6594  140.0549  157.0032 H   0  0  0  0  0  0  0  0  0  0  0  0  # atno 8010 bound_to 7997
  139.4973  144.3790  151.9643 H   0  0  0  0  0  0  0  0  0  0  0  0  # atno 10167 bound_to 10162
  157.0097  130.6112  149.5706 H   0  0  0  0  0  0  0  0  0  0  0  0  # atno 10718 bound_to 10713
  154.8213  135.3325  154.7031 H   0  0  0  0  0  0  0  0  0  0  0  0  # atno 10763 bound_to 10752
  153.7663  135.6929  153.4920 H   0  0  0  0  0  0  0  0  0  0  0  0  # atno 10764 bound_to 10752
  153.2075  135.4494  155.0289 H   0  0  0  0  0  0  0  0  0  0  0  0  # atno 10765 bound_to 10752
  140.3136  134.7496  157.4010 H   0  0  0  0  0  0  0  0  0  0  0  0  # atno 11005 bound_to 11000
  145.2508  139.2032  143.4943 LP  0  0  0  0  0  0  0  0  0  0  0  0  # atno 17320 bound_to 7965
  146.3392  140.2421  142.8596 LP  0  0  0  0  0  0  0  0  0  0  0  0  # atno 17321 bound_to 7965
  140.3226  144.3410  150.6006 LP  0  0  0  0  0  0  0  0  0  0  0  0  # atno 17342 bound_to 10162
  140.5710  143.2181  151.7599 LP  0  0  0  0  0  0  0  0  0  0  0  0  # atno 17343 bound_to 10162
  156.0141  130.5234  150.8079 LP  0  0  0  0  0  0  0  0  0  0  0  0  # atno 17370 bound_to 10713
  157.5330  131.0937  150.9930 LP  0  0  0  0  0  0  0  0  0  0  0  0  # atno 17371 bound_to 10713
  140.1003  134.5482  155.8359 LP  0  0  0  0  0  0  0  0  0  0  0  0  # atno 17394 bound_to 11000
  141.2102  133.6693  156.6496 LP  0  0  0  0  0  0  0  0  0  0  0  0  # atno 17395 bound_to 11000

$$$$
