AV-unprocessed.smi:2026|AV-procd|sdf|8208|dock3
  -GOLD-   2272010473D 1   1.00000     0.00000
 Structure written by MMmdl.
 46 48  0  0  0  0  0  0  0  0  3 V2000
  152.3542  143.6157  161.4491 C   0  0  0  0  0  0  0  0  0  0  0  0
  152.1806  142.8661  160.1391 C   0  0  0  0  0  0  0  0  0  0  0  0
  151.2497  143.3596  159.1977 C   0  0  0  0  0  0  0  0  0  0  0  0
  151.1103  142.6495  158.0110 C   0  0  0  0  0  0  0  0  0  0  0  0
  150.2914  142.8758  156.9027 N   0  3  0  0  0  0  0  0  0  0  0  0
  150.5036  141.9018  155.9752 C   0  0  0  0  0  0  0  0  0  0  0  0
  151.4443  141.0558  156.4755 N   0  0  0  0  0  0  0  0  0  0  0  0
  152.0246  139.8465  155.8739 C   0  0  0  0  0  0  0  0  0  0  0  0
  150.9535  138.8713  155.3492 C   0  0  1  0  0  0  0  0  0  0  0  0
  150.3901  139.4097  154.1689 O   0  0  0  0  0  0  0  0  0  0  0  0
  151.5559  137.4877  155.0287 C   0  0  0  0  0  0  0  0  0  0  0  0
  150.9339  136.4212  155.8206 N   0  0  0  0  0  0  0  0  0  0  0  0
  151.5736  135.6483  156.7181 C   0  0  0  0  0  0  0  0  0  0  0  0
  152.7726  135.7790  156.9625 O   0  0  0  0  0  0  0  0  0  0  0  0
  150.7271  134.7510  157.2767 N   0  5  0  0  0  0  0  0  0  0  0  0
  149.4083  134.9293  156.7017 C   0  0  0  0  0  0  0  0  0  0  0  0
  148.9728  133.6477  155.9661 C   0  0  0  0  0  0  0  0  0  0  0  0
  148.4003  135.3257  157.7972 C   0  0  0  0  0  0  0  0  0  0  0  0
  149.6465  136.0711  155.7299 C   0  0  0  0  0  0  0  0  0  0  0  0
  148.7849  136.5589  154.9965 O   0  0  0  0  0  0  0  0  0  0  0  0
  151.8566  141.4851  157.7430 C   0  0  0  0  0  0  0  0  0  0  0  0
  152.7828  140.9891  158.6583 C   0  0  0  0  0  0  0  0  0  0  0  0
  152.9388  141.6970  159.8718 C   0  0  0  0  0  0  0  0  0  0  0  0
  153.9405  141.1784  160.8895 C   0  0  0  0  0  0  0  0  0  0  0  0
  151.7126  144.4963  161.4935 H   0  0  0  0  0  0  0  0  0  0  0  0
  153.3854  143.9492  161.5674 H   0  0  0  0  0  0  0  0  0  0  0  0
  152.0981  142.9743  162.2926 H   0  0  0  0  0  0  0  0  0  0  0  0
  150.6710  144.2507  159.3932 H   0  0  0  0  0  0  0  0  0  0  0  0
  150.0151  141.8149  155.0154 H   0  0  0  0  0  0  0  0  0  0  0  0
  152.7283  140.1262  155.0898 H   0  0  0  0  0  0  0  0  0  0  0  0
  152.6148  139.3608  156.6521 H   0  0  0  0  0  0  0  0  0  0  0  0
  150.1676  138.7786  156.1004 H   0  0  0  0  0  0  0  0  0  0  0  0
  149.6110  139.8916  154.4004 H   0  0  0  0  0  0  0  0  0  0  0  0
  151.5023  137.2753  153.9594 H   0  0  0  0  0  0  0  0  0  0  0  0
  152.6223  137.4931  155.2611 H   0  0  0  0  0  0  0  0  0  0  0  0
  147.9744  133.7562  155.5407 H   0  0  0  0  0  0  0  0  0  0  0  0
  148.9479  132.7938  156.6443 H   0  0  0  0  0  0  0  0  0  0  0  0
  149.6528  133.3978  155.1499 H   0  0  0  0  0  0  0  0  0  0  0  0
  147.4001  135.4589  157.3837 H   0  0  0  0  0  0  0  0  0  0  0  0
  148.6801  136.2601  158.2868 H   0  0  0  0  0  0  0  0  0  0  0  0
  148.3349  134.5582  158.5692 H   0  0  0  0  0  0  0  0  0  0  0  0
  153.3647  140.1025  158.4553 H   0  0  0  0  0  0  0  0  0  0  0  0
  154.4307  140.2694  160.5400 H   0  0  0  0  0  0  0  0  0  0  0  0
  153.4444  140.9475  161.8325 H   0  0  0  0  0  0  0  0  0  0  0  0
  154.7144  141.9229  161.0775 H   0  0  0  0  0  0  0  0  0  0  0  0
  149.6368  143.6385  156.7844 H   0  0  0  0  0  0  0  0  0  0  0  0
  1  2  1  0  0  0  0
  1 25  1  0  0  0  0
  1 26  1  0  0  0  0
  1 27  1  0  0  0  0
  2 23  1  0  0  0  0
  2  3  2  0  0  0  0
  3  4  1  0  0  0  0
  3 28  1  0  0  0  0
  4 21  2  0  0  0  0
  4  5  1  0  0  0  0
  5  6  2  0  0  0  0
  5 46  1  0  0  0  0
  6  7  1  0  0  0  0
  6 29  1  0  0  0  0
  7  8  1  0  0  0  0
  7 21  1  0  0  0  0
  8  9  1  0  0  0  0
  8 30  1  0  0  0  0
  8 31  1  0  0  0  0
  9 10  1  0  0  0  0
  9 11  1  0  0  0  0
  9 32  1  0  0  0  0
 10 33  1  0  0  0  0
 11 12  1  0  0  0  0
 11 34  1  0  0  0  0
 11 35  1  0  0  0  0
 12 19  1  0  0  0  0
 12 13  1  0  0  0  0
 13 14  2  0  0  0  0
 13 15  1  0  0  0  0
 15 16  1  0  0  0  0
 16 17  1  0  0  0  0
 16 18  1  0  0  0  0
 16 19  1  0  0  0  0
 17 36  1  0  0  0  0
 17 37  1  0  0  0  0
 17 38  1  0  0  0  0
 18 39  1  0  0  0  0
 18 40  1  0  0  0  0
 18 41  1  0  0  0  0
 19 20  2  0  0  0  0
 21 22  1  0  0  0  0
 22 23  2  0  0  0  0
 22 42  1  0  0  0  0
 23 24  1  0  0  0  0
 24 43  1  0  0  0  0
 24 44  1  0  0  0  0
 24 45  1  0  0  0  0
M  CHG  1   5   1
M  CHG  1  15  -1
M  END
> <s_m_source_file>
AV-unprocessed.smi

> <i_m_source_file_index>
2026

> <i_lp_mmshare_version>
43012

> <i_f3d_flags>
0

> <s_epik_input>
W0NIM11jKFtjSF0xKWMoW0NIM10pW2NIXWMoYzEyKW4oW2NIXW4yKVtDSDJdW0NASF0oW09IXSlbQ0gyXU4oQzM9TylDKD1PKVtOSF1DMyhbQ0gzXSlbQ0gzXQ==

> <s_epik_cmdline>
J2VwaWtfcHl0aG9uJywgJy1waCcsICc3LjAnLCAnLXRuJywgJzgnLCAnLW1hJywgJzIwMCcsICctbWV0YWxfYmluZGluZycsICctaW1hZScsICc8aW5maWxlLm1hZT4nLCAnLW9tYWUnLCAnPG91dGZpbGUubWFlPic=

> <r_lp_tautomer_probability>
1

> <r_epik_Ionization_Penalty>
6.70784

> <r_epik_Ionization_Penalty_Charging>
6.70784

> <r_epik_Ionization_Penalty_Neutral>
1.13852e-06

> <r_epik_State_Penalty>
6.78089

> <r_epik_Charging_Adjusted_Penalty>
13.4887

> <i_epik_Tot_Q>
0

> <i_epik_Tot_abs_Q>
2

> <r_epik_Metal_State_Penalty>
2.84685

> <b_epik_Metal_Only>
1

> <s_lp_Force_Field>
OPLS_2005

> <r_lp_Energy>
23.6038

> <b_lp_Chiralities_Consistent>
1

> <s_lp_Variant>
AV-unprocessed.smi:2026-8

> <Gold.Version>
5.8.1

> <Gold.Id.Protein>
6NUR|6NUR_protein|mol2

> <Gold.PLP.Fitness>
55.6599

> <Gold.PLP.PLP>
-43.0908

> <Gold.PLP.part.hbond>
-4.5820

> <Gold.PLP.part.metal>
0.0000

> <Gold.PLP.part.buried>
-6.6048

> <Gold.PLP.part.nonpolar>
-32.6466

> <Gold.PLP.part.repulsive>
0.1659

> <Gold.PLP.ligand.clash>
0.0000

> <Gold.PLP.ligand.torsion>
0.9416

> <Gold.PLP.Chemscore.Hbond>
4.8112

> <Gold.PLP.Chemscore.CHOScore>
0.0000

> <Gold.PLP.Chemscore.Metal>
0.0000

> <Gold.Chemscore.Hbonds>
donor molecule, donor type, donor heavy atom, donor atom, acceptor molecule, acceptor atom, score
      L1  H     5    46       P1  8028  1.86
      P1  H  6896  6909       L1    15  0.59
      P1  H  7989  7998       L1    10  1.00
      P1  H 10752 10765       L1    14  1.00

> <Gold.PLP.Chemscore.Internal.Correction>
0.0188

> <Gold.Rescore>
     Score         DG    S(hbond)    S(metal)    S(lipo)     H(rot)  DE(clash)    DE(int)     intcor
     19.51     -21.28       2.97        0.00     103.43       2.44       0.01       1.76       ----

> <Gold.Chemscore.Fitness>
19.5080

> <Gold.Chemscore.DG>
-21.2791

> <Gold.Chemscore.ZeroCoef>
-5.4800

> <Gold.Chemscore.Hbond>
2.9741

> <Gold.Chemscore.Metal>
0.0000

> <Gold.Chemscore.Lipo>
103.4253

> <Gold.Chemscore.Internal_Hbond>
0.0000

> <Gold.Chemscore.DEClash>
0.0106

> <Gold.Chemscore.DEInternal>
1.7604

> <Gold.Chemscore.Rot>
2.4357

> <Gold.Chemscore.Internal.Correction>
   9.000000E+99

> <Gold.Chemscore.Hbonds>
donor molecule, donor type, donor heavy atom, donor atom, acceptor molecule, acceptor atom, score
      L1  H     5    46       P1  8028  0.90
      P1  H  6896  6909       L1    15  0.27
      P1  H  7989  7998       L1    10  0.24
      P1  H 10752 10765       L1    14  0.35

> <Gold.Chemscore.Hbond.Weighted>
-9.9337

> <Gold.Chemscore.Metal.Weighted>
-0.0000

> <Gold.Chemscore.Lipo.Weighted>
-12.1008

> <Gold.Chemscore.Internal_Hbond.Weighted>
0.0000

> <Gold.Chemscore.DEClash.Weighted>
0.0106

> <Gold.Chemscore.DEInternal.Weighted>
1.7604

> <Gold.Chemscore.Rot.Weighted>
6.2353

> <Gold.Chemscore.Internal.Correction.Weighted>
   9.000000E+99

> <Gold.Protein.RotatedTorsions>
[ 6907 6896 6895 6894 ] final   24.68 input  -60.11 | X-H torsion
[ 7974 7965 7964 7962 ] final  161.68 input  175.53 | X-H torsion
[ 8008 7997 7996 7995 ] final  134.31 input   59.86 | X-H torsion
[ 10167 10162 10161 10158 ] final  164.07 input  -65.29 | X-H torsion
[ 10718 10713 10712 10709 ] final -103.81 input   66.30 | X-H torsion
[ 10763 10752 10751 10750 ] final -122.06 input  -60.55 | X-H torsion
[ 11005 11000 10999 10996 ] final -162.25 input  -57.11 | X-H torsion

> <Gold.Protein.ActiveResidues>
 VAL166  LYS551  ARG553  GLY616  TRP617  ASP618  TYR619  PRO620  LYS621  CYS622 
 ASP623  PHE694  ASN695  SER759  ASP760  ASP761  ALA762  ILE779  LEU786  VAL792 
 PHE793  MET794  SER795  GLU796  ALA797  LYS798  CYS799  TRP800  GLU811  SER814 

> <Gold.Protein.RotatedAtoms>
  151.9611  135.0123  160.0547 H   0  0  0  0  0  0  0  0  0  0  0  0  # atno 6907 bound_to 6896
  152.1868  133.4740  159.4995 H   0  0  0  0  0  0  0  0  0  0  0  0  # atno 6908 bound_to 6896
  150.6927  134.1681  159.4245 H   0  0  0  0  0  0  0  0  0  0  0  0  # atno 6909 bound_to 6896
  144.7674  139.7932  143.6310 H   0  0  0  0  0  0  0  0  0  0  0  0  # atno 7974 bound_to 7965
  156.2998  140.2499  156.3397 H   0  0  0  0  0  0  0  0  0  0  0  0  # atno 8008 bound_to 7997
  154.9067  140.0404  157.1942 H   0  0  0  0  0  0  0  0  0  0  0  0  # atno 8009 bound_to 7997
  154.8446  140.2896  155.5641 H   0  0  0  0  0  0  0  0  0  0  0  0  # atno 8010 bound_to 7997
  139.4883  144.4273  151.9114 H   0  0  0  0  0  0  0  0  0  0  0  0  # atno 10167 bound_to 10162
  156.0279  130.5485  150.7306 H   0  0  0  0  0  0  0  0  0  0  0  0  # atno 10718 bound_to 10713
  154.8682  135.4146  154.2721 H   0  0  0  0  0  0  0  0  0  0  0  0  # atno 10763 bound_to 10752
  153.3629  135.7004  153.6703 H   0  0  0  0  0  0  0  0  0  0  0  0  # atno 10764 bound_to 10752
  153.5597  135.3612  155.2766 H   0  0  0  0  0  0  0  0  0  0  0  0  # atno 10765 bound_to 10752
  140.6114  134.4845  157.5216 H   0  0  0  0  0  0  0  0  0  0  0  0  # atno 11005 bound_to 11000
  146.1792  139.4977  142.9877 LP  0  0  0  0  0  0  0  0  0  0  0  0  # atno 17320 bound_to 7965
  145.6429  141.0280  143.1802 LP  0  0  0  0  0  0  0  0  0  0  0  0  # atno 17321 bound_to 7965
  140.3719  144.2845  150.5919 LP  0  0  0  0  0  0  0  0  0  0  0  0  # atno 17342 bound_to 10162
  140.5311  143.2243  151.8237 LP  0  0  0  0  0  0  0  0  0  0  0  0  # atno 17343 bound_to 10162
  157.4899  131.0910  151.0438 LP  0  0  0  0  0  0  0  0  0  0  0  0  # atno 17370 bound_to 10713
  157.0848  130.5918  149.5427 LP  0  0  0  0  0  0  0  0  0  0  0  0  # atno 17371 bound_to 10713
  139.9191  134.8186  156.1270 LP  0  0  0  0  0  0  0  0  0  0  0  0  # atno 17394 bound_to 11000
  141.0805  133.6756  156.2327 LP  0  0  0  0  0  0  0  0  0  0  0  0  # atno 17395 bound_to 11000

$$$$
