#       Name:                AV-unprocessed.smi:1763
#       Creating user name   scv26
#       Creation time:       Fri Mar 27 08:36:38 2020


#       File generated by GOLD software.
#

@<TRIPOS>MOLECULE
AV-unprocessed.smi:1763
    48    49     1
SMALL
NO_CHARGES


@<TRIPOS>ATOM
      1 ****        -6.4241   3.6725  -0.7064 C.3            1 S1                 0.0000
      2 ****        -5.7811   2.3736  -0.5788 N.am           1 S1                 0.0000
      3 ****        -4.5132   2.1227  -0.9335 C.2            1 S1                 0.0000
      4 ****        -3.7669   2.9738  -1.4188 O.2            1 S1                 0.0000
      5 ****        -4.0201   0.6878  -0.7200 C.3            1 S1                 0.0000
      6 ****        -2.5419   0.5923  -0.6061 N.4            1 S1                 1.0000
      7 ****        -2.0338  -0.7624  -0.9421 C.3            1 S1                 0.0000
      8 ****        -0.4960  -0.7938  -0.9534 C.3            1 S1                 0.0000
      9 ****         0.0813  -0.3114   0.3900 C.3            1 S1                 0.0000
     10 ****         1.5387  -0.2471   0.3391 N.am           1 S1                 0.0000
     11 ****         2.3629  -1.2884   0.5264 C.2            1 S1                 0.0000
     12 ****         1.9671  -2.4327   0.7499 O.2            1 S1                 0.0000
     13 ****         3.6505  -0.9126   0.4331 N.am           1 S1                 0.0000
     14 ****         4.8127  -1.7111   0.6031 C.ar           1 S1                 0.0000
     15 ****         6.0376  -1.0264   0.4359 C.ar           1 S1                 0.0000
     16 ****         7.2494  -1.7273   0.5898 C.ar           1 S1                 0.0000
     17 ****         7.2050  -3.0966   0.9068 C.ar           1 S1                 0.0000
     18 ****         5.9435  -3.7024   1.0544 C.ar           1 S1                 0.0000
     19 ****         4.7807  -3.0326   0.9076 N.ar           1 S1                 0.0000
     20 ****        -0.4901   1.0745   0.7276 C.3            1 S1                 0.0000
     21 ****        -2.0269   1.0574   0.7098 C.3            1 S1                 0.0000
     22 ****        -7.4482   3.6183  -0.3370 H              1 S1                 0.0000
     23 ****        -6.4543   3.9908  -1.7492 H              1 S1                 0.0000
     24 ****        -5.8927   4.4282  -0.1264 H              1 S1                 0.0000
     25 ****        -6.3355   1.6213  -0.1953 H              1 S1                 0.0000
     26 ****        -4.4916   0.2459   0.1595 H              1 S1                 0.0000
     27 ****        -4.3600   0.1111  -1.5812 H              1 S1                 0.0000
     28 ****        -2.4205  -1.4859  -0.2225 H              1 S1                 0.0000
     29 ****        -2.4033  -1.0618  -1.9236 H              1 S1                 0.0000
     30 ****        -0.1533  -1.8064  -1.1699 H              1 S1                 0.0000
     31 ****        -0.1269  -0.1637  -1.7641 H              1 S1                 0.0000
     32 ****        -0.2189  -1.0057   1.1777 H              1 S1                 0.0000
     33 ****         1.9498   0.6573   0.1592 H              1 S1                 0.0000
     34 ****         3.8210   0.0610   0.2298 H              1 S1                 0.0000
     35 ****         6.0541   0.0262   0.1931 H              1 S1                 0.0000
     36 ****         8.1959  -1.2219   0.4669 H              1 S1                 0.0000
     37 ****         8.1132  -3.6670   1.0334 H              1 S1                 0.0000
     38 ****         5.8655  -4.7519   1.2970 H              1 S1                 0.0000
     39 ****        -0.1371   1.3967   1.7081 H              1 S1                 0.0000
     40 ****        -0.1278   1.8129   0.0103 H              1 S1                 0.0000
     41 ****        -2.3955   2.0603   0.9267 H              1 S1                 0.0000
     42 ****        -2.4040   0.4062   1.5000 H              1 S1                 0.0000
     43 ****        -2.1673   1.2175  -1.3060 H              1 S1                 0.0000
     44 ****        -4.0995   3.9054  -1.5655 LP             1 S1                 0.0000
     45 ****        -2.8283   2.7333  -1.6662 LP             1 S1                 0.0000
     46 ****         0.9864  -2.6218   0.7993 LP             1 S1                 0.0000
     47 ****         2.6264  -3.1729   0.8820 LP             1 S1                 0.0000
     48 ****         3.9067  -3.5047   1.0219 LP             1 S1                 0.0000
@<TRIPOS>BOND
    1    1    2 1     
    2    1   22 1     
    3    1   23 1     
    4    1   24 1     
    5    2    3 am    
    6    2   25 1     
    7    3    4 2     
    8    3    5 1     
    9    5    6 1     
   10    5   26 1     
   11    5   27 1     
   12    6   21 1     
   13    6    7 1     
   14    6   43 1     
   15    7    8 1     
   16    7   28 1     
   17    7   29 1     
   18    8    9 1     
   19    8   30 1     
   20    8   31 1     
   21    9   10 1     
   22    9   20 1     
   23    9   32 1     
   24   10   11 am    
   25   10   33 1     
   26   11   12 2     
   27   11   13 am    
   28   13   14 1     
   29   13   34 1     
   30   14   19 ar    
   31   14   15 ar    
   32   15   16 ar    
   33   15   35 1     
   34   16   17 ar    
   35   16   36 1     
   36   17   18 ar    
   37   17   37 1     
   38   18   19 ar    
   39   18   38 1     
   40   20   21 1     
   41   20   39 1     
   42   20   40 1     
   43   21   41 1     
   44   21   42 1     
   45    4   44 1     
   46    4   45 1     
   47   12   46 1     
   48   12   47 1     
   49   19   48 1     
@<TRIPOS>SUBSTRUCTURE
      1 S1             1
@<TRIPOS>SET
LONE_PAIRS      STATIC     ATOMS    <user>   **** ""
5 44 45 46 47 48
DONOR_HYDROGENS      STATIC     ATOMS    <user>   **** ""
4 25 43 33 34
ATOM$BLUE        STATIC     ATOMS    COLORGROUP SYSTEM
5 44 45 46 47 48
ATOM$RED        STATIC     ATOMS    COLORGROUP SYSTEM
4 25 43 33 34
