AV-unprocessed.smi:2814|AV-procd|sdf|10840|dock1
  -GOLD-   2272015283D 1   1.00000     0.00000
 Structure written by MMmdl.
 38 39  0  0  0  0  0  0  0  0  2 V2000
  146.2239  143.1567  154.0940 C   0  0  0  0  0  0  0  0  0  0  0  0
  147.1606  141.9672  154.1163 C   0  0  0  0  0  0  0  0  0  0  0  0
  146.7856  140.7030  153.6126 C   0  0  0  0  0  0  0  0  0  0  0  0
  147.7132  139.6313  153.6610 C   0  0  0  0  0  0  0  0  0  0  0  0
  147.4273  138.3186  153.1977 N   0  0  0  0  0  0  0  0  0  0  0  0
  146.2645  137.6476  153.2598 C   0  0  0  0  0  0  0  0  0  0  0  0
  145.2131  138.0921  153.7202 O   0  0  0  0  0  0  0  0  0  0  0  0
  146.3864  136.4195  152.7367 N   0  0  0  0  0  0  0  0  0  0  0  0
  145.3228  135.4213  152.6406 C   0  0  0  0  0  0  0  0  0  0  0  0
  145.3411  134.6669  151.2919 C   0  0  0  0  0  0  0  0  0  0  0  0
  145.3247  135.6264  150.2494 O   0  0  0  0  0  0  0  0  0  0  0  0
  146.5221  133.7068  151.0874 C   0  0  0  0  0  0  0  0  0  0  0  0
  146.0619  132.6985  150.0272 C   0  0  0  0  0  0  0  0  0  0  0  0
  144.5261  132.7340  150.0322 C   0  0  0  0  0  0  0  0  0  0  0  0
  144.1202  133.7570  151.1014 C   0  0  0  0  0  0  0  0  0  0  0  0
  148.9802  139.8599  154.2411 C   0  0  0  0  0  0  0  0  0  0  0  0
  149.3001  141.1435  154.7272 C   0  0  0  0  0  0  0  0  0  0  0  0
  148.3919  142.1390  154.6458 N   0  3  0  0  0  0  0  0  0  0  0  0
  145.2655  142.8944  153.6449 H   0  0  0  0  0  0  0  0  0  0  0  0
  146.6587  143.9722  153.5153 H   0  0  0  0  0  0  0  0  0  0  0  0
  146.0382  143.5136  155.1074 H   0  0  0  0  0  0  0  0  0  0  0  0
  145.7923  140.5724  153.2106 H   0  0  0  0  0  0  0  0  0  0  0  0
  148.1794  137.8561  152.7082 H   0  0  0  0  0  0  0  0  0  0  0  0
  147.2906  136.1407  152.3849 H   0  0  0  0  0  0  0  0  0  0  0  0
  145.4040  134.7125  153.4665 H   0  0  0  0  0  0  0  0  0  0  0  0
  144.3646  135.9243  152.7765 H   0  0  0  0  0  0  0  0  0  0  0  0
  145.7526  135.2532  149.4939 H   0  0  0  0  0  0  0  0  0  0  0  0
  147.4454  134.2161  150.8083 H   0  0  0  0  0  0  0  0  0  0  0  0
  146.7171  133.1694  152.0163 H   0  0  0  0  0  0  0  0  0  0  0  0
  146.4343  132.9906  149.0446 H   0  0  0  0  0  0  0  0  0  0  0  0
  146.4469  131.7000  150.2366 H   0  0  0  0  0  0  0  0  0  0  0  0
  144.1620  133.0493  149.0534 H   0  0  0  0  0  0  0  0  0  0  0  0
  144.0963  131.7531  150.2377 H   0  0  0  0  0  0  0  0  0  0  0  0
  143.9117  133.2251  152.0310 H   0  0  0  0  0  0  0  0  0  0  0  0
  143.2142  134.3043  150.8367 H   0  0  0  0  0  0  0  0  0  0  0  0
  149.7064  139.0626  154.3083 H   0  0  0  0  0  0  0  0  0  0  0  0
  150.2479  141.4012  155.1768 H   0  0  0  0  0  0  0  0  0  0  0  0
  148.6442  143.0602  155.0048 H   0  0  0  0  0  0  0  0  0  0  0  0
  1  2  1  0  0  0  0
  1 19  1  0  0  0  0
  1 20  1  0  0  0  0
  1 21  1  0  0  0  0
  2 18  1  0  0  0  0
  2  3  2  0  0  0  0
  3  4  1  0  0  0  0
  3 22  1  0  0  0  0
  4  5  1  0  0  0  0
  4 16  2  0  0  0  0
  5  6  1  0  0  0  0
  5 23  1  0  0  0  0
  6  7  2  0  0  0  0
  6  8  1  0  0  0  0
  8  9  1  0  0  0  0
  8 24  1  0  0  0  0
  9 10  1  0  0  0  0
  9 25  1  0  0  0  0
  9 26  1  0  0  0  0
 10 15  1  0  0  0  0
 10 11  1  0  0  0  0
 10 12  1  0  0  0  0
 11 27  1  0  0  0  0
 12 13  1  0  0  0  0
 12 28  1  0  0  0  0
 12 29  1  0  0  0  0
 13 14  1  0  0  0  0
 13 30  1  0  0  0  0
 13 31  1  0  0  0  0
 14 15  1  0  0  0  0
 14 32  1  0  0  0  0
 14 33  1  0  0  0  0
 15 34  1  0  0  0  0
 15 35  1  0  0  0  0
 16 17  1  0  0  0  0
 16 36  1  0  0  0  0
 17 18  2  0  0  0  0
 17 37  1  0  0  0  0
 18 38  1  0  0  0  0
M  CHG  1  18   1
M  END
> <s_m_source_file>
AV-unprocessed.smi

> <i_m_source_file_index>
2814

> <i_lp_mmshare_version>
43012

> <i_f3d_flags>
0

> <s_epik_input>
W0NIM11jMVtjSF1jKFtjSF1bY0hdbjEpW05IXUMoPU8pW05IXVtDSDJdQzIoW09IXSlbQ0gyXVtDSDJdW0NIMl1bQ0gyXTI=

> <s_epik_cmdline>
J2VwaWtfcHl0aG9uJywgJy1waCcsICc3LjAnLCAnLXRuJywgJzgnLCAnLW1hJywgJzIwMCcsICctbWV0YWxfYmluZGluZycsICctaW1hZScsICc8aW5maWxlLm1hZT4nLCAnLW9tYWUnLCAnPG91dGZpbGUubWFlPic=

> <r_epik_Ionization_Penalty>
0.41638

> <r_epik_Ionization_Penalty_Charging>
0.416357

> <r_epik_Ionization_Penalty_Neutral>
2.25049e-05

> <r_epik_State_Penalty>
0.41674

> <r_epik_Charging_Adjusted_Penalty>
0.833097

> <i_epik_Tot_Q>
1

> <i_epik_Tot_abs_Q>
1

> <r_epik_Metal_State_Penalty>
0.654825

> <b_epik_Metal_Only>
0

> <s_lp_Force_Field>
OPLS_2005

> <r_lp_Energy>
34.0796

> <b_lp_Chiralities_Consistent>
1

> <s_lp_Variant>
AV-unprocessed.smi:2814-2

> <Gold.Version>
5.8.1

> <Gold.Id.Protein>
6NUR|6NUR_protein|mol2

> <Gold.PLP.Fitness>
49.8402

> <Gold.PLP.PLP>
-35.7303

> <Gold.PLP.part.hbond>
-4.0796

> <Gold.PLP.part.metal>
0.0000

> <Gold.PLP.part.buried>
-4.8942

> <Gold.PLP.part.nonpolar>
-27.8691

> <Gold.PLP.part.repulsive>
0.7624

> <Gold.PLP.ligand.clash>
0.0000

> <Gold.PLP.ligand.torsion>
0.4472

> <Gold.PLP.Chemscore.Hbond>
5.0000

> <Gold.PLP.Chemscore.CHOScore>
0.0000

> <Gold.PLP.Chemscore.Metal>
0.0000

> <Gold.Chemscore.Hbonds>
donor molecule, donor type, donor heavy atom, donor atom, acceptor molecule, acceptor atom, score
      L1  H     5    23       P1  7948  1.00
      L1  H     8    24       P1  7948  1.00
      L1  H    11    27       P1  7921  1.00
      L1  H    18    38       P1  8028  2.00

> <Gold.PLP.Chemscore.Internal.Correction>
0.0042

> <Gold.Rescore>
     Score         DG    S(hbond)    S(metal)    S(lipo)     H(rot)  DE(clash)    DE(int)     intcor
     22.67     -23.90       3.94        0.00      82.92       1.74       0.18       1.05       ----

> <Gold.Chemscore.Fitness>
22.6655

> <Gold.Chemscore.DG>
-23.8966

> <Gold.Chemscore.ZeroCoef>
-5.4800

> <Gold.Chemscore.Hbond>
3.9416

> <Gold.Chemscore.Metal>
0.0000

> <Gold.Chemscore.Lipo>
82.9181

> <Gold.Chemscore.Internal_Hbond>
0.0000

> <Gold.Chemscore.DEClash>
0.1823

> <Gold.Chemscore.DEInternal>
1.0489

> <Gold.Chemscore.Rot>
1.7382

> <Gold.Chemscore.Internal.Correction>
   9.000000E+99

> <Gold.Chemscore.Hbonds>
donor molecule, donor type, donor heavy atom, donor atom, acceptor molecule, acceptor atom, score
      L1  H     5    23       P1  7948  0.95
      L1  H     8    24       P1  7948  1.00
      L1  H    11    27       P1  7921  0.97
      L1  H    18    38       P1  8028  1.00

> <Gold.Chemscore.Hbond.Weighted>
-13.1649

> <Gold.Chemscore.Metal.Weighted>
-0.0000

> <Gold.Chemscore.Lipo.Weighted>
-9.7014

> <Gold.Chemscore.Internal_Hbond.Weighted>
0.0000

> <Gold.Chemscore.DEClash.Weighted>
0.1823

> <Gold.Chemscore.DEInternal.Weighted>
1.0489

> <Gold.Chemscore.Rot.Weighted>
4.4497

> <Gold.Chemscore.Internal.Correction.Weighted>
   9.000000E+99

> <Gold.Protein.RotatedTorsions>
[ 6907 6896 6895 6894 ] final  134.94 input  -60.11 | X-H torsion
[ 7974 7965 7964 7962 ] final  145.79 input  175.53 | X-H torsion
[ 8008 7997 7996 7995 ] final -166.81 input   59.86 | X-H torsion
[ 10167 10162 10161 10158 ] final   81.97 input  -65.29 | X-H torsion
[ 10718 10713 10712 10709 ] final  156.19 input   66.30 | X-H torsion
[ 10763 10752 10751 10750 ] final  -55.55 input  -60.55 | X-H torsion
[ 11005 11000 10999 10996 ] final -138.11 input  -57.11 | X-H torsion

> <Gold.Protein.ActiveResidues>
 VAL166  LYS551  ARG553  GLY616  TRP617  ASP618  TYR619  PRO620  LYS621  CYS622 
 ASP623  PHE694  ASN695  SER759  ASP760  ASP761  ALA762  ILE779  LEU786  VAL792 
 PHE793  MET794  SER795  GLU796  ALA797  LYS798  CYS799  TRP800  GLU811  SER814 

> <Gold.Protein.RotatedAtoms>
  152.3059  133.5702  159.5648 H   0  0  0  0  0  0  0  0  0  0  0  0  # atno 6907 bound_to 6896
  150.7299  134.0224  159.3714 H   0  0  0  0  0  0  0  0  0  0  0  0  # atno 6908 bound_to 6896
  151.8120  135.0678  160.0465 H   0  0  0  0  0  0  0  0  0  0  0  0  # atno 6909 bound_to 6896
  144.8723  139.5826  143.5881 H   0  0  0  0  0  0  0  0  0  0  0  0  # atno 7974 bound_to 7965
  155.8689  140.0990  157.1563 H   0  0  0  0  0  0  0  0  0  0  0  0  # atno 8008 bound_to 7997
  154.3995  140.1351  156.4117 H   0  0  0  0  0  0  0  0  0  0  0  0  # atno 8009 bound_to 7997
  155.7772  140.3459  155.5280 H   0  0  0  0  0  0  0  0  0  0  0  0  # atno 8010 bound_to 7997
  139.9337  144.6135  150.8320 H   0  0  0  0  0  0  0  0  0  0  0  0  # atno 10167 bound_to 10162
  157.2083  131.0692  151.1985 H   0  0  0  0  0  0  0  0  0  0  0  0  # atno 10718 bound_to 10713
  154.1925  135.6425  153.5064 H   0  0  0  0  0  0  0  0  0  0  0  0  # atno 10763 bound_to 10752
  153.0031  135.5432  154.6400 H   0  0  0  0  0  0  0  0  0  0  0  0  # atno 10764 bound_to 10752
  154.5792  135.2923  155.0723 H   0  0  0  0  0  0  0  0  0  0  0  0  # atno 10765 bound_to 10752
  140.8647  134.2125  157.4686 H   0  0  0  0  0  0  0  0  0  0  0  0  # atno 11005 bound_to 11000
  146.2939  139.7220  142.9141 LP  0  0  0  0  0  0  0  0  0  0  0  0  # atno 17320 bound_to 7965
  145.4107  141.0396  143.3019 LP  0  0  0  0  0  0  0  0  0  0  0  0  # atno 17321 bound_to 7965
  140.7630  143.3213  151.2616 LP  0  0  0  0  0  0  0  0  0  0  0  0  # atno 17342 bound_to 10162
  139.6761  143.9935  152.2782 LP  0  0  0  0  0  0  0  0  0  0  0  0  # atno 17343 bound_to 10162
  157.3698  130.7175  149.6557 LP  0  0  0  0  0  0  0  0  0  0  0  0  # atno 17370 bound_to 10713
  155.9693  130.4202  150.4411 LP  0  0  0  0  0  0  0  0  0  0  0  0  # atno 17371 bound_to 10713
  139.8708  134.9746  156.4853 LP  0  0  0  0  0  0  0  0  0  0  0  0  # atno 17394 bound_to 11000
  140.8642  133.8037  155.9297 LP  0  0  0  0  0  0  0  0  0  0  0  0  # atno 17395 bound_to 11000

$$$$
