AV-unprocessed.smi:686|AV-procd|sdf|3338|dock1
  -GOLD-   22720 0313D 1   1.00000     0.00000
 Structure written by MMmdl.
 41 42  0  0  0  0  0  0  0  0  2 V2000
  145.5981  134.8495  155.2547 C   0  0  0  0  0  0  0  0  0  0  0  0
  147.0475  135.1897  154.8680 C   0  0  1  0  0  0  0  0  0  0  0  0
  147.3087  136.6647  154.5731 C   0  0  0  0  0  0  0  0  0  0  0  0
  148.7818  136.8098  154.5934 N   0  3  1  0  0  0  0  0  0  0  0  0
  149.2885  138.1844  154.8684 C   0  0  0  0  0  0  0  0  0  0  0  0
  148.5359  139.2479  154.0453 C   0  0  0  0  0  0  0  0  0  0  0  0
  150.7981  138.2875  154.5772 C   0  0  0  0  0  0  0  0  0  0  0  0
  149.3123  135.7502  155.4911 C   0  0  0  0  0  0  0  0  0  0  0  0
  148.1293  134.8530  155.9006 C   0  0  1  0  0  0  0  0  0  0  0  0
  147.6818  135.1831  157.2589 N   0  0  0  0  0  0  0  0  0  0  0  0
  148.6555  134.7230  158.6069 S   0  0  0  0  0  0  0  0  0  0  0  0
  149.3607  133.4895  158.2278 O   0  0  0  0  0  0  0  0  0  0  0  0
  149.4175  135.9083  159.0295 O   0  0  0  0  0  0  0  0  0  0  0  0
  147.3873  134.3145  159.8824 C   0  0  0  0  0  0  0  0  0  0  0  0
  147.4481  135.3136  161.0036 C   0  0  0  0  0  0  0  0  0  0  0  0
  147.5761  135.0705  162.3990 C   0  0  0  0  0  0  0  0  0  0  0  0
  147.5845  136.3232  162.9415 C   0  0  0  0  0  0  0  0  0  0  0  0
  147.4713  137.2629  161.9692 O   0  0  0  0  0  0  0  0  0  0  0  0
  147.3816  136.6090  160.7353 N   0  0  0  0  0  0  0  0  0  0  0  0
  145.2591  135.4267  156.1153 H   0  0  0  0  0  0  0  0  0  0  0  0
  145.4979  133.7921  155.5002 H   0  0  0  0  0  0  0  0  0  0  0  0
  144.9177  135.0639  154.4302 H   0  0  0  0  0  0  0  0  0  0  0  0
  147.2826  134.6290  153.9615 H   0  0  0  0  0  0  0  0  0  0  0  0
  146.8868  136.9736  153.6162 H   0  0  0  0  0  0  0  0  0  0  0  0
  146.8656  137.2827  155.3563 H   0  0  0  0  0  0  0  0  0  0  0  0
  149.1254  138.3998  155.9257 H   0  0  0  0  0  0  0  0  0  0  0  0
  148.9522  140.2406  154.2190 H   0  0  0  0  0  0  0  0  0  0  0  0
  147.4798  139.3014  154.3097 H   0  0  0  0  0  0  0  0  0  0  0  0
  148.6047  139.0443  152.9762 H   0  0  0  0  0  0  0  0  0  0  0  0
  151.1627  139.2984  154.7615 H   0  0  0  0  0  0  0  0  0  0  0  0
  151.0175  138.0437  153.5371 H   0  0  0  0  0  0  0  0  0  0  0  0
  151.3884  137.6208  155.2051 H   0  0  0  0  0  0  0  0  0  0  0  0
  150.0554  135.1753  154.9377 H   0  0  0  0  0  0  0  0  0  0  0  0
  149.8153  136.1694  156.3628 H   0  0  0  0  0  0  0  0  0  0  0  0
  148.3913  133.7949  155.8608 H   0  0  0  0  0  0  0  0  0  0  0  0
  147.3703  136.1513  157.3376 H   0  0  0  0  0  0  0  0  0  0  0  0
  146.4053  134.2890  159.4093 H   0  0  0  0  0  0  0  0  0  0  0  0
  147.5997  133.3122  160.2547 H   0  0  0  0  0  0  0  0  0  0  0  0
  147.6519  134.1274  162.9197 H   0  0  0  0  0  0  0  0  0  0  0  0
  147.6617  136.6937  163.9532 H   0  0  0  0  0  0  0  0  0  0  0  0
  149.0926  136.5641  153.6642 H   0  0  0  0  0  0  0  0  0  0  0  0
  1  2  1  0  0  0  0
  1 20  1  0  0  0  0
  1 21  1  0  0  0  0
  1 22  1  0  0  0  0
  2  9  1  0  0  0  0
  2  3  1  0  0  0  0
  2 23  1  0  0  0  0
  3  4  1  0  0  0  0
  3 24  1  0  0  0  0
  3 25  1  0  0  0  0
  4  5  1  0  0  0  0
  4  8  1  0  0  0  0
  4 41  1  0  0  0  0
  5  6  1  0  0  0  0
  5  7  1  0  0  0  0
  5 26  1  0  0  0  0
  6 27  1  0  0  0  0
  6 28  1  0  0  0  0
  6 29  1  0  0  0  0
  7 30  1  0  0  0  0
  7 31  1  0  0  0  0
  7 32  1  0  0  0  0
  8  9  1  0  0  0  0
  8 33  1  0  0  0  0
  8 34  1  0  0  0  0
  9 10  1  0  0  0  0
  9 35  1  0  0  0  0
 10 11  1  0  0  0  0
 10 36  1  0  0  0  0
 11 12  2  0  0  0  0
 11 13  2  0  0  0  0
 11 14  1  0  0  0  0
 14 15  1  0  0  0  0
 14 37  1  0  0  0  0
 14 38  1  0  0  0  0
 15 19  2  0  0  0  0
 15 16  1  0  0  0  0
 16 17  2  0  0  0  0
 16 39  1  0  0  0  0
 17 18  1  0  0  0  0
 17 40  1  0  0  0  0
 18 19  1  0  0  0  0
M  CHG  1   4   1
M  END
> <s_m_source_file>
AV-unprocessed.smi

> <i_m_source_file_index>
686

> <i_lp_mmshare_version>
43012

> <i_f3d_flags>
0

> <s_epik_input>
W0NIM11bQ0BASF0xW0NIMl1OKFtDSF0oW0NIM10pW0NIM10pW0NIMl1bQ0BIXTFbTkhdUyg9TykoPU8pW0NIMl1jMltjSF1bY0hdb24y

> <s_epik_cmdline>
J2VwaWtfcHl0aG9uJywgJy1waCcsICc3LjAnLCAnLXRuJywgJzgnLCAnLW1hJywgJzIwMCcsICctbWV0YWxfYmluZGluZycsICctaW1hZScsICc8aW5maWxlLm1hZT4nLCAnLW9tYWUnLCAnPG91dGZpbGUubWFlPic=

> <r_epik_Ionization_Penalty>
0.00200818

> <r_epik_Ionization_Penalty_Charging>
0.000701289

> <r_epik_Ionization_Penalty_Neutral>
0.00130689

> <r_epik_State_Penalty>
0.00131314

> <r_epik_Charging_Adjusted_Penalty>
0.00201443

> <i_epik_Tot_Q>
1

> <i_epik_Tot_abs_Q>
1

> <r_epik_Metal_State_Penalty>
0.310831

> <b_epik_Metal_Only>
0

> <s_lp_Force_Field>
OPLS_2005

> <r_lp_Energy>
21.3818

> <b_lp_Chiralities_Consistent>
1

> <s_lp_Variant>
AV-unprocessed.smi:686-2

> <Gold.Version>
5.8.1

> <Gold.Id.Protein>
6NUR|6NUR_protein|mol2

> <Gold.PLP.Fitness>
38.0881

> <Gold.PLP.PLP>
-26.1247

> <Gold.PLP.part.hbond>
-5.0000

> <Gold.PLP.part.metal>
0.0000

> <Gold.PLP.part.buried>
-1.7376

> <Gold.PLP.part.nonpolar>
-18.4578

> <Gold.PLP.part.repulsive>
0.0000

> <Gold.PLP.ligand.clash>
0.0000

> <Gold.PLP.ligand.torsion>
0.8325

> <Gold.PLP.Chemscore.Hbond>
4.4847

> <Gold.PLP.Chemscore.CHOScore>
0.0000

> <Gold.PLP.Chemscore.Metal>
0.0000

> <Gold.Chemscore.Hbonds>
donor molecule, donor type, donor heavy atom, donor atom, acceptor molecule, acceptor atom, score
      L1  H     4    41       P1  7948  2.00
      P1  H  6896  6907       L1    12  0.72
      P1  H  6896  6908       L1    13  0.60
      P1  H  6931  6943       L1    18  0.90
      P1  H  6934  6947       L1    18  0.26

> <Gold.PLP.Chemscore.Internal.Correction>
0.1744

> <Gold.Rescore>
     Score         DG    S(hbond)    S(metal)    S(lipo)     H(rot)  DE(clash)    DE(int)     intcor
     12.52     -14.90       2.29        0.00      57.14       1.91       0.12       2.27       ----

> <Gold.Chemscore.Fitness>
12.5202

> <Gold.Chemscore.DG>
-14.9047

> <Gold.Chemscore.ZeroCoef>
-5.4800

> <Gold.Chemscore.Hbond>
2.2852

> <Gold.Chemscore.Metal>
0.0000

> <Gold.Chemscore.Lipo>
57.1429

> <Gold.Chemscore.Internal_Hbond>
0.0000

> <Gold.Chemscore.DEClash>
0.1186

> <Gold.Chemscore.DEInternal>
2.2660

> <Gold.Chemscore.Rot>
1.9115

> <Gold.Chemscore.Internal.Correction>
   9.000000E+99

> <Gold.Chemscore.Hbonds>
donor molecule, donor type, donor heavy atom, donor atom, acceptor molecule, acceptor atom, score
      L1  H     4    41       P1  7948  0.98
      P1  H  6896  6907       L1    12  0.39
      P1  H  6896  6908       L1    13  0.21
      P1  H  6931  6943       L1    18  0.37
      P1  H  6934  6947       L1    18  0.01

> <Gold.Chemscore.Hbond.Weighted>
-7.6325

> <Gold.Chemscore.Metal.Weighted>
-0.0000

> <Gold.Chemscore.Lipo.Weighted>
-6.6857

> <Gold.Chemscore.Internal_Hbond.Weighted>
0.0000

> <Gold.Chemscore.DEClash.Weighted>
0.1186

> <Gold.Chemscore.DEInternal.Weighted>
2.2660

> <Gold.Chemscore.Rot.Weighted>
4.8935

> <Gold.Chemscore.Internal.Correction.Weighted>
   9.000000E+99

> <Gold.Protein.RotatedTorsions>
[ 6907 6896 6895 6894 ] final -145.00 input  -60.11 | X-H torsion
[ 7974 7965 7964 7962 ] final   52.93 input  175.53 | X-H torsion
[ 8008 7997 7996 7995 ] final  159.45 input   59.86 | X-H torsion
[ 10167 10162 10161 10158 ] final  -88.56 input  -65.29 | X-H torsion
[ 10718 10713 10712 10709 ] final  -78.79 input   66.30 | X-H torsion
[ 10763 10752 10751 10750 ] final   16.47 input  -60.55 | X-H torsion
[ 11005 11000 10999 10996 ] final -150.73 input  -57.11 | X-H torsion

> <Gold.Protein.ActiveResidues>
 VAL166  LYS551  ARG553  GLY616  TRP617  ASP618  TYR619  PRO620  LYS621  CYS622 
 ASP623  PHE694  ASN695  SER759  ASP760  ASP761  ALA762  ILE779  LEU786  VAL792 
 PHE793  MET794  SER795  GLU796  ALA797  LYS798  CYS799  TRP800  GLU811  SER814 

> <Gold.Protein.RotatedAtoms>
  151.1218  133.5099  159.2601 H   0  0  0  0  0  0  0  0  0  0  0  0  # atno 6907 bound_to 6896
  151.1853  135.0378  159.8820 H   0  0  0  0  0  0  0  0  0  0  0  0  # atno 6908 bound_to 6896
  152.5456  134.1065  159.8393 H   0  0  0  0  0  0  0  0  0  0  0  0  # atno 6909 bound_to 6896
  145.9763  139.4198  143.0159 H   0  0  0  0  0  0  0  0  0  0  0  0  # atno 7974 bound_to 7965
  156.2238  140.1831  156.7414 H   0  0  0  0  0  0  0  0  0  0  0  0  # atno 8008 bound_to 7997
  154.5907  140.0651  156.9263 H   0  0  0  0  0  0  0  0  0  0  0  0  # atno 8009 bound_to 7997
  155.2341  140.3317  155.4302 H   0  0  0  0  0  0  0  0  0  0  0  0  # atno 8010 bound_to 7997
  140.3735  143.2783  151.9472 H   0  0  0  0  0  0  0  0  0  0  0  0  # atno 10167 bound_to 10162
  156.0108  130.4527  150.3550 H   0  0  0  0  0  0  0  0  0  0  0  0  # atno 10718 bound_to 10713
  153.1428  135.6763  153.9001 H   0  0  0  0  0  0  0  0  0  0  0  0  # atno 10763 bound_to 10752
  153.8452  135.3100  155.3430 H   0  0  0  0  0  0  0  0  0  0  0  0  # atno 10764 bound_to 10752
  154.7801  135.4893  153.9911 H   0  0  0  0  0  0  0  0  0  0  0  0  # atno 10765 bound_to 10752
  140.7371  134.3556  157.5155 H   0  0  0  0  0  0  0  0  0  0  0  0  # atno 11005 bound_to 11000
  145.7833  140.9846  143.1087 LP  0  0  0  0  0  0  0  0  0  0  0  0  # atno 17320 bound_to 7965
  144.6850  139.9592  143.7480 LP  0  0  0  0  0  0  0  0  0  0  0  0  # atno 17321 bound_to 7965
  139.4801  144.5885  151.7812 LP  0  0  0  0  0  0  0  0  0  0  0  0  # atno 17342 bound_to 10162
  140.5010  144.1169  150.5971 LP  0  0  0  0  0  0  0  0  0  0  0  0  # atno 17343 bound_to 10162
  157.1641  131.0352  151.2827 LP  0  0  0  0  0  0  0  0  0  0  0  0  # atno 17370 bound_to 10713
  157.4286  130.7478  149.6971 LP  0  0  0  0  0  0  0  0  0  0  0  0  # atno 17371 bound_to 10713
  139.8814  134.9057  156.2905 LP  0  0  0  0  0  0  0  0  0  0  0  0  # atno 17394 bound_to 11000
  140.9869  133.7232  156.0756 LP  0  0  0  0  0  0  0  0  0  0  0  0  # atno 17395 bound_to 11000

$$$$
