AV-unprocessed.smi:234|AV-procd|sdf|1800|dock6
  -GOLD-   2262020373D 1   1.00000     0.00000
 Structure written by MMmdl.
 59 62  0  0  0  0  0  0  0  0  1 V2000
  153.6799  140.7824  159.8632 C   0  0  0  0  0  0  0  0  0  0  0  0
  153.1754  139.4878  159.2224 C   0  0  0  0  0  0  0  0  0  0  0  0
  153.0391  139.6903  157.8256 O   0  0  0  0  0  0  0  0  0  0  0  0
  152.4069  138.6037  157.1671 C   0  0  1  0  0  0  0  0  0  0  0  0
  151.0306  138.2954  157.7541 C   0  0  0  0  0  0  0  0  0  0  0  0
  150.5326  138.0794  156.3118 C   0  0  2  0  0  0  0  0  0  0  0  0
  150.5169  136.6887  155.8227 N   0  0  0  0  0  0  0  0  0  0  0  0
  151.6166  135.7890  156.1411 C   0  0  0  0  0  0  0  0  0  0  0  0
  149.4298  136.1082  155.2680 C   0  0  0  0  0  0  0  0  0  0  0  0
  148.2755  136.8172  155.1875 N   0  0  0  0  0  0  0  0  0  0  0  0
  147.1863  136.2587  154.6508 C   0  0  0  0  0  0  0  0  0  0  0  0
  147.0359  135.0268  154.1587 N   0  0  0  0  0  0  0  0  0  0  0  0
  148.1908  134.3077  154.2579 C   0  0  0  0  0  0  0  0  0  0  0  0
  149.4238  134.7681  154.7969 C   0  0  0  0  0  0  0  0  0  0  0  0
  150.3779  133.7605  154.7366 N   0  0  0  0  0  0  0  0  0  0  0  0
  149.7452  132.7606  154.1854 C   0  0  0  0  0  0  0  0  0  0  0  0
  148.4241  132.9982  153.8759 N   0  0  0  0  0  0  0  0  0  0  0  0
  147.4891  132.0633  153.2676 C   0  0  0  0  0  0  0  0  0  0  0  0
  147.0234  132.4910  151.8508 C   0  0  2  0  0  0  0  0  0  0  0  0
  148.1751  132.7628  151.0703 O   0  0  0  0  0  0  0  0  0  0  0  0
  146.1526  133.7468  151.8521 C   0  0  0  0  0  0  0  0  0  0  0  0
  145.2286  133.5323  150.6632 C   0  0  0  0  0  0  0  0  0  0  0  0
  144.9485  132.1469  150.7482 O   0  0  0  0  0  0  0  0  0  0  0  0
  146.1563  131.4634  151.0687 C   0  0  2  0  0  0  0  0  0  0  0  0
  145.7911  130.1601  151.7965 C   0  0  0  0  0  0  0  0  0  0  0  0
  151.7300  138.9486  155.8159 C   0  0  0  0  0  0  0  0  0  0  0  0
  151.3659  140.4263  155.6113 C   0  0  0  0  0  0  0  0  0  0  0  0
  152.4881  138.5221  154.5527 C   0  0  0  0  0  0  0  0  0  0  0  0
  153.7919  140.6651  160.9411 H   0  0  0  0  0  0  0  0  0  0  0  0
  152.9852  141.6036  159.6862 H   0  0  0  0  0  0  0  0  0  0  0  0
  154.6493  141.0680  159.4542 H   0  0  0  0  0  0  0  0  0  0  0  0
  153.8765  138.6783  159.4252 H   0  0  0  0  0  0  0  0  0  0  0  0
  152.2143  139.2076  159.6555 H   0  0  0  0  0  0  0  0  0  0  0  0
  153.0287  137.7074  157.1260 H   0  0  0  0  0  0  0  0  0  0  0  0
  151.0073  137.4504  158.4387 H   0  0  0  0  0  0  0  0  0  0  0  0
  150.5727  139.1695  158.2191 H   0  0  0  0  0  0  0  0  0  0  0  0
  149.5742  138.5734  156.1482 H   0  0  0  0  0  0  0  0  0  0  0  0
  151.9450  135.2581  155.2470 H   0  0  0  0  0  0  0  0  0  0  0  0
  151.3172  135.0527  156.8874 H   0  0  0  0  0  0  0  0  0  0  0  0
  152.4678  136.3444  156.5354 H   0  0  0  0  0  0  0  0  0  0  0  0
  146.3097  136.8885  154.6111 H   0  0  0  0  0  0  0  0  0  0  0  0
  150.2272  131.8129  153.9939 H   0  0  0  0  0  0  0  0  0  0  0  0
  147.9618  131.0805  153.2353 H   0  0  0  0  0  0  0  0  0  0  0  0
  146.6341  131.9732  153.9379 H   0  0  0  0  0  0  0  0  0  0  0  0
  148.4255  131.9712  150.6187 H   0  0  0  0  0  0  0  0  0  0  0  0
  145.5462  133.7821  152.7580 H   0  0  0  0  0  0  0  0  0  0  0  0
  146.7174  134.6787  151.7947 H   0  0  0  0  0  0  0  0  0  0  0  0
  144.3200  134.1321  150.7193 H   0  0  0  0  0  0  0  0  0  0  0  0
  145.7357  133.7529  149.7226 H   0  0  0  0  0  0  0  0  0  0  0  0
  146.6392  131.2030  150.1247 H   0  0  0  0  0  0  0  0  0  0  0  0
  146.6813  129.5891  152.0605 H   0  0  0  0  0  0  0  0  0  0  0  0
  145.1752  129.5258  151.1588 H   0  0  0  0  0  0  0  0  0  0  0  0
  145.2239  130.3531  152.7071 H   0  0  0  0  0  0  0  0  0  0  0  0
  150.7243  140.5606  154.7401 H   0  0  0  0  0  0  0  0  0  0  0  0
  152.2513  141.0451  155.4631 H   0  0  0  0  0  0  0  0  0  0  0  0
  150.8308  140.8365  156.4679 H   0  0  0  0  0  0  0  0  0  0  0  0
  151.8454  138.5456  153.6725 H   0  0  0  0  0  0  0  0  0  0  0  0
  152.8916  137.5141  154.6386 H   0  0  0  0  0  0  0  0  0  0  0  0
  153.3350  139.1782  154.3508 H   0  0  0  0  0  0  0  0  0  0  0  0
  1  2  1  0  0  0  0
  1 29  1  0  0  0  0
  1 30  1  0  0  0  0
  1 31  1  0  0  0  0
  2  3  1  0  0  0  0
  2 32  1  0  0  0  0
  2 33  1  0  0  0  0
  3  4  1  0  0  0  0
  4 26  1  0  0  0  0
  4  5  1  0  0  0  0
  4 34  1  0  0  0  0
  5  6  1  0  0  0  0
  5 35  1  0  0  0  0
  5 36  1  0  0  0  0
  6  7  1  0  0  0  0
  6 26  1  0  0  0  0
  6 37  1  0  0  0  0
  7  8  1  0  0  0  0
  7  9  1  0  0  0  0
  8 38  1  0  0  0  0
  8 39  1  0  0  0  0
  8 40  1  0  0  0  0
  9 14  1  0  0  0  0
  9 10  2  0  0  0  0
 10 11  1  0  0  0  0
 11 12  2  0  0  0  0
 11 41  1  0  0  0  0
 12 13  1  0  0  0  0
 13 17  1  0  0  0  0
 13 14  2  0  0  0  0
 14 15  1  0  0  0  0
 15 16  2  0  0  0  0
 16 17  1  0  0  0  0
 16 42  1  0  0  0  0
 17 18  1  0  0  0  0
 18 19  1  0  0  0  0
 18 43  1  0  0  0  0
 18 44  1  0  0  0  0
 19 24  1  0  0  0  0
 19 20  1  0  0  0  0
 19 21  1  0  0  0  0
 20 45  1  0  0  0  0
 21 22  1  0  0  0  0
 21 46  1  0  0  0  0
 21 47  1  0  0  0  0
 22 23  1  0  0  0  0
 22 48  1  0  0  0  0
 22 49  1  0  0  0  0
 23 24  1  0  0  0  0
 24 25  1  0  0  0  0
 24 50  1  0  0  0  0
 25 51  1  0  0  0  0
 25 52  1  0  0  0  0
 25 53  1  0  0  0  0
 26 27  1  0  0  0  0
 26 28  1  0  0  0  0
 27 54  1  0  0  0  0
 27 55  1  0  0  0  0
 27 56  1  0  0  0  0
 28 57  1  0  0  0  0
 28 58  1  0  0  0  0
 28 59  1  0  0  0  0
M  END
> <s_m_source_file>
AV-unprocessed.smi

> <i_m_source_file_index>
234

> <i_lp_mmshare_version>
43012

> <i_f3d_flags>
0

> <s_epik_input>
W0NIM11bQ0gyXU9bQ0BASF0oQzEoW0NIM10pW0NIM10pW0NIMl1bQ0BIXTFOKFtDSDNdKWMobltjSF1uMiljKGMyMyluW2NIXW4zW0NIMl1bQ0BAXTQoW09IXSlbQ0gyXVtDSDJdT1tDQEhdNFtDSDNd

> <s_epik_cmdline>
J2VwaWtfcHl0aG9uJywgJy1waCcsICc3LjAnLCAnLXRuJywgJzgnLCAnLW1hJywgJzIwMCcsICctbWV0YWxfYmluZGluZycsICctaW1hZScsICc8aW5maWxlLm1hZT4nLCAnLW9tYWUnLCAnPG91dGZpbGUubWFlPic=

> <r_lp_tautomer_probability>
1

> <r_epik_Ionization_Penalty>
0.00349132

> <r_epik_Ionization_Penalty_Charging>
0

> <r_epik_Ionization_Penalty_Neutral>
0.00349132

> <r_epik_State_Penalty>
0.00242418

> <r_epik_Charging_Adjusted_Penalty>
0.00242418

> <i_epik_Tot_Q>
0

> <i_epik_Tot_abs_Q>
0

> <r_epik_Metal_State_Penalty>
-0

> <b_epik_Metal_Only>
0

> <s_lp_Force_Field>
OPLS_2005

> <r_lp_Energy>
53.0859

> <b_lp_Chiralities_Consistent>
1

> <s_lp_Variant>
AV-unprocessed.smi:234-16

> <Gold.Version>
5.8.1

> <Gold.Id.Protein>
6NUR|6NUR_protein|mol2

> <Gold.PLP.Fitness>
44.4081

> <Gold.PLP.PLP>
-38.6835

> <Gold.PLP.part.hbond>
-1.8380

> <Gold.PLP.part.metal>
0.0000

> <Gold.PLP.part.buried>
-2.8906

> <Gold.PLP.part.nonpolar>
-33.8888

> <Gold.PLP.part.repulsive>
0.3827

> <Gold.PLP.ligand.clash>
0.0000

> <Gold.PLP.ligand.torsion>
0.4636

> <Gold.PLP.Chemscore.Hbond>
2.0000

> <Gold.PLP.Chemscore.CHOScore>
0.0000

> <Gold.PLP.Chemscore.Metal>
0.0000

> <Gold.Chemscore.Hbonds>
donor molecule, donor type, donor heavy atom, donor atom, acceptor molecule, acceptor atom, score
      L1  H    20    45       P1 10747  0.36
      P1  H  7997  8008       L1     3  0.98

> <Gold.PLP.Chemscore.Internal.Correction>
0.6518

> <Gold.Rescore>
     Score         DG    S(hbond)    S(metal)    S(lipo)     H(rot)  DE(clash)    DE(int)     intcor
     14.20     -16.56       1.91        0.00      91.96       2.37       0.03       2.33       ----

> <Gold.Chemscore.Fitness>
14.1956

> <Gold.Chemscore.DG>
-16.5604

> <Gold.Chemscore.ZeroCoef>
-5.4800

> <Gold.Chemscore.Hbond>
1.9106

> <Gold.Chemscore.Metal>
0.0000

> <Gold.Chemscore.Lipo>
91.9647

> <Gold.Chemscore.Internal_Hbond>
0.0000

> <Gold.Chemscore.DEClash>
0.0300

> <Gold.Chemscore.DEInternal>
2.3348

> <Gold.Chemscore.Rot>
2.3676

> <Gold.Chemscore.Internal.Correction>
   9.000000E+99

> <Gold.Chemscore.Hbonds>
donor molecule, donor type, donor heavy atom, donor atom, acceptor molecule, acceptor atom, score
      L1  H    20    45       P1 10747  0.37
      P1  H  7997  8008       L1     3  0.50

> <Gold.Chemscore.Hbond.Weighted>
-6.3815

> <Gold.Chemscore.Metal.Weighted>
-0.0000

> <Gold.Chemscore.Lipo.Weighted>
-10.7599

> <Gold.Chemscore.Internal_Hbond.Weighted>
0.0000

> <Gold.Chemscore.DEClash.Weighted>
0.0300

> <Gold.Chemscore.DEInternal.Weighted>
2.3348

> <Gold.Chemscore.Rot.Weighted>
6.0610

> <Gold.Chemscore.Internal.Correction.Weighted>
   9.000000E+99

> <Gold.Protein.RotatedTorsions>
[ 6907 6896 6895 6894 ] final -153.36 input  -60.11 | X-H torsion
[ 7974 7965 7964 7962 ] final  143.59 input  175.53 | X-H torsion
[ 8008 7997 7996 7995 ] final  -95.68 input   59.86 | X-H torsion
[ 10167 10162 10161 10158 ] final  -54.40 input  -65.29 | X-H torsion
[ 10718 10713 10712 10709 ] final    0.64 input   66.30 | X-H torsion
[ 10763 10752 10751 10750 ] final -172.06 input  -60.55 | X-H torsion
[ 11005 11000 10999 10996 ] final   77.20 input  -57.11 | X-H torsion

> <Gold.Protein.ActiveResidues>
 VAL166  LYS551  ARG553  GLY616  TRP617  ASP618  TYR619  PRO620  LYS621  CYS622 
 ASP623  PHE694  ASN695  SER759  ASP760  ASP761  ALA762  ILE779  LEU786  VAL792 
 PHE793  MET794  SER795  GLU796  ALA797  LYS798  CYS799  TRP800  GLU811  SER814 

> <Gold.Protein.RotatedAtoms>
  151.2414  133.4398  159.2607 H   0  0  0  0  0  0  0  0  0  0  0  0  # atno 6907 bound_to 6896
  151.0702  134.9793  159.8315 H   0  0  0  0  0  0  0  0  0  0  0  0  # atno 6908 bound_to 6896
  152.5411  134.2359  159.8896 H   0  0  0  0  0  0  0  0  0  0  0  0  # atno 6909 bound_to 6896
  144.8907  139.5562  143.5799 H   0  0  0  0  0  0  0  0  0  0  0  0  # atno 7974 bound_to 7965
  154.7646  140.0478  157.1001 H   0  0  0  0  0  0  0  0  0  0  0  0  # atno 8008 bound_to 7997
  154.9896  140.3111  155.4892 H   0  0  0  0  0  0  0  0  0  0  0  0  # atno 8009 bound_to 7997
  156.2910  140.2221  156.5000 H   0  0  0  0  0  0  0  0  0  0  0  0  # atno 8010 bound_to 7997
  140.6432  143.2520  151.4931 H   0  0  0  0  0  0  0  0  0  0  0  0  # atno 10167 bound_to 10162
  156.8364  130.5506  149.5682 H   0  0  0  0  0  0  0  0  0  0  0  0  # atno 10718 bound_to 10713
  154.6236  135.2878  155.0298 H   0  0  0  0  0  0  0  0  0  0  0  0  # atno 10763 bound_to 10752
  154.1484  135.6507  153.4962 H   0  0  0  0  0  0  0  0  0  0  0  0  # atno 10764 bound_to 10752
  153.0247  135.5349  154.7035 H   0  0  0  0  0  0  0  0  0  0  0  0  # atno 10765 bound_to 10752
  139.9265  134.7663  156.1492 H   0  0  0  0  0  0  0  0  0  0  0  0  # atno 11005 bound_to 11000
  146.3052  139.7557  142.9061 LP  0  0  0  0  0  0  0  0  0  0  0  0  # atno 17320 bound_to 7965
  145.3787  141.0355  143.3189 LP  0  0  0  0  0  0  0  0  0  0  0  0  # atno 17321 bound_to 7965
  139.5642  144.2083  152.1739 LP  0  0  0  0  0  0  0  0  0  0  0  0  # atno 17342 bound_to 10162
  140.1360  144.5246  150.6773 LP  0  0  0  0  0  0  0  0  0  0  0  0  # atno 17343 bound_to 10162
  156.0905  130.5892  150.9724 LP  0  0  0  0  0  0  0  0  0  0  0  0  # atno 17370 bound_to 10713
  157.6379  131.0914  150.8311 LP  0  0  0  0  0  0  0  0  0  0  0  0  # atno 17371 bound_to 10713
  141.0825  133.6748  156.2367 LP  0  0  0  0  0  0  0  0  0  0  0  0  # atno 17394 bound_to 11000
  140.6323  134.5252  157.5561 LP  0  0  0  0  0  0  0  0  0  0  0  0  # atno 17395 bound_to 11000

$$$$
