#       Name:                AV-unprocessed.smi:3196
#       Creating user name   scv26
#       Creation time:       Fri Mar 27 18:05:44 2020


#       File generated by GOLD software.
#

@<TRIPOS>MOLECULE
AV-unprocessed.smi:3196
    36    37     1
SMALL
NO_CHARGES


@<TRIPOS>ATOM
      1 ****         4.8744   0.8340   6.2982 C.3            1 S1                 0.0000
      2 ****         3.6200   0.8172   5.4179 C.3            1 S1                 0.0000
      3 ****         3.9348   0.4919   3.9516 C.3            1 S1                 0.0000
      4 ****         2.6916   0.4687   3.0852 C.3            1 S1                 0.0000
      5 ****         2.1515   1.7421   2.4919 C.3            1 S1                 0.0000
      6 ****         2.7805   0.6981   1.5919 C.3            1 S1                 0.0000
      7 ****         1.8922  -0.0319   0.7384 N.am           1 S1                 0.0000
      8 ****         2.2108  -0.7979  -0.3204 C.2            1 S1                 0.0000
      9 ****         3.3776  -0.9110  -0.6893 O.2            1 S1                 0.0000
     10 ****         1.1496  -1.3621  -0.9312 N.am           1 S1                 0.0000
     11 ****         1.1017  -2.2034  -2.0771 C.ar           1 S1                 0.0000
     12 ****         2.2263  -2.8415  -2.6557 C.ar           1 S1                 0.0000
     13 ****         2.0308  -3.6577  -3.7881 C.ar           1 S1                 0.0000
     14 ****         0.8237  -3.8723  -4.3527 N.ar           1 S1                 0.0000
     15 ****        -0.2472  -3.2713  -3.7927 C.ar           1 S1                 0.0000
     16 ****        -0.1620  -2.4360  -2.6608 C.ar           1 S1                 0.0000
     17 ****        -1.2791  -1.8664  -2.1468 F              1 S1                 0.0000
     18 ****         4.6210   1.0740   7.3311 H              1 S1                 0.0000
     19 ****         5.5903   1.5786   5.9495 H              1 S1                 0.0000
     20 ****         5.3708  -0.1367   6.2944 H              1 S1                 0.0000
     21 ****         2.9144   0.0848   5.8119 H              1 S1                 0.0000
     22 ****         3.1251   1.7871   5.4789 H              1 S1                 0.0000
     23 ****         4.6389   1.2224   3.5513 H              1 S1                 0.0000
     24 ****         4.4201  -0.4820   3.8816 H              1 S1                 0.0000
     25 ****         1.9483  -0.2567   3.4122 H              1 S1                 0.0000
     26 ****         1.0698   1.8596   2.4625 H              1 S1                 0.0000
     27 ****         2.7124   2.6588   2.6629 H              1 S1                 0.0000
     28 ****         3.7543   0.9732   1.1890 H              1 S1                 0.0000
     29 ****         0.9072   0.0933   0.9220 H              1 S1                 0.0000
     30 ****         0.2484  -1.1218  -0.5444 H              1 S1                 0.0000
     31 ****         3.2232  -2.7355  -2.2591 H              1 S1                 0.0000
     32 ****         2.8696  -4.1563  -4.2509 H              1 S1                 0.0000
     33 ****        -1.2018  -3.4626  -4.2602 H              1 S1                 0.0000
     34 ****         4.1054  -0.4300  -0.2005 LP             1 S1                 0.0000
     35 ****         3.5993  -1.4841  -1.4782 LP             1 S1                 0.0000
     36 ****         0.7262  -4.4566  -5.1583 LP             1 S1                 0.0000
@<TRIPOS>BOND
    1    1    2 1     
    2    1   18 1     
    3    1   19 1     
    4    1   20 1     
    5    2    3 1     
    6    2   21 1     
    7    2   22 1     
    8    3    4 1     
    9    3   23 1     
   10    3   24 1     
   11    4    6 1     
   12    4    5 1     
   13    4   25 1     
   14    5    6 1     
   15    5   26 1     
   16    5   27 1     
   17    6    7 1     
   18    6   28 1     
   19    7    8 am    
   20    7   29 1     
   21    8    9 2     
   22    8   10 am    
   23   10   11 1     
   24   10   30 1     
   25   11   16 ar    
   26   11   12 ar    
   27   12   13 ar    
   28   12   31 1     
   29   13   14 ar    
   30   13   32 1     
   31   14   15 ar    
   32   15   16 ar    
   33   15   33 1     
   34   16   17 1     
   35    9   34 1     
   36    9   35 1     
   37   14   36 1     
@<TRIPOS>SUBSTRUCTURE
      1 S1             1
@<TRIPOS>SET
LONE_PAIRS      STATIC     ATOMS    <user>   **** ""
3 34 35 36
DONOR_HYDROGENS      STATIC     ATOMS    <user>   **** ""
2 29 30
ATOM$BLUE        STATIC     ATOMS    COLORGROUP SYSTEM
3 34 35 36
ATOM$RED        STATIC     ATOMS    COLORGROUP SYSTEM
2 29 30
