AV-unprocessed.smi:196|AV-procd|sdf|1538|dock5
  -GOLD-   2262019393D 1   1.00000     0.00000
 Structure written by MMmdl.
 47 50  0  0  0  0  0  0  0  0  1 V2000
  144.2694  136.6720  162.6889 C   0  0  0  0  0  0  0  0  0  0  0  0
  145.1629  135.5809  162.0767 C   0  0  2  0  0  0  0  0  0  0  0  0
  145.5066  134.6080  163.0525 O   0  0  0  0  0  0  0  0  0  0  0  0
  146.6077  133.8803  162.5399 C   0  0  0  0  0  0  0  0  0  0  0  0
  147.5022  134.9792  161.9785 C   0  0  0  0  0  0  0  0  0  0  0  0
  146.5161  136.0336  161.4657 C   0  0  2  0  0  0  0  0  0  0  0  0
  146.9231  137.2973  161.9648 O   0  0  0  0  0  0  0  0  0  0  0  0
  146.4952  136.1074  159.9190 C   0  0  0  0  0  0  0  0  0  0  0  0
  147.7364  136.6047  159.3446 N   0  0  0  0  0  0  0  0  0  0  0  0
  149.0111  136.1666  159.6289 C   0  0  0  0  0  0  0  0  0  0  0  0
  149.9683  136.7786  158.9869 N   0  0  0  0  0  0  0  0  0  0  0  0
  149.3016  137.7010  158.1915 C   0  0  0  0  0  0  0  0  0  0  0  0
  149.7256  138.6768  157.2518 C   0  0  0  0  0  0  0  0  0  0  0  0
  151.0450  138.8710  156.9887 N   0  0  0  0  0  0  0  0  0  0  0  0
  151.5044  140.1601  157.4947 C   0  0  0  0  0  0  0  0  0  0  0  0
  151.5617  141.1087  156.2863 C   0  0  2  0  0  0  0  0  0  0  0  0
  150.5770  142.0066  156.3315 F   0  0  0  0  0  0  0  0  0  0  0  0
  151.4046  140.2063  155.0559 C   0  0  0  0  0  0  0  0  0  0  0  0
  151.5765  138.7866  155.6208 C   0  0  2  0  0  0  0  0  0  0  0  0
  151.0534  137.6434  154.7245 C   0  0  0  0  0  0  0  0  0  0  0  0
  150.2694  137.9862  153.6993 N   0  0  0  0  0  0  0  0  0  0  0  0
  151.3829  136.4744  154.9191 O   0  0  0  0  0  0  0  0  0  0  0  0
  148.7669  139.4344  156.6541 N   0  0  0  0  0  0  0  0  0  0  0  0
  147.4774  139.2332  156.9403 C   0  0  0  0  0  0  0  0  0  0  0  0
  146.9377  138.3526  157.7854 N   0  0  0  0  0  0  0  0  0  0  0  0
  147.8976  137.6026  158.3990 C   0  0  0  0  0  0  0  0  0  0  0  0
  152.5010  141.6621  156.2682 H   0  0  0  0  0  0  0  0  0  0  0  0
  152.6457  138.5964  155.7322 H   0  0  0  0  0  0  0  0  0  0  0  0
  144.0058  137.4264  161.9472 H   0  0  0  0  0  0  0  0  0  0  0  0
  144.7609  137.1731  163.5230 H   0  0  0  0  0  0  0  0  0  0  0  0
  143.3416  136.2422  163.0663 H   0  0  0  0  0  0  0  0  0  0  0  0
  144.5860  135.0486  161.3200 H   0  0  0  0  0  0  0  0  0  0  0  0
  147.0983  133.2901  163.3141 H   0  0  0  0  0  0  0  0  0  0  0  0
  146.2709  133.2060  161.7505 H   0  0  0  0  0  0  0  0  0  0  0  0
  148.1162  135.3770  162.7886 H   0  0  0  0  0  0  0  0  0  0  0  0
  148.1810  134.6066  161.2105 H   0  0  0  0  0  0  0  0  0  0  0  0
  146.3120  137.5669  162.6331 H   0  0  0  0  0  0  0  0  0  0  0  0
  146.2929  135.1233  159.4936 H   0  0  0  0  0  0  0  0  0  0  0  0
  145.6816  136.7536  159.5869 H   0  0  0  0  0  0  0  0  0  0  0  0
  149.2113  135.3774  160.3389 H   0  0  0  0  0  0  0  0  0  0  0  0
  150.8818  140.5617  158.2972 H   0  0  0  0  0  0  0  0  0  0  0  0
  152.5025  140.0214  157.9122 H   0  0  0  0  0  0  0  0  0  0  0  0
  150.4171  140.3343  154.6101 H   0  0  0  0  0  0  0  0  0  0  0  0
  152.1433  140.4361  154.2874 H   0  0  0  0  0  0  0  0  0  0  0  0
  149.9064  137.2750  153.0815 H   0  0  0  0  0  0  0  0  0  0  0  0
  150.0468  138.9586  153.5435 H   0  0  0  0  0  0  0  0  0  0  0  0
  146.7787  139.8705  156.4188 H   0  0  0  0  0  0  0  0  0  0  0  0
  1  2  1  0  0  0  0
  1 29  1  0  0  0  0
  1 30  1  0  0  0  0
  1 31  1  0  0  0  0
  2  6  1  0  0  0  0
  2  3  1  0  0  0  0
  2 32  1  0  0  0  0
  3  4  1  0  0  0  0
  4  5  1  0  0  0  0
  4 33  1  0  0  0  0
  4 34  1  0  0  0  0
  5  6  1  0  0  0  0
  5 35  1  0  0  0  0
  5 36  1  0  0  0  0
  6  7  1  0  0  0  0
  6  8  1  0  0  0  0
  7 37  1  0  0  0  0
  8  9  1  0  0  0  0
  8 38  1  0  0  0  0
  8 39  1  0  0  0  0
  9 26  1  0  0  0  0
  9 10  1  0  0  0  0
 10 11  2  0  0  0  0
 10 40  1  0  0  0  0
 11 12  1  0  0  0  0
 12 26  2  0  0  0  0
 12 13  1  0  0  0  0
 13 14  1  0  0  0  0
 13 23  2  0  0  0  0
 14 19  1  0  0  0  0
 14 15  1  0  0  0  0
 15 16  1  0  0  0  0
 15 41  1  0  0  0  0
 15 42  1  0  0  0  0
 16 27  1  0  0  0  0
 16 17  1  0  0  0  0
 16 18  1  0  0  0  0
 18 19  1  0  0  0  0
 18 43  1  0  0  0  0
 18 44  1  0  0  0  0
 19 28  1  0  0  0  0
 19 20  1  0  0  0  0
 20 21  1  0  0  0  0
 20 22  2  0  0  0  0
 21 45  1  0  0  0  0
 21 46  1  0  0  0  0
 23 24  1  0  0  0  0
 24 25  2  0  0  0  0
 24 47  1  0  0  0  0
 25 26  1  0  0  0  0
M  END
> <s_m_source_file>
AV-unprocessed.smi

> <i_m_source_file_index>
196

> <i_lp_mmshare_version>
43012

> <i_f3d_flags>
0

> <s_epik_input>
W0NIMl0xW0NIMl1PW0NAQEhdKFtDSDNdKVtDQEBdMShbT0hdKVtDSDJdbihbY0hdbjIpYyhjMjMpbltjSF1uYzNONFtDSDJdW0NASF0oRilbQ0gyXVtDQEhdNEMoPU8pW05IMl0=

> <s_epik_cmdline>
J2VwaWtfcHl0aG9uJywgJy1waCcsICc3LjAnLCAnLXRuJywgJzgnLCAnLW1hJywgJzIwMCcsICctbWV0YWxfYmluZGluZycsICctaW1hZScsICc8aW5maWxlLm1hZT4nLCAnLW9tYWUnLCAnPG91dGZpbGUubWFlPic=

> <r_lp_tautomer_probability>
1

> <r_epik_Ionization_Penalty>
0.000857933

> <r_epik_Ionization_Penalty_Charging>
0

> <r_epik_Ionization_Penalty_Neutral>
0.000857933

> <r_epik_State_Penalty>
0.000462053

> <r_epik_Charging_Adjusted_Penalty>
0.000462053

> <i_epik_Tot_Q>
0

> <i_epik_Tot_abs_Q>
0

> <r_epik_Metal_State_Penalty>
-0

> <b_epik_Metal_Only>
0

> <s_lp_Force_Field>
OPLS_2005

> <r_lp_Energy>
50.5725

> <b_lp_Chiralities_Consistent>
1

> <s_lp_Variant>
AV-unprocessed.smi:196-11

> <Gold.Version>
5.8.1

> <Gold.Id.Protein>
6NUR|6NUR_protein|mol2

> <Gold.PLP.Fitness>
43.7488

> <Gold.PLP.PLP>
-35.2095

> <Gold.PLP.part.hbond>
-5.6922

> <Gold.PLP.part.metal>
0.0000

> <Gold.PLP.part.buried>
-2.2657

> <Gold.PLP.part.nonpolar>
-27.1045

> <Gold.PLP.part.repulsive>
0.2346

> <Gold.PLP.ligand.clash>
0.0000

> <Gold.PLP.ligand.torsion>
0.4948

> <Gold.PLP.Chemscore.Hbond>
3.1529

> <Gold.PLP.Chemscore.CHOScore>
0.0000

> <Gold.PLP.Chemscore.Metal>
0.0000

> <Gold.Chemscore.Hbonds>
donor molecule, donor type, donor heavy atom, donor atom, acceptor molecule, acceptor atom, score
      L1  H    21    45       P1  7948  1.00
      P1  H  6931  6943       L1     7  0.23
      P1  H  6934  6947       L1     7  0.82
      P1  H 10752 10765       L1    22  1.00

> <Gold.PLP.Chemscore.Internal.Correction>
0.0703

> <Gold.Rescore>
     Score         DG    S(hbond)    S(metal)    S(lipo)     H(rot)  DE(clash)    DE(int)     intcor
     11.48     -14.71       2.73        0.00      67.43       3.04       2.44       0.79       ----

> <Gold.Chemscore.Fitness>
11.4781

> <Gold.Chemscore.DG>
-14.7070

> <Gold.Chemscore.ZeroCoef>
-5.4800

> <Gold.Chemscore.Hbond>
2.7317

> <Gold.Chemscore.Metal>
0.0000

> <Gold.Chemscore.Lipo>
67.4253

> <Gold.Chemscore.Internal_Hbond>
0.0000

> <Gold.Chemscore.DEClash>
2.4425

> <Gold.Chemscore.DEInternal>
0.7864

> <Gold.Chemscore.Rot>
3.0413

> <Gold.Chemscore.Internal.Correction>
   9.000000E+99

> <Gold.Chemscore.Hbonds>
donor molecule, donor type, donor heavy atom, donor atom, acceptor molecule, acceptor atom, score
      L1  H    21    45       P1  7948  0.26
      P1  H  6931  6943       L1     7  0.22
      P1  H  6934  6947       L1     7  0.23
      P1  H 10752 10765       L1    22  1.00

> <Gold.Chemscore.Hbond.Weighted>
-9.1239

> <Gold.Chemscore.Metal.Weighted>
-0.0000

> <Gold.Chemscore.Lipo.Weighted>
-7.8888

> <Gold.Chemscore.Internal_Hbond.Weighted>
0.0000

> <Gold.Chemscore.DEClash.Weighted>
2.4425

> <Gold.Chemscore.DEInternal.Weighted>
0.7864

> <Gold.Chemscore.Rot.Weighted>
7.7856

> <Gold.Chemscore.Internal.Correction.Weighted>
   9.000000E+99

> <Gold.Protein.RotatedTorsions>
[ 6907 6896 6895 6894 ] final -166.44 input  -60.11 | X-H torsion
[ 7974 7965 7964 7962 ] final -157.32 input  175.53 | X-H torsion
[ 8008 7997 7996 7995 ] final  135.73 input   59.86 | X-H torsion
[ 10167 10162 10161 10158 ] final  -12.14 input  -65.29 | X-H torsion
[ 10718 10713 10712 10709 ] final  -34.37 input   66.30 | X-H torsion
[ 10763 10752 10751 10750 ] final -179.33 input  -60.55 | X-H torsion
[ 11005 11000 10999 10996 ] final  -19.96 input  -57.11 | X-H torsion

> <Gold.Protein.ActiveResidues>
 VAL166  LYS551  ARG553  GLY616  TRP617  ASP618  TYR619  PRO620  LYS621  CYS622 
 ASP623  PHE694  ASN695  SER759  ASP760  ASP761  ALA762  ILE779  LEU786  VAL792 
 PHE793  MET794  SER795  GLU796  ALA797  LYS798  CYS799  TRP800  GLU811  SER814 

> <Gold.Protein.RotatedAtoms>
  151.4437  133.3636  159.2785 H   0  0  0  0  0  0  0  0  0  0  0  0  # atno 6907 bound_to 6896
  150.9140  134.8558  159.7455 H   0  0  0  0  0  0  0  0  0  0  0  0  # atno 6908 bound_to 6896
  152.4947  134.4369  159.9582 H   0  0  0  0  0  0  0  0  0  0  0  0  # atno 6909 bound_to 6896
  144.7553  140.3986  143.6017 H   0  0  0  0  0  0  0  0  0  0  0  0  # atno 7974 bound_to 7965
  156.3003  140.2463  156.3629 H   0  0  0  0  0  0  0  0  0  0  0  0  # atno 8008 bound_to 7997
  154.8860  140.0411  157.1830 H   0  0  0  0  0  0  0  0  0  0  0  0  # atno 8009 bound_to 7997
  154.8646  140.2926  155.5522 H   0  0  0  0  0  0  0  0  0  0  0  0  # atno 8010 bound_to 7997
  140.7154  143.5564  150.9244 H   0  0  0  0  0  0  0  0  0  0  0  0  # atno 10167 bound_to 10162
  156.3514  130.4309  149.7701 H   0  0  0  0  0  0  0  0  0  0  0  0  # atno 10718 bound_to 10713
  154.5364  135.2803  155.1135 H   0  0  0  0  0  0  0  0  0  0  0  0  # atno 10763 bound_to 10752
  154.2635  135.6317  153.5287 H   0  0  0  0  0  0  0  0  0  0  0  0  # atno 10764 bound_to 10752
  152.9968  135.5611  154.5891 H   0  0  0  0  0  0  0  0  0  0  0  0  # atno 10765 bound_to 10752
  140.8418  133.7921  155.9869 H   0  0  0  0  0  0  0  0  0  0  0  0  # atno 11005 bound_to 11000
  145.6799  139.1616  143.2706 LP  0  0  0  0  0  0  0  0  0  0  0  0  # atno 17320 bound_to 7965
  146.1556  140.6862  142.9301 LP  0  0  0  0  0  0  0  0  0  0  0  0  # atno 17321 bound_to 7965
  139.9289  143.6517  152.3080 LP  0  0  0  0  0  0  0  0  0  0  0  0  # atno 17342 bound_to 10162
  139.6960  144.7641  151.1355 LP  0  0  0  0  0  0  0  0  0  0  0  0  # atno 17343 bound_to 10162
  156.4900  130.8080  151.3091 LP  0  0  0  0  0  0  0  0  0  0  0  0  # atno 17370 bound_to 10713
  157.7461  130.9978  150.2831 LP  0  0  0  0  0  0  0  0  0  0  0  0  # atno 17371 bound_to 10713
  140.8887  134.2522  157.5106 LP  0  0  0  0  0  0  0  0  0  0  0  0  # atno 17394 bound_to 11000
  139.8703  134.9651  156.4516 LP  0  0  0  0  0  0  0  0  0  0  0  0  # atno 17395 bound_to 11000

$$$$
