#       Name:                AV-unprocessed.smi:34
#       Creating user name   scv26
#       Creation time:       Thu Mar 26 15:55:17 2020


#       File generated by GOLD software.
#

@<TRIPOS>MOLECULE
AV-unprocessed.smi:34
    66    70     1
SMALL
NO_CHARGES


@<TRIPOS>ATOM
      1 ****        -6.8032   1.9381   0.8380 O.2            1 S1                 0.0000
      2 ****        -6.4148   0.7776   0.6999 C.2            1 S1                 0.0000
      3 ****        -5.0327   0.4576   0.3902 N.am           1 S1                 0.0000
      4 ****        -3.9792   1.3035   0.3090 C.ar           1 S1                 0.0000
      5 ****        -4.0682   2.6130   0.6627 N.ar           1 S1                 0.0000
      6 ****        -2.9986   3.4091   0.5733 C.ar           1 S1                 0.0000
      7 ****        -1.7638   3.1052   0.1672 N.ar           1 S1                 0.0000
      8 ****        -1.6667   1.7899  -0.1830 C.ar           1 S1                 0.0000
      9 ****        -2.7179   0.8331  -0.1403 C.ar           1 S1                 0.0000
     10 ****        -2.2464  -0.4004  -0.5706 N.2            1 S1                 0.0000
     11 ****        -0.9897  -0.1790  -0.8502 C.2            1 S1                 0.0000
     12 ****        -0.5556   1.1131  -0.6370 N.pl3          1 S1                 0.0000
     13 ****         0.8036   1.7105  -0.8501 C.3            1 S1                 0.0000
     14 ****         1.4795   0.9184  -1.7835 O.3            1 S1                 0.0000
     15 ****         2.5104   0.1472  -1.1588 C.3            1 S1                 0.0000
     16 ****         3.8605   0.6853  -1.6546 C.3            1 S1                 0.0000
     17 ****         4.9048  -0.1401  -1.1645 O.3            1 S1                 0.0000
     18 ****         6.1857   0.2705  -1.2403 C.2            1 S1                 0.0000
     19 ****         6.5304   1.3431  -1.7405 O.2            1 S1                 0.0000
     20 ****         7.1432  -0.7071  -0.6471 C.ar           1 S1                 0.0000
     21 ****         8.5221  -0.3935  -0.6134 C.ar           1 S1                 0.0000
     22 ****         9.4497  -1.2954  -0.0567 C.ar           1 S1                 0.0000
     23 ****         9.0097  -2.5226   0.4725 C.ar           1 S1                 0.0000
     24 ****         7.6409  -2.8467   0.4446 C.ar           1 S1                 0.0000
     25 ****         6.7116  -1.9457  -0.1110 C.ar           1 S1                 0.0000
     26 ****         2.3115   0.3221   0.3519 C.3            1 S1                 0.0000
     27 ****         1.4985  -0.6425   0.7882 F              1 S1                 0.0000
     28 ****         1.6499   1.6863   0.4319 C.3            1 S1                 0.0000
     29 ****         0.9423   1.8769   1.6431 O.3            1 S1                 0.0000
     30 ****        -7.3656  -0.3829   0.7465 C.ar           1 S1                 0.0000
     31 ****        -8.7214  -0.2007   0.3919 C.ar           1 S1                 0.0000
     32 ****        -9.6248  -1.2799   0.4498 C.ar           1 S1                 0.0000
     33 ****        -9.1821  -2.5480   0.8706 C.ar           1 S1                 0.0000
     34 ****        -7.8360  -2.7357   1.2373 C.ar           1 S1                 0.0000
     35 ****        -6.9313  -1.6573   1.1791 C.ar           1 S1                 0.0000
     36 ****        -4.8312  -0.5173   0.2232 H              1 S1                 0.0000
     37 ****        -3.1551   4.4355   0.8710 H              1 S1                 0.0000
     38 ****        -0.3430  -0.9615  -1.2198 H              1 S1                 0.0000
     39 ****         0.6075   2.7108  -1.2378 H              1 S1                 0.0000
     40 ****         2.4091  -0.8988  -1.4516 H              1 S1                 0.0000
     41 ****         3.8886   0.6812  -2.7449 H              1 S1                 0.0000
     42 ****         3.9975   1.7173  -1.3285 H              1 S1                 0.0000
     43 ****         8.8834   0.5435  -1.0125 H              1 S1                 0.0000
     44 ****        10.5000  -1.0450  -0.0357 H              1 S1                 0.0000
     45 ****         9.7210  -3.2144   0.8991 H              1 S1                 0.0000
     46 ****         7.3020  -3.7885   0.8502 H              1 S1                 0.0000
     47 ****         5.6687  -2.2265  -0.1167 H              1 S1                 0.0000
     48 ****         3.2325   0.2532   0.9316 H              1 S1                 0.0000
     49 ****         2.4082   2.4649   0.3400 H              1 S1                 0.0000
     50 ****         0.4660   2.6915   1.5878 H              1 S1                 0.0000
     51 ****        -9.0771   0.7669   0.0682 H              1 S1                 0.0000
     52 ****       -10.6582  -1.1336   0.1722 H              1 S1                 0.0000
     53 ****        -9.8752  -3.3751   0.9159 H              1 S1                 0.0000
     54 ****        -7.4974  -3.7071   1.5666 H              1 S1                 0.0000
     55 ****        -5.9048  -1.8208   1.4739 H              1 S1                 0.0000
     56 ****        -6.1590   2.6963   0.7370 LP             1 S1                 0.0000
     57 ****        -7.7627   2.1222   1.0512 LP             1 S1                 0.0000
     58 ****        -4.9376   2.9821   0.9912 LP             1 S1                 0.0000
     59 ****        -1.0071   3.7577   0.1251 LP             1 S1                 0.0000
     60 ****        -2.7521  -1.2596  -0.6484 LP             1 S1                 0.0000
     61 ****         1.8900   1.5104  -2.4771 LP             1 S1                 0.0000
     62 ****         0.8267   0.2983  -2.2185 LP             1 S1                 0.0000
     63 ****         5.8424   1.9625  -2.1186 LP             1 S1                 0.0000
     64 ****         7.4981   1.5939  -1.7681 LP             1 S1                 0.0000
     65 ****         1.5861   1.9139   2.4075 LP             1 S1                 0.0000
     66 ****         0.3026   1.1210   1.7824 LP             1 S1                 0.0000
@<TRIPOS>BOND
    1    1    2 2     
    2    2    3 am    
    3    2   30 1     
    4    3    4 1     
    5    3   36 1     
    6    4    9 ar    
    7    4    5 ar    
    8    5    6 ar    
    9    6    7 ar    
   10    6   37 1     
   11    7    8 ar    
   12    8   12 1     
   13    8    9 ar    
   14    9   10 1     
   15   10   11 2     
   16   11   12 1     
   17   11   38 1     
   18   12   13 1     
   19   13   28 1     
   20   13   14 1     
   21   13   39 1     
   22   14   15 1     
   23   15   16 1     
   24   15   26 1     
   25   15   40 1     
   26   16   17 1     
   27   16   41 1     
   28   16   42 1     
   29   17   18 1     
   30   18   19 2     
   31   18   20 1     
   32   20   25 ar    
   33   20   21 ar    
   34   21   22 ar    
   35   21   43 1     
   36   22   23 ar    
   37   22   44 1     
   38   23   24 ar    
   39   23   45 1     
   40   24   25 ar    
   41   24   46 1     
   42   25   47 1     
   43   26   27 1     
   44   26   28 1     
   45   26   48 1     
   46   28   29 1     
   47   28   49 1     
   48   29   50 1     
   49   30   35 ar    
   50   30   31 ar    
   51   31   32 ar    
   52   31   51 1     
   53   32   33 ar    
   54   32   52 1     
   55   33   34 ar    
   56   33   53 1     
   57   34   35 ar    
   58   34   54 1     
   59   35   55 1     
   60    1   56 1     
   61    1   57 1     
   62    5   58 1     
   63    7   59 1     
   64   10   60 1     
   65   14   61 1     
   66   14   62 1     
   67   19   63 1     
   68   19   64 1     
   69   29   65 1     
   70   29   66 1     
@<TRIPOS>SUBSTRUCTURE
      1 S1             1
@<TRIPOS>SET
LONE_PAIRS      STATIC     ATOMS    <user>   **** ""
11 56 57 58 59 60 61 62 63 64 65 66
DONOR_HYDROGENS      STATIC     ATOMS    <user>   **** ""
2 36 50
ATOM$BLUE        STATIC     ATOMS    COLORGROUP SYSTEM
11 56 57 58 59 60 61 62 63 64 65 66
ATOM$RED        STATIC     ATOMS    COLORGROUP SYSTEM
2 36 50
