AV-unprocessed.smi:598|AV-procd|sdf|3024|dock5
  -GOLD-   2262023533D 1   1.00000     0.00000
 Structure written by MMmdl.
 43 44  0  0  0  0  0  0  0  0  3 V2000
  152.7102  142.3763  162.1812 C   0  0  0  0  0  0  0  0  0  0  0  0
  153.7024  142.2836  161.0037 C   0  0  1  0  0  0  0  0  0  0  0  0
  154.5346  140.9867  161.0644 C   0  0  0  0  0  0  0  0  0  0  0  0
  153.7063  139.7477  160.6913 C   0  0  0  0  0  0  0  0  0  0  0  0
  153.0632  139.9098  159.3076 C   0  0  0  0  0  0  0  0  0  0  0  0
  152.2150  141.1927  159.2130 C   0  0  2  0  0  0  0  0  0  0  0  0
  151.7008  141.3075  157.8483 N   0  0  0  0  0  0  0  0  0  0  0  0
  150.8108  140.4869  157.2686 C   0  0  0  0  0  0  0  0  0  0  0  0
  150.2880  139.5343  157.8485 O   0  0  0  0  0  0  0  0  0  0  0  0
  150.4452  140.8175  155.8146 C   0  0  0  0  0  0  0  0  0  0  0  0
  149.0739  141.3325  155.6615 N   0  0  0  0  0  0  0  0  0  0  0  0
  148.3474  141.5830  156.8426 C   0  0  0  0  0  0  0  0  0  0  0  0
  147.0836  142.0500  156.8203 C   0  0  0  0  0  0  0  0  0  0  0  0
  146.3521  142.3006  158.0427 N   0  3  0  0  0  0  0  0  0  0  0  0
  145.1848  142.6695  157.9645 O   0  0  0  0  0  0  0  0  0  0  0  0
  146.9185  142.1391  159.1195 O   0  5  0  0  0  0  0  0  0  0  0  0
  146.4771  142.2923  155.5255 C   0  0  0  0  0  0  0  0  0  0  0  0
  147.1658  142.0523  154.3923 C   0  0  0  0  0  0  0  0  0  0  0  0
  148.5413  141.5445  154.4190 C   0  0  0  0  0  0  0  0  0  0  0  0
  149.1756  141.3228  153.3874 O   0  0  0  0  0  0  0  0  0  0  0  0
  153.0466  142.4439  159.6055 C   0  0  1  0  0  0  0  0  0  0  0  0
  152.2585  143.7629  159.4784 C   0  0  0  0  0  0  0  0  0  0  0  0
  151.9262  141.6222  162.1212 H   0  0  0  0  0  0  0  0  0  0  0  0
  152.2267  143.3520  162.2218 H   0  0  0  0  0  0  0  0  0  0  0  0
  153.2239  142.2388  163.1329 H   0  0  0  0  0  0  0  0  0  0  0  0
  154.4027  143.1103  161.1312 H   0  0  0  0  0  0  0  0  0  0  0  0
  155.3778  141.0697  160.3773 H   0  0  0  0  0  0  0  0  0  0  0  0
  154.9677  140.8605  162.0573 H   0  0  0  0  0  0  0  0  0  0  0  0
  154.3422  138.8620  160.7004 H   0  0  0  0  0  0  0  0  0  0  0  0
  152.9325  139.5746  161.4396 H   0  0  0  0  0  0  0  0  0  0  0  0
  153.8485  139.9300  158.5503 H   0  0  0  0  0  0  0  0  0  0  0  0
  152.4465  139.0375  159.0873 H   0  0  0  0  0  0  0  0  0  0  0  0
  151.3827  141.0925  159.9112 H   0  0  0  0  0  0  0  0  0  0  0  0
  152.0655  142.0686  157.2938 H   0  0  0  0  0  0  0  0  0  0  0  0
  151.1714  141.5398  155.4388 H   0  0  0  0  0  0  0  0  0  0  0  0
  150.5818  139.9286  155.1958 H   0  0  0  0  0  0  0  0  0  0  0  0
  148.8849  141.3648  157.7543 H   0  0  0  0  0  0  0  0  0  0  0  0
  145.4661  142.6653  155.4545 H   0  0  0  0  0  0  0  0  0  0  0  0
  146.6940  142.2383  153.4385 H   0  0  0  0  0  0  0  0  0  0  0  0
  153.8683  142.5148  158.8906 H   0  0  0  0  0  0  0  0  0  0  0  0
  151.3341  143.7353  160.0557 H   0  0  0  0  0  0  0  0  0  0  0  0
  151.9898  143.9687  158.4424 H   0  0  0  0  0  0  0  0  0  0  0  0
  152.8489  144.6096  159.8296 H   0  0  0  0  0  0  0  0  0  0  0  0
  1  2  1  0  0  0  0
  1 23  1  0  0  0  0
  1 24  1  0  0  0  0
  1 25  1  0  0  0  0
  2 21  1  0  0  0  0
  2  3  1  0  0  0  0
  2 26  1  0  0  0  0
  3  4  1  0  0  0  0
  3 27  1  0  0  0  0
  3 28  1  0  0  0  0
  4  5  1  0  0  0  0
  4 29  1  0  0  0  0
  4 30  1  0  0  0  0
  5  6  1  0  0  0  0
  5 31  1  0  0  0  0
  5 32  1  0  0  0  0
  6  7  1  0  0  0  0
  6 21  1  0  0  0  0
  6 33  1  0  0  0  0
  7  8  1  0  0  0  0
  7 34  1  0  0  0  0
  8  9  2  0  0  0  0
  8 10  1  0  0  0  0
 10 11  1  0  0  0  0
 10 35  1  0  0  0  0
 10 36  1  0  0  0  0
 11 19  1  0  0  0  0
 11 12  1  0  0  0  0
 12 13  2  0  0  0  0
 12 37  1  0  0  0  0
 13 14  1  0  0  0  0
 13 17  1  0  0  0  0
 14 15  2  0  0  0  0
 14 16  1  0  0  0  0
 17 18  2  0  0  0  0
 17 38  1  0  0  0  0
 18 19  1  0  0  0  0
 18 39  1  0  0  0  0
 19 20  2  0  0  0  0
 21 22  1  0  0  0  0
 21 40  1  0  0  0  0
 22 41  1  0  0  0  0
 22 42  1  0  0  0  0
 22 43  1  0  0  0  0
M  CHG  1  14   1
M  CHG  1  16  -1
M  END
> <s_m_source_file>
AV-unprocessed.smi

> <i_m_source_file_index>
598

> <i_lp_mmshare_version>
43012

> <i_f3d_flags>
0

> <s_epik_input>
W0NIM11bQ0BASF0xW0NIMl1bQ0gyXVtDSDJdW0NASF0oW0NASF0xW0NIM10pW05IXUMoPU8pW0NIMl1uMltjSF1jKFtOK10oPU8pW08tXSlbY0hdW2NIXWMyPU8=

> <s_epik_cmdline>
J2VwaWtfcHl0aG9uJywgJy1waCcsICc3LjAnLCAnLXRuJywgJzgnLCAnLW1hJywgJzIwMCcsICctbWV0YWxfYmluZGluZycsICctaW1hZScsICc8aW5maWxlLm1hZT4nLCAnLW9tYWUnLCAnPG91dGZpbGUubWFlPic=

> <r_lp_tautomer_probability>
1

> <r_epik_Ionization_Penalty>
1.91291e-08

> <r_epik_Ionization_Penalty_Charging>
8.21931e-11

> <r_epik_Ionization_Penalty_Neutral>
1.90469e-08

> <r_epik_State_Penalty>
-0

> <r_epik_Charging_Adjusted_Penalty>
8.21931e-11

> <i_epik_Tot_Q>
0

> <i_epik_Tot_abs_Q>
2

> <r_epik_Metal_State_Penalty>
-0

> <b_epik_Metal_Only>
0

> <s_lp_Force_Field>
OPLS_2005

> <r_lp_Energy>
25.417

> <b_lp_Chiralities_Consistent>
1

> <s_lp_Variant>
AV-unprocessed.smi:598-4

> <Gold.Version>
5.8.1

> <Gold.Id.Protein>
6NUR|6NUR_protein|mol2

> <Gold.PLP.Fitness>
45.6595

> <Gold.PLP.PLP>
-41.5998

> <Gold.PLP.part.hbond>
-2.9451

> <Gold.PLP.part.metal>
0.0000

> <Gold.PLP.part.buried>
-5.3455

> <Gold.PLP.part.nonpolar>
-36.8691

> <Gold.PLP.part.repulsive>
3.5671

> <Gold.PLP.ligand.clash>
0.7357

> <Gold.PLP.ligand.torsion>
0.2020

> <Gold.PLP.Chemscore.Hbond>
1.7280

> <Gold.PLP.Chemscore.CHOScore>
0.0000

> <Gold.PLP.Chemscore.Metal>
0.0000

> <Gold.Chemscore.Hbonds>
donor molecule, donor type, donor heavy atom, donor atom, acceptor molecule, acceptor atom, score
      P1  H  6934  6946       L1    16  0.75
      P1  H  8011  8017       L1    20  0.99

> <Gold.PLP.Chemscore.Internal.Correction>
0.0154

> <Gold.Rescore>
     Score         DG    S(hbond)    S(metal)    S(lipo)     H(rot)  DE(clash)    DE(int)     intcor
     16.19     -18.95       1.72        0.00      99.60       1.54       1.49       1.26       ----

> <Gold.Chemscore.Fitness>
16.1935

> <Gold.Chemscore.DG>
-18.9517

> <Gold.Chemscore.ZeroCoef>
-5.4800

> <Gold.Chemscore.Hbond>
1.7243

> <Gold.Chemscore.Metal>
0.0000

> <Gold.Chemscore.Lipo>
99.6014

> <Gold.Chemscore.Internal_Hbond>
0.0000

> <Gold.Chemscore.DEClash>
1.4937

> <Gold.Chemscore.DEInternal>
1.2645

> <Gold.Chemscore.Rot>
1.5393

> <Gold.Chemscore.Internal.Correction>
   9.000000E+99

> <Gold.Chemscore.Hbonds>
donor molecule, donor type, donor heavy atom, donor atom, acceptor molecule, acceptor atom, score
      P1  H  6934  6946       L1    16  0.68
      P1  H  7989  7998       L1    20  0.01
      P1  H  8011  8017       L1    20  0.93

> <Gold.Chemscore.Hbond.Weighted>
-5.7591

> <Gold.Chemscore.Metal.Weighted>
-0.0000

> <Gold.Chemscore.Lipo.Weighted>
-11.6534

> <Gold.Chemscore.Internal_Hbond.Weighted>
0.0000

> <Gold.Chemscore.DEClash.Weighted>
1.4937

> <Gold.Chemscore.DEInternal.Weighted>
1.2645

> <Gold.Chemscore.Rot.Weighted>
3.9407

> <Gold.Chemscore.Internal.Correction.Weighted>
   9.000000E+99

> <Gold.Protein.RotatedTorsions>
[ 6907 6896 6895 6894 ] final  -66.78 input  -60.11 | X-H torsion
[ 7974 7965 7964 7962 ] final   -2.28 input  175.53 | X-H torsion
[ 8008 7997 7996 7995 ] final   -7.92 input   59.86 | X-H torsion
[ 10167 10162 10161 10158 ] final  119.12 input  -65.29 | X-H torsion
[ 10718 10713 10712 10709 ] final   12.11 input   66.30 | X-H torsion
[ 10763 10752 10751 10750 ] final  -61.76 input  -60.55 | X-H torsion
[ 11005 11000 10999 10996 ] final  155.21 input  -57.11 | X-H torsion

> <Gold.Protein.ActiveResidues>
 VAL166  LYS551  ARG553  GLY616  TRP617  ASP618  TYR619  PRO620  LYS621  CYS622 
 ASP623  PHE694  ASN695  SER759  ASP760  ASP761  ALA762  ILE779  LEU786  VAL792 
 PHE793  MET794  SER795  GLU796  ALA797  LYS798  CYS799  TRP800  GLU811  SER814 

> <Gold.Protein.RotatedAtoms>
  150.7446  134.5973  159.6017 H   0  0  0  0  0  0  0  0  0  0  0  0  # atno 6907 bound_to 6896
  152.3344  134.7214  160.0290 H   0  0  0  0  0  0  0  0  0  0  0  0  # atno 6908 bound_to 6896
  151.7687  133.3303  159.3475 H   0  0  0  0  0  0  0  0  0  0  0  0  # atno 6909 bound_to 6896
  146.2406  140.1548  142.8333 H   0  0  0  0  0  0  0  0  0  0  0  0  # atno 7974 bound_to 7965
  154.5791  140.2394  155.8079 H   0  0  0  0  0  0  0  0  0  0  0  0  # atno 8008 bound_to 7997
  156.2166  140.3010  155.9809 H   0  0  0  0  0  0  0  0  0  0  0  0  # atno 8009 bound_to 7997
  155.2573  140.0413  157.2984 H   0  0  0  0  0  0  0  0  0  0  0  0  # atno 8010 bound_to 7997
  139.6067  144.7071  151.2938 H   0  0  0  0  0  0  0  0  0  0  0  0  # atno 10167 bound_to 10162
  157.0054  130.6096  149.5701 H   0  0  0  0  0  0  0  0  0  0  0  0  # atno 10718 bound_to 10713
  154.2895  135.6256  153.5379 H   0  0  0  0  0  0  0  0  0  0  0  0  # atno 10763 bound_to 10752
  152.9854  135.5652  154.5406 H   0  0  0  0  0  0  0  0  0  0  0  0  # atno 10764 bound_to 10752
  154.5014  135.2872  155.1394 H   0  0  0  0  0  0  0  0  0  0  0  0  # atno 10765 bound_to 10752
  140.1560  134.8642  157.2515 H   0  0  0  0  0  0  0  0  0  0  0  0  # atno 11005 bound_to 11000
  145.0138  140.8736  143.5208 LP  0  0  0  0  0  0  0  0  0  0  0  0  # atno 17320 bound_to 7965
  145.1585  139.2472  143.5404 LP  0  0  0  0  0  0  0  0  0  0  0  0  # atno 17321 bound_to 7965
  140.7289  143.6921  150.7913 LP  0  0  0  0  0  0  0  0  0  0  0  0  # atno 17342 bound_to 10162
  140.0508  143.5252  152.2674 LP  0  0  0  0  0  0  0  0  0  0  0  0  # atno 17343 bound_to 10162
  156.0155  130.5249  150.8122 LP  0  0  0  0  0  0  0  0  0  0  0  0  # atno 17370 bound_to 10713
  157.5359  131.0939  150.9892 LP  0  0  0  0  0  0  0  0  0  0  0  0  # atno 17371 bound_to 10713
  140.2547  134.3642  155.7429 LP  0  0  0  0  0  0  0  0  0  0  0  0  # atno 17394 bound_to 11000
  141.2204  133.7336  156.8988 LP  0  0  0  0  0  0  0  0  0  0  0  0  # atno 17395 bound_to 11000

$$$$
