AV-unprocessed.smi:2408|AV-procd|sdf|9520|dock2
  -GOLD-   2272013153D 1   1.00000     0.00000
 Structure written by MMmdl.
 47 49  0  0  0  0  0  0  0  0  1 V2000
  144.9311  135.5273  151.2787 C   0  0  0  0  0  0  0  0  0  0  0  0
  145.0838  134.0306  151.0707 C   0  0  0  0  0  0  0  0  0  0  0  0
  144.1264  133.4492  150.3138 N   0  0  0  0  0  0  0  0  0  0  0  0
  144.2068  132.1208  150.0910 C   0  0  0  0  0  0  0  0  0  0  0  0
  145.2337  131.3124  150.6133 C   0  0  0  0  0  0  0  0  0  0  0  0
  146.2302  131.9191  151.4007 C   0  0  0  0  0  0  0  0  0  0  0  0
  146.1698  133.3146  151.6315 C   0  0  0  0  0  0  0  0  0  0  0  0
  147.1204  134.0051  152.4323 N   0  0  0  0  0  0  0  0  0  0  0  0
  147.9680  133.4839  153.3348 C   0  0  0  0  0  0  0  0  0  0  0  0
  148.0459  132.2902  153.6251 O   0  0  0  0  0  0  0  0  0  0  0  0
  148.7604  134.4352  153.8600 N   0  0  0  0  0  0  0  0  0  0  0  0
  149.8518  134.2692  154.8383 C   0  0  0  0  0  0  0  0  0  0  0  0
  150.5835  135.6032  155.1656 C   0  0  0  0  0  0  0  0  0  0  0  0
  151.5333  135.6070  155.9502 O   0  0  0  0  0  0  0  0  0  0  0  0
  150.1363  136.7302  154.5877 N   0  0  0  0  0  0  0  0  0  0  0  0
  150.7078  138.0538  154.7770 C   0  0  0  0  0  0  0  0  0  0  0  0
  150.5397  138.5915  156.1827 C   0  0  0  0  0  0  0  0  0  0  0  0
  149.7605  139.8612  156.4333 C   0  0  0  0  0  0  0  0  0  0  0  0
  151.2578  139.8439  156.6277 C   0  0  0  0  0  0  0  0  0  0  0  0
  149.2449  133.7065  156.1470 C   0  0  0  0  0  0  0  0  0  0  0  0
  150.2675  132.7217  156.7097 C   0  0  0  0  0  0  0  0  0  0  0  0
  150.8609  132.0681  155.4695 C   0  0  0  0  0  0  0  0  0  0  0  0
  150.8515  133.1566  154.3891 C   0  0  0  0  0  0  0  0  0  0  0  0
  145.8160  136.0528  150.9187 H   0  0  0  0  0  0  0  0  0  0  0  0
  144.8029  135.7519  152.3378 H   0  0  0  0  0  0  0  0  0  0  0  0
  144.0665  135.9213  150.7427 H   0  0  0  0  0  0  0  0  0  0  0  0
  143.4260  131.6882  149.4833 H   0  0  0  0  0  0  0  0  0  0  0  0
  145.2539  130.2503  150.4185 H   0  0  0  0  0  0  0  0  0  0  0  0
  147.0117  131.3063  151.8240 H   0  0  0  0  0  0  0  0  0  0  0  0
  147.2377  134.9855  152.2224 H   0  0  0  0  0  0  0  0  0  0  0  0
  148.6067  135.3805  153.5415 H   0  0  0  0  0  0  0  0  0  0  0  0
  149.3528  136.6575  153.9550 H   0  0  0  0  0  0  0  0  0  0  0  0
  151.7682  138.0282  154.5212 H   0  0  0  0  0  0  0  0  0  0  0  0
  150.2305  138.7513  154.0870 H   0  0  0  0  0  0  0  0  0  0  0  0
  150.4178  137.8140  156.9350 H   0  0  0  0  0  0  0  0  0  0  0  0
  149.3730  140.3982  155.5697 H   0  0  0  0  0  0  0  0  0  0  0  0
  149.1385  139.9010  157.3254 H   0  0  0  0  0  0  0  0  0  0  0  0
  151.6344  139.8690  157.6481 H   0  0  0  0  0  0  0  0  0  0  0  0
  151.8649  140.3702  155.8936 H   0  0  0  0  0  0  0  0  0  0  0  0
  148.9902  134.4788  156.8750 H   0  0  0  0  0  0  0  0  0  0  0  0
  148.3212  133.1641  155.9368 H   0  0  0  0  0  0  0  0  0  0  0  0
  151.0444  133.2600  157.2544 H   0  0  0  0  0  0  0  0  0  0  0  0
  149.8225  131.9978  157.3929 H   0  0  0  0  0  0  0  0  0  0  0  0
  151.8578  131.6638  155.6478 H   0  0  0  0  0  0  0  0  0  0  0  0
  150.2220  131.2412  155.1567 H   0  0  0  0  0  0  0  0  0  0  0  0
  150.5848  132.7053  153.4330 H   0  0  0  0  0  0  0  0  0  0  0  0
  151.8611  133.5484  154.2562 H   0  0  0  0  0  0  0  0  0  0  0  0
  1  2  1  0  0  0  0
  1 24  1  0  0  0  0
  1 25  1  0  0  0  0
  1 26  1  0  0  0  0
  2  7  1  0  0  0  0
  2  3  2  0  0  0  0
  3  4  1  0  0  0  0
  4  5  2  0  0  0  0
  4 27  1  0  0  0  0
  5  6  1  0  0  0  0
  5 28  1  0  0  0  0
  6  7  2  0  0  0  0
  6 29  1  0  0  0  0
  7  8  1  0  0  0  0
  8  9  1  0  0  0  0
  8 30  1  0  0  0  0
  9 10  2  0  0  0  0
  9 11  1  0  0  0  0
 11 12  1  0  0  0  0
 11 31  1  0  0  0  0
 12 23  1  0  0  0  0
 12 13  1  0  0  0  0
 12 20  1  0  0  0  0
 13 14  2  0  0  0  0
 13 15  1  0  0  0  0
 15 16  1  0  0  0  0
 15 32  1  0  0  0  0
 16 17  1  0  0  0  0
 16 33  1  0  0  0  0
 16 34  1  0  0  0  0
 17 19  1  0  0  0  0
 17 18  1  0  0  0  0
 17 35  1  0  0  0  0
 18 19  1  0  0  0  0
 18 36  1  0  0  0  0
 18 37  1  0  0  0  0
 19 38  1  0  0  0  0
 19 39  1  0  0  0  0
 20 21  1  0  0  0  0
 20 40  1  0  0  0  0
 20 41  1  0  0  0  0
 21 22  1  0  0  0  0
 21 42  1  0  0  0  0
 21 43  1  0  0  0  0
 22 23  1  0  0  0  0
 22 44  1  0  0  0  0
 22 45  1  0  0  0  0
 23 46  1  0  0  0  0
 23 47  1  0  0  0  0
M  END
> <s_m_source_file>
AV-unprocessed.smi

> <i_m_source_file_index>
2408

> <i_lp_mmshare_version>
43012

> <i_f3d_flags>
0

> <s_epik_input>
W0NIM11jMW5bY0hdW2NIXVtjSF1jMVtOSF1DKD1PKVtOSF1DMihbQ0gyXVtDSDJdW0NIMl1bQ0gyXTIpQyg9TylbTkhdW0NIMl1bQ0hdM1tDSDJdW0NIMl0z

> <s_epik_cmdline>
J2VwaWtfcHl0aG9uJywgJy1waCcsICc3LjAnLCAnLXRuJywgJzgnLCAnLW1hJywgJzIwMCcsICctbWV0YWxfYmluZGluZycsICctaW1hZScsICc8aW5maWxlLm1hZT4nLCAnLW9tYWUnLCAnPG91dGZpbGUubWFlPic=

> <r_epik_Ionization_Penalty>
0.0173464

> <r_epik_Ionization_Penalty_Charging>
0

> <r_epik_Ionization_Penalty_Neutral>
0.0173464

> <r_epik_State_Penalty>
0.0137159

> <r_epik_Charging_Adjusted_Penalty>
0.0137159

> <i_epik_Tot_Q>
0

> <i_epik_Tot_abs_Q>
0

> <r_epik_Metal_State_Penalty>
0.0133255

> <b_epik_Metal_Only>
0

> <s_lp_Force_Field>
OPLS_2005

> <r_lp_Energy>
32.4155

> <b_lp_Chiralities_Consistent>
1

> <s_lp_Variant>
AV-unprocessed.smi:2408-1

> <Gold.Version>
5.8.1

> <Gold.Id.Protein>
6NUR|6NUR_protein|mol2

> <Gold.PLP.Fitness>
53.5453

> <Gold.PLP.PLP>
-40.8787

> <Gold.PLP.part.hbond>
-5.0000

> <Gold.PLP.part.metal>
0.0000

> <Gold.PLP.part.buried>
-5.5003

> <Gold.PLP.part.nonpolar>
-31.7009

> <Gold.PLP.part.repulsive>
0.3367

> <Gold.PLP.ligand.clash>
0.0000

> <Gold.PLP.ligand.torsion>
0.6209

> <Gold.PLP.Chemscore.Hbond>
3.9675

> <Gold.PLP.Chemscore.CHOScore>
0.4544

> <Gold.PLP.Chemscore.Metal>
0.0000

> <Gold.Chemscore.Hbonds>
donor molecule, donor type, donor heavy atom, donor atom, acceptor molecule, acceptor atom, score
      L1  H     8    30       P1  7948  0.51
      L1  H    11    31       P1  7948  0.61
      L1  H    15    32       P1  7948  0.54
      P1  H 10752 10763       L1    14  1.00

> <Gold.PLP.Chemscore.Internal.Correction>
0.6429

> <Gold.Rescore>
     Score         DG    S(hbond)    S(metal)    S(lipo)     H(rot)  DE(clash)    DE(int)     intcor
     20.18     -23.23       3.16        0.00      96.52       1.59       0.15       2.90       ----

> <Gold.Chemscore.Fitness>
20.1814

> <Gold.Chemscore.DG>
-23.2334

> <Gold.Chemscore.ZeroCoef>
-5.4800

> <Gold.Chemscore.Hbond>
3.1561

> <Gold.Chemscore.Metal>
0.0000

> <Gold.Chemscore.Lipo>
96.5212

> <Gold.Chemscore.Internal_Hbond>
0.0000

> <Gold.Chemscore.DEClash>
0.1542

> <Gold.Chemscore.DEInternal>
2.8978

> <Gold.Chemscore.Rot>
1.5941

> <Gold.Chemscore.Internal.Correction>
   9.000000E+99

> <Gold.Chemscore.Hbonds>
donor molecule, donor type, donor heavy atom, donor atom, acceptor molecule, acceptor atom, score
      L1  H     8    30       P1  7948  0.51
      L1  H    11    31       P1  7948  0.57
      L1  H    15    32       P1  7948  0.49
      P1  H 10752 10763       L1    14  0.60

> <Gold.Chemscore.Hbond.Weighted>
-10.5414

> <Gold.Chemscore.Metal.Weighted>
-0.0000

> <Gold.Chemscore.Lipo.Weighted>
-11.2930

> <Gold.Chemscore.Internal_Hbond.Weighted>
0.0000

> <Gold.Chemscore.DEClash.Weighted>
0.1542

> <Gold.Chemscore.DEInternal.Weighted>
2.8978

> <Gold.Chemscore.Rot.Weighted>
4.0809

> <Gold.Chemscore.Internal.Correction.Weighted>
   9.000000E+99

> <Gold.Protein.RotatedTorsions>
[ 6907 6896 6895 6894 ] final  -82.24 input  -60.11 | X-H torsion
[ 7974 7965 7964 7962 ] final   34.56 input  175.53 | X-H torsion
[ 8008 7997 7996 7995 ] final   33.22 input   59.86 | X-H torsion
[ 10167 10162 10161 10158 ] final -125.13 input  -65.29 | X-H torsion
[ 10718 10713 10712 10709 ] final -169.87 input   66.30 | X-H torsion
[ 10763 10752 10751 10750 ] final   81.88 input  -60.55 | X-H torsion
[ 11005 11000 10999 10996 ] final -125.86 input  -57.11 | X-H torsion

> <Gold.Protein.ActiveResidues>
 VAL166  LYS551  ARG553  GLY616  TRP617  ASP618  TYR619  PRO620  LYS621  CYS622 
 ASP623  PHE694  ASN695  SER759  ASP760  ASP761  ALA762  ILE779  LEU786  VAL792 
 PHE793  MET794  SER795  GLU796  ALA797  LYS798  CYS799  TRP800  GLU811  SER814 

> <Gold.Protein.RotatedAtoms>
  150.6900  134.3696  159.4985 H   0  0  0  0  0  0  0  0  0  0  0  0  # atno 6907 bound_to 6896
  152.1513  134.8983  160.0557 H   0  0  0  0  0  0  0  0  0  0  0  0  # atno 6908 bound_to 6896
  152.0079  133.3815  159.4245 H   0  0  0  0  0  0  0  0  0  0  0  0  # atno 6909 bound_to 6896
  146.1344  139.6253  142.9205 H   0  0  0  0  0  0  0  0  0  0  0  0  # atno 7974 bound_to 7965
  155.1351  140.3261  155.4465 H   0  0  0  0  0  0  0  0  0  0  0  0  # atno 8008 bound_to 7997
  156.2622  140.2003  156.6418 H   0  0  0  0  0  0  0  0  0  0  0  0  # atno 8009 bound_to 7997
  154.6583  140.0550  157.0020 H   0  0  0  0  0  0  0  0  0  0  0  0  # atno 8010 bound_to 7997
  139.9854  143.5697  152.2362 H   0  0  0  0  0  0  0  0  0  0  0  0  # atno 10167 bound_to 10162
  156.7178  130.9258  151.3095 H   0  0  0  0  0  0  0  0  0  0  0  0  # atno 10718 bound_to 10713
  153.1155  135.4749  154.9107 H   0  0  0  0  0  0  0  0  0  0  0  0  # atno 10763 bound_to 10752
  154.7524  135.3109  154.8536 H   0  0  0  0  0  0  0  0  0  0  0  0  # atno 10764 bound_to 10752
  153.9114  135.6865  153.4804 H   0  0  0  0  0  0  0  0  0  0  0  0  # atno 10765 bound_to 10752
  140.9728  134.0782  157.3851 H   0  0  0  0  0  0  0  0  0  0  0  0  # atno 11005 bound_to 11000
  145.5189  141.0432  143.2446 LP  0  0  0  0  0  0  0  0  0  0  0  0  # atno 17320 bound_to 7965
  144.7724  139.6705  143.7189 LP  0  0  0  0  0  0  0  0  0  0  0  0  # atno 17321 bound_to 7965
  139.6379  144.7652  151.2400 LP  0  0  0  0  0  0  0  0  0  0  0  0  # atno 17342 bound_to 10162
  140.7474  143.6367  150.8372 LP  0  0  0  0  0  0  0  0  0  0  0  0  # atno 17343 bound_to 10162
  157.6910  130.9233  150.0514 LP  0  0  0  0  0  0  0  0  0  0  0  0  # atno 17370 bound_to 10713
  156.1615  130.3644  149.9292 LP  0  0  0  0  0  0  0  0  0  0  0  0  # atno 17371 bound_to 10713
  139.8919  135.0121  156.6815 LP  0  0  0  0  0  0  0  0  0  0  0  0  # atno 17394 bound_to 11000
  140.7304  133.9064  155.8207 LP  0  0  0  0  0  0  0  0  0  0  0  0  # atno 17395 bound_to 11000

$$$$
