AV-unprocessed.smi:2438|AV-procd|sdf|9599|dock10
  -GOLD-   2272013233D 1   1.00000     0.00000
 Structure written by MMmdl.
 44 45  0  0  0  0  0  0  0  0  2 V2000
  147.2226  135.8001  155.1858 C   0  0  0  0  0  0  0  0  0  0  0  0
  147.4161  137.0271  155.9488 N   0  0  0  0  0  0  0  0  0  0  0  0
  146.7738  138.2218  155.4171 C   0  0  0  0  0  0  0  0  0  0  0  0
  148.7073  137.2542  156.4666 C   0  0  0  0  0  0  0  0  0  0  0  0
  149.7075  137.5127  155.5929 N   0  0  0  0  0  0  0  0  0  0  0  0
  150.9420  137.7525  156.0472 C   0  0  0  0  0  0  0  0  0  0  0  0
  151.2524  137.7440  157.3501 N   0  3  0  0  0  0  0  0  0  0  0  0
  150.2891  137.4867  158.2660 C   0  0  0  0  0  0  0  0  0  0  0  0
  148.9570  137.2364  157.8600 C   0  0  0  0  0  0  0  0  0  0  0  0
  147.9100  136.9208  158.7711 N   0  0  0  0  0  0  0  0  0  0  0  0
  147.9883  136.7815  160.1042 C   0  0  0  0  0  0  0  0  0  0  0  0
  149.0254  136.8461  160.7638 O   0  0  0  0  0  0  0  0  0  0  0  0
  146.7766  136.5848  160.6418 N   0  0  0  0  0  0  0  0  0  0  0  0
  146.4930  136.4555  162.0705 C   0  0  2  0  0  0  0  0  0  0  0  0
  147.3100  135.2966  162.6730 C   0  0  0  0  0  0  0  0  0  0  0  0
  146.8055  133.9231  162.1978 C   0  0  0  0  0  0  0  0  0  0  0  0
  145.3031  133.7501  162.4728 C   0  0  0  0  0  0  0  0  0  0  0  0
  144.4723  134.8838  161.8355 C   0  0  1  0  0  0  0  0  0  0  0  0
  142.9606  134.7077  162.0842 C   0  0  0  0  0  0  0  0  0  0  0  0
  142.2690  135.7065  161.5348 F   0  0  0  0  0  0  0  0  0  0  0  0
  142.5442  133.5547  161.5607 F   0  0  0  0  0  0  0  0  0  0  0  0
  142.7146  134.6815  163.3941 F   0  0  0  0  0  0  0  0  0  0  0  0
  144.9836  136.2551  162.3316 C   0  0  0  0  0  0  0  0  0  0  0  0
  147.6649  134.9468  155.7011 H   0  0  0  0  0  0  0  0  0  0  0  0
  147.6727  135.8808  154.1956 H   0  0  0  0  0  0  0  0  0  0  0  0
  146.1585  135.5993  155.0592 H   0  0  0  0  0  0  0  0  0  0  0  0
  146.9673  139.1027  156.0295 H   0  0  0  0  0  0  0  0  0  0  0  0
  145.6939  138.0783  155.3705 H   0  0  0  0  0  0  0  0  0  0  0  0
  147.1331  138.4275  154.4082 H   0  0  0  0  0  0  0  0  0  0  0  0
  151.7461  137.9593  155.3564 H   0  0  0  0  0  0  0  0  0  0  0  0
  150.6348  137.4754  159.2884 H   0  0  0  0  0  0  0  0  0  0  0  0
  146.9805  136.9114  158.3758 H   0  0  0  0  0  0  0  0  0  0  0  0
  145.9825  136.5435  160.0198 H   0  0  0  0  0  0  0  0  0  0  0  0
  146.8117  137.3779  162.5596 H   0  0  0  0  0  0  0  0  0  0  0  0
  148.3671  135.4119  162.4308 H   0  0  0  0  0  0  0  0  0  0  0  0
  147.2428  135.3412  163.7608 H   0  0  0  0  0  0  0  0  0  0  0  0
  146.9973  133.8073  161.1305 H   0  0  0  0  0  0  0  0  0  0  0  0
  147.3658  133.1316  162.6964 H   0  0  0  0  0  0  0  0  0  0  0  0
  144.9758  132.7834  162.0894 H   0  0  0  0  0  0  0  0  0  0  0  0
  145.1321  133.7275  163.5498 H   0  0  0  0  0  0  0  0  0  0  0  0
  144.6245  134.8389  160.7560 H   0  0  0  0  0  0  0  0  0  0  0  0
  144.7978  136.3408  163.4030 H   0  0  0  0  0  0  0  0  0  0  0  0
  144.4132  137.0602  161.8675 H   0  0  0  0  0  0  0  0  0  0  0  0
  152.2079  137.9227  157.6602 H   0  0  0  0  0  0  0  0  0  0  0  0
  1  2  1  0  0  0  0
  1 24  1  0  0  0  0
  1 25  1  0  0  0  0
  1 26  1  0  0  0  0
  2  3  1  0  0  0  0
  2  4  1  0  0  0  0
  3 27  1  0  0  0  0
  3 28  1  0  0  0  0
  3 29  1  0  0  0  0
  4  9  1  0  0  0  0
  4  5  2  0  0  0  0
  5  6  1  0  0  0  0
  6  7  2  0  0  0  0
  6 30  1  0  0  0  0
  7  8  1  0  0  0  0
  7 44  1  0  0  0  0
  8  9  2  0  0  0  0
  8 31  1  0  0  0  0
  9 10  1  0  0  0  0
 10 11  1  0  0  0  0
 10 32  1  0  0  0  0
 11 12  2  0  0  0  0
 11 13  1  0  0  0  0
 13 14  1  0  0  0  0
 13 33  1  0  0  0  0
 14 23  1  0  0  0  0
 14 15  1  0  0  0  0
 14 34  1  0  0  0  0
 15 16  1  0  0  0  0
 15 35  1  0  0  0  0
 15 36  1  0  0  0  0
 16 17  1  0  0  0  0
 16 37  1  0  0  0  0
 16 38  1  0  0  0  0
 17 18  1  0  0  0  0
 17 39  1  0  0  0  0
 17 40  1  0  0  0  0
 18 19  1  0  0  0  0
 18 23  1  0  0  0  0
 18 41  1  0  0  0  0
 19 20  1  0  0  0  0
 19 21  1  0  0  0  0
 19 22  1  0  0  0  0
 23 42  1  0  0  0  0
 23 43  1  0  0  0  0
M  CHG  1   7   1
M  END
> <s_m_source_file>
AV-unprocessed.smi

> <i_m_source_file_index>
2438

> <i_lp_mmshare_version>
43012

> <i_f3d_flags>
0

> <s_epik_input>
W0NIM11OKFtDSDNdKWMxbltjSF1uW2NIXWMxW05IXUMoPU8pW05IXVtDQEBIXTJbQ0gyXVtDSDJdW0NIMl1bQ0BASF0oQyhGKShGKUYpW0NIMl0y

> <s_epik_cmdline>
J2VwaWtfcHl0aG9uJywgJy1waCcsICc3LjAnLCAnLXRuJywgJzgnLCAnLW1hJywgJzIwMCcsICctbWV0YWxfYmluZGluZycsICctaW1hZScsICc8aW5maWxlLm1hZT4nLCAnLW9tYWUnLCAnPG91dGZpbGUubWFlPic=

> <r_lp_tautomer_probability>
0.999336

> <r_epik_Ionization_Penalty>
2.11643

> <r_epik_Ionization_Penalty_Charging>
2.11639

> <r_epik_Ionization_Penalty_Neutral>
4.47523e-05

> <r_epik_State_Penalty>
2.25369

> <r_epik_Charging_Adjusted_Penalty>
4.37008

> <i_epik_Tot_Q>
1

> <i_epik_Tot_abs_Q>
1

> <r_epik_Metal_State_Penalty>
2.27019

> <b_epik_Metal_Only>
0

> <s_lp_Force_Field>
OPLS_2005

> <r_lp_Energy>
15.0376

> <b_lp_Chiralities_Consistent>
1

> <s_lp_Variant>
AV-unprocessed.smi:2438-5

> <Gold.Version>
5.8.1

> <Gold.Id.Protein>
6NUR|6NUR_protein|mol2

> <Gold.PLP.Fitness>
32.7278

> <Gold.PLP.PLP>
-30.3105

> <Gold.PLP.part.hbond>
-1.0000

> <Gold.PLP.part.metal>
0.0000

> <Gold.PLP.part.buried>
-5.0425

> <Gold.PLP.part.nonpolar>
-24.4371

> <Gold.PLP.part.repulsive>
0.3876

> <Gold.PLP.ligand.clash>
0.0000

> <Gold.PLP.ligand.torsion>
0.2119

> <Gold.PLP.Chemscore.Hbond>
0.8160

> <Gold.PLP.Chemscore.CHOScore>
0.0000

> <Gold.PLP.Chemscore.Metal>
0.0000

> <Gold.Chemscore.Hbonds>
donor molecule, donor type, donor heavy atom, donor atom, acceptor molecule, acceptor atom, score
      P1  H  6931  6943       L1    12  0.85

> <Gold.PLP.Chemscore.Internal.Correction>
0.3930

> <Gold.Rescore>
     Score         DG    S(hbond)    S(metal)    S(lipo)     H(rot)  DE(clash)    DE(int)     intcor
     10.39     -11.93       0.95        0.00      56.56       1.31       0.00       1.54       ----

> <Gold.Chemscore.Fitness>
10.3884

> <Gold.Chemscore.DG>
-11.9297

> <Gold.Chemscore.ZeroCoef>
-5.4800

> <Gold.Chemscore.Hbond>
0.9522

> <Gold.Chemscore.Metal>
0.0000

> <Gold.Chemscore.Lipo>
56.5588

> <Gold.Chemscore.Internal_Hbond>
0.0000

> <Gold.Chemscore.DEClash>
0.0000

> <Gold.Chemscore.DEInternal>
1.5413

> <Gold.Chemscore.Rot>
1.3078

> <Gold.Chemscore.Internal.Correction>
   9.000000E+99

> <Gold.Chemscore.Hbonds>
donor molecule, donor type, donor heavy atom, donor atom, acceptor molecule, acceptor atom, score
      P1  H  6931  6943       L1    12  0.71

> <Gold.Chemscore.Hbond.Weighted>
-3.1804

> <Gold.Chemscore.Metal.Weighted>
-0.0000

> <Gold.Chemscore.Lipo.Weighted>
-6.6174

> <Gold.Chemscore.Internal_Hbond.Weighted>
0.0000

> <Gold.Chemscore.DEClash.Weighted>
0.0000

> <Gold.Chemscore.DEInternal.Weighted>
1.5413

> <Gold.Chemscore.Rot.Weighted>
3.3481

> <Gold.Chemscore.Internal.Correction.Weighted>
   9.000000E+99

> <Gold.Protein.RotatedTorsions>
[ 6907 6896 6895 6894 ] final  -35.18 input  -60.11 | X-H torsion
[ 7974 7965 7964 7962 ] final   95.88 input  175.53 | X-H torsion
[ 8008 7997 7996 7995 ] final -143.19 input   59.86 | X-H torsion
[ 10167 10162 10161 10158 ] final   93.30 input  -65.29 | X-H torsion
[ 10718 10713 10712 10709 ] final -108.10 input   66.30 | X-H torsion
[ 10763 10752 10751 10750 ] final -171.51 input  -60.55 | X-H torsion
[ 11005 11000 10999 10996 ] final   62.02 input  -57.11 | X-H torsion

> <Gold.Protein.ActiveResidues>
 VAL166  LYS551  ARG553  GLY616  TRP617  ASP618  TYR619  PRO620  LYS621  CYS622 
 ASP623  PHE694  ASN695  SER759  ASP760  ASP761  ALA762  ILE779  LEU786  VAL792 
 PHE793  MET794  SER795  GLU796  ALA797  LYS798  CYS799  TRP800  GLU811  SER814 

> <Gold.Protein.RotatedAtoms>
  151.0431  134.9621  159.8171 H   0  0  0  0  0  0  0  0  0  0  0  0  # atno 6907 bound_to 6896
  152.5367  134.2633  159.8953 H   0  0  0  0  0  0  0  0  0  0  0  0  # atno 6908 bound_to 6896
  151.2646  133.4242  159.2652 H   0  0  0  0  0  0  0  0  0  0  0  0  # atno 6909 bound_to 6896
  145.4462  139.2297  143.3064 H   0  0  0  0  0  0  0  0  0  0  0  0  # atno 7974 bound_to 7965
  155.5066  140.0580  157.2930 H   0  0  0  0  0  0  0  0  0  0  0  0  # atno 8008 bound_to 7997
  154.4567  140.1976  156.0308 H   0  0  0  0  0  0  0  0  0  0  0  0  # atno 8009 bound_to 7997
  156.0813  140.3246  155.7701 H   0  0  0  0  0  0  0  0  0  0  0  0  # atno 8010 bound_to 7997
  139.8193  144.6738  150.9539 H   0  0  0  0  0  0  0  0  0  0  0  0  # atno 10167 bound_to 10162
  156.0469  130.5695  150.7913 H   0  0  0  0  0  0  0  0  0  0  0  0  # atno 10718 bound_to 10713
  154.6297  135.2885  155.0230 H   0  0  0  0  0  0  0  0  0  0  0  0  # atno 10763 bound_to 10752
  154.1395  135.6521  153.4943 H   0  0  0  0  0  0  0  0  0  0  0  0  # atno 10764 bound_to 10752
  153.0274  135.5329  154.7120 H   0  0  0  0  0  0  0  0  0  0  0  0  # atno 10765 bound_to 10752
  140.0121  134.6280  155.9765 H   0  0  0  0  0  0  0  0  0  0  0  0  # atno 11005 bound_to 11000
  146.2529  140.5216  142.8886 LP  0  0  0  0  0  0  0  0  0  0  0  0  # atno 17320 bound_to 7965
  144.8090  140.6351  143.6428 LP  0  0  0  0  0  0  0  0  0  0  0  0  # atno 17321 bound_to 7965
  140.7814  143.4107  151.0997 LP  0  0  0  0  0  0  0  0  0  0  0  0  # atno 17342 bound_to 10162
  139.7769  143.8413  152.3131 LP  0  0  0  0  0  0  0  0  0  0  0  0  # atno 17343 bound_to 10162
  157.5353  131.0938  150.9900 LP  0  0  0  0  0  0  0  0  0  0  0  0  # atno 17370 bound_to 10713
  157.0197  130.5669  149.5330 LP  0  0  0  0  0  0  0  0  0  0  0  0  # atno 17371 bound_to 10713
  141.1718  133.6538  156.4680 LP  0  0  0  0  0  0  0  0  0  0  0  0  # atno 17394 bound_to 11000
  140.4536  134.6906  157.5051 LP  0  0  0  0  0  0  0  0  0  0  0  0  # atno 17395 bound_to 11000

$$$$
