#       Name:                AV-unprocessed.smi:3069
#       Creating user name   scv26
#       Creation time:       Fri Mar 27 17:11:29 2020


#       File generated by GOLD software.
#

@<TRIPOS>MOLECULE
AV-unprocessed.smi:3069
    45    46     1
SMALL
NO_CHARGES


@<TRIPOS>ATOM
      1 ****        -2.6125  -1.5353  -1.3060 N.1            1 S1                 0.0000
      2 ****        -2.4358  -0.3977  -1.4231 C.1            1 S1                 0.0000
      3 ****        -2.2114   1.0350  -1.5686 C.ar           1 S1                 0.0000
      4 ****        -3.1124   1.8552  -0.9804 N.ar           1 S1                 0.0000
      5 ****        -2.8999   3.1842  -1.0874 C.ar           1 S1                 0.0000
      6 ****        -1.7870   3.7008  -1.7791 C.ar           1 S1                 0.0000
      7 ****        -0.8823   2.8907  -2.3687 N.ar           1 S1                 0.0000
      8 ****        -1.0868   1.5538  -2.2698 C.ar           1 S1                 0.0000
      9 ****        -0.1467   0.7021  -2.8750 N.3            1 S1                 0.0000
     10 ****         1.2674   1.0454  -2.7688 C.3            1 S1                 0.0000
     11 ****         1.7580   1.0196  -1.3132 C.3            1 S1                 0.0000
     12 ****         1.5361  -0.2843  -0.7946 O.3            1 S1                 0.0000
     13 ****         1.7161  -0.4188   0.6097 C.3            1 S1                 0.0000
     14 ****         1.9148  -1.9221   0.8821 C.3            1 S1                 0.0000
     15 ****         0.6314  -2.7690   0.8466 C.3            1 S1                 0.0000
     16 ****        -0.0716  -2.8461   2.2118 C.3            1 S1                 0.0000
     17 ****        -0.7507  -1.5436   2.6596 C.3            1 S1                 0.0000
     18 ****         0.1840  -0.3233   2.7349 C.3            1 S1                 0.0000
     19 ****         0.5309   0.2475   1.3499 C.3            1 S1                 0.0000
     20 ****        -3.6199   3.8380  -0.6179 H              1 S1                 0.0000
     21 ****        -1.6223   4.7650  -1.8600 H              1 S1                 0.0000
     22 ****        -0.3452  -0.2852  -2.7952 H              1 S1                 0.0000
     23 ****         1.8351   0.3252  -3.3582 H              1 S1                 0.0000
     24 ****         1.4516   2.0224  -3.2165 H              1 S1                 0.0000
     25 ****         2.8220   1.2539  -1.2679 H              1 S1                 0.0000
     26 ****         1.2383   1.7812  -0.7322 H              1 S1                 0.0000
     27 ****         2.6436   0.0809   0.8948 H              1 S1                 0.0000
     28 ****         2.6153  -2.3110   0.1420 H              1 S1                 0.0000
     29 ****         2.4146  -2.0592   1.8418 H              1 S1                 0.0000
     30 ****        -0.0503  -2.4146   0.0726 H              1 S1                 0.0000
     31 ****         0.9055  -3.7846   0.5591 H              1 S1                 0.0000
     32 ****        -0.8300  -3.6284   2.1687 H              1 S1                 0.0000
     33 ****         0.6401  -3.1682   2.9729 H              1 S1                 0.0000
     34 ****        -1.5933  -1.3240   2.0027 H              1 S1                 0.0000
     35 ****        -1.1840  -1.7108   3.6461 H              1 S1                 0.0000
     36 ****        -0.3387   0.4541   3.2932 H              1 S1                 0.0000
     37 ****         1.0842  -0.5454   3.3089 H              1 S1                 0.0000
     38 ****         0.7530   1.3089   1.4624 H              1 S1                 0.0000
     39 ****        -0.3607   0.2083   0.7237 H              1 S1                 0.0000
     40 ****        -2.7652  -2.5184  -1.2048 LP             1 S1                 0.0000
     41 ****        -3.9028   1.4922  -0.4870 LP             1 S1                 0.0000
     42 ****        -0.0933   3.2614  -2.8586 LP             1 S1                 0.0000
     43 ****        -0.3178   0.9262  -3.8344 LP             1 S1                 0.0000
     44 ****         2.1709  -0.9095  -1.2487 LP             1 S1                 0.0000
     45 ****         0.5962  -0.5475  -1.0122 LP             1 S1                 0.0000
@<TRIPOS>BOND
    1    1    2 3     
    2    2    3 1     
    3    3    8 ar    
    4    3    4 ar    
    5    4    5 ar    
    6    5    6 ar    
    7    5   20 1     
    8    6    7 ar    
    9    6   21 1     
   10    7    8 ar    
   11    8    9 1     
   12    9   10 1     
   13    9   22 1     
   14   10   11 1     
   15   10   23 1     
   16   10   24 1     
   17   11   12 1     
   18   11   25 1     
   19   11   26 1     
   20   12   13 1     
   21   13   19 1     
   22   13   14 1     
   23   13   27 1     
   24   14   15 1     
   25   14   28 1     
   26   14   29 1     
   27   15   16 1     
   28   15   30 1     
   29   15   31 1     
   30   16   17 1     
   31   16   32 1     
   32   16   33 1     
   33   17   18 1     
   34   17   34 1     
   35   17   35 1     
   36   18   19 1     
   37   18   36 1     
   38   18   37 1     
   39   19   38 1     
   40   19   39 1     
   41    1   40 1     
   42    4   41 1     
   43    7   42 1     
   44    9   43 1     
   45   12   44 1     
   46   12   45 1     
@<TRIPOS>SUBSTRUCTURE
      1 S1             1
@<TRIPOS>SET
LONE_PAIRS      STATIC     ATOMS    <user>   **** ""
6 40 41 42 43 44 45
DONOR_HYDROGENS      STATIC     ATOMS    <user>   **** ""
1 22
ATOM$BLUE        STATIC     ATOMS    COLORGROUP SYSTEM
6 40 41 42 43 44 45
ATOM$RED        STATIC     ATOMS    COLORGROUP SYSTEM
1 22
