AV-unprocessed.smi:649|AV-procd|sdf|3180|dock9
  -GOLD-   22720 0103D 1   1.00000     0.00000
 Structure written by MMmdl.
 34 35  0  0  0  0  0  0  0  0  2 V2000
  153.0662  142.8413  163.1029 C   0  0  0  0  0  0  0  0  0  0  0  0
  152.6987  143.1709  161.6712 C   0  0  0  0  0  0  0  0  0  0  0  0
  152.5443  144.5087  161.2654 C   0  0  0  0  0  0  0  0  0  0  0  0
  152.1855  144.8018  159.9377 C   0  0  0  0  0  0  0  0  0  0  0  0
  151.9731  143.7681  158.9997 C   0  0  0  0  0  0  0  0  0  0  0  0
  151.5681  144.1625  157.5887 C   0  0  0  0  0  0  0  0  0  0  0  0
  152.1333  142.4123  159.4027 C   0  0  0  0  0  0  0  0  0  0  0  0
  151.9018  141.2170  158.4720 C   0  0  2  0  0  0  0  0  0  0  0  0
  150.5730  141.1084  158.0045 O   0  0  0  0  0  0  0  0  0  0  0  0
  152.3631  139.8570  159.0492 C   0  0  0  0  0  0  0  0  0  0  0  0
  152.2160  138.7547  158.0851 N   0  0  0  0  0  0  0  0  0  0  0  0
  152.3762  139.0733  156.7263 C   0  0  0  0  0  0  0  0  0  0  0  0
  152.2977  138.1411  155.7575 C   0  0  0  0  0  0  0  0  0  0  0  0
  152.5089  138.5634  154.0957 Cl  0  0  0  0  0  0  0  0  0  0  0  0
  152.0325  136.7602  156.1551 C   0  0  0  0  0  0  0  0  0  0  0  0
  151.9569  135.8831  155.2958 O   0  0  0  0  0  0  0  0  0  0  0  0
  151.8777  136.5028  157.4867 N   0  5  0  0  0  0  0  0  0  0  0  0
  151.9645  137.4634  158.4579 C   0  0  0  0  0  0  0  0  0  0  0  0
  151.8298  137.2002  159.6529 O   0  0  0  0  0  0  0  0  0  0  0  0
  152.4962  142.1345  160.7407 C   0  0  0  0  0  0  0  0  0  0  0  0
  153.5052  143.7035  163.6058 H   0  0  0  0  0  0  0  0  0  0  0  0
  153.7892  142.0257  163.1358 H   0  0  0  0  0  0  0  0  0  0  0  0
  152.1777  142.5362  163.6562 H   0  0  0  0  0  0  0  0  0  0  0  0
  152.6933  145.3137  161.9699 H   0  0  0  0  0  0  0  0  0  0  0  0
  152.0652  145.8340  159.6436 H   0  0  0  0  0  0  0  0  0  0  0  0
  152.3861  143.9853  156.8909 H   0  0  0  0  0  0  0  0  0  0  0  0
  151.3128  145.2209  157.5340 H   0  0  0  0  0  0  0  0  0  0  0  0
  150.6946  143.6057  157.2559 H   0  0  0  0  0  0  0  0  0  0  0  0
  152.4913  141.3972  157.5721 H   0  0  0  0  0  0  0  0  0  0  0  0
  150.2206  140.2833  158.3009 H   0  0  0  0  0  0  0  0  0  0  0  0
  153.3891  139.9232  159.4094 H   0  0  0  0  0  0  0  0  0  0  0  0
  151.7797  139.6263  159.9418 H   0  0  0  0  0  0  0  0  0  0  0  0
  152.5739  140.1162  156.5251 H   0  0  0  0  0  0  0  0  0  0  0  0
  152.6052  141.1101  161.0658 H   0  0  0  0  0  0  0  0  0  0  0  0
  1  2  1  0  0  0  0
  1 21  1  0  0  0  0
  1 22  1  0  0  0  0
  1 23  1  0  0  0  0
  2 20  1  0  0  0  0
  2  3  2  0  0  0  0
  3  4  1  0  0  0  0
  3 24  1  0  0  0  0
  4  5  2  0  0  0  0
  4 25  1  0  0  0  0
  5  6  1  0  0  0  0
  5  7  1  0  0  0  0
  6 26  1  0  0  0  0
  6 27  1  0  0  0  0
  6 28  1  0  0  0  0
  7  8  1  0  0  0  0
  7 20  2  0  0  0  0
  8  9  1  0  0  0  0
  8 10  1  0  0  0  0
  8 29  1  0  0  0  0
  9 30  1  0  0  0  0
 10 11  1  0  0  0  0
 10 31  1  0  0  0  0
 10 32  1  0  0  0  0
 11 18  1  0  0  0  0
 11 12  1  0  0  0  0
 12 13  2  0  0  0  0
 12 33  1  0  0  0  0
 13 14  1  0  0  0  0
 13 15  1  0  0  0  0
 15 16  2  0  0  0  0
 15 17  1  0  0  0  0
 17 18  1  0  0  0  0
 18 19  2  0  0  0  0
 20 34  1  0  0  0  0
M  CHG  1  17  -1
M  END
> <s_m_source_file>
AV-unprocessed.smi

> <i_m_source_file_index>
649

> <i_lp_mmshare_version>
43012

> <i_f3d_flags>
0

> <s_epik_input>
W0NIM11jMVtjSF1bY0hdYyhbQ0gzXSljKFtjSF0xKVtDQEhdKFtPSF0pW0NIMl1uMltjSF1jKENsKWMoPU8pW25IXWMyPU8=

> <s_epik_cmdline>
J2VwaWtfcHl0aG9uJywgJy1waCcsICc3LjAnLCAnLXRuJywgJzgnLCAnLW1hJywgJzIwMCcsICctbWV0YWxfYmluZGluZycsICctaW1hZScsICc8aW5maWxlLm1hZT4nLCAnLW9tYWUnLCAnPG91dGZpbGUubWFlPic=

> <r_epik_Ionization_Penalty>
1.7979

> <r_epik_Ionization_Penalty_Charging>
3.23819e-08

> <r_epik_Ionization_Penalty_Neutral>
1.7979

> <r_epik_State_Penalty>
1.91135

> <r_epik_Charging_Adjusted_Penalty>
1.91135

> <i_epik_Tot_Q>
-1

> <i_epik_Tot_abs_Q>
1

> <r_epik_Metal_State_Penalty>
0.014155

> <b_epik_Metal_Only>
0

> <s_lp_Force_Field>
OPLS_2005

> <r_lp_Energy>
21.5696

> <b_lp_Chiralities_Consistent>
1

> <s_lp_Variant>
AV-unprocessed.smi:649-3

> <Gold.Version>
5.8.1

> <Gold.Id.Protein>
6NUR|6NUR_protein|mol2

> <Gold.PLP.Fitness>
45.6500

> <Gold.PLP.PLP>
-40.5722

> <Gold.PLP.part.hbond>
-2.5623

> <Gold.PLP.part.metal>
0.0000

> <Gold.PLP.part.buried>
-5.7809

> <Gold.PLP.part.nonpolar>
-31.8869

> <Gold.PLP.part.repulsive>
0.0703

> <Gold.PLP.ligand.clash>
0.0000

> <Gold.PLP.ligand.torsion>
0.4999

> <Gold.PLP.Chemscore.Hbond>
2.0000

> <Gold.PLP.Chemscore.CHOScore>
0.0000

> <Gold.PLP.Chemscore.Metal>
0.0000

> <Gold.Chemscore.Hbonds>
donor molecule, donor type, donor heavy atom, donor atom, acceptor molecule, acceptor atom, score
      P1  H  6896  6909       L1    19  0.91
      P1  H 10752 10764       L1    16  0.19

> <Gold.PLP.Chemscore.Internal.Correction>
0.0777

> <Gold.Rescore>
     Score         DG    S(hbond)    S(metal)    S(lipo)     H(rot)  DE(clash)    DE(int)     intcor
     18.63     -19.84       1.56        0.00     123.83       2.09       0.58       0.63       ----

> <Gold.Chemscore.Fitness>
18.6276

> <Gold.Chemscore.DG>
-19.8406

> <Gold.Chemscore.ZeroCoef>
-5.4800

> <Gold.Chemscore.Hbond>
1.5613

> <Gold.Chemscore.Metal>
0.0000

> <Gold.Chemscore.Lipo>
123.8315

> <Gold.Chemscore.Internal_Hbond>
0.0000

> <Gold.Chemscore.DEClash>
0.5780

> <Gold.Chemscore.DEInternal>
0.6350

> <Gold.Chemscore.Rot>
2.0868

> <Gold.Chemscore.Internal.Correction>
   9.000000E+99

> <Gold.Chemscore.Hbonds>
donor molecule, donor type, donor heavy atom, donor atom, acceptor molecule, acceptor atom, score
      P1  H  6896  6909       L1    19  0.72
      P1  H 10752 10764       L1    16  0.21

> <Gold.Chemscore.Hbond.Weighted>
-5.2146

> <Gold.Chemscore.Metal.Weighted>
-0.0000

> <Gold.Chemscore.Lipo.Weighted>
-14.4883

> <Gold.Chemscore.Internal_Hbond.Weighted>
0.0000

> <Gold.Chemscore.DEClash.Weighted>
0.5780

> <Gold.Chemscore.DEInternal.Weighted>
0.6350

> <Gold.Chemscore.Rot.Weighted>
5.3423

> <Gold.Chemscore.Internal.Correction.Weighted>
   9.000000E+99

> <Gold.Protein.RotatedTorsions>
[ 6907 6896 6895 6894 ] final  119.69 input  -60.11 | X-H torsion
[ 7974 7965 7964 7962 ] final   68.34 input  175.53 | X-H torsion
[ 8008 7997 7996 7995 ] final   98.79 input   59.86 | X-H torsion
[ 10167 10162 10161 10158 ] final -103.23 input  -65.29 | X-H torsion
[ 10718 10713 10712 10709 ] final  138.11 input   66.30 | X-H torsion
[ 10763 10752 10751 10750 ] final  -55.04 input  -60.55 | X-H torsion
[ 11005 11000 10999 10996 ] final  -39.85 input  -57.11 | X-H torsion

> <Gold.Protein.ActiveResidues>
 VAL166  LYS551  ARG553  GLY616  TRP617  ASP618  TYR619  PRO620  LYS621  CYS622 
 ASP623  PHE694  ASN695  SER759  ASP760  ASP761  ALA762  ILE779  LEU786  VAL792 
 PHE793  MET794  SER795  GLU796  ALA797  LYS798  CYS799  TRP800  GLU811  SER814 

> <Gold.Protein.RotatedAtoms>
  152.4453  133.7525  159.6701 H   0  0  0  0  0  0  0  0  0  0  0  0  # atno 6907 bound_to 6896
  150.8352  133.8015  159.3088 H   0  0  0  0  0  0  0  0  0  0  0  0  # atno 6908 bound_to 6896
  151.5657  135.1066  160.0035 H   0  0  0  0  0  0  0  0  0  0  0  0  # atno 6909 bound_to 6896
  145.8037  139.2996  143.1140 H   0  0  0  0  0  0  0  0  0  0  0  0  # atno 7974 bound_to 7965
  156.1039  140.3238  155.7980 H   0  0  0  0  0  0  0  0  0  0  0  0  # atno 8008 bound_to 7997
  155.4789  140.0552  157.2987 H   0  0  0  0  0  0  0  0  0  0  0  0  # atno 8009 bound_to 7997
  154.4715  140.2013  155.9998 H   0  0  0  0  0  0  0  0  0  0  0  0  # atno 8010 bound_to 7997
  140.2222  143.3667  152.0959 H   0  0  0  0  0  0  0  0  0  0  0  0  # atno 10167 bound_to 10162
  157.4289  131.1046  151.0272 H   0  0  0  0  0  0  0  0  0  0  0  0  # atno 10718 bound_to 10713
  154.1845  135.6437  153.5043 H   0  0  0  0  0  0  0  0  0  0  0  0  # atno 10763 bound_to 10752
  153.0050  135.5414  154.6479 H   0  0  0  0  0  0  0  0  0  0  0  0  # atno 10764 bound_to 10752
  154.5852  135.2929  155.0665 H   0  0  0  0  0  0  0  0  0  0  0  0  # atno 10765 bound_to 10752
  141.0132  133.6898  156.2242 H   0  0  0  0  0  0  0  0  0  0  0  0  # atno 11005 bound_to 11000
  145.9851  140.8650  143.0095 LP  0  0  0  0  0  0  0  0  0  0  0  0  # atno 17320 bound_to 7965
  144.6765  140.2135  143.7374 LP  0  0  0  0  0  0  0  0  0  0  0  0  # atno 17321 bound_to 7965
  139.5140  144.6941  151.5679 LP  0  0  0  0  0  0  0  0  0  0  0  0  # atno 17342 bound_to 10162
  140.6246  143.9192  150.6554 LP  0  0  0  0  0  0  0  0  0  0  0  0  # atno 17343 bound_to 10162
  157.1176  130.6048  149.5497 LP  0  0  0  0  0  0  0  0  0  0  0  0  # atno 17370 bound_to 10713
  155.9906  130.4958  150.7264 LP  0  0  0  0  0  0  0  0  0  0  0  0  # atno 17371 bound_to 10713
  140.6699  134.4879  157.5587 LP  0  0  0  0  0  0  0  0  0  0  0  0  # atno 17394 bound_to 11000
  139.9102  134.8362  156.1557 LP  0  0  0  0  0  0  0  0  0  0  0  0  # atno 17395 bound_to 11000

$$$$
