AV-unprocessed.smi:576|AV-procd|sdf|2978|dock8
  -GOLD-   2262023483D 1   1.00000     0.00000
 Structure written by MMmdl.
 35 36  0  0  0  0  0  0  0  0  1 V2000
  146.1608  141.7740  157.3180 C   0  0  0  0  0  0  0  0  0  0  0  0
  146.6502  141.0368  156.0607 C   0  0  2  0  0  0  0  0  0  0  0  0
  148.0947  141.1953  155.9245 N   0  0  0  0  0  0  0  0  0  0  0  0
  149.0123  140.2523  156.1888 C   0  0  0  0  0  0  0  0  0  0  0  0
  148.7241  139.1187  156.5751 O   0  0  0  0  0  0  0  0  0  0  0  0
  150.4761  140.6557  155.9617 C   0  0  0  0  0  0  0  0  0  0  0  0
  151.2942  140.5789  157.1836 N   0  0  0  0  0  0  0  0  0  0  0  0
  151.0593  141.5506  158.1764 C   0  0  0  0  0  0  0  0  0  0  0  0
  151.7335  141.5856  159.3419 C   0  0  0  0  0  0  0  0  0  0  0  0
  151.5004  142.6834  160.3682 C   0  0  0  0  0  0  0  0  0  0  0  0
  151.8495  143.8629  159.8564 F   0  0  0  0  0  0  0  0  0  0  0  0
  150.2161  142.7469  160.7205 F   0  0  0  0  0  0  0  0  0  0  0  0
  152.2267  142.4774  161.4677 F   0  0  0  0  0  0  0  0  0  0  0  0
  152.7578  140.5760  159.5251 C   0  0  0  0  0  0  0  0  0  0  0  0
  153.0039  139.6474  158.5803 C   0  0  0  0  0  0  0  0  0  0  0  0
  152.2506  139.6127  157.3247 C   0  0  0  0  0  0  0  0  0  0  0  0
  152.4662  138.7691  156.4541 O   0  0  0  0  0  0  0  0  0  0  0  0
  145.8974  141.5100  154.8315 C   0  0  0  0  0  0  0  0  0  0  0  0
  146.5777  141.5953  153.4860 C   0  0  0  0  0  0  0  0  0  0  0  0
  146.1782  142.8590  154.2146 C   0  0  0  0  0  0  0  0  0  0  0  0
  145.0877  141.6407  157.4567 H   0  0  0  0  0  0  0  0  0  0  0  0
  146.3568  142.8447  157.2513 H   0  0  0  0  0  0  0  0  0  0  0  0
  146.6540  141.4007  158.2162 H   0  0  0  0  0  0  0  0  0  0  0  0
  146.4295  139.9748  156.1854 H   0  0  0  0  0  0  0  0  0  0  0  0
  148.4228  142.0960  155.6067 H   0  0  0  0  0  0  0  0  0  0  0  0
  150.8878  140.0117  155.1835 H   0  0  0  0  0  0  0  0  0  0  0  0
  150.5169  141.6647  155.5466 H   0  0  0  0  0  0  0  0  0  0  0  0
  150.2994  142.2759  157.9237 H   0  0  0  0  0  0  0  0  0  0  0  0
  153.3365  140.5613  160.4369 H   0  0  0  0  0  0  0  0  0  0  0  0
  153.7737  138.9093  158.7516 H   0  0  0  0  0  0  0  0  0  0  0  0
  144.8579  141.1874  154.8089 H   0  0  0  0  0  0  0  0  0  0  0  0
  147.6388  141.3595  153.4367 H   0  0  0  0  0  0  0  0  0  0  0  0
  145.9957  141.3125  152.6113 H   0  0  0  0  0  0  0  0  0  0  0  0
  145.3303  143.4187  153.8251 H   0  0  0  0  0  0  0  0  0  0  0  0
  146.9732  143.4605  154.6510 H   0  0  0  0  0  0  0  0  0  0  0  0
  1  2  1  0  0  0  0
  1 21  1  0  0  0  0
  1 22  1  0  0  0  0
  1 23  1  0  0  0  0
  2  3  1  0  0  0  0
  2 18  1  0  0  0  0
  2 24  1  0  0  0  0
  3  4  1  0  0  0  0
  3 25  1  0  0  0  0
  4  5  2  0  0  0  0
  4  6  1  0  0  0  0
  6  7  1  0  0  0  0
  6 26  1  0  0  0  0
  6 27  1  0  0  0  0
  7 16  1  0  0  0  0
  7  8  1  0  0  0  0
  8  9  2  0  0  0  0
  8 28  1  0  0  0  0
  9 10  1  0  0  0  0
  9 14  1  0  0  0  0
 10 11  1  0  0  0  0
 10 12  1  0  0  0  0
 10 13  1  0  0  0  0
 14 15  2  0  0  0  0
 14 29  1  0  0  0  0
 15 16  1  0  0  0  0
 15 30  1  0  0  0  0
 16 17  2  0  0  0  0
 18 20  1  0  0  0  0
 18 19  1  0  0  0  0
 18 31  1  0  0  0  0
 19 20  1  0  0  0  0
 19 32  1  0  0  0  0
 19 33  1  0  0  0  0
 20 34  1  0  0  0  0
 20 35  1  0  0  0  0
M  END
> <s_m_source_file>
AV-unprocessed.smi

> <i_m_source_file_index>
576

> <i_lp_mmshare_version>
43012

> <i_f3d_flags>
0

> <s_epik_input>
W0NIMl0xW0NIMl1bQ0hdMVtDQEhdKFtDSDNdKVtOSF1DKD1PKVtDSDJdbjJbY0hdYyhDKEYpKEYpRilbY0hdW2NIXWMyPU8=

> <s_epik_cmdline>
J2VwaWtfcHl0aG9uJywgJy1waCcsICc3LjAnLCAnLXRuJywgJzgnLCAnLW1hJywgJzIwMCcsICctbWV0YWxfYmluZGluZycsICctaW1hZScsICc8aW5maWxlLm1hZT4nLCAnLW9tYWUnLCAnPG91dGZpbGUubWFlPic=

> <r_lp_tautomer_probability>
1

> <r_epik_Ionization_Penalty>
3.84201e-08

> <r_epik_Ionization_Penalty_Charging>
1.91184e-08

> <r_epik_Ionization_Penalty_Neutral>
1.93017e-08

> <r_epik_State_Penalty>
-0

> <r_epik_Charging_Adjusted_Penalty>
1.91184e-08

> <i_epik_Tot_Q>
0

> <i_epik_Tot_abs_Q>
0

> <r_epik_Metal_State_Penalty>
-0

> <b_epik_Metal_Only>
0

> <s_lp_Force_Field>
OPLS_2005

> <r_lp_Energy>
24.7521

> <b_lp_Chiralities_Consistent>
1

> <s_lp_Variant>
AV-unprocessed.smi:576-1

> <Gold.Version>
5.8.1

> <Gold.Id.Protein>
6NUR|6NUR_protein|mol2

> <Gold.PLP.Fitness>
49.6235

> <Gold.PLP.PLP>
-43.0704

> <Gold.PLP.part.hbond>
-2.0000

> <Gold.PLP.part.metal>
0.0000

> <Gold.PLP.part.buried>
-6.3444

> <Gold.PLP.part.nonpolar>
-34.6814

> <Gold.PLP.part.repulsive>
0.0474

> <Gold.PLP.ligand.clash>
0.0000

> <Gold.PLP.ligand.torsion>
0.9406

> <Gold.PLP.Chemscore.Hbond>
1.8320

> <Gold.PLP.Chemscore.CHOScore>
0.6098

> <Gold.PLP.Chemscore.Metal>
0.0000

> <Gold.PLP.Chemscore.Internal.Correction>
1.1087

> <Gold.Rescore>
     Score         DG    S(hbond)    S(metal)    S(lipo)     H(rot)  DE(clash)    DE(int)     intcor
     14.96     -16.43       1.80        0.00      80.76       1.77       0.40       1.07       ----

> <Gold.Chemscore.Fitness>
14.9594

> <Gold.Chemscore.DG>
-16.4299

> <Gold.Chemscore.ZeroCoef>
-5.4800

> <Gold.Chemscore.Hbond>
1.8025

> <Gold.Chemscore.Metal>
0.0000

> <Gold.Chemscore.Lipo>
80.7569

> <Gold.Chemscore.Internal_Hbond>
0.0000

> <Gold.Chemscore.DEClash>
0.3960

> <Gold.Chemscore.DEInternal>
1.0745

> <Gold.Chemscore.Rot>
1.7653

> <Gold.Chemscore.Internal.Correction>
   9.000000E+99

> <Gold.Chemscore.Hbond.Weighted>
-6.0205

> <Gold.Chemscore.Metal.Weighted>
-0.0000

> <Gold.Chemscore.Lipo.Weighted>
-9.4486

> <Gold.Chemscore.Internal_Hbond.Weighted>
0.0000

> <Gold.Chemscore.DEClash.Weighted>
0.3960

> <Gold.Chemscore.DEInternal.Weighted>
1.0745

> <Gold.Chemscore.Rot.Weighted>
4.5191

> <Gold.Chemscore.Internal.Correction.Weighted>
   9.000000E+99

> <Gold.Protein.RotatedTorsions>
[ 6907 6896 6895 6894 ] final  -49.11 input  -60.11 | X-H torsion
[ 7974 7965 7964 7962 ] final -129.12 input  175.53 | X-H torsion
[ 8008 7997 7996 7995 ] final  -56.34 input   59.86 | X-H torsion
[ 10167 10162 10161 10158 ] final   34.70 input  -65.29 | X-H torsion
[ 10718 10713 10712 10709 ] final -159.52 input   66.30 | X-H torsion
[ 10763 10752 10751 10750 ] final  123.97 input  -60.55 | X-H torsion
[ 11005 11000 10999 10996 ] final  147.81 input  -57.11 | X-H torsion

> <Gold.Protein.ActiveResidues>
 VAL166  LYS551  ARG553  GLY616  TRP617  ASP618  TYR619  PRO620  LYS621  CYS622 
 ASP623  PHE694  ASN695  SER759  ASP760  ASP761  ALA762  ILE779  LEU786  VAL792 
 PHE793  MET794  SER795  GLU796  ALA797  LYS798  CYS799  TRP800  GLU811  SER814 

> <Gold.Protein.RotatedAtoms>
  150.8838  134.8232  159.7243 H   0  0  0  0  0  0  0  0  0  0  0  0  # atno 6907 bound_to 6896
  152.4794  134.4755  159.9659 H   0  0  0  0  0  0  0  0  0  0  0  0  # atno 6908 bound_to 6896
  151.4827  133.3504  159.2876 H   0  0  0  0  0  0  0  0  0  0  0  0  # atno 6909 bound_to 6896
  144.9603  140.7439  143.4733 H   0  0  0  0  0  0  0  0  0  0  0  0  # atno 7974 bound_to 7965
  154.4226  140.1132  156.5621 H   0  0  0  0  0  0  0  0  0  0  0  0  # atno 8008 bound_to 7997
  155.6300  140.3495  155.4661 H   0  0  0  0  0  0  0  0  0  0  0  0  # atno 8009 bound_to 7997
  155.9955  140.1188  157.0587 H   0  0  0  0  0  0  0  0  0  0  0  0  # atno 8010 bound_to 7997
  140.4291  144.1350  150.6157 H   0  0  0  0  0  0  0  0  0  0  0  0  # atno 10167 bound_to 10162
  156.5693  130.8681  151.2833 H   0  0  0  0  0  0  0  0  0  0  0  0  # atno 10718 bound_to 10713
  153.6539  135.3358  155.3108 H   0  0  0  0  0  0  0  0  0  0  0  0  # atno 10763 bound_to 10752
  154.8531  135.4347  154.1875 H   0  0  0  0  0  0  0  0  0  0  0  0  # atno 10764 bound_to 10752
  153.2824  135.7010  153.7447 H   0  0  0  0  0  0  0  0  0  0  0  0  # atno 10765 bound_to 10752
  140.0906  134.9043  157.1645 H   0  0  0  0  0  0  0  0  0  0  0  0  # atno 11005 bound_to 11000
  145.2710  139.1954  143.4841 LP  0  0  0  0  0  0  0  0  0  0  0  0  # atno 17320 bound_to 7965
  146.3351  140.2657  142.8604 LP  0  0  0  0  0  0  0  0  0  0  0  0  # atno 17321 bound_to 7965
  140.4448  143.2511  151.9426 LP  0  0  0  0  0  0  0  0  0  0  0  0  # atno 17342 bound_to 10162
  139.4784  144.5620  151.8224 LP  0  0  0  0  0  0  0  0  0  0  0  0  # atno 17343 bound_to 10162
  157.7351  130.9758  150.2067 LP  0  0  0  0  0  0  0  0  0  0  0  0  # atno 17370 bound_to 10713
  156.2729  130.3724  149.8013 LP  0  0  0  0  0  0  0  0  0  0  0  0  # atno 17371 bound_to 10713
  140.3357  134.2760  155.7220 LP  0  0  0  0  0  0  0  0  0  0  0  0  # atno 17394 bound_to 11000
  141.2077  133.7799  157.0105 LP  0  0  0  0  0  0  0  0  0  0  0  0  # atno 17395 bound_to 11000

$$$$
