AV-unprocessed.smi:419|AV-procd|sdf|2531|dock3
  -GOLD-   2262022493D 1   1.00000     0.00000
 Structure written by MMmdl.
 44 46  0  0  0  0  0  0  0  0  1 V2000
  148.2370  141.5809  153.8019 C   0  0  0  0  0  0  0  0  0  0  0  0
  148.8162  140.3071  154.0447 O   0  0  0  0  0  0  0  0  0  0  0  0
  149.7995  140.2146  155.0063 C   0  0  0  0  0  0  0  0  0  0  0  0
  150.3782  141.3270  155.6653 C   0  0  0  0  0  0  0  0  0  0  0  0
  151.3812  141.1376  156.6356 C   0  0  0  0  0  0  0  0  0  0  0  0
  151.8296  139.8454  156.9728 C   0  0  0  0  0  0  0  0  0  0  0  0
  152.8155  139.7535  157.9320 O   0  0  0  0  0  0  0  0  0  0  0  0
  152.9952  138.5090  158.5954 C   0  0  0  0  0  0  0  0  0  0  0  0
  153.4818  138.7709  160.0306 C   0  0  1  0  0  0  0  0  0  0  0  0
  154.1093  137.5877  160.4847 O   0  0  0  0  0  0  0  0  0  0  0  0
  154.5260  139.9054  160.0812 C   0  0  0  0  0  0  0  0  0  0  0  0
  154.0392  141.0590  160.8364 N   0  0  0  0  0  0  0  0  0  0  0  0
  154.2257  141.2942  162.1570 C   0  0  0  0  0  0  0  0  0  0  0  0
  154.8441  140.5710  162.9380 O   0  0  0  0  0  0  0  0  0  0  0  0
  153.6173  142.4634  162.4649 N   0  0  0  0  0  0  0  0  0  0  0  0
  153.5639  143.1064  163.7720 C   0  0  0  0  0  0  0  0  0  0  0  0
  153.0373  142.9983  161.3076 C   0  0  0  0  0  0  0  0  0  0  0  0
  152.3129  144.1851  161.1028 C   0  0  0  0  0  0  0  0  0  0  0  0
  151.8577  144.4454  159.7890 C   0  0  0  0  0  0  0  0  0  0  0  0
  152.1296  143.5376  158.7324 C   0  0  0  0  0  0  0  0  0  0  0  0
  152.8623  142.3504  158.9671 C   0  0  0  0  0  0  0  0  0  0  0  0
  153.3015  142.1152  160.2818 C   0  0  0  0  0  0  0  0  0  0  0  0
  151.2499  138.7331  156.3147 C   0  0  0  0  0  0  0  0  0  0  0  0
  150.2477  138.9224  155.3438 C   0  0  0  0  0  0  0  0  0  0  0  0
  147.4856  141.4909  153.0175 H   0  0  0  0  0  0  0  0  0  0  0  0
  148.9833  142.3001  153.4619 H   0  0  0  0  0  0  0  0  0  0  0  0
  147.7397  141.9683  154.6921 H   0  0  0  0  0  0  0  0  0  0  0  0
  150.0703  142.3376  155.4444 H   0  0  0  0  0  0  0  0  0  0  0  0
  151.8125  141.9969  157.1278 H   0  0  0  0  0  0  0  0  0  0  0  0
  152.0779  137.9168  158.5969 H   0  0  0  0  0  0  0  0  0  0  0  0
  153.7563  137.9438  158.0549 H   0  0  0  0  0  0  0  0  0  0  0  0
  152.6290  139.0118  160.6669 H   0  0  0  0  0  0  0  0  0  0  0  0
  154.7859  137.3511  159.8692 H   0  0  0  0  0  0  0  0  0  0  0  0
  155.4778  139.5507  160.4786 H   0  0  0  0  0  0  0  0  0  0  0  0
  154.7451  140.2483  159.0687 H   0  0  0  0  0  0  0  0  0  0  0  0
  152.5476  143.4325  163.9941 H   0  0  0  0  0  0  0  0  0  0  0  0
  154.2151  143.9805  163.7868 H   0  0  0  0  0  0  0  0  0  0  0  0
  153.8785  142.4337  164.5712 H   0  0  0  0  0  0  0  0  0  0  0  0
  152.1117  144.8716  161.9120 H   0  0  0  0  0  0  0  0  0  0  0  0
  151.2978  145.3467  159.5875 H   0  0  0  0  0  0  0  0  0  0  0  0
  151.7744  143.7564  157.7361 H   0  0  0  0  0  0  0  0  0  0  0  0
  153.0750  141.6591  158.1655 H   0  0  0  0  0  0  0  0  0  0  0  0
  151.5567  137.7220  156.5342 H   0  0  0  0  0  0  0  0  0  0  0  0
  149.8184  138.0627  154.8507 H   0  0  0  0  0  0  0  0  0  0  0  0
  1  2  1  0  0  0  0
  1 25  1  0  0  0  0
  1 26  1  0  0  0  0
  1 27  1  0  0  0  0
  2  3  1  0  0  0  0
  3 24  1  0  0  0  0
  3  4  2  0  0  0  0
  4  5  1  0  0  0  0
  4 28  1  0  0  0  0
  5  6  2  0  0  0  0
  5 29  1  0  0  0  0
  6  7  1  0  0  0  0
  6 23  1  0  0  0  0
  7  8  1  0  0  0  0
  8  9  1  0  0  0  0
  8 30  1  0  0  0  0
  8 31  1  0  0  0  0
  9 10  1  0  0  0  0
  9 11  1  0  0  0  0
  9 32  1  0  0  0  0
 10 33  1  0  0  0  0
 11 12  1  0  0  0  0
 11 34  1  0  0  0  0
 11 35  1  0  0  0  0
 12 22  1  0  0  0  0
 12 13  1  0  0  0  0
 13 14  2  0  0  0  0
 13 15  1  0  0  0  0
 15 16  1  0  0  0  0
 15 17  1  0  0  0  0
 16 36  1  0  0  0  0
 16 37  1  0  0  0  0
 16 38  1  0  0  0  0
 17 22  2  0  0  0  0
 17 18  1  0  0  0  0
 18 19  2  0  0  0  0
 18 39  1  0  0  0  0
 19 20  1  0  0  0  0
 19 40  1  0  0  0  0
 20 21  2  0  0  0  0
 20 41  1  0  0  0  0
 21 22  1  0  0  0  0
 21 42  1  0  0  0  0
 23 24  2  0  0  0  0
 23 43  1  0  0  0  0
 24 44  1  0  0  0  0
M  END
> <s_m_source_file>
AV-unprocessed.smi

> <i_m_source_file_index>
419

> <i_lp_mmshare_version>
43012

> <i_f3d_flags>
0

> <s_epik_input>
W0NIM11PYzFbY0hdW2NIXWMoW2NIXVtjSF0xKU9bQ0gyXVtDQEhdKFtPSF0pW0NIMl1uKGMoPU8pbjJbQ0gzXSljKGMyMylbY0hdW2NIXVtjSF1bY0hdMw==

> <s_epik_cmdline>
J2VwaWtfcHl0aG9uJywgJy1waCcsICc3LjAnLCAnLXRuJywgJzgnLCAnLW1hJywgJzIwMCcsICctbWV0YWxfYmluZGluZycsICctaW1hZScsICc8aW5maWxlLm1hZT4nLCAnLW9tYWUnLCAnPG91dGZpbGUubWFlPic=

> <r_lp_tautomer_probability>
1

> <r_epik_Ionization_Penalty>
2.40131e-06

> <r_epik_Ionization_Penalty_Charging>
2.01037e-09

> <r_epik_Ionization_Penalty_Neutral>
2.3993e-06

> <r_epik_State_Penalty>
-0

> <r_epik_Charging_Adjusted_Penalty>
2.01037e-09

> <i_epik_Tot_Q>
0

> <i_epik_Tot_abs_Q>
0

> <r_epik_Metal_State_Penalty>
-0

> <b_epik_Metal_Only>
0

> <s_lp_Force_Field>
OPLS_2005

> <r_lp_Energy>
50.9462

> <b_lp_Chiralities_Consistent>
1

> <s_lp_Variant>
AV-unprocessed.smi:419-2

> <Gold.Version>
5.8.1

> <Gold.Id.Protein>
6NUR|6NUR_protein|mol2

> <Gold.PLP.Fitness>
55.1890

> <Gold.PLP.PLP>
-56.1810

> <Gold.PLP.part.hbond>
-1.4686

> <Gold.PLP.part.metal>
0.0000

> <Gold.PLP.part.buried>
-4.9144

> <Gold.PLP.part.nonpolar>
-48.8554

> <Gold.PLP.part.repulsive>
0.8746

> <Gold.PLP.ligand.clash>
0.0000

> <Gold.PLP.ligand.torsion>
1.8216

> <Gold.PLP.Chemscore.Hbond>
0.8500

> <Gold.PLP.Chemscore.CHOScore>
0.0000

> <Gold.PLP.Chemscore.Metal>
0.0000

> <Gold.Chemscore.Hbonds>
donor molecule, donor type, donor heavy atom, donor atom, acceptor molecule, acceptor atom, score
      P1  H  7997  8008       L1     7  1.00

> <Gold.PLP.Chemscore.Internal.Correction>
0.1011

> <Gold.Rescore>
     Score         DG    S(hbond)    S(metal)    S(lipo)     H(rot)  DE(clash)    DE(int)     intcor
     14.83     -16.26       0.00        0.00     144.56       2.40       0.11       1.31       ----

> <Gold.Chemscore.Fitness>
14.8341

> <Gold.Chemscore.DG>
-16.2622

> <Gold.Chemscore.ZeroCoef>
-5.4800

> <Gold.Chemscore.Hbond>
0.0000

> <Gold.Chemscore.Metal>
0.0000

> <Gold.Chemscore.Lipo>
144.5629

> <Gold.Chemscore.Internal_Hbond>
0.0000

> <Gold.Chemscore.DEClash>
0.1145

> <Gold.Chemscore.DEInternal>
1.3136

> <Gold.Chemscore.Rot>
2.3952

> <Gold.Chemscore.Internal.Correction>
   9.000000E+99

> <Gold.Chemscore.Hbonds>
donor molecule, donor type, donor heavy atom, donor atom, acceptor molecule, acceptor atom, score
      P1  H  7997  8008       L1     7  0.18

> <Gold.Chemscore.Hbond.Weighted>
-0.0000

> <Gold.Chemscore.Metal.Weighted>
-0.0000

> <Gold.Chemscore.Lipo.Weighted>
-16.9139

> <Gold.Chemscore.Internal_Hbond.Weighted>
0.0000

> <Gold.Chemscore.DEClash.Weighted>
0.1145

> <Gold.Chemscore.DEInternal.Weighted>
1.3136

> <Gold.Chemscore.Rot.Weighted>
6.1316

> <Gold.Chemscore.Internal.Correction.Weighted>
   9.000000E+99

> <Gold.Protein.RotatedTorsions>
[ 6907 6896 6895 6894 ] final -102.41 input  -60.11 | X-H torsion
[ 7974 7965 7964 7962 ] final  116.11 input  175.53 | X-H torsion
[ 8008 7997 7996 7995 ] final  -73.85 input   59.86 | X-H torsion
[ 10167 10162 10161 10158 ] final -136.11 input  -65.29 | X-H torsion
[ 10718 10713 10712 10709 ] final    7.32 input   66.30 | X-H torsion
[ 10763 10752 10751 10750 ] final -179.45 input  -60.55 | X-H torsion
[ 11005 11000 10999 10996 ] final   56.95 input  -57.11 | X-H torsion

> <Gold.Protein.ActiveResidues>
 VAL166  LYS551  ARG553  GLY616  TRP617  ASP618  TYR619  PRO620  LYS621  CYS622 
 ASP623  PHE694  ASN695  SER759  ASP760  ASP761  ALA762  ILE779  LEU786  VAL792 
 PHE793  MET794  SER795  GLU796  ALA797  LYS798  CYS799  TRP800  GLU811  SER814 

> <Gold.Protein.RotatedAtoms>
  150.7195  134.0585  159.3822 H   0  0  0  0  0  0  0  0  0  0  0  0  # atno 6907 bound_to 6896
  151.8564  135.0537  160.0474 H   0  0  0  0  0  0  0  0  0  0  0  0  # atno 6908 bound_to 6896
  152.2751  133.5382  159.5499 H   0  0  0  0  0  0  0  0  0  0  0  0  # atno 6909 bound_to 6896
  145.1836  139.3037  143.4405 H   0  0  0  0  0  0  0  0  0  0  0  0  # atno 7974 bound_to 7965
  154.5281  140.0772  156.8296 H   0  0  0  0  0  0  0  0  0  0  0  0  # atno 8008 bound_to 7997
  155.3432  140.3408  155.4221 H   0  0  0  0  0  0  0  0  0  0  0  0  # atno 8009 bound_to 7997
  156.1753  140.1633  156.8360 H   0  0  0  0  0  0  0  0  0  0  0  0  # atno 8010 bound_to 7997
  139.8711  143.6956  152.2639 H   0  0  0  0  0  0  0  0  0  0  0  0  # atno 10167 bound_to 10162
  156.9352  130.5841  149.5650 H   0  0  0  0  0  0  0  0  0  0  0  0  # atno 10718 bound_to 10713
  154.5349  135.2802  155.1147 H   0  0  0  0  0  0  0  0  0  0  0  0  # atno 10763 bound_to 10752
  154.2653  135.6314  153.5293 H   0  0  0  0  0  0  0  0  0  0  0  0  # atno 10764 bound_to 10752
  152.9965  135.5615  154.5872 H   0  0  0  0  0  0  0  0  0  0  0  0  # atno 10765 bound_to 10752
  140.0489  134.5765  155.9288 H   0  0  0  0  0  0  0  0  0  0  0  0  # atno 11005 bound_to 11000
  146.3449  140.2025  142.8589 LP  0  0  0  0  0  0  0  0  0  0  0  0  # atno 17320 bound_to 7965
  145.0111  140.8715  143.5223 LP  0  0  0  0  0  0  0  0  0  0  0  0  # atno 17321 bound_to 7965
  139.7283  144.7588  151.0843 LP  0  0  0  0  0  0  0  0  0  0  0  0  # atno 17342 bound_to 10162
  140.7760  143.5120  150.9641 LP  0  0  0  0  0  0  0  0  0  0  0  0  # atno 17343 bound_to 10162
  156.0429  130.5509  150.8813 LP  0  0  0  0  0  0  0  0  0  0  0  0  # atno 17370 bound_to 10713
  157.5821  131.0946  150.9255 LP  0  0  0  0  0  0  0  0  0  0  0  0  # atno 17371 bound_to 10713
  141.1921  133.6574  156.5485 LP  0  0  0  0  0  0  0  0  0  0  0  0  # atno 17394 bound_to 11000
  140.3948  134.7408  157.4744 LP  0  0  0  0  0  0  0  0  0  0  0  0  # atno 17395 bound_to 11000

$$$$
