#       Name:                AV-unprocessed.smi:2160
#       Creating user name   scv26
#       Creation time:       Fri Mar 27 11:58:01 2020


#       File generated by GOLD software.
#

@<TRIPOS>MOLECULE
AV-unprocessed.smi:2160
    50    52     1
SMALL
NO_CHARGES


@<TRIPOS>ATOM
      1 ****        -6.4003   3.3166   0.8498 C.3            1 S1                 0.0000
      2 ****        -5.6019   2.3276   0.2164 O.3            1 S1                 0.0000
      3 ****        -4.2318   2.4719   0.2641 C.ar           1 S1                 0.0000
      4 ****        -3.5657   3.5477   0.9033 C.ar           1 S1                 0.0000
      5 ****        -2.1588   3.6169   0.9033 C.ar           1 S1                 0.0000
      6 ****        -1.3953   2.6136   0.2737 C.ar           1 S1                 0.0000
      7 ****         0.1192   2.7081   0.2624 C.3            1 S1                 0.0000
      8 ****         0.7341   1.4302   0.2567 O.3            1 S1                 0.0000
      9 ****         2.1497   1.4954   0.2154 C.3            1 S1                 0.0000
     10 ****         2.7096   0.0664   0.1774 C.3            1 S1                 0.0000
     11 ****         4.1122   0.1240   0.3468 O.3            1 S1                 0.0000
     12 ****         2.3725  -0.6637  -1.1373 C.3            1 S1                 0.0000
     13 ****         2.8157  -2.0456  -1.1290 N.pl3          1 S1                 0.0000
     14 ****         3.9298  -2.5510  -1.6926 C.2            1 S1                 0.0000
     15 ****         4.1404  -3.8580  -1.5603 N.2            1 S1                 0.0000
     16 ****         3.0337  -4.2460  -0.8243 C.ar           1 S1                 0.0000
     17 ****         2.6502  -5.5189  -0.3442 C.ar           1 S1                 0.0000
     18 ****         1.4590  -5.6746   0.3954 C.ar           1 S1                 0.0000
     19 ****         0.6344  -4.5631   0.6659 C.ar           1 S1                 0.0000
     20 ****         0.9956  -3.2851   0.1981 C.ar           1 S1                 0.0000
     21 ****         2.1847  -3.1345  -0.5391 C.ar           1 S1                 0.0000
     22 ****        -2.0533   1.5464  -0.3716 C.ar           1 S1                 0.0000
     23 ****        -3.4597   1.4780  -0.3713 C.ar           1 S1                 0.0000
     24 ****        -7.4529   3.0620   0.7272 H              1 S1                 0.0000
     25 ****        -6.2456   4.3001   0.4039 H              1 S1                 0.0000
     26 ****        -6.1969   3.3684   1.9202 H              1 S1                 0.0000
     27 ****        -4.1118   4.3351   1.4000 H              1 S1                 0.0000
     28 ****        -1.6672   4.4458   1.3910 H              1 S1                 0.0000
     29 ****         0.4198   3.2708  -0.6227 H              1 S1                 0.0000
     30 ****         0.4528   3.2698   1.1366 H              1 S1                 0.0000
     31 ****         2.4833   2.0603  -0.6568 H              1 S1                 0.0000
     32 ****         2.5108   2.0166   1.1038 H              1 S1                 0.0000
     33 ****         2.3015  -0.4927   1.0206 H              1 S1                 0.0000
     34 ****         4.4814   0.6180  -0.3691 H              1 S1                 0.0000
     35 ****         1.2951  -0.6583  -1.3073 H              1 S1                 0.0000
     36 ****         2.8238  -0.1530  -1.9893 H              1 S1                 0.0000
     37 ****         4.6266  -1.9234  -2.2288 H              1 S1                 0.0000
     38 ****         3.2739  -6.3771  -0.5450 H              1 S1                 0.0000
     39 ****         1.1767  -6.6524   0.7572 H              1 S1                 0.0000
     40 ****        -0.2759  -4.6917   1.2332 H              1 S1                 0.0000
     41 ****         0.3683  -2.4304   0.4033 H              1 S1                 0.0000
     42 ****        -1.4847   0.7750  -0.8699 H              1 S1                 0.0000
     43 ****        -3.9517   0.6537  -0.8666 H              1 S1                 0.0000
     44 ****        -5.8650   2.3064  -0.7481 LP             1 S1                 0.0000
     45 ****        -5.8232   1.4500   0.6417 LP             1 S1                 0.0000
     46 ****         0.4149   0.9269  -0.5463 LP             1 S1                 0.0000
     47 ****         0.4618   0.9422   1.0860 LP             1 S1                 0.0000
     48 ****         4.4899  -0.8019   0.3477 LP             1 S1                 0.0000
     49 ****         4.3289   0.5733   1.2135 LP             1 S1                 0.0000
     50 ****         4.8982  -4.4136  -1.9023 LP             1 S1                 0.0000
@<TRIPOS>BOND
    1    1    2 1     
    2    1   24 1     
    3    1   25 1     
    4    1   26 1     
    5    2    3 1     
    6    3   23 ar    
    7    3    4 ar    
    8    4    5 ar    
    9    4   27 1     
   10    5    6 ar    
   11    5   28 1     
   12    6    7 1     
   13    6   22 ar    
   14    7    8 1     
   15    7   29 1     
   16    7   30 1     
   17    8    9 1     
   18    9   10 1     
   19    9   31 1     
   20    9   32 1     
   21   10   11 1     
   22   10   12 1     
   23   10   33 1     
   24   11   34 1     
   25   12   13 1     
   26   12   35 1     
   27   12   36 1     
   28   13   21 1     
   29   13   14 1     
   30   14   15 2     
   31   14   37 1     
   32   15   16 1     
   33   16   21 ar    
   34   16   17 ar    
   35   17   18 ar    
   36   17   38 1     
   37   18   19 ar    
   38   18   39 1     
   39   19   20 ar    
   40   19   40 1     
   41   20   21 ar    
   42   20   41 1     
   43   22   23 ar    
   44   22   42 1     
   45   23   43 1     
   46    2   44 1     
   47    2   45 1     
   48    8   46 1     
   49    8   47 1     
   50   11   48 1     
   51   11   49 1     
   52   15   50 1     
@<TRIPOS>SUBSTRUCTURE
      1 S1             1
@<TRIPOS>SET
LONE_PAIRS      STATIC     ATOMS    <user>   **** ""
7 44 45 46 47 48 49 50
DONOR_HYDROGENS      STATIC     ATOMS    <user>   **** ""
1 34
ATOM$BLUE        STATIC     ATOMS    COLORGROUP SYSTEM
7 44 45 46 47 48 49 50
ATOM$RED        STATIC     ATOMS    COLORGROUP SYSTEM
1 34
