#       Name:                AV-unprocessed.smi:710
#       Creating user name   scv26
#       Creation time:       Fri Mar 27 00:45:06 2020


#       File generated by GOLD software.
#

@<TRIPOS>MOLECULE
AV-unprocessed.smi:710
    45    46     1
SMALL
NO_CHARGES


@<TRIPOS>ATOM
      1 ****        -2.2025   4.0644  -0.3703 C.3            1 S1                 0.0000
      2 ****        -2.3292   2.6701   0.1738 C.2            1 S1                 0.0000
      3 ****        -3.4652   2.0114   0.0156 N.2            1 S1                 0.0000
      4 ****        -3.2525   0.8139   0.5972 N.pl3          1 S1                 0.0000
      5 ****        -4.3126  -0.1752   0.5972 C.3            1 S1                 0.0000
      6 ****        -1.9818   0.7185   1.1304 C.2            1 S1                 0.0000
      7 ****        -1.5005  -0.5160   1.8234 C.3            1 S1                 0.0000
      8 ****        -1.3497   1.9067   0.8740 C.2            1 S1                 0.0000
      9 ****         0.0545   2.3295   1.2298 C.3            1 S1                 0.0000
     10 ****         1.0250   1.9017   0.1278 C.2            1 S1                 0.0000
     11 ****         1.5899   2.7484  -0.5637 O.2            1 S1                 0.0000
     12 ****         1.2102   0.5828  -0.0217 N.am           1 S1                 0.0000
     13 ****         2.0628  -0.0340  -1.0290 C.3            1 S1                 0.0000
     14 ****         2.0220  -1.5745  -0.9371 C.3            1 S1                 0.0000
     15 ****         0.7688  -2.0044  -1.4404 O.3            1 S1                 0.0000
     16 ****         3.1134  -2.2332  -1.7967 C.3            1 S1                 0.0000
     17 ****         3.1861  -3.7148  -1.4116 C.3            1 S1                 0.0000
     18 ****         2.7893  -3.8451   0.3506 S.3            1 S1                 0.0000
     19 ****         2.2193  -2.1295   0.4854 C.3            1 S1                 0.0000
     20 ****        -1.2599   4.1906  -0.9032 H              1 S1                 0.0000
     21 ****        -2.2298   4.7993   0.4344 H              1 S1                 0.0000
     22 ****        -3.0081   4.3025  -1.0660 H              1 S1                 0.0000
     23 ****        -3.9353  -1.1180   0.2000 H              1 S1                 0.0000
     24 ****        -5.1490   0.1560  -0.0202 H              1 S1                 0.0000
     25 ****        -4.6657  -0.3327   1.6166 H              1 S1                 0.0000
     26 ****        -0.5543  -0.3405   2.3344 H              1 S1                 0.0000
     27 ****        -1.3480  -1.3239   1.1075 H              1 S1                 0.0000
     28 ****        -2.2217  -0.8534   2.5679 H              1 S1                 0.0000
     29 ****         0.1197   3.4101   1.3621 H              1 S1                 0.0000
     30 ****         0.3787   1.8929   2.1749 H              1 S1                 0.0000
     31 ****         0.6973  -0.0404   0.5848 H              1 S1                 0.0000
     32 ****         1.7706   0.3018  -2.0258 H              1 S1                 0.0000
     33 ****         3.0828   0.3177  -0.8650 H              1 S1                 0.0000
     34 ****         0.7361  -2.9479  -1.3951 H              1 S1                 0.0000
     35 ****         2.9386  -2.1005  -2.8654 H              1 S1                 0.0000
     36 ****         4.0757  -1.7693  -1.5753 H              1 S1                 0.0000
     37 ****         2.4434  -4.2853  -1.9701 H              1 S1                 0.0000
     38 ****         4.1641  -4.1462  -1.6256 H              1 S1                 0.0000
     39 ****         3.0005  -1.5677   0.9987 H              1 S1                 0.0000
     40 ****         1.3171  -2.0643   1.0949 H              1 S1                 0.0000
     41 ****        -4.2982   2.3311  -0.4359 LP             1 S1                 0.0000
     42 ****         1.4151   3.7203  -0.4061 LP             1 S1                 0.0000
     43 ****         2.2237   2.4645  -1.2832 LP             1 S1                 0.0000
     44 ****         0.6669  -1.7084  -2.3901 LP             1 S1                 0.0000
     45 ****         0.0316  -1.6143  -0.8887 LP             1 S1                 0.0000
@<TRIPOS>BOND
    1    1    2 1     
    2    1   20 1     
    3    1   21 1     
    4    1   22 1     
    5    2    8 1     
    6    2    3 2     
    7    3    4 1     
    8    4    5 1     
    9    4    6 1     
   10    5   23 1     
   11    5   24 1     
   12    5   25 1     
   13    6    7 1     
   14    6    8 2     
   15    7   26 1     
   16    7   27 1     
   17    7   28 1     
   18    8    9 1     
   19    9   10 1     
   20    9   29 1     
   21    9   30 1     
   22   10   11 2     
   23   10   12 am    
   24   12   13 1     
   25   12   31 1     
   26   13   14 1     
   27   13   32 1     
   28   13   33 1     
   29   14   19 1     
   30   14   15 1     
   31   14   16 1     
   32   15   34 1     
   33   16   17 1     
   34   16   35 1     
   35   16   36 1     
   36   17   18 1     
   37   17   37 1     
   38   17   38 1     
   39   18   19 1     
   40   19   39 1     
   41   19   40 1     
   42    3   41 1     
   43   11   42 1     
   44   11   43 1     
   45   15   44 1     
   46   15   45 1     
@<TRIPOS>SUBSTRUCTURE
      1 S1             1
@<TRIPOS>SET
LONE_PAIRS      STATIC     ATOMS    <user>   **** ""
5 41 42 43 44 45
DONOR_HYDROGENS      STATIC     ATOMS    <user>   **** ""
2 31 34
ATOM$BLUE        STATIC     ATOMS    COLORGROUP SYSTEM
5 41 42 43 44 45
ATOM$RED        STATIC     ATOMS    COLORGROUP SYSTEM
2 31 34
