AV-unprocessed.smi:1439|AV-procd|sdf|5871|dock7
  -GOLD-   22720 5543D 1   1.00000     0.00000
 Structure written by MMmdl.
 35 36  0  0  0  0  0  0  0  0  2 V2000
  144.0661  134.7691  149.7234 N   0  0  0  0  0  0  0  0  0  0  0  0
  144.6247  134.9741  150.9207 C   0  0  0  0  0  0  0  0  0  0  0  0
  145.8153  135.2539  151.0433 O   0  0  0  0  0  0  0  0  0  0  0  0
  143.7223  134.8824  152.1572 C   0  0  0  0  0  0  0  0  0  0  0  0
  144.1289  135.8674  153.2175 C   0  0  0  0  0  0  0  0  0  0  0  0
  144.1651  137.2332  153.0997 C   0  0  0  0  0  0  0  0  0  0  0  0
  144.6923  137.9934  154.5736 S   0  0  0  0  0  0  0  0  0  0  0  0
  144.8521  136.4038  155.3231 C   0  0  0  0  0  0  0  0  0  0  0  0
  145.2578  136.1855  156.5836 N   0  5  0  0  0  0  0  0  0  0  0  0
  146.1689  137.0157  157.1446 C   0  0  0  0  0  0  0  0  0  0  0  0
  146.7960  137.9375  156.6179 O   0  0  0  0  0  0  0  0  0  0  0  0
  146.3780  136.6845  158.6289 C   0  0  0  0  0  0  0  0  0  0  0  0
  147.8588  136.5505  159.0324 C   0  0  0  0  0  0  0  0  0  0  0  0
  148.0349  136.0376  160.4690 C   0  0  2  0  0  0  0  0  0  0  0  0
  147.2059  134.7976  160.7911 C   0  0  0  0  0  0  0  0  0  0  0  0
  147.0961  134.8426  162.3058 C   0  0  0  0  0  0  0  0  0  0  0  0
  147.3907  136.3049  162.6569 C   0  0  0  0  0  0  0  0  0  0  0  0
  147.5423  136.9757  161.4123 O   0  0  0  0  0  0  0  0  0  0  0  0
  144.5342  135.4172  154.4776 N   0  0  0  0  0  0  0  0  0  0  0  0
  144.6383  134.7951  148.8921 H   0  0  0  0  0  0  0  0  0  0  0  0
  143.0801  134.5620  149.6571 H   0  0  0  0  0  0  0  0  0  0  0  0
  142.6869  135.0540  151.8594 H   0  0  0  0  0  0  0  0  0  0  0  0
  143.7654  133.8632  152.5424 H   0  0  0  0  0  0  0  0  0  0  0  0
  143.9123  137.8366  152.2411 H   0  0  0  0  0  0  0  0  0  0  0  0
  145.9084  137.4645  159.2304 H   0  0  0  0  0  0  0  0  0  0  0  0
  145.8540  135.7548  158.8568 H   0  0  0  0  0  0  0  0  0  0  0  0
  148.3743  135.8815  158.3417 H   0  0  0  0  0  0  0  0  0  0  0  0
  148.3458  137.5230  158.9453 H   0  0  0  0  0  0  0  0  0  0  0  0
  149.0884  135.8411  160.6773 H   0  0  0  0  0  0  0  0  0  0  0  0
  146.2120  134.8839  160.3495 H   0  0  0  0  0  0  0  0  0  0  0  0
  147.6601  133.8770  160.4237 H   0  0  0  0  0  0  0  0  0  0  0  0
  146.1080  134.5284  162.6436 H   0  0  0  0  0  0  0  0  0  0  0  0
  147.8343  134.1874  162.7694 H   0  0  0  0  0  0  0  0  0  0  0  0
  146.5935  136.7613  163.2442 H   0  0  0  0  0  0  0  0  0  0  0  0
  148.3188  136.3834  163.2249 H   0  0  0  0  0  0  0  0  0  0  0  0
  1  2  1  0  0  0  0
  1 20  1  0  0  0  0
  1 21  1  0  0  0  0
  2  3  2  0  0  0  0
  2  4  1  0  0  0  0
  4  5  1  0  0  0  0
  4 22  1  0  0  0  0
  4 23  1  0  0  0  0
  5 19  1  0  0  0  0
  5  6  2  0  0  0  0
  6  7  1  0  0  0  0
  6 24  1  0  0  0  0
  7  8  1  0  0  0  0
  8  9  1  0  0  0  0
  8 19  2  0  0  0  0
  9 10  1  0  0  0  0
 10 11  2  0  0  0  0
 10 12  1  0  0  0  0
 12 13  1  0  0  0  0
 12 25  1  0  0  0  0
 12 26  1  0  0  0  0
 13 14  1  0  0  0  0
 13 27  1  0  0  0  0
 13 28  1  0  0  0  0
 14 18  1  0  0  0  0
 14 15  1  0  0  0  0
 14 29  1  0  0  0  0
 15 16  1  0  0  0  0
 15 30  1  0  0  0  0
 15 31  1  0  0  0  0
 16 17  1  0  0  0  0
 16 32  1  0  0  0  0
 16 33  1  0  0  0  0
 17 18  1  0  0  0  0
 17 34  1  0  0  0  0
 17 35  1  0  0  0  0
M  CHG  1   9  -1
M  END
> <s_m_source_file>
AV-unprocessed.smi

> <i_m_source_file_index>
1439

> <i_lp_mmshare_version>
43012

> <i_f3d_flags>
0

> <s_epik_input>
W05IMl1DKD1PKVtDSDJdYzFbY0hdc2MobjEpW05IXUMoPU8pW0NIMl1bQ0gyXVtDQEBIXTJbQ0gyXVtDSDJdW0NIMl1PMg==

> <s_epik_cmdline>
J2VwaWtfcHl0aG9uJywgJy1waCcsICc3LjAnLCAnLXRuJywgJzgnLCAnLW1hJywgJzIwMCcsICctbWV0YWxfYmluZGluZycsICctaW1hZScsICc8aW5maWxlLm1hZT4nLCAnLW9tYWUnLCAnPG91dGZpbGUubWFlPic=

> <r_lp_tautomer_probability>
1

> <r_epik_Ionization_Penalty>
4.85214

> <r_epik_Ionization_Penalty_Charging>
4.5239

> <r_epik_Ionization_Penalty_Neutral>
0.32824

> <r_epik_State_Penalty>
4.52362

> <r_epik_Charging_Adjusted_Penalty>
9.04752

> <i_epik_Tot_Q>
-1

> <i_epik_Tot_abs_Q>
1

> <r_epik_Metal_State_Penalty>
0.831335

> <b_epik_Metal_Only>
1

> <s_lp_Force_Field>
OPLS_2005

> <r_lp_Energy>
14.205

> <b_lp_Chiralities_Consistent>
1

> <s_lp_Variant>
AV-unprocessed.smi:1439-3

> <Gold.Version>
5.8.1

> <Gold.Id.Protein>
6NUR|6NUR_protein|mol2

> <Gold.PLP.Fitness>
41.3094

> <Gold.PLP.PLP>
-25.8222

> <Gold.PLP.part.hbond>
-3.9667

> <Gold.PLP.part.metal>
0.0000

> <Gold.PLP.part.buried>
-4.4975

> <Gold.PLP.part.nonpolar>
-18.4996

> <Gold.PLP.part.repulsive>
0.3573

> <Gold.PLP.ligand.clash>
0.0000

> <Gold.PLP.ligand.torsion>
0.7495

> <Gold.PLP.Chemscore.Hbond>
3.7801

> <Gold.PLP.Chemscore.CHOScore>
1.8257

> <Gold.PLP.Chemscore.Metal>
0.0000

> <Gold.Chemscore.Hbonds>
donor molecule, donor type, donor heavy atom, donor atom, acceptor molecule, acceptor atom, score
      L1  H     1    20       P1  7921  1.00
      L1  H     1    21       P1 10186  0.89
      P1  H  6931  6943       L1    18  0.95
      P1  H  6934  6947       L1    18  0.67
      L1  C     6    24       P1 10171  0.99
      L1  C     6    24       P1 10175  0.65

> <Gold.PLP.Chemscore.Internal.Correction>
0.1689

> <Gold.Rescore>
     Score         DG    S(hbond)    S(metal)    S(lipo)     H(rot)  DE(clash)    DE(int)     intcor
     12.28     -14.15       2.91        0.00      45.88       2.51       0.00       1.87       ----

> <Gold.Chemscore.Fitness>
12.2765

> <Gold.Chemscore.DG>
-14.1484

> <Gold.Chemscore.ZeroCoef>
-5.4800

> <Gold.Chemscore.Hbond>
2.9121

> <Gold.Chemscore.Metal>
0.0000

> <Gold.Chemscore.Lipo>
45.8826

> <Gold.Chemscore.Internal_Hbond>
0.0000

> <Gold.Chemscore.DEClash>
0.0000

> <Gold.Chemscore.DEInternal>
1.8719

> <Gold.Chemscore.Rot>
2.5103

> <Gold.Chemscore.Internal.Correction>
   9.000000E+99

> <Gold.Chemscore.Hbonds>
donor molecule, donor type, donor heavy atom, donor atom, acceptor molecule, acceptor atom, score
      L1  H     1    20       P1  7921  0.99
      L1  H     1    21       P1 10186  0.83
      P1  H  6931  6943       L1    18  0.14
      P1  H  6934  6947       L1    18  0.65

> <Gold.Chemscore.Hbond.Weighted>
-9.7265

> <Gold.Chemscore.Metal.Weighted>
-0.0000

> <Gold.Chemscore.Lipo.Weighted>
-5.3683

> <Gold.Chemscore.Internal_Hbond.Weighted>
0.0000

> <Gold.Chemscore.DEClash.Weighted>
0.0000

> <Gold.Chemscore.DEInternal.Weighted>
1.8719

> <Gold.Chemscore.Rot.Weighted>
6.4264

> <Gold.Chemscore.Internal.Correction.Weighted>
   9.000000E+99

> <Gold.Protein.RotatedTorsions>
[ 6907 6896 6895 6894 ] final  -99.60 input  -60.11 | X-H torsion
[ 7974 7965 7964 7962 ] final  179.80 input  175.53 | X-H torsion
[ 8008 7997 7996 7995 ] final   23.52 input   59.86 | X-H torsion
[ 10167 10162 10161 10158 ] final -178.11 input  -65.29 | X-H torsion
[ 10718 10713 10712 10709 ] final  -52.33 input   66.30 | X-H torsion
[ 10763 10752 10751 10750 ] final   48.13 input  -60.55 | X-H torsion
[ 11005 11000 10999 10996 ] final -111.24 input  -57.11 | X-H torsion

> <Gold.Protein.ActiveResidues>
 VAL166  LYS551  ARG553  GLY616  TRP617  ASP618  TYR619  PRO620  LYS621  CYS622 
 ASP623  PHE694  ASN695  SER759  ASP760  ASP761  ALA762  ILE779  LEU786  VAL792 
 PHE793  MET794  SER795  GLU796  ALA797  LYS798  CYS799  TRP800  GLU811  SER814 

> <Gold.Protein.RotatedAtoms>
  150.7086  134.1016  159.3967 H   0  0  0  0  0  0  0  0  0  0  0  0  # atno 6907 bound_to 6896
  151.9002  135.0379  160.0515 H   0  0  0  0  0  0  0  0  0  0  0  0  # atno 6908 bound_to 6896
  152.2420  133.5108  159.5312 H   0  0  0  0  0  0  0  0  0  0  0  0  # atno 6909 bound_to 6896
  144.7142  140.0602  143.6433 H   0  0  0  0  0  0  0  0  0  0  0  0  # atno 7974 bound_to 7965
  154.9822  140.3103  155.4941 H   0  0  0  0  0  0  0  0  0  0  0  0  # atno 8008 bound_to 7997
  156.2952  140.2264  156.4861 H   0  0  0  0  0  0  0  0  0  0  0  0  # atno 8009 bound_to 7997
  154.7779  140.0448  157.1092 H   0  0  0  0  0  0  0  0  0  0  0  0  # atno 8010 bound_to 7997
  139.5448  144.2266  152.0966 H   0  0  0  0  0  0  0  0  0  0  0  0  # atno 10167 bound_to 10162
  156.1631  130.4149  149.9762 H   0  0  0  0  0  0  0  0  0  0  0  0  # atno 10718 bound_to 10713
  152.9794  135.5954  154.3875 H   0  0  0  0  0  0  0  0  0  0  0  0  # atno 10763 bound_to 10752
  154.3534  135.2767  155.2361 H   0  0  0  0  0  0  0  0  0  0  0  0  # atno 10764 bound_to 10752
  154.4391  135.6017  153.6172 H   0  0  0  0  0  0  0  0  0  0  0  0  # atno 10765 bound_to 10752
  141.0745  133.9324  157.2417 H   0  0  0  0  0  0  0  0  0  0  0  0  # atno 11005 bound_to 11000
  145.9870  139.2985  143.1007 LP  0  0  0  0  0  0  0  0  0  0  0  0  # atno 17320 bound_to 7965
  145.8946  140.9282  143.0534 LP  0  0  0  0  0  0  0  0  0  0  0  0  # atno 17321 bound_to 7965
  140.1750  144.4899  150.6559 LP  0  0  0  0  0  0  0  0  0  0  0  0  # atno 17342 bound_to 10162
  140.6692  143.2279  151.5668 LP  0  0  0  0  0  0  0  0  0  0  0  0  # atno 17343 bound_to 10162
  156.7585  130.9142  151.3640 LP  0  0  0  0  0  0  0  0  0  0  0  0  # atno 17370 bound_to 10713
  157.6748  130.9084  150.0123 LP  0  0  0  0  0  0  0  0  0  0  0  0  # atno 17371 bound_to 10713
  139.9558  135.0166  156.9123 LP  0  0  0  0  0  0  0  0  0  0  0  0  # atno 17394 bound_to 11000
  140.5602  134.0542  155.7396 LP  0  0  0  0  0  0  0  0  0  0  0  0  # atno 17395 bound_to 11000

$$$$
