AV-unprocessed.smi:3263|AV-procd|sdf|12491|dock5
  -GOLD-   2272018393D 1   1.00000     0.00000
 Structure written by MMmdl.
 42 44  0  0  0  0  0  0  0  0  2 V2000
  146.4216  140.6570  154.0344 O   0  0  0  0  0  0  0  0  0  0  0  0
  147.5341  140.4346  153.5559 C   0  0  0  0  0  0  0  0  0  0  0  0
  148.7703  141.2050  154.0383 C   0  0  0  0  0  0  0  0  0  0  0  0
  149.0051  141.1307  155.5652 C   0  0  1  0  0  0  0  0  0  0  0  0
  148.9185  139.7027  156.1585 C   0  0  0  0  0  0  0  0  0  0  0  0
  150.2674  139.5399  156.8814 C   0  0  2  0  0  0  0  0  0  0  0  0
  150.3035  140.4585  158.1166 C   0  0  0  0  0  0  0  0  0  0  0  0
  150.4456  141.8595  157.4927 C   0  0  0  0  0  0  0  0  0  0  0  0
  150.4315  141.5606  155.9812 C   0  0  1  0  0  0  0  0  0  0  0  0
  151.2148  140.2525  155.9255 C   0  0  0  0  0  0  0  0  0  0  0  0
  147.7453  139.5224  152.5945 N   0  0  0  0  0  0  0  0  0  0  0  0
  146.7118  138.6881  151.9922 C   0  0  0  0  0  0  0  0  0  0  0  0
  146.0522  137.7626  153.0291 C   0  0  0  0  0  0  0  0  0  0  0  0
  145.2829  136.6287  152.3802 C   0  0  0  0  0  0  0  0  0  0  0  0
  143.8904  136.4715  152.5527 C   0  0  0  0  0  0  0  0  0  0  0  0
  143.2360  135.3908  151.9253 C   0  0  0  0  0  0  0  0  0  0  0  0
  143.9865  134.4907  151.1408 C   0  0  0  0  0  0  0  0  0  0  0  0
  145.3748  134.6942  151.0038 C   0  0  0  0  0  0  0  0  0  0  0  0
  145.9656  135.7411  151.6213 N   0  3  0  0  0  0  0  0  0  0  0  0
  149.6421  140.8362  153.4973 H   0  0  0  0  0  0  0  0  0  0  0  0
  148.6533  142.2511  153.7513 H   0  0  0  0  0  0  0  0  0  0  0  0
  148.2778  141.7815  156.0537 H   0  0  0  0  0  0  0  0  0  0  0  0
  148.0693  139.5848  156.8325 H   0  0  0  0  0  0  0  0  0  0  0  0
  148.8229  138.9510  155.3739 H   0  0  0  0  0  0  0  0  0  0  0  0
  150.5247  138.5027  157.0983 H   0  0  0  0  0  0  0  0  0  0  0  0
  149.4043  140.3639  158.7264 H   0  0  0  0  0  0  0  0  0  0  0  0
  151.1630  140.2307  158.7481 H   0  0  0  0  0  0  0  0  0  0  0  0
  149.6442  142.5350  157.7942 H   0  0  0  0  0  0  0  0  0  0  0  0
  151.3918  142.3149  157.7875 H   0  0  0  0  0  0  0  0  0  0  0  0
  150.8451  142.3710  155.3801 H   0  0  0  0  0  0  0  0  0  0  0  0
  152.2325  140.3400  156.3105 H   0  0  0  0  0  0  0  0  0  0  0  0
  151.2476  139.8038  154.9315 H   0  0  0  0  0  0  0  0  0  0  0  0
  148.6897  139.3976  152.2587 H   0  0  0  0  0  0  0  0  0  0  0  0
  145.9641  139.3456  151.5476 H   0  0  0  0  0  0  0  0  0  0  0  0
  147.1375  138.1037  151.1744 H   0  0  0  0  0  0  0  0  0  0  0  0
  146.8065  137.3384  153.6931 H   0  0  0  0  0  0  0  0  0  0  0  0
  145.3730  138.3344  153.6630 H   0  0  0  0  0  0  0  0  0  0  0  0
  143.3294  137.1686  153.1585 H   0  0  0  0  0  0  0  0  0  0  0  0
  142.1712  135.2538  152.0446 H   0  0  0  0  0  0  0  0  0  0  0  0
  143.5044  133.6569  150.6517 H   0  0  0  0  0  0  0  0  0  0  0  0
  146.0256  134.0564  150.4236 H   0  0  0  0  0  0  0  0  0  0  0  0
  146.9715  135.8686  151.5084 H   0  0  0  0  0  0  0  0  0  0  0  0
  1  2  2  0  0  0  0
  2  3  1  0  0  0  0
  2 11  1  0  0  0  0
  3  4  1  0  0  0  0
  3 20  1  0  0  0  0
  3 21  1  0  0  0  0
  4  9  1  0  0  0  0
  4  5  1  0  0  0  0
  4 22  1  0  0  0  0
  5  6  1  0  0  0  0
  5 23  1  0  0  0  0
  5 24  1  0  0  0  0
  6 10  1  0  0  0  0
  6  7  1  0  0  0  0
  6 25  1  0  0  0  0
  7  8  1  0  0  0  0
  7 26  1  0  0  0  0
  7 27  1  0  0  0  0
  8  9  1  0  0  0  0
  8 28  1  0  0  0  0
  8 29  1  0  0  0  0
  9 10  1  0  0  0  0
  9 30  1  0  0  0  0
 10 31  1  0  0  0  0
 10 32  1  0  0  0  0
 11 12  1  0  0  0  0
 11 33  1  0  0  0  0
 12 13  1  0  0  0  0
 12 34  1  0  0  0  0
 12 35  1  0  0  0  0
 13 14  1  0  0  0  0
 13 36  1  0  0  0  0
 13 37  1  0  0  0  0
 14 19  1  0  0  0  0
 14 15  2  0  0  0  0
 15 16  1  0  0  0  0
 15 38  1  0  0  0  0
 16 17  2  0  0  0  0
 16 39  1  0  0  0  0
 17 18  1  0  0  0  0
 17 40  1  0  0  0  0
 18 19  2  0  0  0  0
 18 41  1  0  0  0  0
 19 42  1  0  0  0  0
M  CHG  1  19   1
M  END
> <s_m_source_file>
AV-unprocessed.smi

> <i_m_source_file_index>
3263

> <i_lp_mmshare_version>
43012

> <i_f3d_flags>
0

> <s_epik_input>
W0NIMl0xW0NIMl1bQ0BASF0oW0NIMl0yKVtDQEBIXShbQ0gyXVtDQEhdMTIpW0NIMl1DKD1PKVtOSF1bQ0gyXVtDSDJdYzNbY0hdW2NIXVtjSF1bY0hdbjM=

> <s_epik_cmdline>
J2VwaWtfcHl0aG9uJywgJy1waCcsICc3LjAnLCAnLXRuJywgJzgnLCAnLW1hJywgJzIwMCcsICctbWV0YWxfYmluZGluZycsICctaW1hZScsICc8aW5maWxlLm1hZT4nLCAnLW9tYWUnLCAnPG91dGZpbGUubWFlPic=

> <r_epik_Ionization_Penalty>
1.83579

> <r_epik_Ionization_Penalty_Charging>
1.83579

> <r_epik_Ionization_Penalty_Neutral>
2.47288e-08

> <r_epik_State_Penalty>
1.95213

> <r_epik_Charging_Adjusted_Penalty>
3.78793

> <i_epik_Tot_Q>
1

> <i_epik_Tot_abs_Q>
1

> <r_epik_Metal_State_Penalty>
1.97847

> <b_epik_Metal_Only>
0

> <s_lp_Force_Field>
OPLS_2005

> <r_lp_Energy>
52.562

> <b_lp_Chiralities_Consistent>
1

> <s_lp_Variant>
AV-unprocessed.smi:3263-6

> <Gold.Version>
5.8.1

> <Gold.Id.Protein>
6NUR|6NUR_protein|mol2

> <Gold.PLP.Fitness>
43.1238

> <Gold.PLP.PLP>
-34.4855

> <Gold.PLP.part.hbond>
-1.8016

> <Gold.PLP.part.metal>
0.0000

> <Gold.PLP.part.buried>
-5.0851

> <Gold.PLP.part.nonpolar>
-29.1517

> <Gold.PLP.part.repulsive>
0.2894

> <Gold.PLP.ligand.clash>
0.0000

> <Gold.PLP.ligand.torsion>
0.1976

> <Gold.PLP.Chemscore.Hbond>
2.9913

> <Gold.PLP.Chemscore.CHOScore>
0.0000

> <Gold.PLP.Chemscore.Metal>
0.0000

> <Gold.Chemscore.Hbonds>
donor molecule, donor type, donor heavy atom, donor atom, acceptor molecule, acceptor atom, score
      L1  H    11    33       P1  7957  0.74
      L1  H    19    42       P1  7948  2.00

> <Gold.PLP.Chemscore.Internal.Correction>
0.0598

> <Gold.Rescore>
     Score         DG    S(hbond)    S(metal)    S(lipo)     H(rot)  DE(clash)    DE(int)     intcor
     17.40     -17.82       1.96        0.00      83.63       1.56       0.09       0.33       ----

> <Gold.Chemscore.Fitness>
17.3981

> <Gold.Chemscore.DG>
-17.8227

> <Gold.Chemscore.ZeroCoef>
-5.4800

> <Gold.Chemscore.Hbond>
1.9646

> <Gold.Chemscore.Metal>
0.0000

> <Gold.Chemscore.Lipo>
83.6301

> <Gold.Chemscore.Internal_Hbond>
0.0000

> <Gold.Chemscore.DEClash>
0.0919

> <Gold.Chemscore.DEInternal>
0.3327

> <Gold.Chemscore.Rot>
1.5640

> <Gold.Chemscore.Internal.Correction>
   9.000000E+99

> <Gold.Chemscore.Hbonds>
donor molecule, donor type, donor heavy atom, donor atom, acceptor molecule, acceptor atom, score
      L1  H    11    33       P1  7957  0.71
      L1  H    19    42       P1  7948  0.95

> <Gold.Chemscore.Hbond.Weighted>
-6.5618

> <Gold.Chemscore.Metal.Weighted>
-0.0000

> <Gold.Chemscore.Lipo.Weighted>
-9.7847

> <Gold.Chemscore.Internal_Hbond.Weighted>
0.0000

> <Gold.Chemscore.DEClash.Weighted>
0.0919

> <Gold.Chemscore.DEInternal.Weighted>
0.3327

> <Gold.Chemscore.Rot.Weighted>
4.0038

> <Gold.Chemscore.Internal.Correction.Weighted>
   9.000000E+99

> <Gold.Protein.RotatedTorsions>
[ 6907 6896 6895 6894 ] final -128.60 input  -60.11 | X-H torsion
[ 7974 7965 7964 7962 ] final -129.91 input  175.53 | X-H torsion
[ 8008 7997 7996 7995 ] final   28.02 input   59.86 | X-H torsion
[ 10167 10162 10161 10158 ] final   24.35 input  -65.29 | X-H torsion
[ 10718 10713 10712 10709 ] final   40.45 input   66.30 | X-H torsion
[ 10763 10752 10751 10750 ] final  -56.33 input  -60.55 | X-H torsion
[ 11005 11000 10999 10996 ] final  -15.01 input  -57.11 | X-H torsion

> <Gold.Protein.ActiveResidues>
 VAL166  LYS551  ARG553  GLY616  TRP617  ASP618  TYR619  PRO620  LYS621  CYS622 
 ASP623  PHE694  ASN695  SER759  ASP760  ASP761  ALA762  ILE779  LEU786  VAL792 
 PHE793  MET794  SER795  GLU796  ALA797  LYS798  CYS799  TRP800  GLU811  SER814 

> <Gold.Protein.RotatedAtoms>
  150.9196  133.6896  159.2834 H   0  0  0  0  0  0  0  0  0  0  0  0  # atno 6907 bound_to 6896
  151.4355  135.1013  159.9664 H   0  0  0  0  0  0  0  0  0  0  0  0  # atno 6908 bound_to 6896
  152.4973  133.8617  159.7308 H   0  0  0  0  0  0  0  0  0  0  0  0  # atno 6909 bound_to 6896
  144.9525  140.7360  143.4779 H   0  0  0  0  0  0  0  0  0  0  0  0  # atno 7974 bound_to 7965
  155.0521  140.3181  155.4688 H   0  0  0  0  0  0  0  0  0  0  0  0  # atno 8008 bound_to 7997
  156.2832  140.2144  156.5590 H   0  0  0  0  0  0  0  0  0  0  0  0  # atno 8009 bound_to 7997
  154.7202  140.0490  157.0620 H   0  0  0  0  0  0  0  0  0  0  0  0  # atno 8010 bound_to 7997
  140.5195  144.0025  150.6410 H   0  0  0  0  0  0  0  0  0  0  0  0  # atno 10167 bound_to 10162
  157.3823  130.7760  149.7203 H   0  0  0  0  0  0  0  0  0  0  0  0  # atno 10718 bound_to 10713
  154.2049  135.6404  153.5098 H   0  0  0  0  0  0  0  0  0  0  0  0  # atno 10763 bound_to 10752
  153.0003  135.5460  154.6276 H   0  0  0  0  0  0  0  0  0  0  0  0  # atno 10764 bound_to 10752
  154.5698  135.2916  155.0811 H   0  0  0  0  0  0  0  0  0  0  0  0  # atno 10765 bound_to 10752
  140.7922  133.8279  155.9390 H   0  0  0  0  0  0  0  0  0  0  0  0  # atno 11005 bound_to 11000
  145.2822  139.1914  143.4785 LP  0  0  0  0  0  0  0  0  0  0  0  0  # atno 17320 bound_to 7965
  146.3326  140.2785  142.8609 LP  0  0  0  0  0  0  0  0  0  0  0  0  # atno 17321 bound_to 7965
  140.3370  143.3042  152.0627 LP  0  0  0  0  0  0  0  0  0  0  0  0  # atno 17342 bound_to 10162
  139.4919  144.6469  151.6759 LP  0  0  0  0  0  0  0  0  0  0  0  0  # atno 17343 bound_to 10162
  155.9779  130.4058  150.3685 LP  0  0  0  0  0  0  0  0  0  0  0  0  # atno 17370 bound_to 10713
  157.1790  131.0387  151.2758 LP  0  0  0  0  0  0  0  0  0  0  0  0  # atno 17371 bound_to 10713
  140.9378  134.1940  157.4819 LP  0  0  0  0  0  0  0  0  0  0  0  0  # atno 17394 bound_to 11000
  139.8730  134.9859  156.5303 LP  0  0  0  0  0  0  0  0  0  0  0  0  # atno 17395 bound_to 11000

$$$$
