AV-unprocessed.smi:1586|AV-procd|sdf|6383|dock10
  -GOLD-   22720 7 13D 1   1.00000     0.00000
 Structure written by MMmdl.
 46 47  0  0  0  0  0  0  0  0  3 V2000
  143.6214  132.5212  150.0550 C   0  0  0  0  0  0  0  0  0  0  0  0
  143.9209  133.8219  150.8145 C   0  0  0  0  0  0  0  0  0  0  0  0
  145.2316  134.3729  150.4620 N   0  0  0  0  0  0  0  0  0  0  0  0
  145.3972  135.8030  150.7345 C   0  0  0  0  0  0  0  0  0  0  0  0
  145.4535  136.1142  152.2451 C   0  0  0  0  0  0  0  0  0  0  0  0
  146.5585  135.3646  152.9041 N   0  3  0  0  0  0  0  0  0  0  0  0
  146.7643  135.6421  154.3631 C   0  0  2  0  0  0  0  0  0  0  0  0
  147.1484  137.1113  154.6674 C   0  0  0  0  0  0  0  0  0  0  0  0
  147.8331  134.6800  154.9346 C   0  0  0  0  0  0  0  0  0  0  0  0
  149.1862  135.1940  154.7532 N   0  0  0  0  0  0  0  0  0  0  0  0
  150.1856  135.0774  155.6375 C   0  0  0  0  0  0  0  0  0  0  0  0
  149.9862  134.5191  156.7186 O   0  0  0  0  0  0  0  0  0  0  0  0
  151.3524  135.6125  155.2113 N   0  5  0  0  0  0  0  0  0  0  0  0
  151.5142  136.9446  155.1834 C   0  0  0  0  0  0  0  0  0  0  0  0
  150.5649  137.9133  155.6102 C   0  0  0  0  0  0  0  0  0  0  0  0
  151.1993  139.0991  155.3699 C   0  0  0  0  0  0  0  0  0  0  0  0
  150.8032  140.5202  155.5829 C   0  0  0  0  0  0  0  0  0  0  0  0
  152.4279  138.8762  154.8302 O   0  0  0  0  0  0  0  0  0  0  0  0
  152.6188  137.4947  154.7078 N   0  0  0  0  0  0  0  0  0  0  0  0
  146.4026  133.9128  152.6159 C   0  0  0  0  0  0  0  0  0  0  0  0
  146.3349  133.6506  151.0968 C   0  0  0  0  0  0  0  0  0  0  0  0
  142.7069  132.0628  150.4314 H   0  0  0  0  0  0  0  0  0  0  0  0
  144.4265  131.7960  150.1771 H   0  0  0  0  0  0  0  0  0  0  0  0
  143.4775  132.6930  148.9888 H   0  0  0  0  0  0  0  0  0  0  0  0
  143.1220  134.5445  150.6522 H   0  0  0  0  0  0  0  0  0  0  0  0
  143.9199  133.5948  151.8814 H   0  0  0  0  0  0  0  0  0  0  0  0
  146.3240  136.1353  150.2648 H   0  0  0  0  0  0  0  0  0  0  0  0
  144.6035  136.3772  150.2586 H   0  0  0  0  0  0  0  0  0  0  0  0
  145.6163  137.1875  152.3367 H   0  0  0  0  0  0  0  0  0  0  0  0
  144.5029  135.8934  152.7318 H   0  0  0  0  0  0  0  0  0  0  0  0
  145.8184  135.4544  154.8744 H   0  0  0  0  0  0  0  0  0  0  0  0
  147.3070  137.2758  155.7333 H   0  0  0  0  0  0  0  0  0  0  0  0
  146.3625  137.8088  154.3780 H   0  0  0  0  0  0  0  0  0  0  0  0
  148.0677  137.3974  154.1553 H   0  0  0  0  0  0  0  0  0  0  0  0
  147.6947  134.5101  156.0013 H   0  0  0  0  0  0  0  0  0  0  0  0
  147.7392  133.7076  154.4473 H   0  0  0  0  0  0  0  0  0  0  0  0
  149.3900  135.6607  153.8814 H   0  0  0  0  0  0  0  0  0  0  0  0
  149.5817  137.7616  156.0296 H   0  0  0  0  0  0  0  0  0  0  0  0
  150.6769  140.7290  156.6451 H   0  0  0  0  0  0  0  0  0  0  0  0
  149.8608  140.7369  155.0802 H   0  0  0  0  0  0  0  0  0  0  0  0
  151.5587  141.2026  155.1926 H   0  0  0  0  0  0  0  0  0  0  0  0
  147.2436  133.3504  153.0172 H   0  0  0  0  0  0  0  0  0  0  0  0
  145.5136  133.5269  153.1163 H   0  0  0  0  0  0  0  0  0  0  0  0
  146.2349  132.5823  150.9009 H   0  0  0  0  0  0  0  0  0  0  0  0
  147.2711  133.9599  150.6301 H   0  0  0  0  0  0  0  0  0  0  0  0
  147.4044  135.6661  152.4417 H   0  0  0  0  0  0  0  0  0  0  0  0
  1  2  1  0  0  0  0
  1 22  1  0  0  0  0
  1 23  1  0  0  0  0
  1 24  1  0  0  0  0
  2  3  1  0  0  0  0
  2 25  1  0  0  0  0
  2 26  1  0  0  0  0
  3 21  1  0  0  0  0
  3  4  1  0  0  0  0
  4  5  1  0  0  0  0
  4 27  1  0  0  0  0
  4 28  1  0  0  0  0
  5  6  1  0  0  0  0
  5 29  1  0  0  0  0
  5 30  1  0  0  0  0
  6  7  1  0  0  0  0
  6 20  1  0  0  0  0
  6 46  1  0  0  0  0
  7  8  1  0  0  0  0
  7  9  1  0  0  0  0
  7 31  1  0  0  0  0
  8 32  1  0  0  0  0
  8 33  1  0  0  0  0
  8 34  1  0  0  0  0
  9 10  1  0  0  0  0
  9 35  1  0  0  0  0
  9 36  1  0  0  0  0
 10 11  1  0  0  0  0
 10 37  1  0  0  0  0
 11 12  2  0  0  0  0
 11 13  1  0  0  0  0
 13 14  1  0  0  0  0
 14 19  2  0  0  0  0
 14 15  1  0  0  0  0
 15 16  2  0  0  0  0
 15 38  1  0  0  0  0
 16 17  1  0  0  0  0
 16 18  1  0  0  0  0
 17 39  1  0  0  0  0
 17 40  1  0  0  0  0
 17 41  1  0  0  0  0
 18 19  1  0  0  0  0
 20 21  1  0  0  0  0
 20 42  1  0  0  0  0
 20 43  1  0  0  0  0
 21 44  1  0  0  0  0
 21 45  1  0  0  0  0
M  CHG  1   6   1
M  CHG  1  13  -1
M  END
> <s_m_source_file>
AV-unprocessed.smi

> <i_m_source_file_index>
1586

> <i_lp_mmshare_version>
43012

> <i_f3d_flags>
0

> <s_epik_input>
W0NIM11bQ0gyXU4xW0NIMl1bQ0gyXU4oW0NIMl1bQ0gyXTEpW0NASF0oW0NIM10pW0NIMl1bTkhdQyg9TylbTkhdYzJbY0hdYyhbQ0gzXSlvbjI=

> <s_epik_cmdline>
J2VwaWtfcHl0aG9uJywgJy1waCcsICc3LjAnLCAnLXRuJywgJzgnLCAnLW1hJywgJzIwMCcsICctbWV0YWxfYmluZGluZycsICctaW1hZScsICc8aW5maWxlLm1hZT4nLCAnLW9tYWUnLCAnPG91dGZpbGUubWFlPic=

> <r_epik_Ionization_Penalty>
6.35599

> <r_epik_Ionization_Penalty_Charging>
6.35441

> <r_epik_Ionization_Penalty_Neutral>
0.00158318

> <r_epik_State_Penalty>
7.1902

> <r_epik_Charging_Adjusted_Penalty>
13.5446

> <i_epik_Tot_Q>
0

> <i_epik_Tot_abs_Q>
2

> <r_epik_Metal_State_Penalty>
3.12491

> <b_epik_Metal_Only>
1

> <s_lp_Force_Field>
OPLS_2005

> <r_lp_Energy>
12.1212

> <b_lp_Chiralities_Consistent>
1

> <s_lp_Variant>
AV-unprocessed.smi:1586-11

> <Gold.Version>
5.8.1

> <Gold.Id.Protein>
6NUR|6NUR_protein|mol2

> <Gold.PLP.Fitness>
48.3130

> <Gold.PLP.PLP>
-33.0900

> <Gold.PLP.part.hbond>
-4.0000

> <Gold.PLP.part.metal>
0.0000

> <Gold.PLP.part.buried>
-7.5282

> <Gold.PLP.part.nonpolar>
-23.3404

> <Gold.PLP.part.repulsive>
1.0601

> <Gold.PLP.ligand.clash>
0.0000

> <Gold.PLP.ligand.torsion>
1.3447

> <Gold.PLP.Chemscore.Hbond>
5.9360

> <Gold.PLP.Chemscore.CHOScore>
0.0000

> <Gold.PLP.Chemscore.Metal>
0.0000

> <Gold.Chemscore.Hbonds>
donor molecule, donor type, donor heavy atom, donor atom, acceptor molecule, acceptor atom, score
      L1  H     6    46       P1  7948  2.00
      L1  H    10    37       P1  7948  0.80
      P1  H 10752 10765       L1    13  0.60

> <Gold.PLP.Chemscore.Internal.Correction>
0.1043

> <Gold.Rescore>
     Score         DG    S(hbond)    S(metal)    S(lipo)     H(rot)  DE(clash)    DE(int)     intcor
     18.83     -20.27       3.63        0.00      60.42       1.73       0.06       1.38       ----

> <Gold.Chemscore.Fitness>
18.8309

> <Gold.Chemscore.DG>
-20.2715

> <Gold.Chemscore.ZeroCoef>
-5.4800

> <Gold.Chemscore.Hbond>
3.6342

> <Gold.Chemscore.Metal>
0.0000

> <Gold.Chemscore.Lipo>
60.4219

> <Gold.Chemscore.Internal_Hbond>
0.0000

> <Gold.Chemscore.DEClash>
0.0571

> <Gold.Chemscore.DEInternal>
1.3835

> <Gold.Chemscore.Rot>
1.7250

> <Gold.Chemscore.Internal.Correction>
   9.000000E+99

> <Gold.Chemscore.Hbonds>
donor molecule, donor type, donor heavy atom, donor atom, acceptor molecule, acceptor atom, score
      L1  H     6    46       P1  7948  1.00
      L1  H    10    37       P1  7948  0.38

> <Gold.Chemscore.Hbond.Weighted>
-12.1383

> <Gold.Chemscore.Metal.Weighted>
-0.0000

> <Gold.Chemscore.Lipo.Weighted>
-7.0694

> <Gold.Chemscore.Internal_Hbond.Weighted>
0.0000

> <Gold.Chemscore.DEClash.Weighted>
0.0571

> <Gold.Chemscore.DEInternal.Weighted>
1.3835

> <Gold.Chemscore.Rot.Weighted>
4.4161

> <Gold.Chemscore.Internal.Correction.Weighted>
   9.000000E+99

> <Gold.Protein.RotatedTorsions>
[ 6907 6896 6895 6894 ] final   30.93 input  -60.11 | X-H torsion
[ 7974 7965 7964 7962 ] final  -71.06 input  175.53 | X-H torsion
[ 8008 7997 7996 7995 ] final  -37.34 input   59.86 | X-H torsion
[ 10167 10162 10161 10158 ] final -174.69 input  -65.29 | X-H torsion
[ 10718 10713 10712 10709 ] final -129.61 input   66.30 | X-H torsion
[ 10763 10752 10751 10750 ] final -164.40 input  -60.55 | X-H torsion
[ 11005 11000 10999 10996 ] final -129.49 input  -57.11 | X-H torsion

> <Gold.Protein.ActiveResidues>
 VAL166  LYS551  ARG553  GLY616  TRP617  ASP618  TYR619  PRO620  LYS621  CYS622 
 ASP623  PHE694  ASN695  SER759  ASP760  ASP761  ALA762  ILE779  LEU786  VAL792 
 PHE793  MET794  SER795  GLU796  ALA797  LYS798  CYS799  TRP800  GLU811  SER814 

> <Gold.Protein.RotatedAtoms>
  152.0531  134.9641  160.0574 H   0  0  0  0  0  0  0  0  0  0  0  0  # atno 6907 bound_to 6896
  152.1034  133.4257  159.4606 H   0  0  0  0  0  0  0  0  0  0  0  0  # atno 6908 bound_to 6896
  150.6840  134.2652  159.4609 H   0  0  0  0  0  0  0  0  0  0  0  0  # atno 6909 bound_to 6896
  145.6829  140.9181  143.0823 H   0  0  0  0  0  0  0  0  0  0  0  0  # atno 7974 bound_to 7965
  154.4055  140.1607  156.2521 H   0  0  0  0  0  0  0  0  0  0  0  0  # atno 8008 bound_to 7997
  155.9110  140.3427  155.6076 H   0  0  0  0  0  0  0  0  0  0  0  0  # atno 8009 bound_to 7997
  155.7335  140.0783  157.2268 H   0  0  0  0  0  0  0  0  0  0  0  0  # atno 8010 bound_to 7997
  139.5620  144.1846  152.1254 H   0  0  0  0  0  0  0  0  0  0  0  0  # atno 10167 bound_to 10162
  156.2064  130.6890  151.0599 H   0  0  0  0  0  0  0  0  0  0  0  0  # atno 10718 bound_to 10713
  154.7032  135.2992  154.9310 H   0  0  0  0  0  0  0  0  0  0  0  0  # atno 10763 bound_to 10752
  154.0235  135.6679  153.4778 H   0  0  0  0  0  0  0  0  0  0  0  0  # atno 10764 bound_to 10752
  153.0697  135.5068  154.8188 H   0  0  0  0  0  0  0  0  0  0  0  0  # atno 10765 bound_to 10752
  140.9427  134.1171  157.4136 H   0  0  0  0  0  0  0  0  0  0  0  0  # atno 11005 bound_to 11000
  144.7020  139.8720  143.7441 LP  0  0  0  0  0  0  0  0  0  0  0  0  # atno 17320 bound_to 7965
  146.0949  139.3940  143.0383 LP  0  0  0  0  0  0  0  0  0  0  0  0  # atno 17321 bound_to 7965
  140.1362  144.5244  150.6772 LP  0  0  0  0  0  0  0  0  0  0  0  0  # atno 17342 bound_to 10162
  140.6901  143.2371  151.5155 LP  0  0  0  0  0  0  0  0  0  0  0  0  # atno 17343 bound_to 10162
  157.7014  131.0774  150.6807 LP  0  0  0  0  0  0  0  0  0  0  0  0  # atno 17370 bound_to 10713
  156.6865  130.4582  149.5612 LP  0  0  0  0  0  0  0  0  0  0  0  0  # atno 17371 bound_to 10713
  139.8825  135.0041  156.6232 LP  0  0  0  0  0  0  0  0  0  0  0  0  # atno 17394 bound_to 11000
  140.7712  133.8737  155.8493 LP  0  0  0  0  0  0  0  0  0  0  0  0  # atno 17395 bound_to 11000

$$$$
