#       Name:                AV-unprocessed.smi:1586
#       Creating user name   scv26
#       Creation time:       Fri Mar 27 07:01:43 2020


#       File generated by GOLD software.
#

@<TRIPOS>MOLECULE
AV-unprocessed.smi:1586
    53    54     1
SMALL
NO_CHARGES


@<TRIPOS>ATOM
      1 ****        -5.7585  -2.4463  -2.1803 C.3            1 S1                 0.0000
      2 ****        -4.3387  -2.6329  -1.6254 C.3            1 S1                 0.0000
      3 ****        -3.3197  -2.1167  -2.5425 N.3            1 S1                 0.0000
      4 ****        -3.3052  -0.6598  -2.6975 C.3            1 S1                 0.0000
      5 ****        -2.8112   0.0648  -1.4275 C.3            1 S1                 0.0000
      6 ****        -1.4472  -0.3952  -1.0465 N.4            1 S1                 1.0000
      7 ****        -0.8252   0.2926   0.1317 C.3            1 S1                 0.0000
      8 ****        -1.2603   1.7707   0.2884 C.3            1 S1                 0.0000
      9 ****         0.7166   0.1950   0.0425 C.3            1 S1                 0.0000
     10 ****         1.3712   0.7846   1.2051 N.am           1 S1                 0.0000
     11 ****         2.6569   1.1556   1.2667 C.2            1 S1                 0.0000
     12 ****         3.3931   0.9811   0.2931 O.2            1 S1                 0.0000
     13 ****         3.0063   1.7076   2.4510 N.pl3          1 S1                -1.0000
     14 ****         4.2531   2.1672   2.6402 C.2            1 S1                 0.0000
     15 ****         5.3788   1.3963   3.0404 C.2            1 S1                 0.0000
     16 ****         6.3850   2.3186   3.0959 C.2            1 S1                 0.0000
     17 ****         7.8332   2.2175   3.4342 C.3            1 S1                 0.0000
     18 ****         5.9132   3.5520   2.7696 O.3            1 S1                 0.0000
     19 ****         4.5463   3.4475   2.4859 N.2            1 S1                 0.0000
     20 ****        -1.4543  -1.8767  -0.9040 C.3            1 S1                 0.0000
     21 ****        -1.9696  -2.5575  -2.1893 C.3            1 S1                 0.0000
     22 ****        -6.4846  -2.9556  -1.5466 H              1 S1                 0.0000
     23 ****        -5.8500  -2.8622  -3.1841 H              1 S1                 0.0000
     24 ****        -6.0486  -1.3969  -2.2194 H              1 S1                 0.0000
     25 ****        -4.2589  -2.1813  -0.6373 H              1 S1                 0.0000
     26 ****        -4.1693  -3.7020  -1.4910 H              1 S1                 0.0000
     27 ****        -2.6472  -0.4114  -3.5313 H              1 S1                 0.0000
     28 ****        -4.2915  -0.2958  -2.9820 H              1 S1                 0.0000
     29 ****        -2.8011   1.1292  -1.6595 H              1 S1                 0.0000
     30 ****        -3.5036  -0.0737  -0.5965 H              1 S1                 0.0000
     31 ****        -1.1550  -0.2272   1.0330 H              1 S1                 0.0000
     32 ****        -0.7784   2.2461   1.1429 H              1 S1                 0.0000
     33 ****        -2.3313   1.8660   0.4668 H              1 S1                 0.0000
     34 ****        -1.0053   2.3573  -0.5948 H              1 S1                 0.0000
     35 ****         1.0527  -0.8386  -0.0252 H              1 S1                 0.0000
     36 ****         1.0568   0.6956  -0.8661 H              1 S1                 0.0000
     37 ****         0.8031   0.9418   2.0248 H              1 S1                 0.0000
     38 ****         5.4384   0.3382   3.2469 H              1 S1                 0.0000
     39 ****         8.3554   1.5964   2.7066 H              1 S1                 0.0000
     40 ****         7.9684   1.7720   4.4197 H              1 S1                 0.0000
     41 ****         8.3060   3.1999   3.4401 H              1 S1                 0.0000
     42 ****        -0.4501  -2.2471  -0.7065 H              1 S1                 0.0000
     43 ****        -2.0585  -2.1653  -0.0430 H              1 S1                 0.0000
     44 ****        -1.9558  -3.6421  -2.0750 H              1 S1                 0.0000
     45 ****        -1.2982  -2.3296  -3.0183 H              1 S1                 0.0000
     46 ****        -0.8573  -0.1796  -1.8376 H              1 S1                 0.0000
     47 ****        -3.5927  -2.5096  -3.4206 LP             1 S1                 0.0000
     48 ****         3.0300   0.5635  -0.5398 LP             1 S1                 0.0000
     49 ****         4.3533   1.2571   0.3365 LP             1 S1                 0.0000
     50 ****         2.3336   1.7735   3.1880 LP             1 S1                 0.0000
     51 ****         6.3986   3.8965   1.9660 LP             1 S1                 0.0000
     52 ****         6.0510   4.1790   3.5364 LP             1 S1                 0.0000
     53 ****         3.9238   4.1845   2.2225 LP             1 S1                 0.0000
@<TRIPOS>BOND
    1    1    2 1     
    2    1   22 1     
    3    1   23 1     
    4    1   24 1     
    5    2    3 1     
    6    2   25 1     
    7    2   26 1     
    8    3   21 1     
    9    3    4 1     
   10    4    5 1     
   11    4   27 1     
   12    4   28 1     
   13    5    6 1     
   14    5   29 1     
   15    5   30 1     
   16    6    7 1     
   17    6   20 1     
   18    6   46 1     
   19    7    8 1     
   20    7    9 1     
   21    7   31 1     
   22    8   32 1     
   23    8   33 1     
   24    8   34 1     
   25    9   10 1     
   26    9   35 1     
   27    9   36 1     
   28   10   11 am    
   29   10   37 1     
   30   11   12 2     
   31   11   13 1     
   32   13   14 1     
   33   14   19 2     
   34   14   15 1     
   35   15   16 2     
   36   15   38 1     
   37   16   17 1     
   38   16   18 1     
   39   17   39 1     
   40   17   40 1     
   41   17   41 1     
   42   18   19 1     
   43   20   21 1     
   44   20   42 1     
   45   20   43 1     
   46   21   44 1     
   47   21   45 1     
   48    3   47 1     
   49   12   48 1     
   50   12   49 1     
   51   13   50 1     
   52   18   51 1     
   53   18   52 1     
   54   19   53 1     
@<TRIPOS>SUBSTRUCTURE
      1 S1             1
@<TRIPOS>SET
LONE_PAIRS      STATIC     ATOMS    <user>   **** ""
7 47 48 49 50 51 52 53
DONOR_HYDROGENS      STATIC     ATOMS    <user>   **** ""
2 46 37
ATOM$BLUE        STATIC     ATOMS    COLORGROUP SYSTEM
7 47 48 49 50 51 52 53
ATOM$RED        STATIC     ATOMS    COLORGROUP SYSTEM
2 46 37
