AV-unprocessed.smi:72|AV-procd|sdf|708|dock9
  -GOLD-   2262017 33D 1   1.00000     0.00000
 Structure written by MMmdl.
 30 31  0  0  0  0  0  0  0  0  2 V2000
  150.0686  144.6960  158.6921 N   0  0  0  0  0  0  0  0  0  0  0  0
  150.3742  143.3843  158.3948 C   0  0  0  0  0  0  0  0  0  0  0  0
  149.9595  142.8889  157.1723 N   0  3  0  0  0  0  0  0  0  0  0  0
  150.1823  141.6446  156.7275 C   0  0  0  0  0  0  0  0  0  0  0  0
  150.8663  140.8057  157.4827 N   0  0  0  0  0  0  0  0  0  0  0  0
  151.1431  139.3826  157.0523 C   0  0  1  0  0  0  0  0  0  0  0  0
  149.9591  138.8431  156.5526 O   0  0  0  0  0  0  0  0  0  0  0  0
  149.9198  139.0261  155.1413 C   0  0  2  0  0  0  0  0  0  0  0  0
  148.8298  138.1561  154.4927 C   0  0  0  0  0  0  0  0  0  0  0  0
  148.7356  138.4600  153.1173 O   0  0  0  0  0  0  0  0  0  0  0  0
  151.3639  138.6977  154.7499 C   0  0  2  0  0  0  0  0  0  0  0  0
  151.5487  137.2933  154.6671 O   0  0  0  0  0  0  0  0  0  0  0  0
  152.1619  139.3350  155.8900 C   0  0  2  0  0  0  0  0  0  0  0  0
  153.3356  138.6099  156.2045 O   0  0  0  0  0  0  0  0  0  0  0  0
  151.2923  141.2114  158.7746 C   0  0  0  0  0  0  0  0  0  0  0  0
  151.8767  140.4211  159.5138 O   0  0  0  0  0  0  0  0  0  0  0  0
  151.0149  142.5344  159.1482 N   0  0  0  0  0  0  0  0  0  0  0  0
  151.4502  138.8596  157.9598 H   0  0  0  0  0  0  0  0  0  0  0  0
  149.7391  140.0785  154.9128 H   0  0  0  0  0  0  0  0  0  0  0  0
  151.6269  139.1303  153.7838 H   0  0  0  0  0  0  0  0  0  0  0  0
  152.4417  140.3506  155.6066 H   0  0  0  0  0  0  0  0  0  0  0  0
  150.3257  145.1395  159.5626 H   0  0  0  0  0  0  0  0  0  0  0  0
  149.5611  145.3123  158.0736 H   0  0  0  0  0  0  0  0  0  0  0  0
  149.7840  141.3623  155.7618 H   0  0  0  0  0  0  0  0  0  0  0  0
  149.0906  137.1007  154.5782 H   0  0  0  0  0  0  0  0  0  0  0  0
  147.8634  138.2954  154.9783 H   0  0  0  0  0  0  0  0  0  0  0  0
  148.8891  137.6683  152.6241 H   0  0  0  0  0  0  0  0  0  0  0  0
  150.7436  136.9037  154.3610 H   0  0  0  0  0  0  0  0  0  0  0  0
  153.1263  137.6880  156.2102 H   0  0  0  0  0  0  0  0  0  0  0  0
  149.4421  143.5152  156.5723 H   0  0  0  0  0  0  0  0  0  0  0  0
  1  2  1  0  0  0  0
  1 22  1  0  0  0  0
  1 23  1  0  0  0  0
  2 17  2  0  0  0  0
  2  3  1  0  0  0  0
  3  4  2  0  0  0  0
  3 30  1  0  0  0  0
  4  5  1  0  0  0  0
  4 24  1  0  0  0  0
  5  6  1  0  0  0  0
  5 15  1  0  0  0  0
  6 18  1  0  0  0  0
  6 13  1  0  0  0  0
  6  7  1  0  0  0  0
  7  8  1  0  0  0  0
  8 19  1  0  0  0  0
  8  9  1  0  0  0  0
  8 11  1  0  0  0  0
  9 10  1  0  0  0  0
  9 25  1  0  0  0  0
  9 26  1  0  0  0  0
 10 27  1  0  0  0  0
 11 20  1  0  0  0  0
 11 12  1  0  0  0  0
 11 13  1  0  0  0  0
 12 28  1  0  0  0  0
 13 21  1  0  0  0  0
 13 14  1  0  0  0  0
 14 29  1  0  0  0  0
 15 16  2  0  0  0  0
 15 17  1  0  0  0  0
M  CHG  1   3   1
M  END
> <s_m_source_file>
AV-unprocessed.smi

> <i_m_source_file_index>
72

> <i_lp_mmshare_version>
43012

> <i_f3d_flags>
0

> <s_epik_input>
W05IMl1jMW5bY0hdbihjKD1PKW4xKVtDQEBIXTJPW0NASF0oW0NIMl1bT0hdKVtDQEBIXShbT0hdKVtDQEhdMltPSF0=

> <s_epik_cmdline>
J2VwaWtfcHl0aG9uJywgJy1waCcsICc3LjAnLCAnLXRuJywgJzgnLCAnLW1hJywgJzIwMCcsICctbWV0YWxfYmluZGluZycsICctaW1hZScsICc8aW5maWxlLm1hZT4nLCAnLW9tYWUnLCAnPG91dGZpbGUubWFlPic=

> <r_lp_tautomer_probability>
4.77166e-05

> <r_epik_Ionization_Penalty>
0.104979

> <r_epik_Ionization_Penalty_Charging>
0.0999619

> <r_epik_Ionization_Penalty_Neutral>
0.00501745

> <r_epik_State_Penalty>
2.51541

> <r_epik_Charging_Adjusted_Penalty>
2.61537

> <i_epik_Tot_Q>
1

> <i_epik_Tot_abs_Q>
1

> <r_epik_Metal_State_Penalty>
3.53763

> <b_epik_Metal_Only>
0

> <s_epik_Chemistry_Notes>
This compound contains an acetal/aminal-like group ( X-CH(R)-Y where X, Y are N, S, or O) that may be acid/base labile, releasing an aldehyde.

> <s_lp_Force_Field>
OPLS_2005

> <r_lp_Energy>
33.6404

> <b_lp_Chiralities_Consistent>
1

> <s_lp_Variant>
AV-unprocessed.smi:72-46

> <Gold.Version>
5.8.1

> <Gold.Id.Protein>
6NUR|6NUR_protein|mol2

> <Gold.PLP.Fitness>
41.7694

> <Gold.PLP.PLP>
-26.2190

> <Gold.PLP.part.hbond>
-6.2831

> <Gold.PLP.part.metal>
0.0000

> <Gold.PLP.part.buried>
-6.1297

> <Gold.PLP.part.nonpolar>
-15.8840

> <Gold.PLP.part.repulsive>
0.1918

> <Gold.PLP.ligand.clash>
0.0000

> <Gold.PLP.ligand.torsion>
0.2496

> <Gold.PLP.Chemscore.Hbond>
5.3383

> <Gold.PLP.Chemscore.CHOScore>
0.0000

> <Gold.PLP.Chemscore.Metal>
0.0000

> <Gold.Chemscore.Hbonds>
donor molecule, donor type, donor heavy atom, donor atom, acceptor molecule, acceptor atom, score
      L1  H     1    23       P1  8029  1.00
      L1  H     3    30       P1  8028  2.00
      L1  H    10    27       P1  7948  1.00
      P1  H  7997  8009       L1    14  0.73
      P1  H 10752 10765       L1    12  0.60

> <Gold.PLP.Chemscore.Internal.Correction>
0.0348

> <Gold.Rescore>
     Score         DG    S(hbond)    S(metal)    S(lipo)     H(rot)  DE(clash)    DE(int)     intcor
      9.56      -9.64       3.48        0.00      25.48       4.08       0.03       0.06       ----

> <Gold.Chemscore.Fitness>
9.5601

> <Gold.Chemscore.DG>
-9.6428

> <Gold.Chemscore.ZeroCoef>
-5.4800

> <Gold.Chemscore.Hbond>
3.4796

> <Gold.Chemscore.Metal>
0.0000

> <Gold.Chemscore.Lipo>
25.4810

> <Gold.Chemscore.Internal_Hbond>
0.0000

> <Gold.Chemscore.DEClash>
0.0269

> <Gold.Chemscore.DEInternal>
0.0559

> <Gold.Chemscore.Rot>
4.0783

> <Gold.Chemscore.Internal.Correction>
   9.000000E+99

> <Gold.Chemscore.Hbonds>
donor molecule, donor type, donor heavy atom, donor atom, acceptor molecule, acceptor atom, score
      L1  H     1    23       P1  8029  0.29
      L1  H     3    30       P1  8028  0.99
      L1  H    10    27       P1  7948  0.99
      P1  H  7997  8009       L1    14  0.15
      P1  H 10752 10765       L1    12  0.17

> <Gold.Chemscore.Hbond.Weighted>
-11.6220

> <Gold.Chemscore.Metal.Weighted>
-0.0000

> <Gold.Chemscore.Lipo.Weighted>
-2.9813

> <Gold.Chemscore.Internal_Hbond.Weighted>
0.0000

> <Gold.Chemscore.DEClash.Weighted>
0.0269

> <Gold.Chemscore.DEInternal.Weighted>
0.0559

> <Gold.Chemscore.Rot.Weighted>
10.4404

> <Gold.Chemscore.Internal.Correction.Weighted>
   9.000000E+99

> <Gold.Protein.RotatedTorsions>
[ 6907 6896 6895 6894 ] final  -89.02 input  -60.11 | X-H torsion
[ 7974 7965 7964 7962 ] final    8.89 input  175.53 | X-H torsion
[ 8008 7997 7996 7995 ] final  176.78 input   59.86 | X-H torsion
[ 10167 10162 10161 10158 ] final  109.61 input  -65.29 | X-H torsion
[ 10718 10713 10712 10709 ] final  -18.61 input   66.30 | X-H torsion
[ 10763 10752 10751 10750 ] final  155.68 input  -60.55 | X-H torsion
[ 11005 11000 10999 10996 ] final   70.37 input  -57.11 | X-H torsion

> <Gold.Protein.ActiveResidues>
 VAL166  LYS551  ARG553  GLY616  TRP617  ASP618  TYR619  PRO620  LYS621  CYS622 
 ASP623  PHE694  ASN695  SER759  ASP760  ASP761  ALA762  ILE779  LEU786  VAL792 
 PHE793  MET794  SER795  GLU796  ALA797  LYS798  CYS799  TRP800  GLU811  SER814 

> <Gold.Protein.RotatedAtoms>
  150.6871  134.2652  159.4565 H   0  0  0  0  0  0  0  0  0  0  0  0  # atno 6907 bound_to 6896
  152.0579  134.9610  160.0584 H   0  0  0  0  0  0  0  0  0  0  0  0  # atno 6908 bound_to 6896
  152.1049  133.4235  159.4641 H   0  0  0  0  0  0  0  0  0  0  0  0  # atno 6909 bound_to 6896
  146.2410  139.9865  142.8430 H   0  0  0  0  0  0  0  0  0  0  0  0  # atno 7974 bound_to 7965
  156.0728  140.1375  156.9808 H   0  0  0  0  0  0  0  0  0  0  0  0  # atno 8008 bound_to 7997
  154.4541  140.0968  156.6756 H   0  0  0  0  0  0  0  0  0  0  0  0  # atno 8009 bound_to 7997
  155.5201  140.3456  155.4407 H   0  0  0  0  0  0  0  0  0  0  0  0  # atno 8010 bound_to 7997
  139.6753  144.7122  151.1614 H   0  0  0  0  0  0  0  0  0  0  0  0  # atno 10167 bound_to 10162
  156.5571  130.4716  149.6424 H   0  0  0  0  0  0  0  0  0  0  0  0  # atno 10718 bound_to 10713
  154.1723  135.2804  155.3077 H   0  0  0  0  0  0  0  0  0  0  0  0  # atno 10763 bound_to 10752
  154.6066  135.5512  153.7433 H   0  0  0  0  0  0  0  0  0  0  0  0  # atno 10764 bound_to 10752
  153.0161  135.6405  154.1863 H   0  0  0  0  0  0  0  0  0  0  0  0  # atno 10765 bound_to 10752
  139.9601  134.7075  156.0664 H   0  0  0  0  0  0  0  0  0  0  0  0  # atno 11005 bound_to 11000
  145.1543  140.9640  143.4414 LP  0  0  0  0  0  0  0  0  0  0  0  0  # atno 17320 bound_to 7965
  145.0175  139.3453  143.6089 LP  0  0  0  0  0  0  0  0  0  0  0  0  # atno 17321 bound_to 7965
  140.7633  143.5782  150.8923 LP  0  0  0  0  0  0  0  0  0  0  0  0  # atno 17342 bound_to 10162
  139.9450  143.6338  152.3044 LP  0  0  0  0  0  0  0  0  0  0  0  0  # atno 17343 bound_to 10162
  156.2832  130.7082  151.1912 LP  0  0  0  0  0  0  0  0  0  0  0  0  # atno 17370 bound_to 10713
  157.7376  131.0550  150.5346 LP  0  0  0  0  0  0  0  0  0  0  0  0  # atno 17371 bound_to 10713
  141.1277  133.6594  156.3382 LP  0  0  0  0  0  0  0  0  0  0  0  0  # atno 17394 bound_to 11000
  140.5519  134.6019  157.5410 LP  0  0  0  0  0  0  0  0  0  0  0  0  # atno 17395 bound_to 11000

$$$$
