#       Name:                AV-unprocessed.smi:910
#       Creating user name   scv26
#       Creation time:       Fri Mar 27 02:02:36 2020


#       File generated by GOLD software.
#

@<TRIPOS>MOLECULE
AV-unprocessed.smi:910
    53    54     1
SMALL
NO_CHARGES


@<TRIPOS>ATOM
      1 ****        -2.9480   5.0691  -1.6749 C.3            1 S1                 0.0000
      2 ****        -2.9911   3.5856  -1.9686 C.2            1 S1                 0.0000
      3 ****        -1.8537   2.8366  -2.0915 N.pl3          1 S1                 0.0000
      4 ****        -2.2243   1.5207  -2.3587 C.2            1 S1                 0.0000
      5 ****        -1.5440   0.4328  -2.5544 N.2            1 S1                 0.0000
      6 ****        -0.1571   0.4701  -2.5335 C.2            1 S1                 0.0000
      7 ****         0.5839   1.4582  -2.5416 O.2            1 S1                 0.0000
      8 ****         0.3359  -0.7762  -2.4813 N.am           1 S1                 0.0000
      9 ****         1.7508  -1.1294  -2.4209 C.3            1 S1                 0.0000
     10 ****         2.3303  -0.9236  -1.0140 C.3            1 S1                 0.0000
     11 ****         1.6386  -1.7681  -0.1059 O.3            1 S1                 0.0000
     12 ****         2.0260  -1.6165   1.2536 C.3            1 S1                 0.0000
     13 ****         3.2727  -2.4819   1.5327 C.3            1 S1                 0.0000
     14 ****         3.6494  -2.4667   3.0214 C.3            1 S1                 0.0000
     15 ****         2.4668  -2.9108   3.8936 C.3            1 S1                 0.0000
     16 ****         1.2274  -2.0436   3.6251 C.3            1 S1                 0.0000
     17 ****         0.8338  -2.0531   2.1342 C.3            1 S1                 0.0000
     18 ****        -0.4039  -1.1724   1.8929 C.3            1 S1                 0.0000
     19 ****        -3.5962   1.5094  -2.3904 O.3            1 S1                 0.0000
     20 ****        -4.0322   2.7779  -2.1517 C.2            1 S1                 0.0000
     21 ****        -5.5204   3.0444  -2.1324 C.3            1 S1                 0.0000
     22 ****        -3.4615   5.2825  -0.7373 H              1 S1                 0.0000
     23 ****        -3.4409   5.6258  -2.4720 H              1 S1                 0.0000
     24 ****        -1.9199   5.4229  -1.5922 H              1 S1                 0.0000
     25 ****        -0.9223   3.2155  -1.9981 H              1 S1                 0.0000
     26 ****        -0.3226  -1.5416  -2.4679 H              1 S1                 0.0000
     27 ****         1.8577  -2.1734  -2.7164 H              1 S1                 0.0000
     28 ****         2.3113  -0.5421  -3.1498 H              1 S1                 0.0000
     29 ****         3.3936  -1.1627  -1.0182 H              1 S1                 0.0000
     30 ****         2.2340   0.1210  -0.7146 H              1 S1                 0.0000
     31 ****         2.2487  -0.5702   1.4723 H              1 S1                 0.0000
     32 ****         3.0812  -3.5088   1.2186 H              1 S1                 0.0000
     33 ****         4.1206  -2.1329   0.9439 H              1 S1                 0.0000
     34 ****         4.5055  -3.1193   3.1948 H              1 S1                 0.0000
     35 ****         3.9617  -1.4622   3.3100 H              1 S1                 0.0000
     36 ****         2.2331  -3.9566   3.6900 H              1 S1                 0.0000
     37 ****         2.7399  -2.8539   4.9477 H              1 S1                 0.0000
     38 ****         0.3953  -2.4006   4.2328 H              1 S1                 0.0000
     39 ****         1.4262  -1.0204   3.9470 H              1 S1                 0.0000
     40 ****         0.5700  -3.0769   1.8641 H              1 S1                 0.0000
     41 ****        -0.2046  -0.1306   2.1454 H              1 S1                 0.0000
     42 ****        -1.2462  -1.5069   2.4989 H              1 S1                 0.0000
     43 ****        -0.7204  -1.2055   0.8499 H              1 S1                 0.0000
     44 ****        -5.7439   3.9942  -2.6185 H              1 S1                 0.0000
     45 ****        -5.8825   3.0864  -1.1051 H              1 S1                 0.0000
     46 ****        -6.0572   2.2540  -2.6575 H              1 S1                 0.0000
     47 ****        -2.0190  -0.4315  -2.7201 LP             1 S1                 0.0000
     48 ****         0.1911   2.3775  -2.5661 LP             1 S1                 0.0000
     49 ****         1.5766   1.3389  -2.5238 LP             1 S1                 0.0000
     50 ****         1.8047  -2.7171  -0.3739 LP             1 S1                 0.0000
     51 ****         0.6613  -1.5681  -0.1762 LP             1 S1                 0.0000
     52 ****        -3.9471   0.8917  -1.6866 LP             1 S1                 0.0000
     53 ****        -3.9126   1.2050  -3.2889 LP             1 S1                 0.0000
@<TRIPOS>BOND
    1    1   22 1     
    2    1   23 1     
    3    1   24 1     
    4    1    2 1     
    5    2    3 1     
    6    2   20 2     
    7    3   25 1     
    8    3    4 1     
    9    4   19 1     
   10    4    5 2     
   11    5    6 1     
   12    6    8 am    
   13    6    7 2     
   14    8    9 1     
   15    8   26 1     
   16    9   10 1     
   17    9   27 1     
   18    9   28 1     
   19   10   11 1     
   20   10   29 1     
   21   10   30 1     
   22   11   12 1     
   23   12   17 1     
   24   12   13 1     
   25   12   31 1     
   26   13   14 1     
   27   13   32 1     
   28   13   33 1     
   29   14   15 1     
   30   14   34 1     
   31   14   35 1     
   32   15   16 1     
   33   15   36 1     
   34   15   37 1     
   35   16   17 1     
   36   16   38 1     
   37   16   39 1     
   38   17   18 1     
   39   17   40 1     
   40   18   41 1     
   41   18   42 1     
   42   18   43 1     
   43   19   20 1     
   44   20   21 1     
   45   21   44 1     
   46   21   45 1     
   47   21   46 1     
   48    5   47 1     
   49    7   48 1     
   50    7   49 1     
   51   11   50 1     
   52   11   51 1     
   53   19   52 1     
   54   19   53 1     
@<TRIPOS>SUBSTRUCTURE
      1 S1             1
@<TRIPOS>SET
LONE_PAIRS      STATIC     ATOMS    <user>   **** ""
7 47 48 49 50 51 52 53
DONOR_HYDROGENS      STATIC     ATOMS    <user>   **** ""
2 25 26
ATOM$BLUE        STATIC     ATOMS    COLORGROUP SYSTEM
7 47 48 49 50 51 52 53
ATOM$RED        STATIC     ATOMS    COLORGROUP SYSTEM
2 25 26
