AV-unprocessed.smi:2481|AV-procd|sdf|9774|dock9
  -GOLD-   2272013413D 1   1.00000     0.00000
 Structure written by MMmdl.
 37 38  0  0  0  0  0  0  0  0  1 V2000
  147.6376  145.5245  160.5269 C   0  0  0  0  0  0  0  0  0  0  0  0
  146.8051  144.3404  160.4389 N   0  0  0  0  0  0  0  0  0  0  0  0
  145.8098  144.1204  161.3298 N   0  0  0  0  0  0  0  0  0  0  0  0
  145.2949  142.9628  160.9147 C   0  0  0  0  0  0  0  0  0  0  0  0
  145.8816  142.4068  159.8135 N   0  0  0  0  0  0  0  0  0  0  0  0
  146.8143  143.3230  159.5727 C   0  0  0  0  0  0  0  0  0  0  0  0
  147.7653  143.2937  158.5179 N   0  0  0  0  0  0  0  0  0  0  0  0
  148.5045  142.2511  158.1033 C   0  0  0  0  0  0  0  0  0  0  0  0
  148.4649  141.1172  158.5813 O   0  0  0  0  0  0  0  0  0  0  0  0
  149.3044  142.6004  157.0855 N   0  0  0  0  0  0  0  0  0  0  0  0
  150.2405  141.7129  156.3974 C   0  0  1  0  0  0  0  0  0  0  0  0
  151.2370  141.1331  157.4236 C   0  0  0  0  0  0  0  0  0  0  0  0
  152.2072  140.1355  156.7772 C   0  0  0  0  0  0  0  0  0  0  0  0
  151.4419  139.0133  156.0656 C   0  0  0  0  0  0  0  0  0  0  0  0
  150.4696  139.5866  155.0247 C   0  0  0  0  0  0  0  0  0  0  0  0
  149.4736  140.5911  155.6485 C   0  0  2  0  0  0  0  0  0  0  0  0
  148.5129  141.1565  154.5782 C   0  0  0  0  0  0  0  0  0  0  0  0
  149.1842  141.3503  153.3505 O   0  0  0  0  0  0  0  0  0  0  0  0
  148.6890  145.2354  160.5318 H   0  0  0  0  0  0  0  0  0  0  0  0
  147.4204  146.0791  161.4409 H   0  0  0  0  0  0  0  0  0  0  0  0
  147.4482  146.1684  159.6677 H   0  0  0  0  0  0  0  0  0  0  0  0
  144.4631  142.5006  161.4256 H   0  0  0  0  0  0  0  0  0  0  0  0
  147.8974  144.1650  158.0263 H   0  0  0  0  0  0  0  0  0  0  0  0
  149.2660  143.5547  156.7585 H   0  0  0  0  0  0  0  0  0  0  0  0
  150.8014  142.2864  155.6564 H   0  0  0  0  0  0  0  0  0  0  0  0
  151.8047  141.9383  157.8916 H   0  0  0  0  0  0  0  0  0  0  0  0
  150.6915  140.6348  158.2264 H   0  0  0  0  0  0  0  0  0  0  0  0
  152.8469  140.6553  156.0627 H   0  0  0  0  0  0  0  0  0  0  0  0
  152.8674  139.7135  157.5355 H   0  0  0  0  0  0  0  0  0  0  0  0
  152.1441  138.3327  155.5833 H   0  0  0  0  0  0  0  0  0  0  0  0
  150.8900  138.4221  156.7975 H   0  0  0  0  0  0  0  0  0  0  0  0
  151.0371  140.0761  154.2320 H   0  0  0  0  0  0  0  0  0  0  0  0
  149.9315  138.7643  154.5523 H   0  0  0  0  0  0  0  0  0  0  0  0
  148.8740  140.0528  156.3850 H   0  0  0  0  0  0  0  0  0  0  0  0
  147.6832  140.4754  154.3901 H   0  0  0  0  0  0  0  0  0  0  0  0
  148.0802  142.1021  154.9069 H   0  0  0  0  0  0  0  0  0  0  0  0
  149.0788  140.5724  152.8241 H   0  0  0  0  0  0  0  0  0  0  0  0
  1  2  1  0  0  0  0
  1 19  1  0  0  0  0
  1 20  1  0  0  0  0
  1 21  1  0  0  0  0
  2  6  1  0  0  0  0
  2  3  1  0  0  0  0
  3  4  2  0  0  0  0
  4  5  1  0  0  0  0
  4 22  1  0  0  0  0
  5  6  2  0  0  0  0
  6  7  1  0  0  0  0
  7  8  1  0  0  0  0
  7 23  1  0  0  0  0
  8  9  2  0  0  0  0
  8 10  1  0  0  0  0
 10 11  1  0  0  0  0
 10 24  1  0  0  0  0
 11 16  1  0  0  0  0
 11 12  1  0  0  0  0
 11 25  1  0  0  0  0
 12 13  1  0  0  0  0
 12 26  1  0  0  0  0
 12 27  1  0  0  0  0
 13 14  1  0  0  0  0
 13 28  1  0  0  0  0
 13 29  1  0  0  0  0
 14 15  1  0  0  0  0
 14 30  1  0  0  0  0
 14 31  1  0  0  0  0
 15 16  1  0  0  0  0
 15 32  1  0  0  0  0
 15 33  1  0  0  0  0
 16 17  1  0  0  0  0
 16 34  1  0  0  0  0
 17 18  1  0  0  0  0
 17 35  1  0  0  0  0
 17 36  1  0  0  0  0
 18 37  1  0  0  0  0
M  END
> <s_m_source_file>
AV-unprocessed.smi

> <i_m_source_file_index>
2481

> <i_lp_mmshare_version>
43012

> <i_f3d_flags>
0

> <s_epik_input>
W0NIM11uMW5bY0hdbmMxW05IXUMoPU8pW05IXVtDQEBIXTJbQ0gyXVtDSDJdW0NIMl1bQ0gyXVtDQEhdMltDSDJdW09IXQ==

> <s_epik_cmdline>
J2VwaWtfcHl0aG9uJywgJy1waCcsICc3LjAnLCAnLXRuJywgJzgnLCAnLW1hJywgJzIwMCcsICctbWV0YWxfYmluZGluZycsICctaW1hZScsICc8aW5maWxlLm1hZT4nLCAnLW9tYWUnLCAnPG91dGZpbGUubWFlPic=

> <r_lp_tautomer_probability>
1

> <r_epik_Ionization_Penalty>
2.32704e-05

> <r_epik_Ionization_Penalty_Charging>
0

> <r_epik_Ionization_Penalty_Neutral>
2.32704e-05

> <r_epik_State_Penalty>
-0

> <r_epik_Charging_Adjusted_Penalty>
0

> <i_epik_Tot_Q>
0

> <i_epik_Tot_abs_Q>
0

> <r_epik_Metal_State_Penalty>
-0

> <b_epik_Metal_Only>
0

> <s_lp_Force_Field>
OPLS_2005

> <r_lp_Energy>
12.9645

> <b_lp_Chiralities_Consistent>
1

> <s_lp_Variant>
AV-unprocessed.smi:2481-4

> <Gold.Version>
5.8.1

> <Gold.Id.Protein>
6NUR|6NUR_protein|mol2

> <Gold.PLP.Fitness>
43.0462

> <Gold.PLP.PLP>
-30.3191

> <Gold.PLP.part.hbond>
-7.1095

> <Gold.PLP.part.metal>
0.0000

> <Gold.PLP.part.buried>
-2.8654

> <Gold.PLP.part.nonpolar>
-20.6725

> <Gold.PLP.part.repulsive>
0.2119

> <Gold.PLP.ligand.clash>
0.0000

> <Gold.PLP.ligand.torsion>
0.6593

> <Gold.PLP.Chemscore.Hbond>
4.6780

> <Gold.PLP.Chemscore.CHOScore>
0.0000

> <Gold.PLP.Chemscore.Metal>
0.0000

> <Gold.Chemscore.Hbonds>
donor molecule, donor type, donor heavy atom, donor atom, acceptor molecule, acceptor atom, score
      L1  H     7    23       P1  8029  0.90
      L1  H    10    24       P1  8028  1.00
      L1  H    18    37       P1  7957  0.70
      P1  H  6934  6946       L1     5  0.93
      P1  H  8011  8017       L1    18  0.99

> <Gold.PLP.Chemscore.Internal.Correction>
0.0117

> <Gold.Rescore>
     Score         DG    S(hbond)    S(metal)    S(lipo)     H(rot)  DE(clash)    DE(int)     intcor
     13.20     -15.32       2.83        0.00      46.87       1.99       0.23       1.89       ----

> <Gold.Chemscore.Fitness>
13.2025

> <Gold.Chemscore.DG>
-15.3243

> <Gold.Chemscore.ZeroCoef>
-5.4800

> <Gold.Chemscore.Hbond>
2.8292

> <Gold.Chemscore.Metal>
0.0000

> <Gold.Chemscore.Lipo>
46.8651

> <Gold.Chemscore.Internal_Hbond>
0.0000

> <Gold.Chemscore.DEClash>
0.2320

> <Gold.Chemscore.DEInternal>
1.8897

> <Gold.Chemscore.Rot>
1.9877

> <Gold.Chemscore.Internal.Correction>
   9.000000E+99

> <Gold.Chemscore.Hbonds>
donor molecule, donor type, donor heavy atom, donor atom, acceptor molecule, acceptor atom, score
      L1  H     7    23       P1  8029  0.18
      L1  H    10    24       P1  8028  0.92
      L1  H    18    37       P1  7957  0.70
      P1  H  6934  6946       L1     5  0.10
      P1  H  8011  8017       L1    18  0.42

> <Gold.Chemscore.Hbond.Weighted>
-9.4496

> <Gold.Chemscore.Metal.Weighted>
-0.0000

> <Gold.Chemscore.Lipo.Weighted>
-5.4832

> <Gold.Chemscore.Internal_Hbond.Weighted>
0.0000

> <Gold.Chemscore.DEClash.Weighted>
0.2320

> <Gold.Chemscore.DEInternal.Weighted>
1.8897

> <Gold.Chemscore.Rot.Weighted>
5.0885

> <Gold.Chemscore.Internal.Correction.Weighted>
   9.000000E+99

> <Gold.Protein.RotatedTorsions>
[ 6907 6896 6895 6894 ] final -160.50 input  -60.11 | X-H torsion
[ 7974 7965 7964 7962 ] final   76.33 input  175.53 | X-H torsion
[ 8008 7997 7996 7995 ] final  179.96 input   59.86 | X-H torsion
[ 10167 10162 10161 10158 ] final  -15.90 input  -65.29 | X-H torsion
[ 10718 10713 10712 10709 ] final  -76.88 input   66.30 | X-H torsion
[ 10763 10752 10751 10750 ] final -153.00 input  -60.55 | X-H torsion
[ 11005 11000 10999 10996 ] final  106.51 input  -57.11 | X-H torsion

> <Gold.Protein.ActiveResidues>
 VAL166  LYS551  ARG553  GLY616  TRP617  ASP618  TYR619  PRO620  LYS621  CYS622 
 ASP623  PHE694  ASN695  SER759  ASP760  ASP761  ALA762  ILE779  LEU786  VAL792 
 PHE793  MET794  SER795  GLU796  ALA797  LYS798  CYS799  TRP800  GLU811  SER814 

> <Gold.Protein.RotatedAtoms>
  151.3500  133.3929  159.2679 H   0  0  0  0  0  0  0  0  0  0  0  0  # atno 6907 bound_to 6896
  150.9809  134.9165  159.7854 H   0  0  0  0  0  0  0  0  0  0  0  0  # atno 6908 bound_to 6896
  152.5216  134.3463  159.9287 H   0  0  0  0  0  0  0  0  0  0  0  0  # atno 6909 bound_to 6896
  145.7042  139.2593  143.1687 H   0  0  0  0  0  0  0  0  0  0  0  0  # atno 7974 bound_to 7965
  156.0375  140.1296  157.0192 H   0  0  0  0  0  0  0  0  0  0  0  0  # atno 8008 bound_to 7997
  154.4376  140.1037  156.6259 H   0  0  0  0  0  0  0  0  0  0  0  0  # atno 8009 bound_to 7997
  155.5716  140.3466  155.4519 H   0  0  0  0  0  0  0  0  0  0  0  0  # atno 8010 bound_to 7997
  140.7225  143.5171  150.9679 H   0  0  0  0  0  0  0  0  0  0  0  0  # atno 10167 bound_to 10162
  156.0161  130.4477  150.3261 H   0  0  0  0  0  0  0  0  0  0  0  0  # atno 10718 bound_to 10713
  154.7957  135.3223  154.7672 H   0  0  0  0  0  0  0  0  0  0  0  0  # atno 10763 bound_to 10752
  153.8351  135.6876  153.4814 H   0  0  0  0  0  0  0  0  0  0  0  0  # atno 10764 bound_to 10752
  153.1648  135.4646  154.9763 H   0  0  0  0  0  0  0  0  0  0  0  0  # atno 10765 bound_to 10752
  139.8815  134.9371  156.5678 H   0  0  0  0  0  0  0  0  0  0  0  0  # atno 11005 bound_to 11000
  146.0770  140.7806  142.9660 LP  0  0  0  0  0  0  0  0  0  0  0  0  # atno 17320 bound_to 7965
  144.6960  140.3430  143.7195 LP  0  0  0  0  0  0  0  0  0  0  0  0  # atno 17321 bound_to 7965
  139.8887  143.6981  152.3148 LP  0  0  0  0  0  0  0  0  0  0  0  0  # atno 17342 bound_to 10162
  139.7289  144.7587  151.0834 LP  0  0  0  0  0  0  0  0  0  0  0  0  # atno 17343 bound_to 10162
  157.1360  131.0284  151.2948 LP  0  0  0  0  0  0  0  0  0  0  0  0  # atno 17370 bound_to 10713
  157.4511  130.7599  149.7152 LP  0  0  0  0  0  0  0  0  0  0  0  0  # atno 17371 bound_to 10713
  140.8121  133.8420  155.8819 LP  0  0  0  0  0  0  0  0  0  0  0  0  # atno 17394 bound_to 11000
  140.9496  134.1795  157.4737 LP  0  0  0  0  0  0  0  0  0  0  0  0  # atno 17395 bound_to 11000

$$$$
