AV-unprocessed.smi:2591|AV-procd|sdf|10155|dock1
  -GOLD-   2272014163D 1   1.00000     0.00000
 Structure written by MMmdl.
 35 36  0  0  0  0  0  0  0  0  2 V2000
  147.4856  138.2656  155.3966 C   0  0  0  0  0  0  0  0  0  0  0  0
  148.9054  137.8552  155.4229 N   0  3  1  0  0  0  0  0  0  0  0  0
  149.0889  136.4095  155.1636 C   0  0  0  0  0  0  0  0  0  0  0  0
  150.5741  136.0306  155.2791 C   0  0  0  0  0  0  0  0  0  0  0  0
  151.3481  136.8348  154.3886 O   0  0  0  0  0  0  0  0  0  0  0  0
  151.2393  138.2449  154.6083 C   0  0  2  0  0  0  0  0  0  0  0  0
  151.9438  138.6479  155.9184 C   0  0  0  0  0  0  0  0  0  0  0  0
  152.6717  137.8450  156.5037 O   0  0  0  0  0  0  0  0  0  0  0  0
  151.6976  139.9029  156.3401 N   0  0  0  0  0  0  0  0  0  0  0  0
  152.2053  140.5601  157.4919 C   0  0  0  0  0  0  0  0  0  0  0  0
  151.6695  141.8448  157.7326 C   0  0  0  0  0  0  0  0  0  0  0  0
  152.1084  142.5885  158.8491 C   0  0  0  0  0  0  0  0  0  0  0  0
  151.5354  143.9699  159.1260 C   0  0  0  0  0  0  0  0  0  0  0  0
  152.0434  144.4944  160.2418 F   0  0  0  0  0  0  0  0  0  0  0  0
  151.8099  144.7920  158.1130 F   0  0  0  0  0  0  0  0  0  0  0  0
  150.2126  143.8781  159.2590 F   0  0  0  0  0  0  0  0  0  0  0  0
  153.0733  142.0102  159.6992 C   0  0  0  0  0  0  0  0  0  0  0  0
  153.5542  140.7257  159.3872 C   0  0  0  0  0  0  0  0  0  0  0  0
  153.1367  140.0201  158.3156 N   0  0  0  0  0  0  0  0  0  0  0  0
  149.7522  138.6646  154.5143 C   0  0  0  0  0  0  0  0  0  0  0  0
  147.0494  138.1073  154.4095 H   0  0  0  0  0  0  0  0  0  0  0  0
  147.3868  139.3217  155.6500 H   0  0  0  0  0  0  0  0  0  0  0  0
  146.9072  137.6934  156.1227 H   0  0  0  0  0  0  0  0  0  0  0  0
  148.5026  135.8282  155.8764 H   0  0  0  0  0  0  0  0  0  0  0  0
  148.7172  136.1654  154.1671 H   0  0  0  0  0  0  0  0  0  0  0  0
  150.9229  136.1354  156.3072 H   0  0  0  0  0  0  0  0  0  0  0  0
  150.7128  134.9833  155.0109 H   0  0  0  0  0  0  0  0  0  0  0  0
  151.7812  138.7391  153.8007 H   0  0  0  0  0  0  0  0  0  0  0  0
  151.0770  140.4537  155.7647 H   0  0  0  0  0  0  0  0  0  0  0  0
  150.9249  142.2609  157.0693 H   0  0  0  0  0  0  0  0  0  0  0  0
  153.4393  142.5308  160.5719 H   0  0  0  0  0  0  0  0  0  0  0  0
  154.2933  140.2507  160.0155 H   0  0  0  0  0  0  0  0  0  0  0  0
  149.4019  138.5362  153.4890 H   0  0  0  0  0  0  0  0  0  0  0  0
  149.6391  139.7243  154.7486 H   0  0  0  0  0  0  0  0  0  0  0  0
  149.2394  138.0295  156.3608 H   0  0  0  0  0  0  0  0  0  0  0  0
  1  2  1  0  0  0  0
  1 21  1  0  0  0  0
  1 22  1  0  0  0  0
  1 23  1  0  0  0  0
  2 20  1  0  0  0  0
  2  3  1  0  0  0  0
  2 35  1  0  0  0  0
  3  4  1  0  0  0  0
  3 24  1  0  0  0  0
  3 25  1  0  0  0  0
  4  5  1  0  0  0  0
  4 26  1  0  0  0  0
  4 27  1  0  0  0  0
  5  6  1  0  0  0  0
  6  7  1  0  0  0  0
  6 20  1  0  0  0  0
  6 28  1  0  0  0  0
  7  8  2  0  0  0  0
  7  9  1  0  0  0  0
  9 10  1  0  0  0  0
  9 29  1  0  0  0  0
 10 19  1  0  0  0  0
 10 11  2  0  0  0  0
 11 12  1  0  0  0  0
 11 30  1  0  0  0  0
 12 13  1  0  0  0  0
 12 17  2  0  0  0  0
 13 14  1  0  0  0  0
 13 15  1  0  0  0  0
 13 16  1  0  0  0  0
 17 18  1  0  0  0  0
 17 31  1  0  0  0  0
 18 19  2  0  0  0  0
 18 32  1  0  0  0  0
 20 33  1  0  0  0  0
 20 34  1  0  0  0  0
M  CHG  1   2   1
M  END
> <s_m_source_file>
AV-unprocessed.smi

> <i_m_source_file_index>
2591

> <i_lp_mmshare_version>
43012

> <i_f3d_flags>
0

> <s_epik_input>
W0NIM11OMVtDSDJdW0NIMl1PW0NASF0oW0NIMl0xKUMoPU8pW05IXWMyW2NIXWMoQyhGKShGKUYpW2NIXVtjSF1uMg==

> <s_epik_cmdline>
J2VwaWtfcHl0aG9uJywgJy1waCcsICc3LjAnLCAnLXRuJywgJzgnLCAnLW1hJywgJzIwMCcsICctbWV0YWxfYmluZGluZycsICctaW1hZScsICc8aW5maWxlLm1hZT4nLCAnLW9tYWUnLCAnPG91dGZpbGUubWFlPic=

> <r_epik_Ionization_Penalty>
0.314028

> <r_epik_Ionization_Penalty_Charging>
0.314023

> <r_epik_Ionization_Penalty_Neutral>
5.2303e-06

> <r_epik_State_Penalty>
0.308208

> <r_epik_Charging_Adjusted_Penalty>
0.62223

> <i_epik_Tot_Q>
1

> <i_epik_Tot_abs_Q>
1

> <r_epik_Metal_State_Penalty>
0.308209

> <b_epik_Metal_Only>
0

> <s_lp_Force_Field>
OPLS_2005

> <r_lp_Energy>
16.4571

> <b_lp_Chiralities_Consistent>
1

> <s_lp_Variant>
AV-unprocessed.smi:2591-3

> <Gold.Version>
5.8.1

> <Gold.Id.Protein>
6NUR|6NUR_protein|mol2

> <Gold.PLP.Fitness>
42.1605

> <Gold.PLP.PLP>
-36.8080

> <Gold.PLP.part.hbond>
-2.0000

> <Gold.PLP.part.metal>
0.0000

> <Gold.PLP.part.buried>
-5.6960

> <Gold.PLP.part.nonpolar>
-28.9826

> <Gold.PLP.part.repulsive>
0.9489

> <Gold.PLP.ligand.clash>
0.2386

> <Gold.PLP.ligand.torsion>
0.3318

> <Gold.PLP.Chemscore.Hbond>
1.9920

> <Gold.PLP.Chemscore.CHOScore>
0.0000

> <Gold.PLP.Chemscore.Metal>
0.0000

> <Gold.Chemscore.Hbonds>
donor molecule, donor type, donor heavy atom, donor atom, acceptor molecule, acceptor atom, score
      P1  H  7997  8009       L1    19  0.99
      P1  H 10752 10763       L1     5  0.90

> <Gold.PLP.Chemscore.Internal.Correction>
0.2788

> <Gold.Rescore>
     Score         DG    S(hbond)    S(metal)    S(lipo)     H(rot)  DE(clash)    DE(int)     intcor
     13.01     -14.98       1.15        0.00      70.18       1.00       0.08       1.90       ----

> <Gold.Chemscore.Fitness>
13.0102

> <Gold.Chemscore.DG>
-14.9848

> <Gold.Chemscore.ZeroCoef>
-5.4800

> <Gold.Chemscore.Hbond>
1.1536

> <Gold.Chemscore.Metal>
0.0000

> <Gold.Chemscore.Lipo>
70.1848

> <Gold.Chemscore.Internal_Hbond>
0.0000

> <Gold.Chemscore.DEClash>
0.0790

> <Gold.Chemscore.DEInternal>
1.8956

> <Gold.Chemscore.Rot>
1.0000

> <Gold.Chemscore.Internal.Correction>
   9.000000E+99

> <Gold.Chemscore.Hbonds>
donor molecule, donor type, donor heavy atom, donor atom, acceptor molecule, acceptor atom, score
      P1  H  7997  8009       L1    19  0.11
      P1  H 10752 10763       L1     5  0.17

> <Gold.Chemscore.Hbond.Weighted>
-3.8532

> <Gold.Chemscore.Metal.Weighted>
-0.0000

> <Gold.Chemscore.Lipo.Weighted>
-8.2116

> <Gold.Chemscore.Internal_Hbond.Weighted>
0.0000

> <Gold.Chemscore.DEClash.Weighted>
0.0790

> <Gold.Chemscore.DEInternal.Weighted>
1.8956

> <Gold.Chemscore.Rot.Weighted>
2.5600

> <Gold.Chemscore.Internal.Correction.Weighted>
   9.000000E+99

> <Gold.Protein.RotatedTorsions>
[ 6907 6896 6895 6894 ] final  -78.71 input  -60.11 | X-H torsion
[ 7974 7965 7964 7962 ] final  -73.53 input  175.53 | X-H torsion
[ 8008 7997 7996 7995 ] final  144.40 input   59.86 | X-H torsion
[ 10167 10162 10161 10158 ] final  124.79 input  -65.29 | X-H torsion
[ 10718 10713 10712 10709 ] final   78.34 input   66.30 | X-H torsion
[ 10763 10752 10751 10750 ] final   39.97 input  -60.55 | X-H torsion
[ 11005 11000 10999 10996 ] final   13.99 input  -57.11 | X-H torsion

> <Gold.Protein.ActiveResidues>
 VAL166  LYS551  ARG553  GLY616  TRP617  ASP618  TYR619  PRO620  LYS621  CYS622 
 ASP623  PHE694  ASN695  SER759  ASP760  ASP761  ALA762  ILE779  LEU786  VAL792 
 PHE793  MET794  SER795  GLU796  ALA797  LYS798  CYS799  TRP800  GLU811  SER814 

> <Gold.Protein.RotatedAtoms>
  150.6966  134.4231  159.5213 H   0  0  0  0  0  0  0  0  0  0  0  0  # atno 6907 bound_to 6896
  152.1971  134.8618  160.0521 H   0  0  0  0  0  0  0  0  0  0  0  0  # atno 6908 bound_to 6896
  151.9552  133.3643  159.4052 H   0  0  0  0  0  0  0  0  0  0  0  0  # atno 6909 bound_to 6896
  145.6510  140.9282  143.0985 H   0  0  0  0  0  0  0  0  0  0  0  0  # atno 7974 bound_to 7965
  156.2909  140.2237  156.5047 H   0  0  0  0  0  0  0  0  0  0  0  0  # atno 8008 bound_to 7997
  154.7660  140.0470  157.1034 H   0  0  0  0  0  0  0  0  0  0  0  0  # atno 8009 bound_to 7997
  154.9933  140.3093  155.4900 H   0  0  0  0  0  0  0  0  0  0  0  0  # atno 8010 bound_to 7997
  139.5722  144.6945  151.3749 H   0  0  0  0  0  0  0  0  0  0  0  0  # atno 10167 bound_to 10162
  157.6741  130.9864  150.1773 H   0  0  0  0  0  0  0  0  0  0  0  0  # atno 10718 bound_to 10713
  152.9950  135.6205  154.2551 H   0  0  0  0  0  0  0  0  0  0  0  0  # atno 10763 bound_to 10752
  154.2289  135.2793  155.2899 H   0  0  0  0  0  0  0  0  0  0  0  0  # atno 10764 bound_to 10752
  154.5466  135.5745  153.6944 H   0  0  0  0  0  0  0  0  0  0  0  0  # atno 10765 bound_to 10752
  140.4745  134.0997  155.7739 H   0  0  0  0  0  0  0  0  0  0  0  0  # atno 11005 bound_to 11000
  144.7123  139.8326  143.7410 LP  0  0  0  0  0  0  0  0  0  0  0  0  # atno 17320 bound_to 7965
  146.1204  139.4221  143.0232 LP  0  0  0  0  0  0  0  0  0  0  0  0  # atno 17321 bound_to 7965
  140.7006  143.7642  150.7396 LP  0  0  0  0  0  0  0  0  0  0  0  0  # atno 17342 bound_to 10162
  140.1151  143.4663  152.2347 LP  0  0  0  0  0  0  0  0  0  0  0  0  # atno 17343 bound_to 10162
  156.2513  130.3701  149.8229 LP  0  0  0  0  0  0  0  0  0  0  0  0  # atno 17370 bound_to 10713
  156.6001  130.8543  151.3429 LP  0  0  0  0  0  0  0  0  0  0  0  0  # atno 17371 bound_to 10713
  141.1561  133.8880  157.1973 LP  0  0  0  0  0  0  0  0  0  0  0  0  # atno 17394 bound_to 11000
  139.9864  135.0080  156.9873 LP  0  0  0  0  0  0  0  0  0  0  0  0  # atno 17395 bound_to 11000

$$$$
