AV-unprocessed.smi:1891|AV-procd|sdf|7666|dock4
  -GOLD-   22720 9403D 1   1.00000     0.00000
 Structure written by MMmdl.
 36 38  0  0  0  0  0  0  0  0  1 V2000
  151.7408  139.5272  154.6779 O   0  0  0  0  0  0  0  0  0  0  0  0
  151.4931  139.0582  155.9879 C   0  0  0  0  0  0  0  0  0  0  0  0
  151.8344  140.0461  157.0676 C   0  0  0  0  0  0  0  0  0  0  0  0
  152.7978  139.8341  157.9675 N   0  0  0  0  0  0  0  0  0  0  0  0
  152.7583  140.9795  158.7369 C   0  0  0  0  0  0  0  0  0  0  0  0
  153.5311  141.3614  159.8566 C   0  0  0  0  0  0  0  0  0  0  0  0
  153.3071  142.6020  160.4888 C   0  0  0  0  0  0  0  0  0  0  0  0
  152.3107  143.4773  160.0100 C   0  0  0  0  0  0  0  0  0  0  0  0
  151.5294  143.1156  158.8958 C   0  0  0  0  0  0  0  0  0  0  0  0
  151.7554  141.8746  158.2706 C   0  0  0  0  0  0  0  0  0  0  0  0
  151.1716  141.2251  157.1873 N   0  0  0  0  0  0  0  0  0  0  0  0
  150.0757  141.7375  156.3745 C   0  0  0  0  0  0  0  0  0  0  0  0
  148.7292  141.0637  156.7108 C   0  0  1  0  0  0  0  0  0  0  0  0
  147.8493  142.0546  157.2036 O   0  0  0  0  0  0  0  0  0  0  0  0
  148.1447  140.3000  155.5274 C   0  0  0  0  0  0  0  0  0  0  0  0
  147.7476  140.9866  154.3575 C   0  0  0  0  0  0  0  0  0  0  0  0
  147.2292  140.2780  153.2568 C   0  0  0  0  0  0  0  0  0  0  0  0
  147.1051  138.8772  153.3161 C   0  0  0  0  0  0  0  0  0  0  0  0
  146.6079  138.1955  152.2571 F   0  0  0  0  0  0  0  0  0  0  0  0
  147.5000  138.1857  154.4766 C   0  0  0  0  0  0  0  0  0  0  0  0
  148.0181  138.8924  155.5792 C   0  0  0  0  0  0  0  0  0  0  0  0
  148.4022  138.2085  156.6838 F   0  0  0  0  0  0  0  0  0  0  0  0
  152.3756  138.9588  154.2698 H   0  0  0  0  0  0  0  0  0  0  0  0
  150.4386  138.7937  156.0682 H   0  0  0  0  0  0  0  0  0  0  0  0
  152.0723  138.1479  156.1352 H   0  0  0  0  0  0  0  0  0  0  0  0
  154.2969  140.6980  160.2301 H   0  0  0  0  0  0  0  0  0  0  0  0
  153.9024  142.8832  161.3449 H   0  0  0  0  0  0  0  0  0  0  0  0
  152.1458  144.4260  160.4997 H   0  0  0  0  0  0  0  0  0  0  0  0
  150.7637  143.7824  158.5283 H   0  0  0  0  0  0  0  0  0  0  0  0
  150.0079  142.8107  156.5589 H   0  0  0  0  0  0  0  0  0  0  0  0
  150.3102  141.6279  155.3159 H   0  0  0  0  0  0  0  0  0  0  0  0
  148.8754  140.3663  157.5359 H   0  0  0  0  0  0  0  0  0  0  0  0
  147.9774  142.8466  156.7047 H   0  0  0  0  0  0  0  0  0  0  0  0
  147.8466  142.0602  154.2942 H   0  0  0  0  0  0  0  0  0  0  0  0
  146.9296  140.8091  152.3653 H   0  0  0  0  0  0  0  0  0  0  0  0
  147.4088  137.1106  154.5208 H   0  0  0  0  0  0  0  0  0  0  0  0
  1  2  1  0  0  0  0
  1 23  1  0  0  0  0
  2  3  1  0  0  0  0
  2 24  1  0  0  0  0
  2 25  1  0  0  0  0
  3 11  1  0  0  0  0
  3  4  2  0  0  0  0
  4  5  1  0  0  0  0
  5 10  2  0  0  0  0
  5  6  1  0  0  0  0
  6  7  2  0  0  0  0
  6 26  1  0  0  0  0
  7  8  1  0  0  0  0
  7 27  1  0  0  0  0
  8  9  2  0  0  0  0
  8 28  1  0  0  0  0
  9 10  1  0  0  0  0
  9 29  1  0  0  0  0
 10 11  1  0  0  0  0
 11 12  1  0  0  0  0
 12 13  1  0  0  0  0
 12 30  1  0  0  0  0
 12 31  1  0  0  0  0
 13 14  1  0  0  0  0
 13 15  1  0  0  0  0
 13 32  1  0  0  0  0
 14 33  1  0  0  0  0
 15 21  1  0  0  0  0
 15 16  2  0  0  0  0
 16 17  1  0  0  0  0
 16 34  1  0  0  0  0
 17 18  2  0  0  0  0
 17 35  1  0  0  0  0
 18 19  1  0  0  0  0
 18 20  1  0  0  0  0
 20 21  2  0  0  0  0
 20 36  1  0  0  0  0
 21 22  1  0  0  0  0
M  END
> <s_m_source_file>
AV-unprocessed.smi

> <i_m_source_file_index>
1891

> <i_lp_mmshare_version>
43012

> <i_f3d_flags>
0

> <s_epik_input>
W2NIXTFbY0hdW2NIXVtjSF1jKGMxMiluKGMobjIpW0NIMl1bT0hdKVtDSDJdW0NASF0oW09IXSljM1tjSF1bY0hdYyhGKVtjSF1jM0Y=

> <s_epik_cmdline>
J2VwaWtfcHl0aG9uJywgJy1waCcsICc3LjAnLCAnLXRuJywgJzgnLCAnLW1hJywgJzIwMCcsICctbWV0YWxfYmluZGluZycsICctaW1hZScsICc8aW5maWxlLm1hZT4nLCAnLW9tYWUnLCAnPG91dGZpbGUubWFlPic=

> <r_epik_Ionization_Penalty>
0.0634724

> <r_epik_Ionization_Penalty_Charging>
0

> <r_epik_Ionization_Penalty_Neutral>
0.0634724

> <r_epik_State_Penalty>
0.0551572

> <r_epik_Charging_Adjusted_Penalty>
0.0551572

> <i_epik_Tot_Q>
0

> <i_epik_Tot_abs_Q>
0

> <r_epik_Metal_State_Penalty>
5.78034e-05

> <b_epik_Metal_Only>
0

> <s_lp_Force_Field>
OPLS_2005

> <r_lp_Energy>
13.0815

> <b_lp_Chiralities_Consistent>
1

> <s_lp_Variant>
AV-unprocessed.smi:1891-2

> <Gold.Version>
5.8.1

> <Gold.Id.Protein>
6NUR|6NUR_protein|mol2

> <Gold.PLP.Fitness>
49.1014

> <Gold.PLP.PLP>
-42.1113

> <Gold.PLP.part.hbond>
-3.0000

> <Gold.PLP.part.metal>
0.0000

> <Gold.PLP.part.buried>
-3.0378

> <Gold.PLP.part.nonpolar>
-35.9726

> <Gold.PLP.part.repulsive>
0.0000

> <Gold.PLP.ligand.clash>
0.0000

> <Gold.PLP.ligand.torsion>
1.0147

> <Gold.PLP.Chemscore.Hbond>
3.0000

> <Gold.PLP.Chemscore.CHOScore>
0.0000

> <Gold.PLP.Chemscore.Metal>
0.0000

> <Gold.Chemscore.Hbonds>
donor molecule, donor type, donor heavy atom, donor atom, acceptor molecule, acceptor atom, score
      L1  H    14    33       P1  8028  0.29
      P1  H  7989  7998       L1     1  1.00
      P1  H  7997  8009       L1     4  1.00

> <Gold.PLP.Chemscore.Internal.Correction>
0.0194

> <Gold.Rescore>
     Score         DG    S(hbond)    S(metal)    S(lipo)     H(rot)  DE(clash)    DE(int)     intcor
     14.82     -16.43       1.60        0.00     110.91       2.88       0.49       1.12       ----

> <Gold.Chemscore.Fitness>
14.8226

> <Gold.Chemscore.DG>
-16.4299

> <Gold.Chemscore.ZeroCoef>
-5.4800

> <Gold.Chemscore.Hbond>
1.5982

> <Gold.Chemscore.Metal>
0.0000

> <Gold.Chemscore.Lipo>
110.9080

> <Gold.Chemscore.Internal_Hbond>
0.0000

> <Gold.Chemscore.DEClash>
0.4852

> <Gold.Chemscore.DEInternal>
1.1220

> <Gold.Chemscore.Rot>
2.8767

> <Gold.Chemscore.Internal.Correction>
   9.000000E+99

> <Gold.Chemscore.Hbonds>
donor molecule, donor type, donor heavy atom, donor atom, acceptor molecule, acceptor atom, score
      L1  H    14    33       P1  8028  0.09
      P1  H  7989  7998       L1     1  0.29
      P1  H  7997  8009       L1     4  0.17

> <Gold.Chemscore.Hbond.Weighted>
-5.3381

> <Gold.Chemscore.Metal.Weighted>
-0.0000

> <Gold.Chemscore.Lipo.Weighted>
-12.9762

> <Gold.Chemscore.Internal_Hbond.Weighted>
0.0000

> <Gold.Chemscore.DEClash.Weighted>
0.4852

> <Gold.Chemscore.DEInternal.Weighted>
1.1220

> <Gold.Chemscore.Rot.Weighted>
7.3644

> <Gold.Chemscore.Internal.Correction.Weighted>
   9.000000E+99

> <Gold.Protein.RotatedTorsions>
[ 6907 6896 6895 6894 ] final   19.26 input  -60.11 | X-H torsion
[ 7974 7965 7964 7962 ] final  -34.42 input  175.53 | X-H torsion
[ 8008 7997 7996 7995 ] final  162.71 input   59.86 | X-H torsion
[ 10167 10162 10161 10158 ] final -101.73 input  -65.29 | X-H torsion
[ 10718 10713 10712 10709 ] final  124.14 input   66.30 | X-H torsion
[ 10763 10752 10751 10750 ] final  153.80 input  -60.55 | X-H torsion
[ 11005 11000 10999 10996 ] final -121.72 input  -57.11 | X-H torsion

> <Gold.Protein.ActiveResidues>
 VAL166  LYS551  ARG553  GLY616  TRP617  ASP618  TYR619  PRO620  LYS621  CYS622 
 ASP623  PHE694  ASN695  SER759  ASP760  ASP761  ALA762  ILE779  LEU786  VAL792 
 PHE793  MET794  SER795  GLU796  ALA797  LYS798  CYS799  TRP800  GLU811  SER814 

> <Gold.Protein.RotatedAtoms>
  151.8781  135.0464  160.0485 H   0  0  0  0  0  0  0  0  0  0  0  0  # atno 6907 bound_to 6896
  152.2535  133.5230  159.5347 H   0  0  0  0  0  0  0  0  0  0  0  0  # atno 6908 bound_to 6896
  150.7091  134.0844  159.3952 H   0  0  0  0  0  0  0  0  0  0  0  0  # atno 6909 bound_to 6896
  146.0830  140.6037  142.8899 H   0  0  0  0  0  0  0  0  0  0  0  0  # atno 7974 bound_to 7965
  156.2011  140.1743  156.7896 H   0  0  0  0  0  0  0  0  0  0  0  0  # atno 8008 bound_to 7997
  154.5593  140.0702  156.8825 H   0  0  0  0  0  0  0  0  0  0  0  0  # atno 8009 bound_to 7997
  155.2878  140.3353  155.4256 H   0  0  0  0  0  0  0  0  0  0  0  0  # atno 8010 bound_to 7997
  140.2382  143.3557  152.0825 H   0  0  0  0  0  0  0  0  0  0  0  0  # atno 10167 bound_to 10162
  157.5609  131.1089  150.8541 H   0  0  0  0  0  0  0  0  0  0  0  0  # atno 10718 bound_to 10713
  154.1421  135.2820  155.3158 H   0  0  0  0  0  0  0  0  0  0  0  0  # atno 10763 bound_to 10752
  154.6279  135.5445  153.7651 H   0  0  0  0  0  0  0  0  0  0  0  0  # atno 10764 bound_to 10752
  153.0247  135.6455  154.1568 H   0  0  0  0  0  0  0  0  0  0  0  0  # atno 10765 bound_to 10752
  141.0049  134.0349  157.3490 H   0  0  0  0  0  0  0  0  0  0  0  0  # atno 11005 bound_to 11000
  144.7306  140.4661  143.6940 LP  0  0  0  0  0  0  0  0  0  0  0  0  # atno 17320 bound_to 7965
  145.6181  139.1521  143.3038 LP  0  0  0  0  0  0  0  0  0  0  0  0  # atno 17321 bound_to 7965
  139.5086  144.6853  151.5904 LP  0  0  0  0  0  0  0  0  0  0  0  0  # atno 17342 bound_to 10162
  140.6133  143.9395  150.6470 LP  0  0  0  0  0  0  0  0  0  0  0  0  # atno 17343 bound_to 10162
  156.9039  130.5256  149.5282 LP  0  0  0  0  0  0  0  0  0  0  0  0  # atno 17370 bound_to 10713
  156.0661  130.5704  150.9292 LP  0  0  0  0  0  0  0  0  0  0  0  0  # atno 17371 bound_to 10713
  139.9058  135.0179  156.7478 LP  0  0  0  0  0  0  0  0  0  0  0  0  # atno 17394 bound_to 11000
  140.6829  133.9458  155.7921 LP  0  0  0  0  0  0  0  0  0  0  0  0  # atno 17395 bound_to 11000

$$$$
