AV-unprocessed.smi:2323|AV-procd|sdf|9290|dock5
  -GOLD-   2272012513D 1   1.00000     0.00000
 Structure written by MMmdl.
 30 31  0  0  0  0  0  0  0  0  1 V2000
  147.5800  142.2761  154.6004 C   0  0  0  0  0  0  0  0  0  0  0  0
  148.7462  142.0108  155.4285 N   0  0  0  0  0  0  0  0  0  0  0  0
  149.9120  141.5373  154.9626 C   0  0  0  0  0  0  0  0  0  0  0  0
  150.1207  141.3013  153.7721 O   0  0  0  0  0  0  0  0  0  0  0  0
  150.9999  141.3686  155.9844 C   0  0  0  0  0  0  0  0  0  0  0  0
  152.1511  140.6088  155.6832 C   0  0  0  0  0  0  0  0  0  0  0  0
  153.1383  140.4552  156.6749 C   0  0  0  0  0  0  0  0  0  0  0  0
  153.0398  140.9933  157.9080 N   0  0  0  0  0  0  0  0  0  0  0  0
  151.9316  141.7151  158.2065 C   0  0  0  0  0  0  0  0  0  0  0  0
  151.8086  142.2669  159.4664 O   0  0  0  0  0  0  0  0  0  0  0  0
  152.7832  143.2070  159.9234 C   0  0  1  0  0  0  0  0  0  0  0  0
  152.6978  144.5101  159.1382 C   0  0  0  0  0  0  0  0  0  0  0  0
  151.6675  145.3037  159.9275 C   0  0  0  0  0  0  0  0  0  0  0  0
  152.0021  145.0030  161.2713 O   0  0  0  0  0  0  0  0  0  0  0  0
  152.3973  143.6365  161.3472 C   0  0  0  0  0  0  0  0  0  0  0  0
  150.8896  141.9237  157.2803 C   0  0  0  0  0  0  0  0  0  0  0  0
  146.7702  142.6705  155.2140 H   0  0  0  0  0  0  0  0  0  0  0  0
  147.2299  141.3617  154.1199 H   0  0  0  0  0  0  0  0  0  0  0  0
  147.8106  143.0102  153.8274 H   0  0  0  0  0  0  0  0  0  0  0  0
  148.6662  142.1988  156.4174 H   0  0  0  0  0  0  0  0  0  0  0  0
  152.2825  140.1519  154.7128 H   0  0  0  0  0  0  0  0  0  0  0  0
  154.0313  139.8825  156.4727 H   0  0  0  0  0  0  0  0  0  0  0  0
  153.7882  142.7816  159.9161 H   0  0  0  0  0  0  0  0  0  0  0  0
  153.6590  145.0245  159.1718 H   0  0  0  0  0  0  0  0  0  0  0  0
  152.4223  144.3807  158.0913 H   0  0  0  0  0  0  0  0  0  0  0  0
  151.7141  146.3747  159.7295 H   0  0  0  0  0  0  0  0  0  0  0  0
  150.6564  144.9535  159.7133 H   0  0  0  0  0  0  0  0  0  0  0  0
  151.5756  143.0347  161.7384 H   0  0  0  0  0  0  0  0  0  0  0  0
  153.2361  143.5416  162.0374 H   0  0  0  0  0  0  0  0  0  0  0  0
  150.0230  142.4983  157.5735 H   0  0  0  0  0  0  0  0  0  0  0  0
  1  2  1  0  0  0  0
  1 17  1  0  0  0  0
  1 18  1  0  0  0  0
  1 19  1  0  0  0  0
  2  3  1  0  0  0  0
  2 20  1  0  0  0  0
  3  4  2  0  0  0  0
  3  5  1  0  0  0  0
  5 16  1  0  0  0  0
  5  6  2  0  0  0  0
  6  7  1  0  0  0  0
  6 21  1  0  0  0  0
  7  8  2  0  0  0  0
  7 22  1  0  0  0  0
  8  9  1  0  0  0  0
  9 10  1  0  0  0  0
  9 16  2  0  0  0  0
 10 11  1  0  0  0  0
 11 15  1  0  0  0  0
 11 12  1  0  0  0  0
 11 23  1  0  0  0  0
 12 13  1  0  0  0  0
 12 24  1  0  0  0  0
 12 25  1  0  0  0  0
 13 14  1  0  0  0  0
 13 26  1  0  0  0  0
 13 27  1  0  0  0  0
 14 15  1  0  0  0  0
 15 28  1  0  0  0  0
 15 29  1  0  0  0  0
 16 30  1  0  0  0  0
M  END
> <s_m_source_file>
AV-unprocessed.smi

> <i_m_source_file_index>
2323

> <i_lp_mmshare_version>
43012

> <i_f3d_flags>
0

> <s_epik_input>
W0NIM11bTkhdQyg9TyljMVtjSF1bY0hdbmMoW2NIXTEpT1tDQEBIXTJbQ0gyXVtDSDJdT1tDSDJdMg==

> <s_epik_cmdline>
J2VwaWtfcHl0aG9uJywgJy1waCcsICc3LjAnLCAnLXRuJywgJzgnLCAnLW1hJywgJzIwMCcsICctbWV0YWxfYmluZGluZycsICctaW1hZScsICc8aW5maWxlLm1hZT4nLCAnLW9tYWUnLCAnPG91dGZpbGUubWFlPic=

> <r_lp_tautomer_probability>
1

> <r_epik_Ionization_Penalty>
2.2633e-06

> <r_epik_Ionization_Penalty_Charging>
0

> <r_epik_Ionization_Penalty_Neutral>
2.2633e-06

> <r_epik_State_Penalty>
-0

> <r_epik_Charging_Adjusted_Penalty>
0

> <i_epik_Tot_Q>
0

> <i_epik_Tot_abs_Q>
0

> <r_epik_Metal_State_Penalty>
-0

> <b_epik_Metal_Only>
0

> <s_lp_Force_Field>
OPLS_2005

> <r_lp_Energy>
16.8838

> <b_lp_Chiralities_Consistent>
1

> <s_lp_Variant>
AV-unprocessed.smi:2323-2

> <Gold.Version>
5.8.1

> <Gold.Id.Protein>
6NUR|6NUR_protein|mol2

> <Gold.PLP.Fitness>
40.3476

> <Gold.PLP.PLP>
-36.9186

> <Gold.PLP.part.hbond>
-3.0000

> <Gold.PLP.part.metal>
0.0000

> <Gold.PLP.part.buried>
-3.4592

> <Gold.PLP.part.nonpolar>
-33.3452

> <Gold.PLP.part.repulsive>
4.0368

> <Gold.PLP.ligand.clash>
0.0000

> <Gold.PLP.ligand.torsion>
0.1145

> <Gold.PLP.Chemscore.Hbond>
1.2124

> <Gold.PLP.Chemscore.CHOScore>
0.0000

> <Gold.PLP.Chemscore.Metal>
0.0000

> <Gold.Chemscore.Hbonds>
donor molecule, donor type, donor heavy atom, donor atom, acceptor molecule, acceptor atom, score
      P1  H  7989  7998       L1     4  0.21
      P1  H  8011  8017       L1     4  0.72

> <Gold.PLP.Chemscore.Internal.Correction>
0.0209

> <Gold.Rescore>
     Score         DG    S(hbond)    S(metal)    S(lipo)     H(rot)  DE(clash)    DE(int)     intcor
     13.45     -14.07       0.81        0.00      77.56       1.24       0.29       0.34       ----

> <Gold.Chemscore.Fitness>
13.4466

> <Gold.Chemscore.DG>
-14.0717

> <Gold.Chemscore.ZeroCoef>
-5.4800

> <Gold.Chemscore.Hbond>
0.8093

> <Gold.Chemscore.Metal>
0.0000

> <Gold.Chemscore.Lipo>
77.5640

> <Gold.Chemscore.Internal_Hbond>
0.0000

> <Gold.Chemscore.DEClash>
0.2874

> <Gold.Chemscore.DEInternal>
0.3377

> <Gold.Chemscore.Rot>
1.2448

> <Gold.Chemscore.Internal.Correction>
   9.000000E+99

> <Gold.Chemscore.Hbonds>
donor molecule, donor type, donor heavy atom, donor atom, acceptor molecule, acceptor atom, score
      P1  H  7989  7998       L1     4  0.19
      P1  H  8011  8017       L1     4  0.72

> <Gold.Chemscore.Hbond.Weighted>
-2.7032

> <Gold.Chemscore.Metal.Weighted>
-0.0000

> <Gold.Chemscore.Lipo.Weighted>
-9.0750

> <Gold.Chemscore.Internal_Hbond.Weighted>
0.0000

> <Gold.Chemscore.DEClash.Weighted>
0.2874

> <Gold.Chemscore.DEInternal.Weighted>
0.3377

> <Gold.Chemscore.Rot.Weighted>
3.1866

> <Gold.Chemscore.Internal.Correction.Weighted>
   9.000000E+99

> <Gold.Protein.RotatedTorsions>
[ 6907 6896 6895 6894 ] final  -22.94 input  -60.11 | X-H torsion
[ 7974 7965 7964 7962 ] final -127.54 input  175.53 | X-H torsion
[ 8008 7997 7996 7995 ] final  178.91 input   59.86 | X-H torsion
[ 10167 10162 10161 10158 ] final   89.41 input  -65.29 | X-H torsion
[ 10718 10713 10712 10709 ] final -128.38 input   66.30 | X-H torsion
[ 10763 10752 10751 10750 ] final -167.12 input  -60.55 | X-H torsion
[ 11005 11000 10999 10996 ] final -168.84 input  -57.11 | X-H torsion

> <Gold.Protein.ActiveResidues>
 VAL166  LYS551  ARG553  GLY616  TRP617  ASP618  TYR619  PRO620  LYS621  CYS622 
 ASP623  PHE694  ASN695  SER759  ASP760  ASP761  ALA762  ILE779  LEU786  VAL792 
 PHE793  MET794  SER795  GLU796  ALA797  LYS798  CYS799  TRP800  GLU811  SER814 

> <Gold.Protein.RotatedAtoms>
  151.2113  135.0482  159.8912 H   0  0  0  0  0  0  0  0  0  0  0  0  # atno 6907 bound_to 6896
  152.5424  134.0741  159.8217 H   0  0  0  0  0  0  0  0  0  0  0  0  # atno 6908 bound_to 6896
  151.0895  133.5279  159.2647 H   0  0  0  0  0  0  0  0  0  0  0  0  # atno 6909 bound_to 6896
  144.9761  140.7594  143.4641 H   0  0  0  0  0  0  0  0  0  0  0  0  # atno 7974 bound_to 7965
  156.0494  140.1322  157.0067 H   0  0  0  0  0  0  0  0  0  0  0  0  # atno 8008 bound_to 7997
  154.4427  140.1014  156.6424 H   0  0  0  0  0  0  0  0  0  0  0  0  # atno 8009 bound_to 7997
  155.5547  140.3463  155.4479 H   0  0  0  0  0  0  0  0  0  0  0  0  # atno 8010 bound_to 7997
  139.8576  144.6561  150.9096 H   0  0  0  0  0  0  0  0  0  0  0  0  # atno 10167 bound_to 10162
  156.1946  130.6817  151.0465 H   0  0  0  0  0  0  0  0  0  0  0  0  # atno 10718 bound_to 10713
  154.6764  135.2947  154.9672 H   0  0  0  0  0  0  0  0  0  0  0  0  # atno 10763 bound_to 10752
  154.0682  135.6622  153.4824 H   0  0  0  0  0  0  0  0  0  0  0  0  # atno 10764 bound_to 10752
  153.0519  135.5168  154.7785 H   0  0  0  0  0  0  0  0  0  0  0  0  # atno 10765 bound_to 10752
  140.5375  134.5555  157.5091 H   0  0  0  0  0  0  0  0  0  0  0  0  # atno 11005 bound_to 11000
  145.2488  139.2040  143.4953 LP  0  0  0  0  0  0  0  0  0  0  0  0  # atno 17320 bound_to 7965
  146.3395  140.2398  142.8595 LP  0  0  0  0  0  0  0  0  0  0  0  0  # atno 17321 bound_to 7965
  140.7779  143.3772  151.1541 LP  0  0  0  0  0  0  0  0  0  0  0  0  # atno 17342 bound_to 10162
  139.7405  143.8932  152.3048 LP  0  0  0  0  0  0  0  0  0  0  0  0  # atno 17343 bound_to 10162
  157.6949  131.0797  150.6997 LP  0  0  0  0  0  0  0  0  0  0  0  0  # atno 17370 bound_to 10713
  156.7054  130.4636  149.5561 LP  0  0  0  0  0  0  0  0  0  0  0  0  # atno 17371 bound_to 10713
  139.9521  134.7598  156.0424 LP  0  0  0  0  0  0  0  0  0  0  0  0  # atno 17394 bound_to 11000
  141.1246  133.6603  156.3303 LP  0  0  0  0  0  0  0  0  0  0  0  0  # atno 17395 bound_to 11000

$$$$
