AV-unprocessed.smi:658|AV-procd|sdf|3235|dock6
  -GOLD-   22720 0183D 1   1.00000     0.00000
 Structure written by MMmdl.
 37 37  0  0  0  0  0  0  0  0  3 V2000
  144.0692  136.7914  151.9835 C   0  0  0  0  0  0  0  0  0  0  0  0
  145.3880  136.0581  151.6790 C   0  0  1  0  0  0  0  0  0  0  0  0
  146.5088  136.8198  152.2726 N   0  3  0  0  0  0  0  0  0  0  0  0
  146.4681  138.2761  152.0299 C   0  0  0  0  0  0  0  0  0  0  0  0
  147.0415  139.0486  153.2229 C   0  0  0  0  0  0  0  0  0  0  0  0
  147.2825  140.5331  152.9035 C   0  0  0  0  0  0  0  0  0  0  0  0
  148.0303  141.4286  154.3309 S   0  0  0  0  0  0  0  0  0  0  0  0
  147.4030  142.9007  154.1248 N   0  5  0  0  0  0  0  0  0  0  0  0
  147.5261  140.7684  155.5450 O   0  0  0  0  0  0  0  0  0  0  0  0
  149.4812  141.4125  154.0938 O   0  0  0  0  0  0  0  0  0  0  0  0
  145.4033  134.5927  152.1909 C   0  0  2  0  0  0  0  0  0  0  0  0
  146.8250  134.0809  152.4939 C   0  0  0  0  0  0  0  0  0  0  0  0
  144.7339  133.6852  151.2677 N   0  0  0  0  0  0  0  0  0  0  0  0
  145.0488  133.4169  149.9511 C   0  0  0  0  0  0  0  0  0  0  0  0
  144.1453  132.5013  149.4932 C   0  0  0  0  0  0  0  0  0  0  0  0
  143.3009  132.2693  150.6145 C   0  0  0  0  0  0  0  0  0  0  0  0
  143.6544  132.9790  151.6736 N   0  0  0  0  0  0  0  0  0  0  0  0
  143.2208  136.3261  151.4813 H   0  0  0  0  0  0  0  0  0  0  0  0
  144.1101  137.8267  151.6434 H   0  0  0  0  0  0  0  0  0  0  0  0
  143.8591  136.8003  153.0535 H   0  0  0  0  0  0  0  0  0  0  0  0
  145.5032  136.0451  150.5934 H   0  0  0  0  0  0  0  0  0  0  0  0
  146.5142  136.6647  153.2704 H   0  0  0  0  0  0  0  0  0  0  0  0
  147.0265  138.5209  151.1251 H   0  0  0  0  0  0  0  0  0  0  0  0
  145.4328  138.5737  151.8591 H   0  0  0  0  0  0  0  0  0  0  0  0
  146.3425  138.9746  154.0566 H   0  0  0  0  0  0  0  0  0  0  0  0
  147.9661  138.5767  153.5572 H   0  0  0  0  0  0  0  0  0  0  0  0
  147.9751  140.6321  152.0682 H   0  0  0  0  0  0  0  0  0  0  0  0
  146.3603  141.0438  152.6248 H   0  0  0  0  0  0  0  0  0  0  0  0
  148.0682  143.5877  154.4995 H   0  0  0  0  0  0  0  0  0  0  0  0
  144.8382  134.5585  153.1239 H   0  0  0  0  0  0  0  0  0  0  0  0
  147.2986  134.6576  153.2885 H   0  0  0  0  0  0  0  0  0  0  0  0
  147.4677  134.1391  151.6148 H   0  0  0  0  0  0  0  0  0  0  0  0
  146.8039  133.0404  152.8205 H   0  0  0  0  0  0  0  0  0  0  0  0
  145.8813  133.8923  149.4537 H   0  0  0  0  0  0  0  0  0  0  0  0
  144.0939  132.0643  148.5070 H   0  0  0  0  0  0  0  0  0  0  0  0
  142.4481  131.6110  150.6899 H   0  0  0  0  0  0  0  0  0  0  0  0
  147.3720  136.4610  151.8899 H   0  0  0  0  0  0  0  0  0  0  0  0
  1  2  1  0  0  0  0
  1 18  1  0  0  0  0
  1 19  1  0  0  0  0
  1 20  1  0  0  0  0
  2  3  1  0  0  0  0
  2 11  1  0  0  0  0
  2 21  1  0  0  0  0
  3  4  1  0  0  0  0
  3 22  1  0  0  0  0
  3 37  1  0  0  0  0
  4  5  1  0  0  0  0
  4 23  1  0  0  0  0
  4 24  1  0  0  0  0
  5  6  1  0  0  0  0
  5 25  1  0  0  0  0
  5 26  1  0  0  0  0
  6  7  1  0  0  0  0
  6 27  1  0  0  0  0
  6 28  1  0  0  0  0
  7  8  1  0  0  0  0
  7  9  2  0  0  0  0
  7 10  2  0  0  0  0
  8 29  1  0  0  0  0
 11 12  1  0  0  0  0
 11 13  1  0  0  0  0
 11 30  1  0  0  0  0
 12 31  1  0  0  0  0
 12 32  1  0  0  0  0
 12 33  1  0  0  0  0
 13 17  1  0  0  0  0
 13 14  1  0  0  0  0
 14 15  2  0  0  0  0
 14 34  1  0  0  0  0
 15 16  1  0  0  0  0
 15 35  1  0  0  0  0
 16 17  2  0  0  0  0
 16 36  1  0  0  0  0
M  CHG  1   3   1
M  CHG  1   8  -1
M  END
> <s_m_source_file>
AV-unprocessed.smi

> <i_m_source_file_index>
658

> <i_lp_mmshare_version>
43012

> <i_f3d_flags>
0

> <s_epik_input>
bjFbY0hdW2NIXVtjSF1uMVtDQEBIXShbQ0gzXSlbQ0BIXShbQ0gzXSlbTkhdW0NIMl1bQ0gyXVtDSDJdUyg9TykoPU8pW05IMl0=

> <s_epik_cmdline>
J2VwaWtfcHl0aG9uJywgJy1waCcsICc3LjAnLCAnLXRuJywgJzgnLCAnLW1hJywgJzIwMCcsICctbWV0YWxfYmluZGluZycsICctaW1hZScsICc8aW5maWxlLm1hZT4nLCAnLW9tYWUnLCAnPG91dGZpbGUubWFlPic=

> <r_lp_tautomer_probability>
1

> <r_epik_Ionization_Penalty>
4.63642

> <r_epik_Ionization_Penalty_Charging>
4.63641

> <r_epik_Ionization_Penalty_Neutral>
1.08396e-05

> <r_epik_State_Penalty>
4.63466

> <r_epik_Charging_Adjusted_Penalty>
9.27106

> <i_epik_Tot_Q>
0

> <i_epik_Tot_abs_Q>
2

> <r_epik_Metal_State_Penalty>
0.890424

> <b_epik_Metal_Only>
1

> <s_lp_Force_Field>
OPLS_2005

> <r_lp_Energy>
-2.21025

> <b_lp_Chiralities_Consistent>
1

> <s_lp_Variant>
AV-unprocessed.smi:658-6

> <Gold.Version>
5.8.1

> <Gold.Id.Protein>
6NUR|6NUR_protein|mol2

> <Gold.PLP.Fitness>
44.7629

> <Gold.PLP.PLP>
-30.1015

> <Gold.PLP.part.hbond>
-5.1187

> <Gold.PLP.part.metal>
0.0000

> <Gold.PLP.part.buried>
4.5490

> <Gold.PLP.part.nonpolar>
-28.4889

> <Gold.PLP.part.repulsive>
0.4921

> <Gold.PLP.ligand.clash>
0.0000

> <Gold.PLP.ligand.torsion>
1.4869

> <Gold.PLP.Chemscore.Hbond>
3.8444

> <Gold.PLP.Chemscore.CHOScore>
1.9722

> <Gold.PLP.Chemscore.Metal>
0.0000

> <Gold.Chemscore.Hbonds>
donor molecule, donor type, donor heavy atom, donor atom, acceptor molecule, acceptor atom, score
      L1  H     3    37       P1  7948  2.00
      L1  H     8    29       P1  8028  1.00
      P1  H  7989  7998       L1    10  0.12
      P1  H  8011  8017       L1    10  0.66
      L1  C    14    34       P1  7921  0.97
      L1  C    16    36       P1 10952  1.00

> <Gold.PLP.Chemscore.Internal.Correction>
0.1853

> <Gold.Rescore>
     Score         DG    S(hbond)    S(metal)    S(lipo)     H(rot)  DE(clash)    DE(int)     intcor
     13.21     -15.25       2.89        0.00      67.51       3.04       0.62       1.42       ----

> <Gold.Chemscore.Fitness>
13.2088

> <Gold.Chemscore.DG>
-15.2538

> <Gold.Chemscore.ZeroCoef>
-5.4800

> <Gold.Chemscore.Hbond>
2.8922

> <Gold.Chemscore.Metal>
0.0000

> <Gold.Chemscore.Lipo>
67.5109

> <Gold.Chemscore.Internal_Hbond>
0.0000

> <Gold.Chemscore.DEClash>
0.6219

> <Gold.Chemscore.DEInternal>
1.4231

> <Gold.Chemscore.Rot>
3.0409

> <Gold.Chemscore.Internal.Correction>
   9.000000E+99

> <Gold.Chemscore.Hbonds>
donor molecule, donor type, donor heavy atom, donor atom, acceptor molecule, acceptor atom, score
      L1  H     3    37       P1  7948  0.96
      L1  H     8    29       P1  8028  0.82
      P1  H  7989  7998       L1    10  0.12
      P1  H  8011  8017       L1    10  0.37

> <Gold.Chemscore.Hbond.Weighted>
-9.6598

> <Gold.Chemscore.Metal.Weighted>
-0.0000

> <Gold.Chemscore.Lipo.Weighted>
-7.8988

> <Gold.Chemscore.Internal_Hbond.Weighted>
0.0000

> <Gold.Chemscore.DEClash.Weighted>
0.6219

> <Gold.Chemscore.DEInternal.Weighted>
1.4231

> <Gold.Chemscore.Rot.Weighted>
7.7848

> <Gold.Chemscore.Internal.Correction.Weighted>
   9.000000E+99

> <Gold.Protein.RotatedTorsions>
[ 6907 6896 6895 6894 ] final   43.09 input  -60.11 | X-H torsion
[ 7974 7965 7964 7962 ] final  -11.67 input  175.53 | X-H torsion
[ 8008 7997 7996 7995 ] final -179.98 input   59.86 | X-H torsion
[ 10167 10162 10161 10158 ] final -127.83 input  -65.29 | X-H torsion
[ 10718 10713 10712 10709 ] final   48.14 input   66.30 | X-H torsion
[ 10763 10752 10751 10750 ] final -132.00 input  -60.55 | X-H torsion
[ 11005 11000 10999 10996 ] final  -79.98 input  -57.11 | X-H torsion

> <Gold.Protein.ActiveResidues>
 VAL166  LYS551  ARG553  GLY616  TRP617  ASP618  TYR619  PRO620  LYS621  CYS622 
 ASP623  PHE694  ASN695  SER759  ASP760  ASP761  ALA762  ILE779  LEU786  VAL792 
 PHE793  MET794  SER795  GLU796  ALA797  LYS798  CYS799  TRP800  GLU811  SER814 

> <Gold.Protein.RotatedAtoms>
  152.2160  134.8457  160.0491 H   0  0  0  0  0  0  0  0  0  0  0  0  # atno 6907 bound_to 6896
  151.9258  133.3592  159.3921 H   0  0  0  0  0  0  0  0  0  0  0  0  # atno 6908 bound_to 6896
  150.6988  134.4513  159.5381 H   0  0  0  0  0  0  0  0  0  0  0  0  # atno 6909 bound_to 6896
  146.2179  140.2944  142.8371 H   0  0  0  0  0  0  0  0  0  0  0  0  # atno 7974 bound_to 7965
  156.0367  140.1294  157.0200 H   0  0  0  0  0  0  0  0  0  0  0  0  # atno 8008 bound_to 7997
  154.4373  140.1038  156.6248 H   0  0  0  0  0  0  0  0  0  0  0  0  # atno 8009 bound_to 7997
  155.5727  140.3467  155.4521 H   0  0  0  0  0  0  0  0  0  0  0  0  # atno 8010 bound_to 7997
  139.9567  143.5995  152.2458 H   0  0  0  0  0  0  0  0  0  0  0  0  # atno 10167 bound_to 10162
  157.4657  130.8224  149.7933 H   0  0  0  0  0  0  0  0  0  0  0  0  # atno 10718 bound_to 10713
  154.8747  135.3812  154.4337 H   0  0  0  0  0  0  0  0  0  0  0  0  # atno 10763 bound_to 10752
  153.5029  135.7030  153.5827 H   0  0  0  0  0  0  0  0  0  0  0  0  # atno 10764 bound_to 10752
  153.4151  135.3915  155.2042 H   0  0  0  0  0  0  0  0  0  0  0  0  # atno 10765 bound_to 10752
  141.1668  133.7130  156.8204 H   0  0  0  0  0  0  0  0  0  0  0  0  # atno 11005 bound_to 11000
  144.9103  140.7749  143.5812 LP  0  0  0  0  0  0  0  0  0  0  0  0  # atno 17320 bound_to 7965
  145.2875  139.1896  143.4758 LP  0  0  0  0  0  0  0  0  0  0  0  0  # atno 17321 bound_to 7965
  139.6586  144.7662  151.2007 LP  0  0  0  0  0  0  0  0  0  0  0  0  # atno 17342 bound_to 10162
  140.7566  143.6046  150.8665 LP  0  0  0  0  0  0  0  0  0  0  0  0  # atno 17343 bound_to 10162
  156.0049  130.3861  150.2468 LP  0  0  0  0  0  0  0  0  0  0  0  0  # atno 17370 bound_to 10713
  157.0647  131.0100  151.3210 LP  0  0  0  0  0  0  0  0  0  0  0  0  # atno 17371 bound_to 10713
  140.2123  134.8818  157.3288 LP  0  0  0  0  0  0  0  0  0  0  0  0  # atno 17394 bound_to 11000
  140.2074  134.4181  155.7630 LP  0  0  0  0  0  0  0  0  0  0  0  0  # atno 17395 bound_to 11000

$$$$
