AV-unprocessed.smi:2146|AV-procd|sdf|8740|dock2
  -GOLD-   2272011513D 1   1.00000     0.00000
 Structure written by MMmdl.
 45 46  0  0  0  0  0  0  0  0  2 V2000
  151.0265  137.2898  155.9940 C   0  0  0  0  0  0  0  0  0  0  0  0
  150.3269  137.2053  154.6144 C   0  0  2  0  0  0  0  0  0  0  0  0
  149.4560  138.4657  154.3786 C   0  0  0  0  0  0  0  0  0  0  0  0
  150.1683  139.6978  154.6985 N   0  0  0  0  0  0  0  0  0  0  0  0
  149.8599  140.5101  155.7195 C   0  0  0  0  0  0  0  0  0  0  0  0
  148.9219  140.2936  156.4881 O   0  0  0  0  0  0  0  0  0  0  0  0
  150.7514  141.7510  155.8782 C   0  0  0  0  0  0  0  0  0  0  0  0
  151.3562  141.8810  157.2151 N   0  0  0  0  0  0  0  0  0  0  0  0
  151.1157  143.0816  157.9117 C   0  0  0  0  0  0  0  0  0  0  0  0
  151.6011  143.3241  159.1447 C   0  0  0  0  0  0  0  0  0  0  0  0
  151.3716  144.6524  159.8492 C   0  0  0  0  0  0  0  0  0  0  0  0
  151.9287  144.6550  161.0605 F   0  0  0  0  0  0  0  0  0  0  0  0
  151.8863  145.6646  159.1496 F   0  0  0  0  0  0  0  0  0  0  0  0
  150.0650  144.8695  159.9928 F   0  0  0  0  0  0  0  0  0  0  0  0
  152.4280  142.2858  159.7276 C   0  0  0  0  0  0  0  0  0  0  0  0
  152.6723  141.1339  159.0728 C   0  0  0  0  0  0  0  0  0  0  0  0
  152.1180  140.8759  157.7419 C   0  0  0  0  0  0  0  0  0  0  0  0
  152.3254  139.8232  157.1382 O   0  0  0  0  0  0  0  0  0  0  0  0
  149.5086  135.9589  154.4415 N   0  3  0  0  0  0  0  0  0  0  0  0
  150.2205  134.7345  154.9023 C   0  0  0  0  0  0  0  0  0  0  0  0
  149.3842  133.4716  154.6394 C   0  0  0  0  0  0  0  0  0  0  0  0
  148.1322  133.5882  155.2976 O   0  0  0  0  0  0  0  0  0  0  0  0
  147.3853  134.6872  154.7990 C   0  0  0  0  0  0  0  0  0  0  0  0
  148.1494  135.9988  155.0506 C   0  0  0  0  0  0  0  0  0  0  0  0
  151.5852  138.2178  156.1125 H   0  0  0  0  0  0  0  0  0  0  0  0
  151.7572  136.4929  156.1318 H   0  0  0  0  0  0  0  0  0  0  0  0
  150.3049  137.2384  156.8102 H   0  0  0  0  0  0  0  0  0  0  0  0
  151.1167  137.1872  153.8616 H   0  0  0  0  0  0  0  0  0  0  0  0
  149.1322  138.5376  153.3414 H   0  0  0  0  0  0  0  0  0  0  0  0
  148.5519  138.4126  154.9875 H   0  0  0  0  0  0  0  0  0  0  0  0
  150.9513  139.9451  154.1102 H   0  0  0  0  0  0  0  0  0  0  0  0
  151.5289  141.7262  155.1124 H   0  0  0  0  0  0  0  0  0  0  0  0
  150.1543  142.6341  155.6459 H   0  0  0  0  0  0  0  0  0  0  0  0
  150.5064  143.7964  157.3779 H   0  0  0  0  0  0  0  0  0  0  0  0
  152.8546  142.4312  160.7092 H   0  0  0  0  0  0  0  0  0  0  0  0
  153.2900  140.3807  159.5395 H   0  0  0  0  0  0  0  0  0  0  0  0
  151.1769  134.6170  154.3974 H   0  0  0  0  0  0  0  0  0  0  0  0
  150.4348  134.8170  155.9690 H   0  0  0  0  0  0  0  0  0  0  0  0
  149.2388  133.3136  153.5693 H   0  0  0  0  0  0  0  0  0  0  0  0
  149.9020  132.5925  155.0233 H   0  0  0  0  0  0  0  0  0  0  0  0
  147.1816  134.5524  153.7355 H   0  0  0  0  0  0  0  0  0  0  0  0
  146.4200  134.7139  155.3051 H   0  0  0  0  0  0  0  0  0  0  0  0
  148.2336  136.1835  156.1228 H   0  0  0  0  0  0  0  0  0  0  0  0
  147.5545  136.8055  154.6240 H   0  0  0  0  0  0  0  0  0  0  0  0
  149.3601  135.8547  153.4477 H   0  0  0  0  0  0  0  0  0  0  0  0
  1  2  1  0  0  0  0
  1 25  1  0  0  0  0
  1 26  1  0  0  0  0
  1 27  1  0  0  0  0
  2  3  1  0  0  0  0
  2 19  1  0  0  0  0
  2 28  1  0  0  0  0
  3  4  1  0  0  0  0
  3 29  1  0  0  0  0
  3 30  1  0  0  0  0
  4  5  1  0  0  0  0
  4 31  1  0  0  0  0
  5  6  2  0  0  0  0
  5  7  1  0  0  0  0
  7  8  1  0  0  0  0
  7 32  1  0  0  0  0
  7 33  1  0  0  0  0
  8 17  1  0  0  0  0
  8  9  1  0  0  0  0
  9 10  2  0  0  0  0
  9 34  1  0  0  0  0
 10 11  1  0  0  0  0
 10 15  1  0  0  0  0
 11 12  1  0  0  0  0
 11 13  1  0  0  0  0
 11 14  1  0  0  0  0
 15 16  2  0  0  0  0
 15 35  1  0  0  0  0
 16 17  1  0  0  0  0
 16 36  1  0  0  0  0
 17 18  2  0  0  0  0
 19 24  1  0  0  0  0
 19 20  1  0  0  0  0
 19 45  1  0  0  0  0
 20 21  1  0  0  0  0
 20 37  1  0  0  0  0
 20 38  1  0  0  0  0
 21 22  1  0  0  0  0
 21 39  1  0  0  0  0
 21 40  1  0  0  0  0
 22 23  1  0  0  0  0
 23 24  1  0  0  0  0
 23 41  1  0  0  0  0
 23 42  1  0  0  0  0
 24 43  1  0  0  0  0
 24 44  1  0  0  0  0
M  CHG  1  19   1
M  END
> <s_m_source_file>
AV-unprocessed.smi

> <i_m_source_file_index>
2146

> <i_lp_mmshare_version>
43012

> <i_f3d_flags>
0

> <s_epik_input>
W0NIMl0xW0NIMl1PW0NIMl1bQ0gyXU4xW0NASF0oW0NIM10pW0NIMl1bTkhdQyg9TylbQ0gyXW4yW2NIXWMoQyhGKShGKUYpW2NIXVtjSF1jMj1P

> <s_epik_cmdline>
J2VwaWtfcHl0aG9uJywgJy1waCcsICc3LjAnLCAnLXRuJywgJzgnLCAnLW1hJywgJzIwMCcsICctbWV0YWxfYmluZGluZycsICctaW1hZScsICc8aW5maWxlLm1hZT4nLCAnLW9tYWUnLCAnPG91dGZpbGUubWFlPic=

> <r_lp_tautomer_probability>
1

> <r_epik_Ionization_Penalty>
0.656654

> <r_epik_Ionization_Penalty_Charging>
0.656653

> <r_epik_Ionization_Penalty_Neutral>
9.12373e-08

> <r_epik_State_Penalty>
0.675641

> <r_epik_Charging_Adjusted_Penalty>
1.33229

> <i_epik_Tot_Q>
1

> <i_epik_Tot_abs_Q>
1

> <r_epik_Metal_State_Penalty>
0.675692

> <b_epik_Metal_Only>
0

> <s_lp_Force_Field>
OPLS_2005

> <r_lp_Energy>
33.6044

> <b_lp_Chiralities_Consistent>
1

> <s_lp_Variant>
AV-unprocessed.smi:2146-3

> <Gold.Version>
5.8.1

> <Gold.Id.Protein>
6NUR|6NUR_protein|mol2

> <Gold.PLP.Fitness>
54.6915

> <Gold.PLP.PLP>
-43.7529

> <Gold.PLP.part.hbond>
-2.1074

> <Gold.PLP.part.metal>
0.0000

> <Gold.PLP.part.buried>
-4.4799

> <Gold.PLP.part.nonpolar>
-36.1719

> <Gold.PLP.part.repulsive>
0.2017

> <Gold.PLP.ligand.clash>
0.0000

> <Gold.PLP.ligand.torsion>
0.4178

> <Gold.PLP.Chemscore.Hbond>
3.0000

> <Gold.PLP.Chemscore.CHOScore>
0.8597

> <Gold.PLP.Chemscore.Metal>
0.0000

> <Gold.Chemscore.Hbonds>
donor molecule, donor type, donor heavy atom, donor atom, acceptor molecule, acceptor atom, score
      L1  H    19    45       P1  7948  2.00
      P1  H  7997  8009       L1    18  0.76
      L1  C     9    34       P1  8028  1.00

> <Gold.PLP.Chemscore.Internal.Correction>
0.1950

> <Gold.Rescore>
     Score         DG    S(hbond)    S(metal)    S(lipo)     H(rot)  DE(clash)    DE(int)     intcor
     14.79     -16.44       1.68        0.00      93.45       2.18       0.16       1.49       ----

> <Gold.Chemscore.Fitness>
14.7949

> <Gold.Chemscore.DG>
-16.4410

> <Gold.Chemscore.ZeroCoef>
-5.4800

> <Gold.Chemscore.Hbond>
1.6794

> <Gold.Chemscore.Metal>
0.0000

> <Gold.Chemscore.Lipo>
93.4527

> <Gold.Chemscore.Internal_Hbond>
0.0000

> <Gold.Chemscore.DEClash>
0.1552

> <Gold.Chemscore.DEInternal>
1.4910

> <Gold.Chemscore.Rot>
2.1805

> <Gold.Chemscore.Internal.Correction>
   9.000000E+99

> <Gold.Chemscore.Hbonds>
donor molecule, donor type, donor heavy atom, donor atom, acceptor molecule, acceptor atom, score
      L1  H    19    45       P1  7948  0.50
      P1  H  7997  8009       L1    18  0.19

> <Gold.Chemscore.Hbond.Weighted>
-5.6093

> <Gold.Chemscore.Metal.Weighted>
-0.0000

> <Gold.Chemscore.Lipo.Weighted>
-10.9340

> <Gold.Chemscore.Internal_Hbond.Weighted>
0.0000

> <Gold.Chemscore.DEClash.Weighted>
0.1552

> <Gold.Chemscore.DEInternal.Weighted>
1.4910

> <Gold.Chemscore.Rot.Weighted>
5.5822

> <Gold.Chemscore.Internal.Correction.Weighted>
   9.000000E+99

> <Gold.Protein.RotatedTorsions>
[ 6907 6896 6895 6894 ] final  154.36 input  -60.11 | X-H torsion
[ 7974 7965 7964 7962 ] final -171.03 input  175.53 | X-H torsion
[ 8008 7997 7996 7995 ] final -174.18 input   59.86 | X-H torsion
[ 10167 10162 10161 10158 ] final   74.30 input  -65.29 | X-H torsion
[ 10718 10713 10712 10709 ] final  -19.58 input   66.30 | X-H torsion
[ 10763 10752 10751 10750 ] final   39.28 input  -60.55 | X-H torsion
[ 11005 11000 10999 10996 ] final  134.56 input  -57.11 | X-H torsion

> <Gold.Protein.ActiveResidues>
 VAL166  LYS551  ARG553  GLY616  TRP617  ASP618  TYR619  PRO620  LYS621  CYS622 
 ASP623  PHE694  ASN695  SER759  ASP760  ASP761  ALA762  ILE779  LEU786  VAL792 
 PHE793  MET794  SER795  GLU796  ALA797  LYS798  CYS799  TRP800  GLU811  SER814 

> <Gold.Protein.RotatedAtoms>
  152.0595  133.4055  159.4411 H   0  0  0  0  0  0  0  0  0  0  0  0  # atno 6907 bound_to 6896
  150.6867  134.3216  159.4798 H   0  0  0  0  0  0  0  0  0  0  0  0  # atno 6908 bound_to 6896
  152.1035  134.9324  160.0619 H   0  0  0  0  0  0  0  0  0  0  0  0  # atno 6909 bound_to 6896
  144.7162  140.1983  143.6341 H   0  0  0  0  0  0  0  0  0  0  0  0  # atno 7974 bound_to 7965
  155.9669  140.1155  157.0847 H   0  0  0  0  0  0  0  0  0  0  0  0  # atno 8008 bound_to 7997
  154.4146  140.1171  156.5320 H   0  0  0  0  0  0  0  0  0  0  0  0  # atno 8009 bound_to 7997
  155.6648  140.3473  155.4798 H   0  0  0  0  0  0  0  0  0  0  0  0  # atno 8010 bound_to 7997
  140.0151  144.5584  150.7626 H   0  0  0  0  0  0  0  0  0  0  0  0  # atno 10167 bound_to 10162
  156.5438  130.4684  149.6486 H   0  0  0  0  0  0  0  0  0  0  0  0  # atno 10718 bound_to 10713
  152.9972  135.6225  154.2439 H   0  0  0  0  0  0  0  0  0  0  0  0  # atno 10763 bound_to 10752
  154.2179  135.2797  155.2937 H   0  0  0  0  0  0  0  0  0  0  0  0  # atno 10764 bound_to 10752
  154.5553  135.5721  153.7017 H   0  0  0  0  0  0  0  0  0  0  0  0  # atno 10765 bound_to 10752
  139.9923  134.9510  156.9884 H   0  0  0  0  0  0  0  0  0  0  0  0  # atno 11005 bound_to 11000
  145.8704  139.2269  143.1664 LP  0  0  0  0  0  0  0  0  0  0  0  0  # atno 17320 bound_to 7965
  146.0090  140.8452  142.9980 LP  0  0  0  0  0  0  0  0  0  0  0  0  # atno 17321 bound_to 7965
  140.7365  143.2754  151.3758 LP  0  0  0  0  0  0  0  0  0  0  0  0  # atno 17342 bound_to 10162
  139.6178  144.0968  152.2362 LP  0  0  0  0  0  0  0  0  0  0  0  0  # atno 17343 bound_to 10162
  156.2947  130.7144  151.2001 LP  0  0  0  0  0  0  0  0  0  0  0  0  # atno 17370 bound_to 10713
  157.7400  131.0522  150.5192 LP  0  0  0  0  0  0  0  0  0  0  0  0  # atno 17371 bound_to 10713
  140.4885  134.1217  155.7228 LP  0  0  0  0  0  0  0  0  0  0  0  0  # atno 17394 bound_to 11000
  141.1576  133.8853  157.1936 LP  0  0  0  0  0  0  0  0  0  0  0  0  # atno 17395 bound_to 11000

$$$$
