AV-unprocessed.smi:1155|AV-procd|sdf|4904|dock2
  -GOLD-   22720 3483D 1   1.00000     0.00000
 Structure written by MMmdl.
 38 40  0  0  0  0  0  0  0  0  1 V2000
  152.1815  144.6139  160.7327 C   0  0  0  0  0  0  0  0  0  0  0  0
  151.9650  143.4926  159.8147 N   0  0  0  0  0  0  0  0  0  0  0  0
  150.9315  143.6111  158.8650 C   0  0  0  0  0  0  0  0  0  0  0  0
  150.6517  142.6319  157.9768 C   0  0  0  0  0  0  0  0  0  0  0  0
  149.6512  142.6864  156.9948 N   0  0  0  0  0  0  0  0  0  0  0  0
  148.8936  141.6917  156.4958 C   0  0  0  0  0  0  0  0  0  0  0  0
  148.9852  140.5004  156.7910 O   0  0  0  0  0  0  0  0  0  0  0  0
  148.0138  142.1674  155.6007 N   0  0  0  0  0  0  0  0  0  0  0  0
  147.0438  141.3919  154.8294 C   0  0  0  0  0  0  0  0  0  0  0  0
  147.6440  140.6611  153.6371 C   0  0  0  0  0  0  0  0  0  0  0  0
  146.9406  139.4838  153.0050 C   0  0  0  0  0  0  0  0  0  0  0  0
  148.2221  139.2741  153.7805 C   0  0  0  0  0  0  0  0  0  0  0  0
  145.8148  142.1879  154.4165 C   0  0  0  0  0  0  0  0  0  0  0  0
  145.9455  143.5024  153.6865 C   0  0  0  0  0  0  0  0  0  0  0  0
  145.4445  143.4757  155.1133 C   0  0  0  0  0  0  0  0  0  0  0  0
  151.4759  141.4432  158.0327 C   0  0  0  0  0  0  0  0  0  0  0  0
  152.4694  141.3240  158.9346 C   0  0  0  0  0  0  0  0  0  0  0  0
  152.7628  142.3888  159.8965 C   0  0  0  0  0  0  0  0  0  0  0  0
  153.6699  142.2952  160.7238 O   0  0  0  0  0  0  0  0  0  0  0  0
  151.4438  145.4080  160.6129 H   0  0  0  0  0  0  0  0  0  0  0  0
  153.1661  145.0547  160.5696 H   0  0  0  0  0  0  0  0  0  0  0  0
  152.1269  144.2790  161.7695 H   0  0  0  0  0  0  0  0  0  0  0  0
  150.4088  144.5530  158.9131 H   0  0  0  0  0  0  0  0  0  0  0  0
  149.4869  143.6057  156.6116 H   0  0  0  0  0  0  0  0  0  0  0  0
  148.0212  143.1619  155.4277 H   0  0  0  0  0  0  0  0  0  0  0  0
  146.7000  140.6245  155.5245 H   0  0  0  0  0  0  0  0  0  0  0  0
  148.1616  141.3161  152.9387 H   0  0  0  0  0  0  0  0  0  0  0  0
  146.0171  139.1346  153.4621 H   0  0  0  0  0  0  0  0  0  0  0  0
  146.9871  139.3954  151.9214 H   0  0  0  0  0  0  0  0  0  0  0  0
  149.1225  139.0455  153.2139 H   0  0  0  0  0  0  0  0  0  0  0  0
  148.1469  138.7907  154.7523 H   0  0  0  0  0  0  0  0  0  0  0  0
  144.9741  141.5663  154.1141 H   0  0  0  0  0  0  0  0  0  0  0  0
  146.9480  143.8884  153.5127 H   0  0  0  0  0  0  0  0  0  0  0  0
  145.2219  143.7126  152.9016 H   0  0  0  0  0  0  0  0  0  0  0  0
  144.3869  143.6706  155.2793 H   0  0  0  0  0  0  0  0  0  0  0  0
  146.1146  143.8504  155.8846 H   0  0  0  0  0  0  0  0  0  0  0  0
  151.2925  140.6327  157.3425 H   0  0  0  0  0  0  0  0  0  0  0  0
  153.0643  140.4227  158.9510 H   0  0  0  0  0  0  0  0  0  0  0  0
  1  2  1  0  0  0  0
  1 20  1  0  0  0  0
  1 21  1  0  0  0  0
  1 22  1  0  0  0  0
  2 18  1  0  0  0  0
  2  3  1  0  0  0  0
  3  4  2  0  0  0  0
  3 23  1  0  0  0  0
  4  5  1  0  0  0  0
  4 16  1  0  0  0  0
  5  6  1  0  0  0  0
  5 24  1  0  0  0  0
  6  7  2  0  0  0  0
  6  8  1  0  0  0  0
  8  9  1  0  0  0  0
  8 25  1  0  0  0  0
  9 10  1  0  0  0  0
  9 13  1  0  0  0  0
  9 26  1  0  0  0  0
 10 12  1  0  0  0  0
 10 11  1  0  0  0  0
 10 27  1  0  0  0  0
 11 12  1  0  0  0  0
 11 28  1  0  0  0  0
 11 29  1  0  0  0  0
 12 30  1  0  0  0  0
 12 31  1  0  0  0  0
 13 15  1  0  0  0  0
 13 14  1  0  0  0  0
 13 32  1  0  0  0  0
 14 15  1  0  0  0  0
 14 33  1  0  0  0  0
 14 34  1  0  0  0  0
 15 35  1  0  0  0  0
 15 36  1  0  0  0  0
 16 17  2  0  0  0  0
 16 37  1  0  0  0  0
 17 18  1  0  0  0  0
 17 38  1  0  0  0  0
 18 19  2  0  0  0  0
M  END
> <s_m_source_file>
AV-unprocessed.smi

> <i_m_source_file_index>
1155

> <i_lp_mmshare_version>
43012

> <i_f3d_flags>
0

> <s_epik_input>
Tz1jMVtjSF1bY0hdYyhbY0hdbjFbQ0gzXSlbTkhdQyg9TylbTkhdW0NIXShbQ0hdMltDSDJdW0NIMl0yKVtDSF0zW0NIMl1bQ0gyXTM=

> <s_epik_cmdline>
J2VwaWtfcHl0aG9uJywgJy1waCcsICc3LjAnLCAnLXRuJywgJzgnLCAnLW1hJywgJzIwMCcsICctbWV0YWxfYmluZGluZycsICctaW1hZScsICc8aW5maWxlLm1hZT4nLCAnLW9tYWUnLCAnPG91dGZpbGUubWFlPic=

> <r_lp_tautomer_probability>
1

> <r_epik_Ionization_Penalty>
2.79104e-05

> <r_epik_Ionization_Penalty_Charging>
6.05378e-06

> <r_epik_Ionization_Penalty_Neutral>
2.18566e-05

> <r_epik_State_Penalty>
-0

> <r_epik_Charging_Adjusted_Penalty>
6.05378e-06

> <i_epik_Tot_Q>
0

> <i_epik_Tot_abs_Q>
0

> <r_epik_Metal_State_Penalty>
-0

> <b_epik_Metal_Only>
0

> <s_lp_Force_Field>
OPLS_2005

> <r_lp_Energy>
36.9075

> <b_lp_Chiralities_Consistent>
1

> <s_lp_Variant>
AV-unprocessed.smi:1155-1

> <Gold.Version>
5.8.1

> <Gold.Id.Protein>
6NUR|6NUR_protein|mol2

> <Gold.PLP.Fitness>
43.1539

> <Gold.PLP.PLP>
-38.3866

> <Gold.PLP.part.hbond>
-2.0000

> <Gold.PLP.part.metal>
0.0000

> <Gold.PLP.part.buried>
-3.4544

> <Gold.PLP.part.nonpolar>
-32.5206

> <Gold.PLP.part.repulsive>
0.1133

> <Gold.PLP.ligand.clash>
0.0000

> <Gold.PLP.ligand.torsion>
1.6673

> <Gold.PLP.Chemscore.Hbond>
1.9760

> <Gold.PLP.Chemscore.CHOScore>
0.0000

> <Gold.PLP.Chemscore.Metal>
0.0000

> <Gold.Chemscore.Hbonds>
donor molecule, donor type, donor heavy atom, donor atom, acceptor molecule, acceptor atom, score
      L1  H     5    24       P1  8028  1.00
      L1  H     8    25       P1  8028  0.98

> <Gold.PLP.Chemscore.Internal.Correction>
2.1738

> <Gold.Rescore>
     Score         DG    S(hbond)    S(metal)    S(lipo)     H(rot)  DE(clash)    DE(int)     intcor
     15.32     -18.42       1.81        0.00      88.53       1.35       0.26       2.85       ----

> <Gold.Chemscore.Fitness>
15.3168

> <Gold.Chemscore.DG>
-18.4223

> <Gold.Chemscore.ZeroCoef>
-5.4800

> <Gold.Chemscore.Hbond>
1.8086

> <Gold.Chemscore.Metal>
0.0000

> <Gold.Chemscore.Lipo>
88.5253

> <Gold.Chemscore.Internal_Hbond>
0.0000

> <Gold.Chemscore.DEClash>
0.2589

> <Gold.Chemscore.DEInternal>
2.8467

> <Gold.Chemscore.Rot>
1.3500

> <Gold.Chemscore.Internal.Correction>
   9.000000E+99

> <Gold.Chemscore.Hbonds>
donor molecule, donor type, donor heavy atom, donor atom, acceptor molecule, acceptor atom, score
      L1  H     5    24       P1  8028  0.96
      L1  H     8    25       P1  8028  0.72

> <Gold.Chemscore.Hbond.Weighted>
-6.0409

> <Gold.Chemscore.Metal.Weighted>
-0.0000

> <Gold.Chemscore.Lipo.Weighted>
-10.3575

> <Gold.Chemscore.Internal_Hbond.Weighted>
0.0000

> <Gold.Chemscore.DEClash.Weighted>
0.2589

> <Gold.Chemscore.DEInternal.Weighted>
2.8467

> <Gold.Chemscore.Rot.Weighted>
3.4560

> <Gold.Chemscore.Internal.Correction.Weighted>
   9.000000E+99

> <Gold.Protein.RotatedTorsions>
[ 6907 6896 6895 6894 ] final  121.09 input  -60.11 | X-H torsion
[ 7974 7965 7964 7962 ] final  129.82 input  175.53 | X-H torsion
[ 8008 7997 7996 7995 ] final  158.81 input   59.86 | X-H torsion
[ 10167 10162 10161 10158 ] final -119.05 input  -65.29 | X-H torsion
[ 10718 10713 10712 10709 ] final -171.53 input   66.30 | X-H torsion
[ 10763 10752 10751 10750 ] final  -77.33 input  -60.55 | X-H torsion
[ 11005 11000 10999 10996 ] final -134.83 input  -57.11 | X-H torsion

> <Gold.Protein.ActiveResidues>
 VAL166  LYS551  ARG553  GLY616  TRP617  ASP618  TYR619  PRO620  LYS621  CYS622 
 ASP623  PHE694  ASN695  SER759  ASP760  ASP761  ALA762  ILE779  LEU786  VAL792 
 PHE793  MET794  SER795  GLU796  ALA797  LYS798  CYS799  TRP800  GLU811  SER814 

> <Gold.Protein.RotatedAtoms>
  152.4348  133.7342  159.6603 H   0  0  0  0  0  0  0  0  0  0  0  0  # atno 6907 bound_to 6896
  150.8231  133.8208  159.3136 H   0  0  0  0  0  0  0  0  0  0  0  0  # atno 6908 bound_to 6896
  151.5884  135.1057  160.0085 H   0  0  0  0  0  0  0  0  0  0  0  0  # atno 6909 bound_to 6896
  145.0246  139.4101  143.5180 H   0  0  0  0  0  0  0  0  0  0  0  0  # atno 7974 bound_to 7965
  156.2279  140.1848  156.7317 H   0  0  0  0  0  0  0  0  0  0  0  0  # atno 8008 bound_to 7997
  154.5972  140.0641  156.9347 H   0  0  0  0  0  0  0  0  0  0  0  0  # atno 8009 bound_to 7997
  155.2236  140.3309  155.4315 H   0  0  0  0  0  0  0  0  0  0  0  0  # atno 8010 bound_to 7997
  140.0509  143.5061  152.2082 H   0  0  0  0  0  0  0  0  0  0  0  0  # atno 10167 bound_to 10162
  156.7422  130.9346  151.3110 H   0  0  0  0  0  0  0  0  0  0  0  0  # atno 10718 bound_to 10713
  154.5115  135.5767  153.6608 H   0  0  0  0  0  0  0  0  0  0  0  0  # atno 10763 bound_to 10752
  152.9898  135.6160  154.2873 H   0  0  0  0  0  0  0  0  0  0  0  0  # atno 10764 bound_to 10752
  154.2788  135.2851  155.2686 H   0  0  0  0  0  0  0  0  0  0  0  0  # atno 10765 bound_to 10752
  140.8954  134.1758  157.4498 H   0  0  0  0  0  0  0  0  0  0  0  0  # atno 11005 bound_to 11000
  146.3490  139.9762  142.8701 LP  0  0  0  0  0  0  0  0  0  0  0  0  # atno 17320 bound_to 7965
  145.1851  140.9785  143.4243 LP  0  0  0  0  0  0  0  0  0  0  0  0  # atno 17321 bound_to 7965
  139.5954  144.7565  151.3300 LP  0  0  0  0  0  0  0  0  0  0  0  0  # atno 17342 bound_to 10162
  140.7217  143.7117  150.7764 LP  0  0  0  0  0  0  0  0  0  0  0  0  # atno 17343 bound_to 10162
  157.6813  130.9143  150.0275 LP  0  0  0  0  0  0  0  0  0  0  0  0  # atno 17370 bound_to 10713
  156.1457  130.3642  149.9514 LP  0  0  0  0  0  0  0  0  0  0  0  0  # atno 17371 bound_to 10713
  139.8735  134.9876  156.5376 LP  0  0  0  0  0  0  0  0  0  0  0  0  # atno 17394 bound_to 11000
  140.8295  133.8290  155.8971 LP  0  0  0  0  0  0  0  0  0  0  0  0  # atno 17395 bound_to 11000

$$$$
