#       Name:                AV-unprocessed.smi:2410
#       Creating user name   scv26
#       Creation time:       Fri Mar 27 13:15:53 2020


#       File generated by GOLD software.
#

@<TRIPOS>MOLECULE
AV-unprocessed.smi:2410
    52    54     1
SMALL
NO_CHARGES


@<TRIPOS>ATOM
      1 ****        -2.4483   4.9896  -2.1661 C.3            1 S1                 0.0000
      2 ****        -2.4652   3.6882  -1.3838 C.ar           1 S1                 0.0000
      3 ****        -3.2267   3.6106  -0.1957 C.ar           1 S1                 0.0000
      4 ****        -3.2666   2.4199   0.5625 C.ar           1 S1                 0.0000
      5 ****        -3.9340   2.1241   1.7391 N.2            1 S1                 0.0000
      6 ****        -3.5734   0.8597   1.9410 C.2            1 S1                 0.0000
      7 ****        -2.7499   0.3015   1.0331 N.pl3          1 S1                 0.0000
      8 ****        -2.2229  -1.0508   1.0330 C.3            1 S1                 0.0000
      9 ****        -0.7371  -1.0987   1.4382 C.3            1 S1                 0.0000
     10 ****        -0.6272  -0.6597   2.7786 O.3            1 S1                 0.0000
     11 ****        -0.1587  -2.5263   1.3315 C.3            1 S1                 0.0000
     12 ****         1.2983  -2.5176   1.1208 N.am           1 S1                 0.0000
     13 ****         2.0927  -2.7543   2.2542 C.2            1 S1                 0.0000
     14 ****         3.3835  -2.7809   2.1851 N.2            1 S1                 0.0000
     15 ****         4.0212  -2.5621   0.9605 C.2            1 S1                 0.0000
     16 ****         5.5381  -2.6211   0.9912 C.3            1 S1                 0.0000
     17 ****         3.3093  -2.3115  -0.1723 C.2            1 S1                 0.0000
     18 ****         3.9486  -2.0589  -1.5320 C.3            1 S1                 0.0000
     19 ****         1.8392  -2.2764  -0.1087 C.2            1 S1                 0.0000
     20 ****         1.1320  -2.0456  -1.0919 O.2            1 S1                 0.0000
     21 ****        -2.5189   1.3004   0.0946 C.ar           1 S1                 0.0000
     22 ****        -1.7587   1.3643  -1.0865 C.ar           1 S1                 0.0000
     23 ****        -1.7279   2.5621  -1.8307 C.ar           1 S1                 0.0000
     24 ****        -0.9001   2.6229  -3.1022 C.3            1 S1                 0.0000
     25 ****        -3.1054   5.7338  -1.7154 H              1 S1                 0.0000
     26 ****        -2.7843   4.8257  -3.1902 H              1 S1                 0.0000
     27 ****        -1.4405   5.4045  -2.1937 H              1 S1                 0.0000
     28 ****        -3.7876   4.4682   0.1454 H              1 S1                 0.0000
     29 ****        -3.9271   0.3077   2.7995 H              1 S1                 0.0000
     30 ****        -2.8268  -1.6684   1.6997 H              1 S1                 0.0000
     31 ****        -2.3517  -1.4565   0.0289 H              1 S1                 0.0000
     32 ****        -0.1762  -0.4136   0.8013 H              1 S1                 0.0000
     33 ****        -1.1405  -1.2333   3.3267 H              1 S1                 0.0000
     34 ****        -0.4512  -3.1263   2.1959 H              1 S1                 0.0000
     35 ****        -0.6166  -3.0417   0.4851 H              1 S1                 0.0000
     36 ****         1.5472  -2.9097   3.1867 H              1 S1                 0.0000
     37 ****         5.9040  -3.4025   0.3246 H              1 S1                 0.0000
     38 ****         5.9072  -2.8394   1.9942 H              1 S1                 0.0000
     39 ****         5.9644  -1.6671   0.6793 H              1 S1                 0.0000
     40 ****         3.6724  -1.0699  -1.8991 H              1 S1                 0.0000
     41 ****         3.6000  -2.7974  -2.2546 H              1 S1                 0.0000
     42 ****         5.0358  -2.1088  -1.5115 H              1 S1                 0.0000
     43 ****        -1.2012   0.4989  -1.4139 H              1 S1                 0.0000
     44 ****        -0.3838   1.6804  -3.2865 H              1 S1                 0.0000
     45 ****        -0.1469   3.4079  -3.0310 H              1 S1                 0.0000
     46 ****        -1.5364   2.8290  -3.9630 H              1 S1                 0.0000
     47 ****        -4.5299   2.7071   2.2913 LP             1 S1                 0.0000
     48 ****        -0.9706   0.2763   2.8557 LP             1 S1                 0.0000
     49 ****         0.3305  -0.6881   3.0649 LP             1 S1                 0.0000
     50 ****         3.9251  -2.9578   3.0068 LP             1 S1                 0.0000
     51 ****         0.1363  -2.0320  -0.9996 LP             1 S1                 0.0000
     52 ****         1.5540  -1.8721  -1.9818 LP             1 S1                 0.0000
@<TRIPOS>BOND
    1    1    2 1     
    2    1   25 1     
    3    1   26 1     
    4    1   27 1     
    5    2   23 ar    
    6    2    3 ar    
    7    3    4 ar    
    8    3   28 1     
    9    4   21 ar    
   10    4    5 1     
   11    5    6 2     
   12    6    7 1     
   13    6   29 1     
   14    7    8 1     
   15    7   21 1     
   16    8    9 1     
   17    8   30 1     
   18    8   31 1     
   19    9   10 1     
   20    9   11 1     
   21    9   32 1     
   22   10   33 1     
   23   11   12 1     
   24   11   34 1     
   25   11   35 1     
   26   12   19 am    
   27   12   13 1     
   28   13   14 2     
   29   13   36 1     
   30   14   15 1     
   31   15   16 1     
   32   15   17 2     
   33   16   37 1     
   34   16   38 1     
   35   16   39 1     
   36   17   18 1     
   37   17   19 1     
   38   18   40 1     
   39   18   41 1     
   40   18   42 1     
   41   19   20 2     
   42   21   22 ar    
   43   22   23 ar    
   44   22   43 1     
   45   23   24 1     
   46   24   44 1     
   47   24   45 1     
   48   24   46 1     
   49    5   47 1     
   50   10   48 1     
   51   10   49 1     
   52   14   50 1     
   53   20   51 1     
   54   20   52 1     
@<TRIPOS>SUBSTRUCTURE
      1 S1             1
@<TRIPOS>SET
LONE_PAIRS      STATIC     ATOMS    <user>   **** ""
6 47 48 49 50 51 52
DONOR_HYDROGENS      STATIC     ATOMS    <user>   **** ""
1 33
ATOM$BLUE        STATIC     ATOMS    COLORGROUP SYSTEM
6 47 48 49 50 51 52
ATOM$RED        STATIC     ATOMS    COLORGROUP SYSTEM
1 33
