AV-unprocessed.smi:2063|AV-procd|sdf|8409|dock7
  -GOLD-   2272011103D 1   1.00000     0.00000
 Structure written by MMmdl.
 39 40  0  0  0  0  0  0  0  0  1 V2000
  143.1129  134.9324  153.0576 C   0  0  0  0  0  0  0  0  0  0  0  0
  143.8425  134.8345  151.7100 C   0  0  0  0  0  0  0  0  0  0  0  0
  144.4033  133.4294  151.4475 C   0  0  0  0  0  0  0  0  0  0  0  0
  144.8945  135.8908  151.5652 C   0  0  0  0  0  0  0  0  0  0  0  0
  145.6555  136.0034  150.4689 N   0  0  0  0  0  0  0  0  0  0  0  0
  146.5635  137.0489  150.5599 N   0  0  0  0  0  0  0  0  0  0  0  0
  146.4626  137.6989  151.7272 C   0  0  0  0  0  0  0  0  0  0  0  0
  147.2705  138.8107  152.0843 N   0  0  0  0  0  0  0  0  0  0  0  0
  147.2995  139.4808  153.2498 C   0  0  0  0  0  0  0  0  0  0  0  0
  146.5953  139.2350  154.2294 O   0  0  0  0  0  0  0  0  0  0  0  0
  148.2036  140.4709  153.2146 N   0  0  0  0  0  0  0  0  0  0  0  0
  148.4864  141.4063  154.3012 C   0  0  1  0  0  0  0  0  0  0  0  0
  147.1525  141.8528  154.9194 C   0  0  0  0  0  0  0  0  0  0  0  0
  149.4169  140.7403  155.3357 C   0  0  2  0  0  0  0  0  0  0  0  0
  150.0042  141.6933  156.3768 C   0  0  0  0  0  0  0  0  0  0  0  0
  151.2618  140.9779  156.8417 C   0  0  0  0  0  0  0  0  0  0  0  0
  151.5362  139.9533  155.7371 C   0  0  0  0  0  0  0  0  0  0  0  0
  150.5912  140.2391  154.7150 O   0  0  0  0  0  0  0  0  0  0  0  0
  145.2358  137.0814  152.8195 S   0  0  0  0  0  0  0  0  0  0  0  0
  142.6652  135.9178  153.1899 H   0  0  0  0  0  0  0  0  0  0  0  0
  143.7922  134.7599  153.8929 H   0  0  0  0  0  0  0  0  0  0  0  0
  142.3124  134.1954  153.1245 H   0  0  0  0  0  0  0  0  0  0  0  0
  143.0955  135.0213  150.9367 H   0  0  0  0  0  0  0  0  0  0  0  0
  144.8567  133.3673  150.4578 H   0  0  0  0  0  0  0  0  0  0  0  0
  143.6154  132.6771  151.4967 H   0  0  0  0  0  0  0  0  0  0  0  0
  145.1644  133.1600  152.1803 H   0  0  0  0  0  0  0  0  0  0  0  0
  147.9015  139.1349  151.3665 H   0  0  0  0  0  0  0  0  0  0  0  0
  148.7321  140.5973  152.3642 H   0  0  0  0  0  0  0  0  0  0  0  0
  148.9803  142.2953  153.9048 H   0  0  0  0  0  0  0  0  0  0  0  0
  147.3050  142.6003  155.6980 H   0  0  0  0  0  0  0  0  0  0  0  0
  146.6195  141.0121  155.3648 H   0  0  0  0  0  0  0  0  0  0  0  0
  146.5018  142.2989  154.1664 H   0  0  0  0  0  0  0  0  0  0  0  0
  148.9042  139.9160  155.8358 H   0  0  0  0  0  0  0  0  0  0  0  0
  150.2756  142.6407  155.9090 H   0  0  0  0  0  0  0  0  0  0  0  0
  149.3142  141.9056  157.1937 H   0  0  0  0  0  0  0  0  0  0  0  0
  152.0896  141.6766  156.9668 H   0  0  0  0  0  0  0  0  0  0  0  0
  151.0998  140.4741  157.7951 H   0  0  0  0  0  0  0  0  0  0  0  0
  152.5544  140.0157  155.3527 H   0  0  0  0  0  0  0  0  0  0  0  0
  151.3727  138.9396  156.1055 H   0  0  0  0  0  0  0  0  0  0  0  0
  1  2  1  0  0  0  0
  1 20  1  0  0  0  0
  1 21  1  0  0  0  0
  1 22  1  0  0  0  0
  2  3  1  0  0  0  0
  2  4  1  0  0  0  0
  2 23  1  0  0  0  0
  3 24  1  0  0  0  0
  3 25  1  0  0  0  0
  3 26  1  0  0  0  0
  4 19  1  0  0  0  0
  4  5  2  0  0  0  0
  5  6  1  0  0  0  0
  6  7  2  0  0  0  0
  7  8  1  0  0  0  0
  7 19  1  0  0  0  0
  8  9  1  0  0  0  0
  8 27  1  0  0  0  0
  9 10  2  0  0  0  0
  9 11  1  0  0  0  0
 11 12  1  0  0  0  0
 11 28  1  0  0  0  0
 12 13  1  0  0  0  0
 12 14  1  0  0  0  0
 12 29  1  0  0  0  0
 13 30  1  0  0  0  0
 13 31  1  0  0  0  0
 13 32  1  0  0  0  0
 14 18  1  0  0  0  0
 14 15  1  0  0  0  0
 14 33  1  0  0  0  0
 15 16  1  0  0  0  0
 15 34  1  0  0  0  0
 15 35  1  0  0  0  0
 16 17  1  0  0  0  0
 16 36  1  0  0  0  0
 16 37  1  0  0  0  0
 17 18  1  0  0  0  0
 17 38  1  0  0  0  0
 17 39  1  0  0  0  0
M  END
> <s_m_source_file>
AV-unprocessed.smi

> <i_m_source_file_index>
2063

> <i_lp_mmshare_version>
43012

> <i_f3d_flags>
0

> <s_epik_input>
W0NIM11bQ0hdKFtDSDNdKWMxbm5jKHMxKVtOSF1DKD1PKVtOSF1bQ0BIXShbQ0gzXSlbQ0BASF0yW0NIMl1bQ0gyXVtDSDJdTzI=

> <s_epik_cmdline>
J2VwaWtfcHl0aG9uJywgJy1waCcsICc3LjAnLCAnLXRuJywgJzgnLCAnLW1hJywgJzIwMCcsICctbWV0YWxfYmluZGluZycsICctaW1hZScsICc8aW5maWxlLm1hZT4nLCAnLW9tYWUnLCAnPG91dGZpbGUubWFlPic=

> <r_lp_tautomer_probability>
1

> <r_epik_Ionization_Penalty>
0.00050567

> <r_epik_Ionization_Penalty_Charging>
0

> <r_epik_Ionization_Penalty_Neutral>
0.00050567

> <r_epik_State_Penalty>
-0

> <r_epik_Charging_Adjusted_Penalty>
0

> <i_epik_Tot_Q>
0

> <i_epik_Tot_abs_Q>
0

> <r_epik_Metal_State_Penalty>
0.219912

> <b_epik_Metal_Only>
0

> <s_lp_Force_Field>
OPLS_2005

> <r_lp_Energy>
10.6095

> <b_lp_Chiralities_Consistent>
1

> <s_lp_Variant>
AV-unprocessed.smi:2063-2

> <Gold.Version>
5.8.1

> <Gold.Id.Protein>
6NUR|6NUR_protein|mol2

> <Gold.PLP.Fitness>
43.0660

> <Gold.PLP.PLP>
-32.5695

> <Gold.PLP.part.hbond>
-4.5289

> <Gold.PLP.part.metal>
0.0000

> <Gold.PLP.part.buried>
-3.1318

> <Gold.PLP.part.nonpolar>
-28.6232

> <Gold.PLP.part.repulsive>
3.4444

> <Gold.PLP.ligand.clash>
0.0000

> <Gold.PLP.ligand.torsion>
0.3839

> <Gold.PLP.Chemscore.Hbond>
3.7280

> <Gold.PLP.Chemscore.CHOScore>
0.0000

> <Gold.PLP.Chemscore.Metal>
0.0000

> <Gold.Chemscore.Hbonds>
donor molecule, donor type, donor heavy atom, donor atom, acceptor molecule, acceptor atom, score
      L1  H     8    27       P1  7957  0.85
      L1  H    11    28       P1  7957  1.00
      P1  H  7954  7966       L1     6  0.90
      P1  H  7989  7998       L1    18  1.00

> <Gold.PLP.Chemscore.Internal.Correction>
0.0803

> <Gold.Rescore>
     Score         DG    S(hbond)    S(metal)    S(lipo)     H(rot)  DE(clash)    DE(int)     intcor
     13.75     -19.65       3.30        0.00      57.85       1.42       2.90       3.00       ----

> <Gold.Chemscore.Fitness>
13.7483

> <Gold.Chemscore.DG>
-19.6476

> <Gold.Chemscore.ZeroCoef>
-5.4800

> <Gold.Chemscore.Hbond>
3.3000

> <Gold.Chemscore.Metal>
0.0000

> <Gold.Chemscore.Lipo>
57.8495

> <Gold.Chemscore.Internal_Hbond>
0.0000

> <Gold.Chemscore.DEClash>
2.8989

> <Gold.Chemscore.DEInternal>
3.0004

> <Gold.Chemscore.Rot>
1.4152

> <Gold.Chemscore.Internal.Correction>
   9.000000E+99

> <Gold.Chemscore.Hbonds>
donor molecule, donor type, donor heavy atom, donor atom, acceptor molecule, acceptor atom, score
      L1  H     8    27       P1  7957  0.66
      L1  H    11    28       P1  7957  0.94
      P1  H  7954  7966       L1     6  0.22
      P1  H  7989  7998       L1    18  0.30

> <Gold.Chemscore.Hbond.Weighted>
-11.0222

> <Gold.Chemscore.Metal.Weighted>
-0.0000

> <Gold.Chemscore.Lipo.Weighted>
-6.7684

> <Gold.Chemscore.Internal_Hbond.Weighted>
0.0000

> <Gold.Chemscore.DEClash.Weighted>
2.8989

> <Gold.Chemscore.DEInternal.Weighted>
3.0004

> <Gold.Chemscore.Rot.Weighted>
3.6229

> <Gold.Chemscore.Internal.Correction.Weighted>
   9.000000E+99

> <Gold.Protein.RotatedTorsions>
[ 6907 6896 6895 6894 ] final   -3.95 input  -60.11 | X-H torsion
[ 7974 7965 7964 7962 ] final  101.02 input  175.53 | X-H torsion
[ 8008 7997 7996 7995 ] final   79.43 input   59.86 | X-H torsion
[ 10167 10162 10161 10158 ] final  -30.66 input  -65.29 | X-H torsion
[ 10718 10713 10712 10709 ] final  162.74 input   66.30 | X-H torsion
[ 10763 10752 10751 10750 ] final   18.46 input  -60.55 | X-H torsion
[ 11005 11000 10999 10996 ] final  -73.16 input  -57.11 | X-H torsion

> <Gold.Protein.ActiveResidues>
 VAL166  LYS551  ARG553  GLY616  TRP617  ASP618  TYR619  PRO620  LYS621  CYS622 
 ASP623  PHE694  ASN695  SER759  ASP760  ASP761  ALA762  ILE779  LEU786  VAL792 
 PHE793  MET794  SER795  GLU796  ALA797  LYS798  CYS799  TRP800  GLU811  SER814 

> <Gold.Protein.RotatedAtoms>
  151.5055  135.1063  159.9839 H   0  0  0  0  0  0  0  0  0  0  0  0  # atno 6907 bound_to 6896
  152.4684  133.7969  159.6943 H   0  0  0  0  0  0  0  0  0  0  0  0  # atno 6908 bound_to 6896
  150.8679  133.7484  159.2996 H   0  0  0  0  0  0  0  0  0  0  0  0  # atno 6909 bound_to 6896
  145.3779  139.2385  143.3419 H   0  0  0  0  0  0  0  0  0  0  0  0  # atno 7974 bound_to 7965
  155.8696  140.3449  155.5812 H   0  0  0  0  0  0  0  0  0  0  0  0  # atno 8008 bound_to 7997
  155.7842  140.0862  157.2062 H   0  0  0  0  0  0  0  0  0  0  0  0  # atno 8009 bound_to 7997
  154.4016  140.1495  156.3075 H   0  0  0  0  0  0  0  0  0  0  0  0  # atno 8010 bound_to 7997
  140.7246  143.3832  151.1563 H   0  0  0  0  0  0  0  0  0  0  0  0  # atno 10167 bound_to 10162
  157.1184  131.0486  151.2426 H   0  0  0  0  0  0  0  0  0  0  0  0  # atno 10718 bound_to 10713
  153.1247  135.6727  153.9276 H   0  0  0  0  0  0  0  0  0  0  0  0  # atno 10763 bound_to 10752
  153.8781  135.3061  155.3445 H   0  0  0  0  0  0  0  0  0  0  0  0  # atno 10764 bound_to 10752
  154.7654  135.4967  153.9624 H   0  0  0  0  0  0  0  0  0  0  0  0  # atno 10765 bound_to 10752
  141.1619  133.6869  156.7169 H   0  0  0  0  0  0  0  0  0  0  0  0  # atno 11005 bound_to 11000
  146.2856  140.4441  142.8759 LP  0  0  0  0  0  0  0  0  0  0  0  0  # atno 17320 bound_to 7965
  144.8529  140.7027  143.6157 LP  0  0  0  0  0  0  0  0  0  0  0  0  # atno 17321 bound_to 7965
  139.7424  143.8904  152.3054 LP  0  0  0  0  0  0  0  0  0  0  0  0  # atno 17342 bound_to 10162
  139.8730  144.7058  150.8966 LP  0  0  0  0  0  0  0  0  0  0  0  0  # atno 17343 bound_to 10162
  157.4498  130.7592  149.7141 LP  0  0  0  0  0  0  0  0  0  0  0  0  # atno 17370 bound_to 10713
  155.9834  130.4000  150.3364 LP  0  0  0  0  0  0  0  0  0  0  0  0  # atno 17371 bound_to 10713
  140.2845  134.8290  157.3962 LP  0  0  0  0  0  0  0  0  0  0  0  0  # atno 17394 bound_to 11000
  140.1403  134.4981  155.8037 LP  0  0  0  0  0  0  0  0  0  0  0  0  # atno 17395 bound_to 11000

$$$$
