#       Name:                AV-unprocessed.smi:1895
#       Creating user name   scv26
#       Creation time:       Fri Mar 27 09:42:13 2020


#       File generated by GOLD software.
#

@<TRIPOS>MOLECULE
AV-unprocessed.smi:1895
    41    42     1
SMALL
NO_CHARGES


@<TRIPOS>ATOM
      1 ****        -3.0840  -0.0756  -2.8043 C.3            1 S1                 0.0000
      2 ****        -2.0604  -0.8845  -2.0640 C.2            1 S1                 0.0000
      3 ****        -2.2549  -1.7412  -0.9448 C.2            1 S1                 0.0000
      4 ****        -1.0059  -2.2188  -0.6637 C.2            1 S1                 0.0000
      5 ****        -0.5521  -3.1544   0.4084 C.3            1 S1                 0.0000
      6 ****        -0.1434  -1.6554  -1.5881 N.pl3          1 S1                 0.0000
      7 ****         1.2983  -1.8140  -1.7164 C.3            1 S1                 0.0000
      8 ****         2.0355  -0.9553  -0.6876 C.2            1 S1                 0.0000
      9 ****         2.6955  -1.4898   0.2032 O.2            1 S1                 0.0000
     10 ****         1.8895   0.3730  -0.8069 N.am           1 S1                 0.0000
     11 ****         2.3654   1.3589   0.1548 C.3            1 S1                 0.0000
     12 ****         1.4587   1.4142   1.3971 C.3            1 S1                 0.0000
     13 ****        -0.0119   1.7192   1.1048 C.3            1 S1                 0.0000
     14 ****        -0.5038   2.3791   2.3843 C.3            1 S1                 0.0000
     15 ****         0.7753   2.6710   3.1746 C.3            1 S1                 0.0000
     16 ****         1.8338   2.4859   2.2458 O.3            1 S1                 0.0000
     17 ****        -0.7946  -0.8381  -2.4448 N.2            1 S1                 0.0000
     18 ****        -4.0913  -0.2970  -2.4514 H              1 S1                 0.0000
     19 ****        -3.0542  -0.2854  -3.8737 H              1 S1                 0.0000
     20 ****        -2.9124   0.9924  -2.6672 H              1 S1                 0.0000
     21 ****        -3.1732  -1.9674  -0.4234 H              1 S1                 0.0000
     22 ****        -1.4005  -3.5366   0.9761 H              1 S1                 0.0000
     23 ****         0.1169  -2.6503   1.1060 H              1 S1                 0.0000
     24 ****        -0.0222  -4.0072  -0.0157 H              1 S1                 0.0000
     25 ****         1.5530  -2.8662  -1.5839 H              1 S1                 0.0000
     26 ****         1.6113  -1.5336  -2.7234 H              1 S1                 0.0000
     27 ****         1.3340   0.7186  -1.5765 H              1 S1                 0.0000
     28 ****         3.3951   1.1421   0.4429 H              1 S1                 0.0000
     29 ****         2.3794   2.3310  -0.3390 H              1 S1                 0.0000
     30 ****         1.5354   0.4831   1.9623 H              1 S1                 0.0000
     31 ****        -0.0954   2.4238   0.2762 H              1 S1                 0.0000
     32 ****        -0.5795   0.8253   0.8426 H              1 S1                 0.0000
     33 ****        -1.0502   3.2953   2.1579 H              1 S1                 0.0000
     34 ****        -1.1671   1.7232   2.9489 H              1 S1                 0.0000
     35 ****         0.7894   3.6770   3.5944 H              1 S1                 0.0000
     36 ****         0.8897   1.9593   3.9935 H              1 S1                 0.0000
     37 ****         2.7504  -2.4870   0.2551 LP             1 S1                 0.0000
     38 ****         3.1769  -0.9270   0.8751 LP             1 S1                 0.0000
     39 ****         1.9686   3.3184   1.7085 LP             1 S1                 0.0000
     40 ****         2.6796   2.2608   2.7296 LP             1 S1                 0.0000
     41 ****        -0.4047  -0.3130  -3.2013 LP             1 S1                 0.0000
@<TRIPOS>BOND
    1    1    2 1     
    2    1   18 1     
    3    1   19 1     
    4    1   20 1     
    5    2   17 2     
    6    2    3 1     
    7    3    4 2     
    8    3   21 1     
    9    4    5 1     
   10    4    6 1     
   11    5   22 1     
   12    5   23 1     
   13    5   24 1     
   14    6    7 1     
   15    6   17 1     
   16    7    8 1     
   17    7   25 1     
   18    7   26 1     
   19    8    9 2     
   20    8   10 am    
   21   10   11 1     
   22   10   27 1     
   23   11   12 1     
   24   11   28 1     
   25   11   29 1     
   26   12   16 1     
   27   12   13 1     
   28   12   30 1     
   29   13   14 1     
   30   13   31 1     
   31   13   32 1     
   32   14   15 1     
   33   14   33 1     
   34   14   34 1     
   35   15   16 1     
   36   15   35 1     
   37   15   36 1     
   38    9   37 1     
   39    9   38 1     
   40   16   39 1     
   41   16   40 1     
   42   17   41 1     
@<TRIPOS>SUBSTRUCTURE
      1 S1             1
@<TRIPOS>SET
LONE_PAIRS      STATIC     ATOMS    <user>   **** ""
5 37 38 39 40 41
DONOR_HYDROGENS      STATIC     ATOMS    <user>   **** ""
1 27
ATOM$BLUE        STATIC     ATOMS    COLORGROUP SYSTEM
5 37 38 39 40 41
ATOM$RED        STATIC     ATOMS    COLORGROUP SYSTEM
1 27
