AV-unprocessed.smi:155|AV-procd|sdf|1267|dock9
  -GOLD-   2262018523D 1   1.00000     0.00000
 Structure written by MMmdl.
 63 66  0  0  0  0  0  0  0  0  2 V2000
  148.2673  136.2347  162.2066 C   0  0  0  0  0  0  0  0  0  0  0  0
  147.9756  136.9919  160.9942 N   0  0  0  0  0  0  0  0  0  0  0  0
  146.6549  136.6005  160.5195 C   0  0  0  0  0  0  0  0  0  0  0  0
  148.9581  136.7339  159.9416 C   0  0  0  0  0  0  0  0  0  0  0  0
  148.8092  135.3466  159.2682 C   0  0  0  0  0  0  0  0  0  0  0  0
  148.9360  135.3452  157.7860 N   0  3  2  0  0  0  0  0  0  0  0  0
  147.6372  135.2753  157.0602 C   0  0  0  0  0  0  0  0  0  0  0  0
  147.7745  135.2803  155.5230 C   0  0  0  0  0  0  0  0  0  0  0  0
  148.7189  136.3623  154.9624 C   0  0  0  0  0  0  0  0  0  0  0  0
  150.0824  136.2593  155.4893 N   0  0  0  0  0  0  0  0  0  0  0  0
  150.8380  137.3834  155.5962 C   0  0  0  0  0  0  0  0  0  0  0  0
  152.1830  137.2709  155.4367 N   0  0  0  0  0  0  0  0  0  0  0  0
  152.9714  138.3445  155.5404 C   0  0  0  0  0  0  0  0  0  0  0  0
  152.6285  139.6092  155.7887 N   0  0  0  0  0  0  0  0  0  0  0  0
  151.2791  139.7344  155.9358 C   0  0  0  0  0  0  0  0  0  0  0  0
  150.3177  138.6865  155.8538 C   0  0  0  0  0  0  0  0  0  0  0  0
  149.0416  139.2105  156.0345 N   0  0  0  0  0  0  0  0  0  0  0  0
  149.2397  140.4850  156.2340 C   0  0  0  0  0  0  0  0  0  0  0  0
  150.5553  140.8839  156.1933 N   0  0  0  0  0  0  0  0  0  0  0  0
  151.0667  142.2307  156.3818 C   0  0  0  0  0  0  0  0  0  0  0  0
  150.7697  142.7794  157.7964 C   0  0  2  0  0  0  0  0  0  0  0  0
  149.3878  143.0817  157.8510 O   0  0  0  0  0  0  0  0  0  0  0  0
  151.5325  144.0772  158.1492 C   0  0  2  0  0  0  0  0  0  0  0  0
  152.9896  143.8807  158.6091 C   0  0  0  0  0  0  0  0  0  0  0  0
  152.8961  143.9018  160.1176 C   0  0  0  0  0  0  0  0  0  0  0  0
  151.7981  144.9302  160.3248 C   0  0  0  0  0  0  0  0  0  0  0  0
  150.8742  144.6571  159.2807 O   0  0  0  0  0  0  0  0  0  0  0  0
  150.6121  134.9635  155.9202 C   0  0  0  0  0  0  0  0  0  0  0  0
  150.0094  134.4600  157.2563 C   0  0  0  0  0  0  0  0  0  0  0  0
  149.2109  136.5422  162.6548 H   0  0  0  0  0  0  0  0  0  0  0  0
  148.3156  135.1633  162.0059 H   0  0  0  0  0  0  0  0  0  0  0  0
  147.4913  136.4028  162.9545 H   0  0  0  0  0  0  0  0  0  0  0  0
  146.3823  137.1666  159.6282 H   0  0  0  0  0  0  0  0  0  0  0  0
  145.8988  136.8020  161.2795 H   0  0  0  0  0  0  0  0  0  0  0  0
  146.6175  135.5378  160.2743 H   0  0  0  0  0  0  0  0  0  0  0  0
  148.8633  137.5127  159.1831 H   0  0  0  0  0  0  0  0  0  0  0  0
  149.9658  136.8391  160.3443 H   0  0  0  0  0  0  0  0  0  0  0  0
  149.4812  134.6042  159.6965 H   0  0  0  0  0  0  0  0  0  0  0  0
  147.8082  134.9759  159.4920 H   0  0  0  0  0  0  0  0  0  0  0  0
  147.0930  134.3769  157.3464 H   0  0  0  0  0  0  0  0  0  0  0  0
  147.0271  136.1240  157.3716 H   0  0  0  0  0  0  0  0  0  0  0  0
  148.0945  134.2963  155.1796 H   0  0  0  0  0  0  0  0  0  0  0  0
  146.7849  135.4195  155.0866 H   0  0  0  0  0  0  0  0  0  0  0  0
  148.7575  136.2924  153.8749 H   0  0  0  0  0  0  0  0  0  0  0  0
  148.3046  137.3431  155.2010 H   0  0  0  0  0  0  0  0  0  0  0  0
  154.0280  138.1641  155.4061 H   0  0  0  0  0  0  0  0  0  0  0  0
  148.4282  141.1734  156.4207 H   0  0  0  0  0  0  0  0  0  0  0  0
  152.1369  142.1975  156.1847 H   0  0  0  0  0  0  0  0  0  0  0  0
  150.6294  142.8802  155.6220 H   0  0  0  0  0  0  0  0  0  0  0  0
  150.9891  142.0103  158.5383 H   0  0  0  0  0  0  0  0  0  0  0  0
  149.1794  143.6455  157.1211 H   0  0  0  0  0  0  0  0  0  0  0  0
  151.5067  144.7714  157.3075 H   0  0  0  0  0  0  0  0  0  0  0  0
  153.4770  142.9823  158.2369 H   0  0  0  0  0  0  0  0  0  0  0  0
  153.5891  144.7298  158.2774 H   0  0  0  0  0  0  0  0  0  0  0  0
  152.5794  142.9270  160.4913 H   0  0  0  0  0  0  0  0  0  0  0  0
  153.8340  144.1719  160.6035 H   0  0  0  0  0  0  0  0  0  0  0  0
  151.3288  144.8572  161.3063 H   0  0  0  0  0  0  0  0  0  0  0  0
  152.1888  145.9416  160.2032 H   0  0  0  0  0  0  0  0  0  0  0  0
  150.3949  134.2398  155.1341 H   0  0  0  0  0  0  0  0  0  0  0  0
  151.7007  134.9867  155.9777 H   0  0  0  0  0  0  0  0  0  0  0  0
  150.8181  134.4103  157.9863 H   0  0  0  0  0  0  0  0  0  0  0  0
  149.6370  133.4404  157.1484 H   0  0  0  0  0  0  0  0  0  0  0  0
  149.2770  136.2735  157.5796 H   0  0  0  0  0  0  0  0  0  0  0  0
  1  2  1  0  0  0  0
  1 30  1  0  0  0  0
  1 31  1  0  0  0  0
  1 32  1  0  0  0  0
  2  3  1  0  0  0  0
  2  4  1  0  0  0  0
  3 33  1  0  0  0  0
  3 34  1  0  0  0  0
  3 35  1  0  0  0  0
  4  5  1  0  0  0  0
  4 36  1  0  0  0  0
  4 37  1  0  0  0  0
  5  6  1  0  0  0  0
  5 38  1  0  0  0  0
  5 39  1  0  0  0  0
  6 29  1  0  0  0  0
  6  7  1  0  0  0  0
  6 63  1  0  0  0  0
  7  8  1  0  0  0  0
  7 40  1  0  0  0  0
  7 41  1  0  0  0  0
  8  9  1  0  0  0  0
  8 42  1  0  0  0  0
  8 43  1  0  0  0  0
  9 10  1  0  0  0  0
  9 44  1  0  0  0  0
  9 45  1  0  0  0  0
 10 11  1  0  0  0  0
 10 28  1  0  0  0  0
 11 16  1  0  0  0  0
 11 12  2  0  0  0  0
 12 13  1  0  0  0  0
 13 14  2  0  0  0  0
 13 46  1  0  0  0  0
 14 15  1  0  0  0  0
 15 19  1  0  0  0  0
 15 16  2  0  0  0  0
 16 17  1  0  0  0  0
 17 18  2  0  0  0  0
 18 19  1  0  0  0  0
 18 47  1  0  0  0  0
 19 20  1  0  0  0  0
 20 21  1  0  0  0  0
 20 48  1  0  0  0  0
 20 49  1  0  0  0  0
 21 22  1  0  0  0  0
 21 23  1  0  0  0  0
 21 50  1  0  0  0  0
 22 51  1  0  0  0  0
 23 27  1  0  0  0  0
 23 24  1  0  0  0  0
 23 52  1  0  0  0  0
 24 25  1  0  0  0  0
 24 53  1  0  0  0  0
 24 54  1  0  0  0  0
 25 26  1  0  0  0  0
 25 55  1  0  0  0  0
 25 56  1  0  0  0  0
 26 27  1  0  0  0  0
 26 57  1  0  0  0  0
 26 58  1  0  0  0  0
 28 29  1  0  0  0  0
 28 59  1  0  0  0  0
 28 60  1  0  0  0  0
 29 61  1  0  0  0  0
 29 62  1  0  0  0  0
M  CHG  1   6   1
M  END
> <s_m_source_file>
AV-unprocessed.smi

> <i_m_source_file_index>
155

> <i_lp_mmshare_version>
43012

> <i_f3d_flags>
0

> <s_epik_input>
W0NIM11OKFtDSDNdKVtDSDJdW0NIMl1OMVtDSDJdW0NIMl1bQ0gyXU4oW0NIMl1bQ0gyXTEpYyhuW2NIXW4yKWMoYzIzKW5bY0hdbjNbQ0gyXVtDQEhdKFtPSF0pW0NAQEhdNFtDSDJdW0NIMl1bQ0gyXU80

> <s_epik_cmdline>
J2VwaWtfcHl0aG9uJywgJy1waCcsICc3LjAnLCAnLXRuJywgJzgnLCAnLW1hJywgJzIwMCcsICctbWV0YWxfYmluZGluZycsICctaW1hZScsICc8aW5maWxlLm1hZT4nLCAnLW9tYWUnLCAnPG91dGZpbGUubWFlPic=

> <r_epik_Ionization_Penalty>
0.0619615

> <r_epik_Ionization_Penalty_Charging>
0.0161638

> <r_epik_Ionization_Penalty_Neutral>
0.0457976

> <r_epik_State_Penalty>
0.403408

> <r_epik_Charging_Adjusted_Penalty>
0.419572

> <i_epik_Tot_Q>
1

> <i_epik_Tot_abs_Q>
1

> <r_epik_Metal_State_Penalty>
0.404222

> <b_epik_Metal_Only>
0

> <s_lp_Force_Field>
OPLS_2005

> <r_lp_Energy>
58.592

> <b_lp_Chiralities_Consistent>
1

> <s_lp_Variant>
AV-unprocessed.smi:155-1

> <Gold.Version>
5.8.1

> <Gold.Id.Protein>
6NUR|6NUR_protein|mol2

> <Gold.PLP.Fitness>
50.8001

> <Gold.PLP.PLP>
-43.6356

> <Gold.PLP.part.hbond>
-5.0396

> <Gold.PLP.part.metal>
0.0000

> <Gold.PLP.part.buried>
-4.4218

> <Gold.PLP.part.nonpolar>
-35.6917

> <Gold.PLP.part.repulsive>
0.2539

> <Gold.PLP.ligand.clash>
0.0000

> <Gold.PLP.ligand.torsion>
1.9020

> <Gold.PLP.Chemscore.Hbond>
3.5980

> <Gold.PLP.Chemscore.CHOScore>
0.0000

> <Gold.PLP.Chemscore.Metal>
0.0000

> <Gold.Chemscore.Hbonds>
donor molecule, donor type, donor heavy atom, donor atom, acceptor molecule, acceptor atom, score
      L1  H    22    51       P1  8028  1.00
      P1  H  6931  6943       L1     2  0.04
      P1  H  6934  6947       L1     2  0.12
      P1  H  7997  8008       L1    14  0.70
      P1  H 10752 10763       L1    12  0.82

> <Gold.PLP.Chemscore.Internal.Correction>
0.1744

> <Gold.Rescore>
     Score         DG    S(hbond)    S(metal)    S(lipo)     H(rot)  DE(clash)    DE(int)     intcor
     13.14     -17.92       2.05        0.00     105.51       2.63       2.75       2.03       ----

> <Gold.Chemscore.Fitness>
13.1399

> <Gold.Chemscore.DG>
-17.9207

> <Gold.Chemscore.ZeroCoef>
-5.4800

> <Gold.Chemscore.Hbond>
2.0464

> <Gold.Chemscore.Metal>
0.0000

> <Gold.Chemscore.Lipo>
105.5096

> <Gold.Chemscore.Internal_Hbond>
0.0000

> <Gold.Chemscore.DEClash>
2.7483

> <Gold.Chemscore.DEInternal>
2.0325

> <Gold.Chemscore.Rot>
2.6324

> <Gold.Chemscore.Internal.Correction>
   9.000000E+99

> <Gold.Chemscore.Hbonds>
donor molecule, donor type, donor heavy atom, donor atom, acceptor molecule, acceptor atom, score
      L1  H    22    51       P1  8028  0.60
      P1  H  7997  8008       L1    14  0.07
      P1  H 10752 10763       L1    12  0.74

> <Gold.Chemscore.Hbond.Weighted>
-6.8350

> <Gold.Chemscore.Metal.Weighted>
-0.0000

> <Gold.Chemscore.Lipo.Weighted>
-12.3446

> <Gold.Chemscore.Internal_Hbond.Weighted>
0.0000

> <Gold.Chemscore.DEClash.Weighted>
2.7483

> <Gold.Chemscore.DEInternal.Weighted>
2.0325

> <Gold.Chemscore.Rot.Weighted>
6.7389

> <Gold.Chemscore.Internal.Correction.Weighted>
   9.000000E+99

> <Gold.Protein.RotatedTorsions>
[ 6907 6896 6895 6894 ] final  -55.29 input  -60.11 | X-H torsion
[ 7974 7965 7964 7962 ] final -161.29 input  175.53 | X-H torsion
[ 8008 7997 7996 7995 ] final  -31.06 input   59.86 | X-H torsion
[ 10167 10162 10161 10158 ] final  -29.05 input  -65.29 | X-H torsion
[ 10718 10713 10712 10709 ] final -178.08 input   66.30 | X-H torsion
[ 10763 10752 10751 10750 ] final   65.68 input  -60.55 | X-H torsion
[ 11005 11000 10999 10996 ] final -121.95 input  -57.11 | X-H torsion

> <Gold.Protein.ActiveResidues>
 VAL166  LYS551  ARG553  GLY616  TRP617  ASP618  TYR619  PRO620  LYS621  CYS622 
 ASP623  PHE694  ASN695  SER759  ASP760  ASP761  ALA762  ILE779  LEU786  VAL792 
 PHE793  MET794  SER795  GLU796  ALA797  LYS798  CYS799  TRP800  GLU811  SER814 

> <Gold.Protein.RotatedAtoms>
  150.8265  134.7498  159.6816 H   0  0  0  0  0  0  0  0  0  0  0  0  # atno 6907 bound_to 6896
  152.4375  134.5654  159.9916 H   0  0  0  0  0  0  0  0  0  0  0  0  # atno 6908 bound_to 6896
  151.5826  133.3338  159.3047 H   0  0  0  0  0  0  0  0  0  0  0  0  # atno 6909 bound_to 6896
  144.7396  140.3418  143.6133 H   0  0  0  0  0  0  0  0  0  0  0  0  # atno 7974 bound_to 7965
  154.4227  140.1774  156.1507 H   0  0  0  0  0  0  0  0  0  0  0  0  # atno 8008 bound_to 7997
  155.9918  140.3368  155.6735 H   0  0  0  0  0  0  0  0  0  0  0  0  # atno 8009 bound_to 7997
  155.6363  140.0675  157.2624 H   0  0  0  0  0  0  0  0  0  0  0  0  # atno 8010 bound_to 7997
  140.7264  143.3960  151.1347 H   0  0  0  0  0  0  0  0  0  0  0  0  # atno 10167 bound_to 10162
  156.8390  130.9680  151.3101 H   0  0  0  0  0  0  0  0  0  0  0  0  # atno 10718 bound_to 10713
  153.0107  135.5348  154.6706 H   0  0  0  0  0  0  0  0  0  0  0  0  # atno 10763 bound_to 10752
  154.5891  135.2857  155.0656 H   0  0  0  0  0  0  0  0  0  0  0  0  # atno 10764 bound_to 10752
  154.1756  135.6525  153.5073 H   0  0  0  0  0  0  0  0  0  0  0  0  # atno 10765 bound_to 10752
  141.0031  134.0373  157.3511 H   0  0  0  0  0  0  0  0  0  0  0  0  # atno 11005 bound_to 11000
  145.7366  139.1752  143.2400 LP  0  0  0  0  0  0  0  0  0  0  0  0  # atno 17320 bound_to 7965
  146.1166  140.7362  142.9478 LP  0  0  0  0  0  0  0  0  0  0  0  0  # atno 17321 bound_to 7965
  139.7572  143.8689  152.3091 LP  0  0  0  0  0  0  0  0  0  0  0  0  # atno 17342 bound_to 10162
  139.8563  144.7139  150.9153 LP  0  0  0  0  0  0  0  0  0  0  0  0  # atno 17343 bound_to 10162
  157.6366  130.8771  149.9370 LP  0  0  0  0  0  0  0  0  0  0  0  0  # atno 17370 bound_to 10713
  156.0891  130.3665  150.0430 LP  0  0  0  0  0  0  0  0  0  0  0  0  # atno 17371 bound_to 10713
  139.9049  135.0176  156.7441 LP  0  0  0  0  0  0  0  0  0  0  0  0  # atno 17394 bound_to 11000
  140.6856  133.9435  155.7936 LP  0  0  0  0  0  0  0  0  0  0  0  0  # atno 17395 bound_to 11000

$$$$
