AV-unprocessed.smi:2131|AV-procd|sdf|8689|dock5
  -GOLD-   2272011443D 1   1.00000     0.00000
 Structure written by MMmdl.
 41 43  0  0  0  0  0  0  0  0  2 V2000
  143.3213  134.2221  162.9739 N   0  0  0  0  0  0  0  0  0  0  0  0
  144.3702  133.7881  162.7503 C   0  0  0  0  0  0  0  0  0  0  0  0
  145.7038  133.2368  162.4655 C   0  0  0  0  0  0  0  0  0  0  0  0
  146.6241  134.2673  161.8445 C   0  0  0  0  0  0  0  0  0  0  0  0
  147.2660  133.9984  160.6201 C   0  0  0  0  0  0  0  0  0  0  0  0
  148.1231  134.9572  160.0465 C   0  0  0  0  0  0  0  0  0  0  0  0
  148.3522  136.1947  160.6829 C   0  0  0  0  0  0  0  0  0  0  0  0
  149.2065  137.0740  160.0524 O   0  0  0  0  0  0  0  0  0  0  0  0
  149.3795  136.9528  158.6465 C   0  0  0  0  0  0  0  0  0  0  0  0
  149.3883  138.3545  158.0184 C   0  0  2  0  0  0  0  0  0  0  0  0
  149.3860  138.2114  156.6118 O   0  0  0  0  0  0  0  0  0  0  0  0
  150.6022  139.1939  158.4640 C   0  0  0  0  0  0  0  0  0  0  0  0
  150.5410  140.5812  157.9818 N   0  0  0  0  0  0  0  0  0  0  0  0
  149.6567  141.1629  157.1270 C   0  0  0  0  0  0  0  0  0  0  0  0
  150.0171  142.4686  156.9870 N   0  3  0  0  0  0  0  0  0  0  0  0
  151.1492  142.7257  157.7628 C   0  0  0  0  0  0  0  0  0  0  0  0
  151.8808  143.8951  157.9451 C   0  0  0  0  0  0  0  0  0  0  0  0
  152.9933  143.8175  158.8085 C   0  0  0  0  0  0  0  0  0  0  0  0
  153.3414  142.6115  159.4509 C   0  0  0  0  0  0  0  0  0  0  0  0
  152.5921  141.4320  159.2589 C   0  0  0  0  0  0  0  0  0  0  0  0
  151.4925  141.5170  158.4051 C   0  0  0  0  0  0  0  0  0  0  0  0
  147.7023  136.4585  161.9154 C   0  0  0  0  0  0  0  0  0  0  0  0
  146.8451  135.4998  162.4897 C   0  0  0  0  0  0  0  0  0  0  0  0
  146.1305  132.8655  163.3977 H   0  0  0  0  0  0  0  0  0  0  0  0
  145.5894  132.3845  161.7954 H   0  0  0  0  0  0  0  0  0  0  0  0
  147.1041  133.0553  160.1190 H   0  0  0  0  0  0  0  0  0  0  0  0
  148.6112  134.7398  159.1077 H   0  0  0  0  0  0  0  0  0  0  0  0
  150.3101  136.4319  158.4141 H   0  0  0  0  0  0  0  0  0  0  0  0
  148.5537  136.3726  158.2306 H   0  0  0  0  0  0  0  0  0  0  0  0
  148.4692  138.8731  158.2943 H   0  0  0  0  0  0  0  0  0  0  0  0
  150.1283  138.6805  156.2619 H   0  0  0  0  0  0  0  0  0  0  0  0
  150.6444  139.2380  159.5530 H   0  0  0  0  0  0  0  0  0  0  0  0
  151.5395  138.7393  158.1426 H   0  0  0  0  0  0  0  0  0  0  0  0
  148.8209  140.6759  156.6454 H   0  0  0  0  0  0  0  0  0  0  0  0
  151.6171  144.8199  157.4531 H   0  0  0  0  0  0  0  0  0  0  0  0
  153.5923  144.7000  158.9807 H   0  0  0  0  0  0  0  0  0  0  0  0
  154.2021  142.5895  160.1036 H   0  0  0  0  0  0  0  0  0  0  0  0
  152.8722  140.5127  159.7512 H   0  0  0  0  0  0  0  0  0  0  0  0
  147.8455  137.3894  162.4425 H   0  0  0  0  0  0  0  0  0  0  0  0
  146.3580  135.7128  163.4299 H   0  0  0  0  0  0  0  0  0  0  0  0
  149.5259  143.1329  156.4026 H   0  0  0  0  0  0  0  0  0  0  0  0
  1  2  3  0  0  0  0
  2  3  1  0  0  0  0
  3  4  1  0  0  0  0
  3 24  1  0  0  0  0
  3 25  1  0  0  0  0
  4 23  1  0  0  0  0
  4  5  2  0  0  0  0
  5  6  1  0  0  0  0
  5 26  1  0  0  0  0
  6  7  2  0  0  0  0
  6 27  1  0  0  0  0
  7  8  1  0  0  0  0
  7 22  1  0  0  0  0
  8  9  1  0  0  0  0
  9 10  1  0  0  0  0
  9 28  1  0  0  0  0
  9 29  1  0  0  0  0
 10 11  1  0  0  0  0
 10 12  1  0  0  0  0
 10 30  1  0  0  0  0
 11 31  1  0  0  0  0
 12 13  1  0  0  0  0
 12 32  1  0  0  0  0
 12 33  1  0  0  0  0
 13 21  1  0  0  0  0
 13 14  1  0  0  0  0
 14 15  2  0  0  0  0
 14 34  1  0  0  0  0
 15 16  1  0  0  0  0
 15 41  1  0  0  0  0
 16 21  2  0  0  0  0
 16 17  1  0  0  0  0
 17 18  2  0  0  0  0
 17 35  1  0  0  0  0
 18 19  1  0  0  0  0
 18 36  1  0  0  0  0
 19 20  2  0  0  0  0
 19 37  1  0  0  0  0
 20 21  1  0  0  0  0
 20 38  1  0  0  0  0
 22 23  2  0  0  0  0
 22 39  1  0  0  0  0
 23 40  1  0  0  0  0
M  CHG  1  15   1
M  END
> <s_m_source_file>
AV-unprocessed.smi

> <i_m_source_file_index>
2131

> <i_lp_mmshare_version>
43012

> <i_f3d_flags>
0

> <s_epik_input>
TiNDW0NIMl1jMVtjSF1bY0hdYyhbY0hdW2NIXTEpT1tDSDJdW0NASF0oW09IXSlbQ0gyXW4oW2NIXW4yKWMoYzIzKVtjSF1bY0hdW2NIXVtjSF0z

> <s_epik_cmdline>
J2VwaWtfcHl0aG9uJywgJy1waCcsICc3LjAnLCAnLXRuJywgJzgnLCAnLW1hJywgJzIwMCcsICctbWV0YWxfYmluZGluZycsICctaW1hZScsICc8aW5maWxlLm1hZT4nLCAnLW9tYWUnLCAnPG91dGZpbGUubWFlPic=

> <r_lp_tautomer_probability>
1

> <r_epik_Ionization_Penalty>
1.3774

> <r_epik_Ionization_Penalty_Charging>
1.37739

> <r_epik_Ionization_Penalty_Neutral>
2.3994e-06

> <r_epik_State_Penalty>
1.45762

> <r_epik_Charging_Adjusted_Penalty>
2.83501

> <i_epik_Tot_Q>
1

> <i_epik_Tot_abs_Q>
1

> <r_epik_Metal_State_Penalty>
5.49752

> <b_epik_Metal_Only>
0

> <s_lp_Force_Field>
OPLS_2005

> <r_lp_Energy>
20.896

> <b_lp_Chiralities_Consistent>
1

> <s_lp_Variant>
AV-unprocessed.smi:2131-3

> <Gold.Version>
5.8.1

> <Gold.Id.Protein>
6NUR|6NUR_protein|mol2

> <Gold.PLP.Fitness>
55.0097

> <Gold.PLP.PLP>
-50.1578

> <Gold.PLP.part.hbond>
-2.0000

> <Gold.PLP.part.metal>
0.0000

> <Gold.PLP.part.buried>
-5.9625

> <Gold.PLP.part.nonpolar>
-42.7648

> <Gold.PLP.part.repulsive>
0.1290

> <Gold.PLP.ligand.clash>
0.2756

> <Gold.PLP.ligand.torsion>
0.7480

> <Gold.PLP.Chemscore.Hbond>
2.1680

> <Gold.PLP.Chemscore.CHOScore>
0.0000

> <Gold.PLP.Chemscore.Metal>
0.0000

> <Gold.Chemscore.Hbonds>
donor molecule, donor type, donor heavy atom, donor atom, acceptor molecule, acceptor atom, score
      L1  H    15    41       P1  8028  2.00
      P1  H  6931  6943       L1     8  0.09

> <Gold.PLP.Chemscore.Internal.Correction>
0.1195

> <Gold.Rescore>
     Score         DG    S(hbond)    S(metal)    S(lipo)     H(rot)  DE(clash)    DE(int)     intcor
     16.06     -17.03       1.00        0.00     131.84       2.81       0.25       0.73       ----

> <Gold.Chemscore.Fitness>
16.0561

> <Gold.Chemscore.DG>
-17.0348

> <Gold.Chemscore.ZeroCoef>
-5.4800

> <Gold.Chemscore.Hbond>
0.9980

> <Gold.Chemscore.Metal>
0.0000

> <Gold.Chemscore.Lipo>
131.8405

> <Gold.Chemscore.Internal_Hbond>
0.0000

> <Gold.Chemscore.DEClash>
0.2531

> <Gold.Chemscore.DEInternal>
0.7255

> <Gold.Chemscore.Rot>
2.8140

> <Gold.Chemscore.Internal.Correction>
   9.000000E+99

> <Gold.Chemscore.Hbonds>
donor molecule, donor type, donor heavy atom, donor atom, acceptor molecule, acceptor atom, score
      L1  H    15    41       P1  8028  1.00

> <Gold.Chemscore.Hbond.Weighted>
-3.3334

> <Gold.Chemscore.Metal.Weighted>
-0.0000

> <Gold.Chemscore.Lipo.Weighted>
-15.4253

> <Gold.Chemscore.Internal_Hbond.Weighted>
0.0000

> <Gold.Chemscore.DEClash.Weighted>
0.2531

> <Gold.Chemscore.DEInternal.Weighted>
0.7255

> <Gold.Chemscore.Rot.Weighted>
7.2039

> <Gold.Chemscore.Internal.Correction.Weighted>
   9.000000E+99

> <Gold.Protein.RotatedTorsions>
[ 6907 6896 6895 6894 ] final  -36.74 input  -60.11 | X-H torsion
[ 7974 7965 7964 7962 ] final -175.86 input  175.53 | X-H torsion
[ 8008 7997 7996 7995 ] final -129.39 input   59.86 | X-H torsion
[ 10167 10162 10161 10158 ] final   44.86 input  -65.29 | X-H torsion
[ 10718 10713 10712 10709 ] final   95.89 input   66.30 | X-H torsion
[ 10763 10752 10751 10750 ] final  -70.26 input  -60.55 | X-H torsion
[ 11005 11000 10999 10996 ] final  124.62 input  -57.11 | X-H torsion

> <Gold.Protein.ActiveResidues>
 VAL166  LYS551  ARG553  GLY616  TRP617  ASP618  TYR619  PRO620  LYS621  CYS622 
 ASP623  PHE694  ASN695  SER759  ASP760  ASP761  ALA762  ILE779  LEU786  VAL792 
 PHE793  MET794  SER795  GLU796  ALA797  LYS798  CYS799  TRP800  GLU811  SER814 

> <Gold.Protein.RotatedAtoms>
  151.0234  134.9486  159.8071 H   0  0  0  0  0  0  0  0  0  0  0  0  # atno 6907 bound_to 6896
  152.5330  134.2874  159.9040 H   0  0  0  0  0  0  0  0  0  0  0  0  # atno 6908 bound_to 6896
  151.2882  133.4135  159.2665 H   0  0  0  0  0  0  0  0  0  0  0  0  # atno 6909 bound_to 6896
  144.7127  140.1257  143.6402 H   0  0  0  0  0  0  0  0  0  0  0  0  # atno 7974 bound_to 7965
  155.2785  140.0443  157.3013 H   0  0  0  0  0  0  0  0  0  0  0  0  # atno 8008 bound_to 7997
  154.5611  140.2346  155.8302 H   0  0  0  0  0  0  0  0  0  0  0  0  # atno 8009 bound_to 7997
  156.2048  140.3015  155.9610 H   0  0  0  0  0  0  0  0  0  0  0  0  # atno 8010 bound_to 7997
  140.3300  144.2600  150.6169 H   0  0  0  0  0  0  0  0  0  0  0  0  # atno 10167 bound_to 10162
  157.6933  131.0560  150.4408 H   0  0  0  0  0  0  0  0  0  0  0  0  # atno 10718 bound_to 10713
  154.4151  135.6000  153.5976 H   0  0  0  0  0  0  0  0  0  0  0  0  # atno 10763 bound_to 10752
  152.9791  135.5939  154.4022 H   0  0  0  0  0  0  0  0  0  0  0  0  # atno 10764 bound_to 10752
  154.3840  135.2841  155.2173 H   0  0  0  0  0  0  0  0  0  0  0  0  # atno 10765 bound_to 10752
  139.9367  134.9639  156.8437 H   0  0  0  0  0  0  0  0  0  0  0  0  # atno 11005 bound_to 11000
  145.9331  139.2619  143.1313 LP  0  0  0  0  0  0  0  0  0  0  0  0  # atno 17320 bound_to 7965
  145.9502  140.8914  143.0263 LP  0  0  0  0  0  0  0  0  0  0  0  0  # atno 17321 bound_to 7965
  140.5406  143.2224  151.8091 LP  0  0  0  0  0  0  0  0  0  0  0  0  # atno 17342 bound_to 10162
  139.4858  144.4605  151.9546 LP  0  0  0  0  0  0  0  0  0  0  0  0  # atno 17343 bound_to 10162
  156.4766  130.4064  149.6486 LP  0  0  0  0  0  0  0  0  0  0  0  0  # atno 17370 bound_to 10713
  156.3547  130.7450  151.2414 LP  0  0  0  0  0  0  0  0  0  0  0  0  # atno 17371 bound_to 10713
  140.6056  134.0130  155.7555 LP  0  0  0  0  0  0  0  0  0  0  0  0  # atno 17394 bound_to 11000
  141.0984  133.9806  157.3120 LP  0  0  0  0  0  0  0  0  0  0  0  0  # atno 17395 bound_to 11000

$$$$
