#       Name:                AV-unprocessed.smi:1824
#       Creating user name   scv26
#       Creation time:       Fri Mar 27 09:08:24 2020


#       File generated by GOLD software.
#

@<TRIPOS>MOLECULE
AV-unprocessed.smi:1824
    50    52     1
SMALL
NO_CHARGES


@<TRIPOS>ATOM
      1 ****        -2.9160   2.8109   2.9507 C.3            1 S1                 0.0000
      2 ****        -2.5982   2.5570   1.4735 C.3            1 S1                 0.0000
      3 ****        -1.9382   1.1833   1.2468 C.3            1 S1                 0.0000
      4 ****        -1.7092   0.9147  -0.1716 N.3            1 S1                 0.0000
      5 ****        -1.0998  -0.3946  -0.4111 C.3            1 S1                 0.0000
      6 ****         0.3622  -0.5414   0.0554 C.3            1 S1                 0.0000
      7 ****         1.1689   0.3070  -0.7373 O.3            1 S1                 0.0000
      8 ****         0.8541  -1.9956  -0.0806 C.3            1 S1                 0.0000
      9 ****         2.2408  -2.1760   0.3739 N.pl3          1 S1                 0.0000
     10 ****         2.7197  -2.4070   1.6264 C.2            1 S1                 0.0000
     11 ****         4.0752  -2.5026   1.5381 N.pl3          1 S1                 1.0000
     12 ****         4.4695  -2.3289   0.2097 C.ar           1 S1                 0.0000
     13 ****         5.7319  -2.3390  -0.3744 C.ar           1 S1                 0.0000
     14 ****         5.7890  -2.1241  -1.7670 C.ar           1 S1                 0.0000
     15 ****         6.9931  -2.1234  -2.3862 F              1 S1                 0.0000
     16 ****         4.6183  -1.9091  -2.5251 C.ar           1 S1                 0.0000
     17 ****         4.7179  -1.7044  -3.8598 F              1 S1                 0.0000
     18 ****         3.3438  -1.9024  -1.9213 C.ar           1 S1                 0.0000
     19 ****         3.2961  -2.1172  -0.5444 C.ar           1 S1                 0.0000
     20 ****        -2.9779   1.0337  -0.8815 C.3            1 S1                 0.0000
     21 ****        -3.6383   2.4078  -0.6616 C.3            1 S1                 0.0000
     22 ****        -5.0072   2.5084  -1.3425 C.3            1 S1                 0.0000
     23 ****        -3.8159   2.6176   0.7364 O.3            1 S1                 0.0000
     24 ****        -2.0096   2.7881   3.5559 H              1 S1                 0.0000
     25 ****        -3.6005   2.0580   3.3424 H              1 S1                 0.0000
     26 ****        -3.3812   3.7875   3.0861 H              1 S1                 0.0000
     27 ****        -1.9314   3.3447   1.1186 H              1 S1                 0.0000
     28 ****        -0.9982   1.1580   1.7961 H              1 S1                 0.0000
     29 ****        -2.5708   0.4026   1.6724 H              1 S1                 0.0000
     30 ****        -1.7086  -1.1620   0.0695 H              1 S1                 0.0000
     31 ****        -1.1349  -0.6179  -1.4786 H              1 S1                 0.0000
     32 ****         0.4687  -0.2418   1.0972 H              1 S1                 0.0000
     33 ****         0.8330   1.1879  -0.6635 H              1 S1                 0.0000
     34 ****         0.2323  -2.6533   0.5282 H              1 S1                 0.0000
     35 ****         0.7603  -2.3531  -1.1065 H              1 S1                 0.0000
     36 ****         2.1307  -2.4985   2.5276 H              1 S1                 0.0000
     37 ****         6.6306  -2.5012   0.2020 H              1 S1                 0.0000
     38 ****         2.4557  -1.7301  -2.5108 H              1 S1                 0.0000
     39 ****        -2.8177   0.8803  -1.9496 H              1 S1                 0.0000
     40 ****        -3.6590   0.2469  -0.5529 H              1 S1                 0.0000
     41 ****        -2.9906   3.1919  -1.0579 H              1 S1                 0.0000
     42 ****        -4.9219   2.3610  -2.4193 H              1 S1                 0.0000
     43 ****        -5.4534   3.4890  -1.1762 H              1 S1                 0.0000
     44 ****        -5.6971   1.7581  -0.9549 H              1 S1                 0.0000
     45 ****         4.6838  -2.6726   2.3288 H              1 S1                 0.0000
     46 ****        -1.0552   1.5890  -0.5147 LP             1 S1                 0.0000
     47 ****         1.1356   0.0109  -1.6919 LP             1 S1                 0.0000
     48 ****         2.1139   0.2767  -0.4118 LP             1 S1                 0.0000
     49 ****        -4.2251   3.5199   0.8727 LP             1 S1                 0.0000
     50 ****        -4.4347   1.9146   1.0869 LP             1 S1                 0.0000
@<TRIPOS>BOND
    1    1    2 1     
    2    1   24 1     
    3    1   25 1     
    4    1   26 1     
    5    2   23 1     
    6    2    3 1     
    7    2   27 1     
    8    3    4 1     
    9    3   28 1     
   10    3   29 1     
   11    4    5 1     
   12    4   20 1     
   13    5    6 1     
   14    5   30 1     
   15    5   31 1     
   16    6    7 1     
   17    6    8 1     
   18    6   32 1     
   19    7   33 1     
   20    8    9 1     
   21    8   34 1     
   22    8   35 1     
   23    9   19 1     
   24    9   10 1     
   25   10   11 2     
   26   10   36 1     
   27   11   12 1     
   28   11   45 1     
   29   12   19 ar    
   30   12   13 ar    
   31   13   14 ar    
   32   13   37 1     
   33   14   15 1     
   34   14   16 ar    
   35   16   17 1     
   36   16   18 ar    
   37   18   19 ar    
   38   18   38 1     
   39   20   21 1     
   40   20   39 1     
   41   20   40 1     
   42   21   22 1     
   43   21   23 1     
   44   21   41 1     
   45   22   42 1     
   46   22   43 1     
   47   22   44 1     
   48    4   46 1     
   49    7   47 1     
   50    7   48 1     
   51   23   49 1     
   52   23   50 1     
@<TRIPOS>SUBSTRUCTURE
      1 S1             1
@<TRIPOS>SET
LONE_PAIRS      STATIC     ATOMS    <user>   **** ""
5 46 47 48 49 50
DONOR_HYDROGENS      STATIC     ATOMS    <user>   **** ""
2 33 45
ATOM$BLUE        STATIC     ATOMS    COLORGROUP SYSTEM
5 46 47 48 49 50
ATOM$RED        STATIC     ATOMS    COLORGROUP SYSTEM
2 33 45
