AV-unprocessed.smi:1673|AV-procd|sdf|6710|dock9
  -GOLD-   22720 7453D 1   1.00000     0.00000
 Structure written by MMmdl.
 39 40  0  0  0  0  0  0  0  0  1 V2000
  151.4454  138.1555  154.4591 C   0  0  0  0  0  0  0  0  0  0  0  0
  150.3970  139.2328  154.4276 C   0  0  0  0  0  0  0  0  0  0  0  0
  150.7294  140.4638  154.7883 N   0  0  0  0  0  0  0  0  0  0  0  0
  149.5907  141.2619  154.5979 O   0  0  0  0  0  0  0  0  0  0  0  0
  148.5837  140.4842  154.1213 C   0  0  0  0  0  0  0  0  0  0  0  0
  147.2840  141.1568  153.8356 C   0  0  0  0  0  0  0  0  0  0  0  0
  149.0298  139.1995  154.0235 C   0  0  0  0  0  0  0  0  0  0  0  0
  148.2598  138.1152  153.5339 N   0  0  0  0  0  0  0  0  0  0  0  0
  146.9732  137.8523  153.8076 C   0  0  0  0  0  0  0  0  0  0  0  0
  146.2397  138.5665  154.4905 O   0  0  0  0  0  0  0  0  0  0  0  0
  146.5767  136.7114  153.2262 N   0  0  0  0  0  0  0  0  0  0  0  0
  145.2422  136.1152  153.3165 C   0  0  1  0  0  0  0  0  0  0  0  0
  144.4851  136.3298  151.9903 C   0  0  0  0  0  0  0  0  0  0  0  0
  145.0723  135.4905  150.8422 C   0  0  0  0  0  0  0  0  0  0  0  0
  145.1277  134.0011  151.2136 C   0  0  0  0  0  0  0  0  0  0  0  0
  145.8991  133.7779  152.5244 C   0  0  0  0  0  0  0  0  0  0  0  0
  145.3053  134.6090  153.6806 C   0  0  1  0  0  0  0  0  0  0  0  0
  146.0349  134.3344  155.0071 C   0  0  0  0  0  0  0  0  0  0  0  0
  151.2861  137.4245  153.6664 H   0  0  0  0  0  0  0  0  0  0  0  0
  151.4343  137.6271  155.4122 H   0  0  0  0  0  0  0  0  0  0  0  0
  152.4454  138.5678  154.3220 H   0  0  0  0  0  0  0  0  0  0  0  0
  146.5892  140.4762  153.3434 H   0  0  0  0  0  0  0  0  0  0  0  0
  147.4300  142.0190  153.1848 H   0  0  0  0  0  0  0  0  0  0  0  0
  146.8196  141.5037  154.7585 H   0  0  0  0  0  0  0  0  0  0  0  0
  148.7122  137.5211  152.8546 H   0  0  0  0  0  0  0  0  0  0  0  0
  147.2568  136.2014  152.6818 H   0  0  0  0  0  0  0  0  0  0  0  0
  144.6745  136.6280  154.0951 H   0  0  0  0  0  0  0  0  0  0  0  0
  143.4381  136.0572  152.1291 H   0  0  0  0  0  0  0  0  0  0  0  0
  144.4882  137.3867  151.7205 H   0  0  0  0  0  0  0  0  0  0  0  0
  144.4733  135.6255  149.9412 H   0  0  0  0  0  0  0  0  0  0  0  0
  146.0748  135.8448  150.5991 H   0  0  0  0  0  0  0  0  0  0  0  0
  144.1138  133.6132  151.3172 H   0  0  0  0  0  0  0  0  0  0  0  0
  145.5935  133.4346  150.4069 H   0  0  0  0  0  0  0  0  0  0  0  0
  145.8790  132.7179  152.7797 H   0  0  0  0  0  0  0  0  0  0  0  0
  146.9486  134.0370  152.3796 H   0  0  0  0  0  0  0  0  0  0  0  0
  144.2762  134.2742  153.8198 H   0  0  0  0  0  0  0  0  0  0  0  0
  147.0971  134.5708  154.9415 H   0  0  0  0  0  0  0  0  0  0  0  0
  145.9503  133.2845  155.2886 H   0  0  0  0  0  0  0  0  0  0  0  0
  145.6106  134.9271  155.8179 H   0  0  0  0  0  0  0  0  0  0  0  0
  1  2  1  0  0  0  0
  1 19  1  0  0  0  0
  1 20  1  0  0  0  0
  1 21  1  0  0  0  0
  2  7  1  0  0  0  0
  2  3  2  0  0  0  0
  3  4  1  0  0  0  0
  4  5  1  0  0  0  0
  5  6  1  0  0  0  0
  5  7  2  0  0  0  0
  6 22  1  0  0  0  0
  6 23  1  0  0  0  0
  6 24  1  0  0  0  0
  7  8  1  0  0  0  0
  8  9  1  0  0  0  0
  8 25  1  0  0  0  0
  9 10  2  0  0  0  0
  9 11  1  0  0  0  0
 11 12  1  0  0  0  0
 11 26  1  0  0  0  0
 12 17  1  0  0  0  0
 12 13  1  0  0  0  0
 12 27  1  0  0  0  0
 13 14  1  0  0  0  0
 13 28  1  0  0  0  0
 13 29  1  0  0  0  0
 14 15  1  0  0  0  0
 14 30  1  0  0  0  0
 14 31  1  0  0  0  0
 15 16  1  0  0  0  0
 15 32  1  0  0  0  0
 15 33  1  0  0  0  0
 16 17  1  0  0  0  0
 16 34  1  0  0  0  0
 16 35  1  0  0  0  0
 17 18  1  0  0  0  0
 17 36  1  0  0  0  0
 18 37  1  0  0  0  0
 18 38  1  0  0  0  0
 18 39  1  0  0  0  0
M  END
> <s_m_source_file>
AV-unprocessed.smi

> <i_m_source_file_index>
1673

> <i_lp_mmshare_version>
43012

> <i_f3d_flags>
0

> <s_epik_input>
W0NIM11jMW5vYyhbQ0gzXSljMVtOSF1DKD1PKVtOSF1bQ0BASF0yW0NIMl1bQ0gyXVtDSDJdW0NIMl1bQ0BIXTJbQ0gzXQ==

> <s_epik_cmdline>
J2VwaWtfcHl0aG9uJywgJy1waCcsICc3LjAnLCAnLXRuJywgJzgnLCAnLW1hJywgJzIwMCcsICctbWV0YWxfYmluZGluZycsICctaW1hZScsICc8aW5maWxlLm1hZT4nLCAnLW9tYWUnLCAnPG91dGZpbGUubWFlPic=

> <r_lp_tautomer_probability>
1

> <r_epik_Ionization_Penalty>
4.01865e-05

> <r_epik_Ionization_Penalty_Charging>
0

> <r_epik_Ionization_Penalty_Neutral>
4.01865e-05

> <r_epik_State_Penalty>
-0

> <r_epik_Charging_Adjusted_Penalty>
0

> <i_epik_Tot_Q>
0

> <i_epik_Tot_abs_Q>
0

> <r_epik_Metal_State_Penalty>
-0

> <b_epik_Metal_Only>
0

> <s_lp_Force_Field>
OPLS_2005

> <r_lp_Energy>
11.4639

> <b_lp_Chiralities_Consistent>
1

> <s_lp_Variant>
AV-unprocessed.smi:1673-2

> <Gold.Version>
5.8.1

> <Gold.Id.Protein>
6NUR|6NUR_protein|mol2

> <Gold.PLP.Fitness>
36.3416

> <Gold.PLP.PLP>
-28.1921

> <Gold.PLP.part.hbond>
-4.1690

> <Gold.PLP.part.metal>
0.0000

> <Gold.PLP.part.buried>
-1.1891

> <Gold.PLP.part.nonpolar>
-21.9580

> <Gold.PLP.part.repulsive>
0.3551

> <Gold.PLP.ligand.clash>
0.0000

> <Gold.PLP.ligand.torsion>
0.4635

> <Gold.PLP.Chemscore.Hbond>
2.9440

> <Gold.PLP.Chemscore.CHOScore>
0.0000

> <Gold.PLP.Chemscore.Metal>
0.0000

> <Gold.Chemscore.Hbonds>
donor molecule, donor type, donor heavy atom, donor atom, acceptor molecule, acceptor atom, score
      L1  H     8    25       P1  7948  1.00
      L1  H    11    26       P1  7948  0.94
      P1  H  7989  7998       L1     3  0.95

> <Gold.PLP.Chemscore.Internal.Correction>
0.2447

> <Gold.Rescore>
     Score         DG    S(hbond)    S(metal)    S(lipo)     H(rot)  DE(clash)    DE(int)     intcor
     16.17     -16.75       1.93        0.00      63.13       1.00       0.03       0.55       ----

> <Gold.Chemscore.Fitness>
16.1661

> <Gold.Chemscore.DG>
-16.7473

> <Gold.Chemscore.ZeroCoef>
-5.4800

> <Gold.Chemscore.Hbond>
1.9285

> <Gold.Chemscore.Metal>
0.0000

> <Gold.Chemscore.Lipo>
63.1283

> <Gold.Chemscore.Internal_Hbond>
0.0000

> <Gold.Chemscore.DEClash>
0.0299

> <Gold.Chemscore.DEInternal>
0.5513

> <Gold.Chemscore.Rot>
1.0000

> <Gold.Chemscore.Internal.Correction>
   9.000000E+99

> <Gold.Chemscore.Hbonds>
donor molecule, donor type, donor heavy atom, donor atom, acceptor molecule, acceptor atom, score
      L1  H     8    25       P1  7948  0.99
      L1  H    11    26       P1  7948  0.91
      P1  H  7989  7998       L1     3  0.06

> <Gold.Chemscore.Hbond.Weighted>
-6.4413

> <Gold.Chemscore.Metal.Weighted>
-0.0000

> <Gold.Chemscore.Lipo.Weighted>
-7.3860

> <Gold.Chemscore.Internal_Hbond.Weighted>
0.0000

> <Gold.Chemscore.DEClash.Weighted>
0.0299

> <Gold.Chemscore.DEInternal.Weighted>
0.5513

> <Gold.Chemscore.Rot.Weighted>
2.5600

> <Gold.Chemscore.Internal.Correction.Weighted>
   9.000000E+99

> <Gold.Protein.RotatedTorsions>
[ 6907 6896 6895 6894 ] final  -57.99 input  -60.11 | X-H torsion
[ 7974 7965 7964 7962 ] final   98.85 input  175.53 | X-H torsion
[ 8008 7997 7996 7995 ] final -135.71 input   59.86 | X-H torsion
[ 10167 10162 10161 10158 ] final  150.16 input  -65.29 | X-H torsion
[ 10718 10713 10712 10709 ] final  -42.73 input   66.30 | X-H torsion
[ 10763 10752 10751 10750 ] final  -14.84 input  -60.55 | X-H torsion
[ 11005 11000 10999 10996 ] final  127.65 input  -57.11 | X-H torsion

> <Gold.Protein.ActiveResidues>
 VAL166  LYS551  ARG553  GLY616  TRP617  ASP618  TYR619  PRO620  LYS621  CYS622 
 ASP623  PHE694  ASN695  SER759  ASP760  ASP761  ALA762  ILE779  LEU786  VAL792 
 PHE793  MET794  SER795  GLU796  ALA797  LYS798  CYS799  TRP800  GLU811  SER814 

> <Gold.Protein.RotatedAtoms>
  150.8042  134.7156  159.6628 H   0  0  0  0  0  0  0  0  0  0  0  0  # atno 6907 bound_to 6896
  152.4160  134.6036  160.0016 H   0  0  0  0  0  0  0  0  0  0  0  0  # atno 6908 bound_to 6896
  151.6265  133.3298  159.3135 H   0  0  0  0  0  0  0  0  0  0  0  0  # atno 6909 bound_to 6896
  145.4067  139.2339  143.3270 H   0  0  0  0  0  0  0  0  0  0  0  0  # atno 7974 bound_to 7965
  155.3832  140.0495  157.3043 H   0  0  0  0  0  0  0  0  0  0  0  0  # atno 8008 bound_to 7997
  154.5072  140.2178  155.9189 H   0  0  0  0  0  0  0  0  0  0  0  0  # atno 8009 bound_to 7997
  156.1540  140.3130  155.8700 H   0  0  0  0  0  0  0  0  0  0  0  0  # atno 8010 bound_to 7997
  139.4853  144.5544  151.7344 H   0  0  0  0  0  0  0  0  0  0  0  0  # atno 10167 bound_to 10162
  156.2565  130.4193  149.8590 H   0  0  0  0  0  0  0  0  0  0  0  0  # atno 10718 bound_to 10713
  153.5343  135.7014  153.5668 H   0  0  0  0  0  0  0  0  0  0  0  0  # atno 10763 bound_to 10752
  153.3661  135.3957  155.1754 H   0  0  0  0  0  0  0  0  0  0  0  0  # atno 10764 bound_to 10752
  154.8681  135.3800  154.4842 H   0  0  0  0  0  0  0  0  0  0  0  0  # atno 10765 bound_to 10752
  139.9519  134.9620  156.8886 H   0  0  0  0  0  0  0  0  0  0  0  0  # atno 11005 bound_to 11000
  146.2725  140.4773  142.8808 LP  0  0  0  0  0  0  0  0  0  0  0  0  # atno 17320 bound_to 7965
  144.8337  140.6747  143.6274 LP  0  0  0  0  0  0  0  0  0  0  0  0  # atno 17321 bound_to 7965
  140.5103  144.1035  150.5993 LP  0  0  0  0  0  0  0  0  0  0  0  0  # atno 17342 bound_to 10162
  140.3958  143.2729  152.0006 LP  0  0  0  0  0  0  0  0  0  0  0  0  # atno 17343 bound_to 10162
  156.6121  130.8591  151.3456 LP  0  0  0  0  0  0  0  0  0  0  0  0  # atno 17370 bound_to 10713
  157.7234  130.9589  150.1533 LP  0  0  0  0  0  0  0  0  0  0  0  0  # atno 17371 bound_to 10713
  140.5699  134.0453  155.7427 LP  0  0  0  0  0  0  0  0  0  0  0  0  # atno 17394 bound_to 11000
  141.1183  133.9503  157.2779 LP  0  0  0  0  0  0  0  0  0  0  0  0  # atno 17395 bound_to 11000

$$$$
