AV-unprocessed.smi:166|AV-procd|sdf|1391|dock10
  -GOLD-   2262019133D 1   1.00000     0.00000
 Structure written by MMmdl.
 54 58  0  0  0  0  0  0  0  0  1 V2000
  145.3251  135.7710  150.2527 O   0  0  0  0  0  0  0  0  0  0  0  0
  145.1439  134.7197  151.1859 C   0  0  2  0  0  0  0  0  0  0  0  0
  144.5837  135.2959  152.5079 C   0  0  0  0  0  0  0  0  0  0  0  0
  145.3637  136.4015  153.0426 N   0  0  0  0  0  0  0  0  0  0  0  0
  145.1651  137.7446  152.8120 C   0  0  0  0  0  0  0  0  0  0  0  0
  146.0039  138.5431  153.4137 N   0  0  0  0  0  0  0  0  0  0  0  0
  146.8401  137.6863  154.1191 C   0  0  0  0  0  0  0  0  0  0  0  0
  147.9580  137.8702  154.9806 C   0  0  0  0  0  0  0  0  0  0  0  0
  148.4852  139.0671  155.3119 N   0  0  0  0  0  0  0  0  0  0  0  0
  148.8787  139.8599  154.1513 C   0  0  0  0  0  0  0  0  0  0  0  0
  149.2423  141.2925  154.5734 C   0  0  0  0  0  0  0  0  0  0  0  0
  150.3126  141.2805  155.6761 C   0  0  0  0  0  0  0  0  0  0  0  0
  149.8533  140.4207  156.8669 C   0  0  2  0  0  0  0  0  0  0  0  0
  150.9249  140.3759  157.7999 O   0  0  0  0  0  0  0  0  0  0  0  0
  151.1892  141.6087  158.4519 C   0  0  0  0  0  0  0  0  0  0  0  0
  152.5360  141.5176  159.1363 C   0  0  0  0  0  0  0  0  0  0  0  0
  152.7034  142.0079  160.5566 C   0  0  0  0  0  0  0  0  0  0  0  0
  153.3460  142.7621  159.4209 C   0  0  0  0  0  0  0  0  0  0  0  0
  149.4753  139.0045  156.3843 C   0  0  0  0  0  0  0  0  0  0  0  0
  148.5346  136.7698  155.5218 N   0  0  0  0  0  0  0  0  0  0  0  0
  148.0547  135.5558  155.2344 C   0  0  0  0  0  0  0  0  0  0  0  0
  147.0276  135.2284  154.4467 N   0  0  0  0  0  0  0  0  0  0  0  0
  146.4450  136.3364  153.9040 C   0  0  0  0  0  0  0  0  0  0  0  0
  146.4823  134.0144  151.3767 C   0  0  0  0  0  0  0  0  0  0  0  0
  146.4467  132.9191  150.3200 C   0  0  0  0  0  0  0  0  0  0  0  0
  145.0986  132.4866  150.3712 O   0  0  0  0  0  0  0  0  0  0  0  0
  144.2661  133.6302  150.5328 C   0  0  0  0  0  0  0  0  0  0  0  0
  145.6530  135.4042  149.4458 H   0  0  0  0  0  0  0  0  0  0  0  0
  143.5590  135.6413  152.3634 H   0  0  0  0  0  0  0  0  0  0  0  0
  144.5367  134.5140  153.2670 H   0  0  0  0  0  0  0  0  0  0  0  0
  144.3729  138.1180  152.1796 H   0  0  0  0  0  0  0  0  0  0  0  0
  149.7329  139.3896  153.6620 H   0  0  0  0  0  0  0  0  0  0  0  0
  148.0658  139.8831  153.4238 H   0  0  0  0  0  0  0  0  0  0  0  0
  149.5973  141.8580  153.7116 H   0  0  0  0  0  0  0  0  0  0  0  0
  148.3497  141.8041  154.9357 H   0  0  0  0  0  0  0  0  0  0  0  0
  151.2454  140.8834  155.2730 H   0  0  0  0  0  0  0  0  0  0  0  0
  150.5230  142.2984  156.0057 H   0  0  0  0  0  0  0  0  0  0  0  0
  148.9850  140.8994  157.3240 H   0  0  0  0  0  0  0  0  0  0  0  0
  151.1934  142.4319  157.7358 H   0  0  0  0  0  0  0  0  0  0  0  0
  150.4321  141.8226  159.2061 H   0  0  0  0  0  0  0  0  0  0  0  0
  153.0986  140.6215  158.8806 H   0  0  0  0  0  0  0  0  0  0  0  0
  151.8428  142.4661  161.0403 H   0  0  0  0  0  0  0  0  0  0  0  0
  153.3555  141.4337  161.2118 H   0  0  0  0  0  0  0  0  0  0  0  0
  154.4267  142.6909  159.3156 H   0  0  0  0  0  0  0  0  0  0  0  0
  152.9136  143.7228  159.1479 H   0  0  0  0  0  0  0  0  0  0  0  0
  149.0709  138.4145  157.2071 H   0  0  0  0  0  0  0  0  0  0  0  0
  150.3699  138.4914  156.0302 H   0  0  0  0  0  0  0  0  0  0  0  0
  148.5661  134.7284  155.7039 H   0  0  0  0  0  0  0  0  0  0  0  0
  147.3458  134.6740  151.2814 H   0  0  0  0  0  0  0  0  0  0  0  0
  146.5282  133.5506  152.3632 H   0  0  0  0  0  0  0  0  0  0  0  0
  146.6693  133.3192  149.3297 H   0  0  0  0  0  0  0  0  0  0  0  0
  147.1404  132.1050  150.5307 H   0  0  0  0  0  0  0  0  0  0  0  0
  143.4125  133.3508  151.1492 H   0  0  0  0  0  0  0  0  0  0  0  0
  143.8790  133.9423  149.5612 H   0  0  0  0  0  0  0  0  0  0  0  0
  1  2  1  0  0  0  0
  1 28  1  0  0  0  0
  2 27  1  0  0  0  0
  2  3  1  0  0  0  0
  2 24  1  0  0  0  0
  3  4  1  0  0  0  0
  3 29  1  0  0  0  0
  3 30  1  0  0  0  0
  4 23  1  0  0  0  0
  4  5  1  0  0  0  0
  5  6  2  0  0  0  0
  5 31  1  0  0  0  0
  6  7  1  0  0  0  0
  7 23  2  0  0  0  0
  7  8  1  0  0  0  0
  8  9  1  0  0  0  0
  8 20  2  0  0  0  0
  9 19  1  0  0  0  0
  9 10  1  0  0  0  0
 10 11  1  0  0  0  0
 10 32  1  0  0  0  0
 10 33  1  0  0  0  0
 11 12  1  0  0  0  0
 11 34  1  0  0  0  0
 11 35  1  0  0  0  0
 12 13  1  0  0  0  0
 12 36  1  0  0  0  0
 12 37  1  0  0  0  0
 13 14  1  0  0  0  0
 13 19  1  0  0  0  0
 13 38  1  0  0  0  0
 14 15  1  0  0  0  0
 15 16  1  0  0  0  0
 15 39  1  0  0  0  0
 15 40  1  0  0  0  0
 16 18  1  0  0  0  0
 16 17  1  0  0  0  0
 16 41  1  0  0  0  0
 17 18  1  0  0  0  0
 17 42  1  0  0  0  0
 17 43  1  0  0  0  0
 18 44  1  0  0  0  0
 18 45  1  0  0  0  0
 19 46  1  0  0  0  0
 19 47  1  0  0  0  0
 20 21  1  0  0  0  0
 21 22  2  0  0  0  0
 21 48  1  0  0  0  0
 22 23  1  0  0  0  0
 24 25  1  0  0  0  0
 24 49  1  0  0  0  0
 24 50  1  0  0  0  0
 25 26  1  0  0  0  0
 25 51  1  0  0  0  0
 25 52  1  0  0  0  0
 26 27  1  0  0  0  0
 27 53  1  0  0  0  0
 27 54  1  0  0  0  0
M  END
> <s_m_source_file>
AV-unprocessed.smi

> <i_m_source_file_index>
166

> <i_lp_mmshare_version>
43012

> <i_f3d_flags>
0

> <s_epik_input>
W0NIMl0xT1tDSDJdW0NIMl1bQ0BAXTEoW09IXSlbQ0gyXW4oW2NIXW4yKWMoYzIzKW5bY0hdbmMzTjRbQ0gyXVtDSDJdW0NIMl1bQ0BIXShbQ0gyXTQpT1tDSDJdW0NIXTVbQ0gyXVtDSDJdNQ==

> <s_epik_cmdline>
J2VwaWtfcHl0aG9uJywgJy1waCcsICc3LjAnLCAnLXRuJywgJzgnLCAnLW1hJywgJzIwMCcsICctbWV0YWxfYmluZGluZycsICctaW1hZScsICc8aW5maWxlLm1hZT4nLCAnLW9tYWUnLCAnPG91dGZpbGUubWFlPic=

> <r_lp_tautomer_probability>
1

> <r_epik_Ionization_Penalty>
0.00342552

> <r_epik_Ionization_Penalty_Charging>
0

> <r_epik_Ionization_Penalty_Neutral>
0.00342552

> <r_epik_State_Penalty>
0.0022204

> <r_epik_Charging_Adjusted_Penalty>
0.0022204

> <i_epik_Tot_Q>
0

> <i_epik_Tot_abs_Q>
0

> <r_epik_Metal_State_Penalty>
-0

> <b_epik_Metal_Only>
0

> <s_lp_Force_Field>
OPLS_2005

> <r_lp_Energy>
47.9091

> <b_lp_Chiralities_Consistent>
1

> <s_lp_Variant>
AV-unprocessed.smi:166-4

> <Gold.Version>
5.8.1

> <Gold.Id.Protein>
6NUR|6NUR_protein|mol2

> <Gold.PLP.Fitness>
43.5758

> <Gold.PLP.PLP>
-36.5117

> <Gold.PLP.part.hbond>
-1.7011

> <Gold.PLP.part.metal>
0.0000

> <Gold.PLP.part.buried>
-2.2930

> <Gold.PLP.part.nonpolar>
-31.5234

> <Gold.PLP.part.repulsive>
0.5756

> <Gold.PLP.ligand.clash>
0.0000

> <Gold.PLP.ligand.torsion>
1.0717

> <Gold.PLP.Chemscore.Hbond>
1.0000

> <Gold.PLP.Chemscore.CHOScore>
1.7953

> <Gold.PLP.Chemscore.Metal>
0.0000

> <Gold.Chemscore.Hbonds>
donor molecule, donor type, donor heavy atom, donor atom, acceptor molecule, acceptor atom, score
      L1  H     1    28       P1  7921  1.00
      L1  C     5    31       P1 10171  1.00
      L1  C     5    31       P1 10175  0.78

> <Gold.PLP.Chemscore.Internal.Correction>
0.8218

> <Gold.Rescore>
     Score         DG    S(hbond)    S(metal)    S(lipo)     H(rot)  DE(clash)    DE(int)     intcor
     12.31     -13.56       0.96        0.00     100.41       2.68       0.16       1.09       ----

> <Gold.Chemscore.Fitness>
12.3144

> <Gold.Chemscore.DG>
-13.5570

> <Gold.Chemscore.ZeroCoef>
-5.4800

> <Gold.Chemscore.Hbond>
0.9563

> <Gold.Chemscore.Metal>
0.0000

> <Gold.Chemscore.Lipo>
100.4106

> <Gold.Chemscore.Internal_Hbond>
0.0000

> <Gold.Chemscore.DEClash>
0.1571

> <Gold.Chemscore.DEInternal>
1.0855

> <Gold.Chemscore.Rot>
2.6817

> <Gold.Chemscore.Internal.Correction>
   9.000000E+99

> <Gold.Chemscore.Hbonds>
donor molecule, donor type, donor heavy atom, donor atom, acceptor molecule, acceptor atom, score
      L1  H     1    28       P1  7921  0.98

> <Gold.Chemscore.Hbond.Weighted>
-3.1940

> <Gold.Chemscore.Metal.Weighted>
-0.0000

> <Gold.Chemscore.Lipo.Weighted>
-11.7480

> <Gold.Chemscore.Internal_Hbond.Weighted>
0.0000

> <Gold.Chemscore.DEClash.Weighted>
0.1571

> <Gold.Chemscore.DEInternal.Weighted>
1.0855

> <Gold.Chemscore.Rot.Weighted>
6.8651

> <Gold.Chemscore.Internal.Correction.Weighted>
   9.000000E+99

> <Gold.Protein.RotatedTorsions>
[ 6907 6896 6895 6894 ] final -108.77 input  -60.11 | X-H torsion
[ 7974 7965 7964 7962 ] final -171.90 input  175.53 | X-H torsion
[ 8008 7997 7996 7995 ] final  -39.44 input   59.86 | X-H torsion
[ 10167 10162 10161 10158 ] final   21.58 input  -65.29 | X-H torsion
[ 10718 10713 10712 10709 ] final -179.97 input   66.30 | X-H torsion
[ 10763 10752 10751 10750 ] final  -88.52 input  -60.55 | X-H torsion
[ 11005 11000 10999 10996 ] final   39.37 input  -57.11 | X-H torsion

> <Gold.Protein.ActiveResidues>
 VAL166  LYS551  ARG553  GLY616  TRP617  ASP618  TYR619  PRO620  LYS621  CYS622 
 ASP623  PHE694  ASN695  SER759  ASP760  ASP761  ALA762  ILE779  LEU786  VAL792 
 PHE793  MET794  SER795  GLU796  ALA797  LYS798  CYS799  TRP800  GLU811  SER814 

> <Gold.Protein.RotatedAtoms>
  150.7521  133.9628  159.3520 H   0  0  0  0  0  0  0  0  0  0  0  0  # atno 6907 bound_to 6896
  151.7555  135.0820  160.0347 H   0  0  0  0  0  0  0  0  0  0  0  0  # atno 6908 bound_to 6896
  152.3438  133.6060  159.5931 H   0  0  0  0  0  0  0  0  0  0  0  0  # atno 6909 bound_to 6896
  144.7152  140.1853  143.6354 H   0  0  0  0  0  0  0  0  0  0  0  0  # atno 7974 bound_to 7965
  154.4023  140.1551  156.2864 H   0  0  0  0  0  0  0  0  0  0  0  0  # atno 8008 bound_to 7997
  155.8824  140.3443  155.5875 H   0  0  0  0  0  0  0  0  0  0  0  0  # atno 8009 bound_to 7997
  155.7652  140.0823  157.2126 H   0  0  0  0  0  0  0  0  0  0  0  0  # atno 8010 bound_to 7997
  140.5415  143.9669  150.6522 H   0  0  0  0  0  0  0  0  0  0  0  0  # atno 10167 bound_to 10162
  156.8670  130.9771  151.3077 H   0  0  0  0  0  0  0  0  0  0  0  0  # atno 10718 bound_to 10713
  154.6454  135.5374  153.7838 H   0  0  0  0  0  0  0  0  0  0  0  0  # atno 10763 bound_to 10752
  153.0356  135.6469  154.1097 H   0  0  0  0  0  0  0  0  0  0  0  0  # atno 10764 bound_to 10752
  154.1018  135.2932  155.3230 H   0  0  0  0  0  0  0  0  0  0  0  0  # atno 10765 bound_to 10752
  140.2034  134.3842  155.8084 H   0  0  0  0  0  0  0  0  0  0  0  0  # atno 11005 bound_to 11000
  145.8818  139.2327  143.1600 LP  0  0  0  0  0  0  0  0  0  0  0  0  # atno 17320 bound_to 7965
  145.9987  140.8539  143.0029 LP  0  0  0  0  0  0  0  0  0  0  0  0  # atno 17321 bound_to 7965
  140.3070  143.3223  152.0916 LP  0  0  0  0  0  0  0  0  0  0  0  0  # atno 17342 bound_to 10162
  139.4991  144.6660  151.6354 LP  0  0  0  0  0  0  0  0  0  0  0  0  # atno 17343 bound_to 10162
  157.6217  130.8660  149.9120 LP  0  0  0  0  0  0  0  0  0  0  0  0  # atno 17370 bound_to 10713
  156.0746  130.3680  150.0704 LP  0  0  0  0  0  0  0  0  0  0  0  0  # atno 17371 bound_to 10713
  141.2227  133.7106  156.8297 LP  0  0  0  0  0  0  0  0  0  0  0  0  # atno 17394 bound_to 11000
  140.2029  134.8884  157.3189 LP  0  0  0  0  0  0  0  0  0  0  0  0  # atno 17395 bound_to 11000

$$$$
