#       Name:                AV-unprocessed.smi:396
#       Creating user name   scv26
#       Creation time:       Thu Mar 26 22:43:02 2020


#       File generated by GOLD software.
#

@<TRIPOS>MOLECULE
AV-unprocessed.smi:396
    47    49     1
SMALL
NO_CHARGES


@<TRIPOS>ATOM
      1 ****        -4.7048  -3.6101  -1.5563 N.1            1 S1                 0.0000
      2 ****        -4.0761  -2.6398  -1.5024 C.1            1 S1                 0.0000
      3 ****        -3.3277  -1.4284  -1.4407 C.2            1 S1                 0.0000
      4 ****        -3.9289  -0.2209  -1.4381 C.2            1 S1                 0.0000
      5 ****        -3.2211   0.9590  -1.3663 N.am           1 S1                 0.0000
      6 ****        -3.8706   2.2324  -1.5003 C.3            1 S1                 0.0000
      7 ****        -3.6835   3.3010  -0.4406 C.3            1 S1                 0.0000
      8 ****        -5.0041   2.5808  -0.5601 C.3            1 S1                 0.0000
      9 ****        -1.8093   0.9421  -1.3796 C.2            1 S1                 0.0000
     10 ****        -1.1585   1.9900  -1.3985 O.2            1 S1                 0.0000
     11 ****        -1.1618  -0.3173  -1.3701 N.am           1 S1                 0.0000
     12 ****         0.3162  -0.3517  -1.3119 C.3            1 S1                 0.0000
     13 ****         0.8716  -0.3210   0.1201 C.2            1 S1                 0.0000
     14 ****         0.1219  -0.3895   1.0956 O.2            1 S1                 0.0000
     15 ****         2.2051  -0.2242   0.2276 N.am           1 S1                 0.0000
     16 ****         2.9422  -0.1826   1.4877 C.3            1 S1                 0.0000
     17 ****         4.3867   0.2968   1.2557 C.3            1 S1                 0.0000
     18 ****         5.2745  -0.9325   1.4516 C.3            1 S1                 0.0000
     19 ****         4.5296  -1.7666   2.4888 C.3            1 S1                 0.0000
     20 ****         3.0538  -1.5800   2.1329 C.3            1 S1                 0.0000
     21 ****        -1.8724  -1.5448  -1.3827 C.2            1 S1                 0.0000
     22 ****        -1.2780  -2.6236  -1.3454 O.2            1 S1                 0.0000
     23 ****        -5.0074  -0.1740  -1.4850 H              1 S1                 0.0000
     24 ****        -3.9770   2.5931  -2.5219 H              1 S1                 0.0000
     25 ****        -3.0669   3.0661   0.4251 H              1 S1                 0.0000
     26 ****        -3.6410   4.3353  -0.7752 H              1 S1                 0.0000
     27 ****        -5.8442   3.1356  -0.9726 H              1 S1                 0.0000
     28 ****        -5.2559   1.8713   0.2259 H              1 S1                 0.0000
     29 ****         0.7105  -1.2367  -1.8137 H              1 S1                 0.0000
     30 ****         0.7464   0.4806  -1.8715 H              1 S1                 0.0000
     31 ****         2.7488  -0.1745  -0.6218 H              1 S1                 0.0000
     32 ****         2.4477   0.5104   2.1712 H              1 S1                 0.0000
     33 ****         4.5391   0.7623   0.2809 H              1 S1                 0.0000
     34 ****         4.6412   1.0441   2.0087 H              1 S1                 0.0000
     35 ****         5.3464  -1.4883   0.5156 H              1 S1                 0.0000
     36 ****         6.2860  -0.6744   1.7664 H              1 S1                 0.0000
     37 ****         4.8334  -2.8138   2.4847 H              1 S1                 0.0000
     38 ****         4.7209  -1.3674   3.4858 H              1 S1                 0.0000
     39 ****         2.4081  -1.6818   3.0056 H              1 S1                 0.0000
     40 ****         2.7600  -2.3564   1.4242 H              1 S1                 0.0000
     41 ****        -5.2480  -4.4484  -1.6029 LP             1 S1                 0.0000
     42 ****        -1.6304   2.8716  -1.4046 LP             1 S1                 0.0000
     43 ****        -0.1591   1.9578  -1.4077 LP             1 S1                 0.0000
     44 ****        -0.8662  -0.4666   0.9624 LP             1 S1                 0.0000
     45 ****         0.5015  -0.3680   2.0205 LP             1 S1                 0.0000
     46 ****        -1.7947  -3.4797  -1.3541 LP             1 S1                 0.0000
     47 ****        -0.2790  -2.6429  -1.3064 LP             1 S1                 0.0000
@<TRIPOS>BOND
    1    1    2 3     
    2    2    3 1     
    3    3   21 1     
    4    3    4 2     
    5    4    5 1     
    6    4   23 1     
    7    5    6 1     
    8    5    9 am    
    9    6    8 1     
   10    6    7 1     
   11    6   24 1     
   12    7    8 1     
   13    7   25 1     
   14    7   26 1     
   15    8   27 1     
   16    8   28 1     
   17    9   10 2     
   18    9   11 am    
   19   11   12 1     
   20   11   21 am    
   21   12   13 1     
   22   12   29 1     
   23   12   30 1     
   24   13   14 2     
   25   13   15 am    
   26   15   16 1     
   27   15   31 1     
   28   16   20 1     
   29   16   17 1     
   30   16   32 1     
   31   17   18 1     
   32   17   33 1     
   33   17   34 1     
   34   18   19 1     
   35   18   35 1     
   36   18   36 1     
   37   19   20 1     
   38   19   37 1     
   39   19   38 1     
   40   20   39 1     
   41   20   40 1     
   42   21   22 2     
   43    1   41 1     
   44   10   42 1     
   45   10   43 1     
   46   14   44 1     
   47   14   45 1     
   48   22   46 1     
   49   22   47 1     
@<TRIPOS>SUBSTRUCTURE
      1 S1             1
@<TRIPOS>SET
LONE_PAIRS      STATIC     ATOMS    <user>   **** ""
7 41 42 43 44 45 46 47
DONOR_HYDROGENS      STATIC     ATOMS    <user>   **** ""
1 31
ATOM$BLUE        STATIC     ATOMS    COLORGROUP SYSTEM
7 41 42 43 44 45 46 47
ATOM$RED        STATIC     ATOMS    COLORGROUP SYSTEM
1 31
