AV-unprocessed.smi:1584|AV-procd|sdf|6368|dock8
  -GOLD-   22720 6593D 1   1.00000     0.00000
 Structure written by MMmdl.
 39 40  0  0  0  0  0  0  0  0  1 V2000
  150.7702  137.2634  156.7731 C   0  0  0  0  0  0  0  0  0  0  0  0
  151.7755  138.3667  156.4127 C   0  0  1  0  0  0  0  0  0  0  0  0
  151.6543  138.7889  154.9356 C   0  0  0  0  0  0  0  0  0  0  0  0
  150.4576  139.5726  154.6837 N   0  0  0  0  0  0  0  0  0  0  0  0
  149.2944  139.1829  154.0534 C   0  0  0  0  0  0  0  0  0  0  0  0
  148.4473  140.2537  154.0658 C   0  0  0  0  0  0  0  0  0  0  0  0
  149.1927  141.2660  154.7323 C   0  0  0  0  0  0  0  0  0  0  0  0
  150.3957  140.8555  155.1006 N   0  0  0  0  0  0  0  0  0  0  0  0
  151.5652  139.5250  157.2790 N   0  0  0  0  0  0  0  0  0  0  0  0
  152.4427  140.0044  158.1737 C   0  0  0  0  0  0  0  0  0  0  0  0
  153.5312  139.4772  158.4057 O   0  0  0  0  0  0  0  0  0  0  0  0
  152.0255  141.2812  158.9147 C   0  0  1  0  0  0  0  0  0  0  0  0
  153.1353  141.7540  159.8614 C   0  0  0  0  0  0  0  0  0  0  0  0
  152.6677  142.9902  160.6407 C   0  0  0  0  0  0  0  0  0  0  0  0
  152.0484  144.0208  159.7949 N   0  0  0  0  0  0  0  0  0  0  0  0
  151.9401  145.3434  160.4127 C   0  0  0  0  0  0  0  0  0  0  0  0
  151.5325  143.7958  158.5621 C   0  0  0  0  0  0  0  0  0  0  0  0
  150.9658  144.6754  157.9131 O   0  0  0  0  0  0  0  0  0  0  0  0
  151.6802  142.4065  157.9192 C   0  0  0  0  0  0  0  0  0  0  0  0
  150.9186  136.3805  156.1511 H   0  0  0  0  0  0  0  0  0  0  0  0
  149.7427  137.6007  156.6331 H   0  0  0  0  0  0  0  0  0  0  0  0
  150.8819  136.9547  157.8130 H   0  0  0  0  0  0  0  0  0  0  0  0
  152.7798  137.9666  156.5652 H   0  0  0  0  0  0  0  0  0  0  0  0
  152.5199  139.3836  154.6404 H   0  0  0  0  0  0  0  0  0  0  0  0
  151.6421  137.9133  154.2849 H   0  0  0  0  0  0  0  0  0  0  0  0
  149.1658  138.1861  153.6582 H   0  0  0  0  0  0  0  0  0  0  0  0
  147.4474  140.3059  153.6614 H   0  0  0  0  0  0  0  0  0  0  0  0
  148.8970  142.2796  154.9588 H   0  0  0  0  0  0  0  0  0  0  0  0
  150.6941  140.0222  157.1637 H   0  0  0  0  0  0  0  0  0  0  0  0
  151.1371  141.0612  159.5102 H   0  0  0  0  0  0  0  0  0  0  0  0
  153.4154  140.9627  160.5582 H   0  0  0  0  0  0  0  0  0  0  0  0
  154.0342  142.0027  159.2943 H   0  0  0  0  0  0  0  0  0  0  0  0
  151.9365  142.6907  161.3926 H   0  0  0  0  0  0  0  0  0  0  0  0
  153.5171  143.4099  161.1816 H   0  0  0  0  0  0  0  0  0  0  0  0
  150.9006  145.6741  160.4414 H   0  0  0  0  0  0  0  0  0  0  0  0
  152.5170  146.0770  159.8479 H   0  0  0  0  0  0  0  0  0  0  0  0
  152.3091  145.3506  161.4390 H   0  0  0  0  0  0  0  0  0  0  0  0
  152.4544  142.4907  157.1548 H   0  0  0  0  0  0  0  0  0  0  0  0
  150.7557  142.1624  157.3940 H   0  0  0  0  0  0  0  0  0  0  0  0
  1  2  1  0  0  0  0
  1 20  1  0  0  0  0
  1 21  1  0  0  0  0
  1 22  1  0  0  0  0
  2  3  1  0  0  0  0
  2  9  1  0  0  0  0
  2 23  1  0  0  0  0
  3  4  1  0  0  0  0
  3 24  1  0  0  0  0
  3 25  1  0  0  0  0
  4  8  1  0  0  0  0
  4  5  1  0  0  0  0
  5  6  2  0  0  0  0
  5 26  1  0  0  0  0
  6  7  1  0  0  0  0
  6 27  1  0  0  0  0
  7  8  2  0  0  0  0
  7 28  1  0  0  0  0
  9 10  1  0  0  0  0
  9 29  1  0  0  0  0
 10 11  2  0  0  0  0
 10 12  1  0  0  0  0
 12 19  1  0  0  0  0
 12 13  1  0  0  0  0
 12 30  1  0  0  0  0
 13 14  1  0  0  0  0
 13 31  1  0  0  0  0
 13 32  1  0  0  0  0
 14 15  1  0  0  0  0
 14 33  1  0  0  0  0
 14 34  1  0  0  0  0
 15 16  1  0  0  0  0
 15 17  1  0  0  0  0
 16 35  1  0  0  0  0
 16 36  1  0  0  0  0
 16 37  1  0  0  0  0
 17 18  2  0  0  0  0
 17 19  1  0  0  0  0
 19 38  1  0  0  0  0
 19 39  1  0  0  0  0
M  END
> <s_m_source_file>
AV-unprocessed.smi

> <i_m_source_file_index>
1584

> <i_lp_mmshare_version>
43012

> <i_f3d_flags>
0

> <s_epik_input>
bjFbY0hdW2NIXVtjSF1uMVtDSDJdW0NAQEhdKFtDSDNdKVtOSF1DKD1PKVtDQEBIXTJbQ0gyXVtDSDJdTihbQ0gzXSlDKD1PKVtDSDJdMg==

> <s_epik_cmdline>
J2VwaWtfcHl0aG9uJywgJy1waCcsICc3LjAnLCAnLXRuJywgJzgnLCAnLW1hJywgJzIwMCcsICctbWV0YWxfYmluZGluZycsICctaW1hZScsICc8aW5maWxlLm1hZT4nLCAnLW9tYWUnLCAnPG91dGZpbGUubWFlPic=

> <r_lp_tautomer_probability>
1

> <r_epik_Ionization_Penalty>
0.000299422

> <r_epik_Ionization_Penalty_Charging>
0

> <r_epik_Ionization_Penalty_Neutral>
0.000299422

> <r_epik_State_Penalty>
-0

> <r_epik_Charging_Adjusted_Penalty>
0

> <i_epik_Tot_Q>
0

> <i_epik_Tot_abs_Q>
0

> <r_epik_Metal_State_Penalty>
-0

> <b_epik_Metal_Only>
0

> <s_lp_Force_Field>
OPLS_2005

> <r_lp_Energy>
13.2703

> <b_lp_Chiralities_Consistent>
1

> <s_lp_Variant>
AV-unprocessed.smi:1584-4

> <Gold.Version>
5.8.1

> <Gold.Id.Protein>
6NUR|6NUR_protein|mol2

> <Gold.PLP.Fitness>
48.0304

> <Gold.PLP.PLP>
-40.5057

> <Gold.PLP.part.hbond>
-2.0000

> <Gold.PLP.part.metal>
0.0000

> <Gold.PLP.part.buried>
-2.0174

> <Gold.PLP.part.nonpolar>
-36.3323

> <Gold.PLP.part.repulsive>
0.6325

> <Gold.PLP.ligand.clash>
0.0000

> <Gold.PLP.ligand.torsion>
0.2778

> <Gold.PLP.Chemscore.Hbond>
1.0000

> <Gold.PLP.Chemscore.CHOScore>
1.6854

> <Gold.PLP.Chemscore.Metal>
0.0000

> <Gold.Chemscore.Hbonds>
donor molecule, donor type, donor heavy atom, donor atom, acceptor molecule, acceptor atom, score
      P1  H  7997  8008       L1    11  1.00
      L1  C     5    26       P1  7948  0.73
      L1  C     7    28       P1  8028  1.00

> <Gold.PLP.Chemscore.Internal.Correction>
0.0240

> <Gold.Rescore>
     Score         DG    S(hbond)    S(metal)    S(lipo)     H(rot)  DE(clash)    DE(int)     intcor
     14.22     -14.75       0.91        0.00      89.95       1.67       0.20       0.33       ----

> <Gold.Chemscore.Fitness>
14.2158

> <Gold.Chemscore.DG>
-14.7498

> <Gold.Chemscore.ZeroCoef>
-5.4800

> <Gold.Chemscore.Hbond>
0.9072

> <Gold.Chemscore.Metal>
0.0000

> <Gold.Chemscore.Lipo>
89.9465

> <Gold.Chemscore.Internal_Hbond>
0.0000

> <Gold.Chemscore.DEClash>
0.1998

> <Gold.Chemscore.DEInternal>
0.3342

> <Gold.Chemscore.Rot>
1.6734

> <Gold.Chemscore.Internal.Correction>
   9.000000E+99

> <Gold.Chemscore.Hbonds>
donor molecule, donor type, donor heavy atom, donor atom, acceptor molecule, acceptor atom, score
      P1  H  7997  8008       L1    11  0.85

> <Gold.Chemscore.Hbond.Weighted>
-3.0300

> <Gold.Chemscore.Metal.Weighted>
-0.0000

> <Gold.Chemscore.Lipo.Weighted>
-10.5237

> <Gold.Chemscore.Internal_Hbond.Weighted>
0.0000

> <Gold.Chemscore.DEClash.Weighted>
0.1998

> <Gold.Chemscore.DEInternal.Weighted>
0.3342

> <Gold.Chemscore.Rot.Weighted>
4.2840

> <Gold.Chemscore.Internal.Correction.Weighted>
   9.000000E+99

> <Gold.Protein.RotatedTorsions>
[ 6907 6896 6895 6894 ] final  -30.14 input  -60.11 | X-H torsion
[ 7974 7965 7964 7962 ] final  -62.39 input  175.53 | X-H torsion
[ 8008 7997 7996 7995 ] final -105.03 input   59.86 | X-H torsion
[ 10167 10162 10161 10158 ] final   52.97 input  -65.29 | X-H torsion
[ 10718 10713 10712 10709 ] final  140.16 input   66.30 | X-H torsion
[ 10763 10752 10751 10750 ] final   63.52 input  -60.55 | X-H torsion
[ 11005 11000 10999 10996 ] final -106.10 input  -57.11 | X-H torsion

> <Gold.Protein.ActiveResidues>
 VAL166  LYS551  ARG553  GLY616  TRP617  ASP618  TYR619  PRO620  LYS621  CYS622 
 ASP623  PHE694  ASN695  SER759  ASP760  ASP761  ALA762  ILE779  LEU786  VAL792 
 PHE793  MET794  SER795  GLU796  ALA797  LYS798  CYS799  TRP800  GLU811  SER814 

> <Gold.Protein.RotatedAtoms>
  151.1095  135.0019  159.8487 H   0  0  0  0  0  0  0  0  0  0  0  0  # atno 6907 bound_to 6896
  152.5442  134.1853  159.8662 H   0  0  0  0  0  0  0  0  0  0  0  0  # atno 6908 bound_to 6896
  151.1902  133.4627  159.2628 H   0  0  0  0  0  0  0  0  0  0  0  0  # atno 6909 bound_to 6896
  145.7919  140.8705  143.0276 H   0  0  0  0  0  0  0  0  0  0  0  0  # atno 7974 bound_to 7965
  154.8939  140.0415  157.1854 H   0  0  0  0  0  0  0  0  0  0  0  0  # atno 8008 bound_to 7997
  154.8512  140.2929  155.5576 H   0  0  0  0  0  0  0  0  0  0  0  0  # atno 8009 bound_to 7997
  156.2996  140.2464  156.3471 H   0  0  0  0  0  0  0  0  0  0  0  0  # atno 8010 bound_to 7997
  140.2457  144.3535  150.6365 H   0  0  0  0  0  0  0  0  0  0  0  0  # atno 10167 bound_to 10162
  157.4063  131.1023  151.0500 H   0  0  0  0  0  0  0  0  0  0  0  0  # atno 10718 bound_to 10713
  153.0021  135.5426  154.6364 H   0  0  0  0  0  0  0  0  0  0  0  0  # atno 10763 bound_to 10752
  154.5630  135.2835  155.0903 H   0  0  0  0  0  0  0  0  0  0  0  0  # atno 10764 bound_to 10752
  154.2099  135.6469  153.5164 H   0  0  0  0  0  0  0  0  0  0  0  0  # atno 10765 bound_to 10752
  141.1021  133.8864  157.1815 H   0  0  0  0  0  0  0  0  0  0  0  0  # atno 11005 bound_to 11000
  144.6780  140.0135  143.7484 LP  0  0  0  0  0  0  0  0  0  0  0  0  # atno 17320 bound_to 7965
  145.9968  139.3059  143.0952 LP  0  0  0  0  0  0  0  0  0  0  0  0  # atno 17321 bound_to 7965
  140.6079  143.2168  151.6944 LP  0  0  0  0  0  0  0  0  0  0  0  0  # atno 17342 bound_to 10162
  139.5062  144.3688  152.0490 LP  0  0  0  0  0  0  0  0  0  0  0  0  # atno 17343 bound_to 10162
  157.1480  130.6172  149.5574 LP  0  0  0  0  0  0  0  0  0  0  0  0  # atno 17370 bound_to 10713
  155.9837  130.4859  150.6949 LP  0  0  0  0  0  0  0  0  0  0  0  0  # atno 17371 bound_to 10713
  139.9877  135.0076  156.9900 LP  0  0  0  0  0  0  0  0  0  0  0  0  # atno 17394 bound_to 11000
  140.4995  134.1111  155.7248 LP  0  0  0  0  0  0  0  0  0  0  0  0  # atno 17395 bound_to 11000

$$$$
