AV-unprocessed.smi:1826|AV-procd|sdf|7416|dock9
  -GOLD-   22720 9 93D 1   1.00000     0.00000
 Structure written by MMmdl.
 39 41  0  0  0  0  0  0  0  0  1 V2000
  153.2229  137.1962  156.1501 O   0  0  0  0  0  0  0  0  0  0  0  0
  152.1039  137.9866  155.8093 C   0  0  0  0  0  0  0  0  0  0  0  0
  151.9902  139.2207  156.6507 C   0  0  0  0  0  0  0  0  0  0  0  0
  152.9459  139.5771  157.5103 N   0  0  0  0  0  0  0  0  0  0  0  0
  152.4415  140.7389  158.0613 C   0  0  0  0  0  0  0  0  0  0  0  0
  152.9833  141.6022  159.0404 C   0  0  0  0  0  0  0  0  0  0  0  0
  152.2732  142.7490  159.4524 C   0  0  0  0  0  0  0  0  0  0  0  0
  151.0139  143.0482  158.8930 C   0  0  0  0  0  0  0  0  0  0  0  0
  150.4560  142.2012  157.9162 C   0  0  0  0  0  0  0  0  0  0  0  0
  151.1693  141.0583  157.5082 C   0  0  0  0  0  0  0  0  0  0  0  0
  150.9131  140.0446  156.5913 N   0  0  0  0  0  0  0  0  0  0  0  0
  149.7214  139.9259  155.7612 C   0  0  0  0  0  0  0  0  0  0  0  0
  149.4976  141.1610  154.8658 C   0  0  1  0  0  0  0  0  0  0  0  0
  149.7118  140.8224  153.5091 O   0  0  0  0  0  0  0  0  0  0  0  0
  148.1225  141.7685  155.0946 C   0  0  0  0  0  0  0  0  0  0  0  0
  147.2945  142.0762  153.9948 C   0  0  0  0  0  0  0  0  0  0  0  0
  146.0220  142.6434  154.2008 C   0  0  0  0  0  0  0  0  0  0  0  0
  145.5609  142.9105  155.5073 C   0  0  0  0  0  0  0  0  0  0  0  0
  144.1842  143.5271  155.7071 C   0  0  0  0  0  0  0  0  0  0  0  0
  143.9424  143.7967  156.9904 F   0  0  0  0  0  0  0  0  0  0  0  0
  144.1042  144.6609  155.0114 F   0  0  0  0  0  0  0  0  0  0  0  0
  143.2446  142.6883  155.2705 F   0  0  0  0  0  0  0  0  0  0  0  0
  146.3938  142.6098  156.6076 C   0  0  0  0  0  0  0  0  0  0  0  0
  147.6663  142.0424  156.4021 C   0  0  0  0  0  0  0  0  0  0  0  0
  153.4198  137.3346  157.0637 H   0  0  0  0  0  0  0  0  0  0  0  0
  152.1862  138.2723  154.7600 H   0  0  0  0  0  0  0  0  0  0  0  0
  151.1962  137.3904  155.9000 H   0  0  0  0  0  0  0  0  0  0  0  0
  153.9469  141.3815  159.4751 H   0  0  0  0  0  0  0  0  0  0  0  0
  152.6964  143.4018  160.2015 H   0  0  0  0  0  0  0  0  0  0  0  0
  150.4764  143.9284  159.2146 H   0  0  0  0  0  0  0  0  0  0  0  0
  149.4918  142.4270  157.4856 H   0  0  0  0  0  0  0  0  0  0  0  0
  149.7800  139.0189  155.1600 H   0  0  0  0  0  0  0  0  0  0  0  0
  148.8658  139.7910  156.4242 H   0  0  0  0  0  0  0  0  0  0  0  0
  150.2463  141.9137  155.1160 H   0  0  0  0  0  0  0  0  0  0  0  0
  149.3960  139.9430  153.3670 H   0  0  0  0  0  0  0  0  0  0  0  0
  147.6318  141.8799  152.9876 H   0  0  0  0  0  0  0  0  0  0  0  0
  145.3970  142.8759  153.3511 H   0  0  0  0  0  0  0  0  0  0  0  0
  146.0660  142.8128  157.6161 H   0  0  0  0  0  0  0  0  0  0  0  0
  148.2934  141.8205  157.2532 H   0  0  0  0  0  0  0  0  0  0  0  0
  1  2  1  0  0  0  0
  1 25  1  0  0  0  0
  2  3  1  0  0  0  0
  2 26  1  0  0  0  0
  2 27  1  0  0  0  0
  3 11  1  0  0  0  0
  3  4  2  0  0  0  0
  4  5  1  0  0  0  0
  5 10  2  0  0  0  0
  5  6  1  0  0  0  0
  6  7  2  0  0  0  0
  6 28  1  0  0  0  0
  7  8  1  0  0  0  0
  7 29  1  0  0  0  0
  8  9  2  0  0  0  0
  8 30  1  0  0  0  0
  9 10  1  0  0  0  0
  9 31  1  0  0  0  0
 10 11  1  0  0  0  0
 11 12  1  0  0  0  0
 12 13  1  0  0  0  0
 12 32  1  0  0  0  0
 12 33  1  0  0  0  0
 13 14  1  0  0  0  0
 13 15  1  0  0  0  0
 13 34  1  0  0  0  0
 14 35  1  0  0  0  0
 15 24  1  0  0  0  0
 15 16  2  0  0  0  0
 16 17  1  0  0  0  0
 16 36  1  0  0  0  0
 17 18  2  0  0  0  0
 17 37  1  0  0  0  0
 18 19  1  0  0  0  0
 18 23  1  0  0  0  0
 19 20  1  0  0  0  0
 19 21  1  0  0  0  0
 19 22  1  0  0  0  0
 23 24  2  0  0  0  0
 23 38  1  0  0  0  0
 24 39  1  0  0  0  0
M  END
> <s_m_source_file>
AV-unprocessed.smi

> <i_m_source_file_index>
1826

> <i_lp_mmshare_version>
43012

> <i_f3d_flags>
0

> <s_epik_input>
W2NIXTFbY0hdW2NIXVtjSF1jKGMxMiluKGMobjIpW0NIMl1bT0hdKVtDSDJdW0NASF0oW09IXSljM1tjSF1bY0hdYyhDKEYpKEYpRilbY0hdW2NIXTM=

> <s_epik_cmdline>
J2VwaWtfcHl0aG9uJywgJy1waCcsICc3LjAnLCAnLXRuJywgJzgnLCAnLW1hJywgJzIwMCcsICctbWV0YWxfYmluZGluZycsICctaW1hZScsICc8aW5maWxlLm1hZT4nLCAnLW9tYWUnLCAnPG91dGZpbGUubWFlPic=

> <r_epik_Ionization_Penalty>
0.0634718

> <r_epik_Ionization_Penalty_Charging>
0

> <r_epik_Ionization_Penalty_Neutral>
0.0634718

> <r_epik_State_Penalty>
0.0551572

> <r_epik_Charging_Adjusted_Penalty>
0.0551572

> <i_epik_Tot_Q>
0

> <i_epik_Tot_abs_Q>
0

> <r_epik_Metal_State_Penalty>
5.78034e-05

> <b_epik_Metal_Only>
0

> <s_lp_Force_Field>
OPLS_2005

> <r_lp_Energy>
14.1967

> <b_lp_Chiralities_Consistent>
1

> <s_lp_Variant>
AV-unprocessed.smi:1826-2

> <Gold.Version>
5.8.1

> <Gold.Id.Protein>
6NUR|6NUR_protein|mol2

> <Gold.PLP.Fitness>
49.3576

> <Gold.PLP.PLP>
-42.4737

> <Gold.PLP.part.hbond>
-4.8097

> <Gold.PLP.part.metal>
0.0000

> <Gold.PLP.part.buried>
-2.8847

> <Gold.PLP.part.nonpolar>
-33.6009

> <Gold.PLP.part.repulsive>
0.0000

> <Gold.PLP.ligand.clash>
0.0000

> <Gold.PLP.ligand.torsion>
0.9873

> <Gold.PLP.Chemscore.Hbond>
2.9120

> <Gold.PLP.Chemscore.CHOScore>
0.0000

> <Gold.PLP.Chemscore.Metal>
0.0000

> <Gold.Chemscore.Hbonds>
donor molecule, donor type, donor heavy atom, donor atom, acceptor molecule, acceptor atom, score
      P1  H  7989  7998       L1    14  0.34
      P1  H  7997  8009       L1     4  1.00
      P1  H  8011  8017       L1    14  1.00
      P1  H 10752 10765       L1     1  0.54

> <Gold.PLP.Chemscore.Internal.Correction>
0.1224

> <Gold.Rescore>
     Score         DG    S(hbond)    S(metal)    S(lipo)     H(rot)  DE(clash)    DE(int)     intcor
     14.07     -15.62       1.84        0.00      97.97       2.91       0.72       0.83       ----

> <Gold.Chemscore.Fitness>
14.0703

> <Gold.Chemscore.DG>
-15.6219

> <Gold.Chemscore.ZeroCoef>
-5.4800

> <Gold.Chemscore.Hbond>
1.8383

> <Gold.Chemscore.Metal>
0.0000

> <Gold.Chemscore.Lipo>
97.9667

> <Gold.Chemscore.Internal_Hbond>
0.0000

> <Gold.Chemscore.DEClash>
0.7245

> <Gold.Chemscore.DEInternal>
0.8272

> <Gold.Chemscore.Rot>
2.9141

> <Gold.Chemscore.Internal.Correction>
   9.000000E+99

> <Gold.Chemscore.Hbonds>
donor molecule, donor type, donor heavy atom, donor atom, acceptor molecule, acceptor atom, score
      L1  H    14    35       P1  7957  0.01
      P1  H  7989  7998       L1    14  0.07
      P1  H  7997  8009       L1     4  0.39
      P1  H  8011  8017       L1    14  0.82
      P1  H 10752 10765       L1     1  0.39

> <Gold.Chemscore.Hbond.Weighted>
-6.1398

> <Gold.Chemscore.Metal.Weighted>
-0.0000

> <Gold.Chemscore.Lipo.Weighted>
-11.4621

> <Gold.Chemscore.Internal_Hbond.Weighted>
0.0000

> <Gold.Chemscore.DEClash.Weighted>
0.7245

> <Gold.Chemscore.DEInternal.Weighted>
0.8272

> <Gold.Chemscore.Rot.Weighted>
7.4600

> <Gold.Chemscore.Internal.Correction.Weighted>
   9.000000E+99

> <Gold.Protein.RotatedTorsions>
[ 6907 6896 6895 6894 ] final -107.85 input  -60.11 | X-H torsion
[ 7974 7965 7964 7962 ] final  -30.93 input  175.53 | X-H torsion
[ 8008 7997 7996 7995 ] final  154.26 input   59.86 | X-H torsion
[ 10167 10162 10161 10158 ] final  134.23 input  -65.29 | X-H torsion
[ 10718 10713 10712 10709 ] final -161.86 input   66.30 | X-H torsion
[ 10763 10752 10751 10750 ] final -148.06 input  -60.55 | X-H torsion
[ 11005 11000 10999 10996 ] final -132.78 input  -57.11 | X-H torsion

> <Gold.Protein.ActiveResidues>
 VAL166  LYS551  ARG553  GLY616  TRP617  ASP618  TYR619  PRO620  LYS621  CYS622 
 ASP623  PHE694  ASN695  SER759  ASP760  ASP761  ALA762  ILE779  LEU786  VAL792 
 PHE793  MET794  SER795  GLU796  ALA797  LYS798  CYS799  TRP800  GLU811  SER814 

> <Gold.Protein.RotatedAtoms>
  150.7467  133.9765  159.3562 H   0  0  0  0  0  0  0  0  0  0  0  0  # atno 6907 bound_to 6896
  151.7703  135.0786  160.0368 H   0  0  0  0  0  0  0  0  0  0  0  0  # atno 6908 bound_to 6896
  152.3344  133.5957  159.5868 H   0  0  0  0  0  0  0  0  0  0  0  0  # atno 6909 bound_to 6896
  146.1106  140.5602  142.8779 H   0  0  0  0  0  0  0  0  0  0  0  0  # atno 7974 bound_to 7965
  156.2540  140.1971  156.6618 H   0  0  0  0  0  0  0  0  0  0  0  0  # atno 8008 bound_to 7997
  154.6459  140.0578  156.9925 H   0  0  0  0  0  0  0  0  0  0  0  0  # atno 8009 bound_to 7997
  155.1492  140.3250  155.4437 H   0  0  0  0  0  0  0  0  0  0  0  0  # atno 8010 bound_to 7997
  139.5264  144.6577  151.5110 H   0  0  0  0  0  0  0  0  0  0  0  0  # atno 10167 bound_to 10162
  156.6022  130.8815  151.2916 H   0  0  0  0  0  0  0  0  0  0  0  0  # atno 10718 bound_to 10713
  154.8253  135.3344  154.6915 H   0  0  0  0  0  0  0  0  0  0  0  0  # atno 10763 bound_to 10752
  153.7541  135.6937  153.4944 H   0  0  0  0  0  0  0  0  0  0  0  0  # atno 10764 bound_to 10752
  153.2155  135.4467  155.0380 H   0  0  0  0  0  0  0  0  0  0  0  0  # atno 10765 bound_to 10752
  140.9139  134.1532  157.4367 H   0  0  0  0  0  0  0  0  0  0  0  0  # atno 11005 bound_to 11000
  144.7508  140.5187  143.6803 LP  0  0  0  0  0  0  0  0  0  0  0  0  # atno 17320 bound_to 7965
  145.5671  139.1482  143.3309 LP  0  0  0  0  0  0  0  0  0  0  0  0  # atno 17321 bound_to 7965
  140.6411  143.8887  150.6692 LP  0  0  0  0  0  0  0  0  0  0  0  0  # atno 17342 bound_to 10162
  140.2222  143.3800  152.1634 LP  0  0  0  0  0  0  0  0  0  0  0  0  # atno 17343 bound_to 10162
  157.7276  130.9646  150.1708 LP  0  0  0  0  0  0  0  0  0  0  0  0  # atno 17370 bound_to 10713
  156.2460  130.3695  149.8285 LP  0  0  0  0  0  0  0  0  0  0  0  0  # atno 17371 bound_to 10713
  139.8762  134.9946  156.5703 LP  0  0  0  0  0  0  0  0  0  0  0  0  # atno 17394 bound_to 11000
  140.8074  133.8456  155.8780 LP  0  0  0  0  0  0  0  0  0  0  0  0  # atno 17395 bound_to 11000

$$$$
