AV-unprocessed.smi:148|AV-procd|sdf|1225|dock1
  -GOLD-   2262018423D 1   1.00000     0.00000
 Structure written by MMmdl.
 63 67  0  0  0  0  0  0  0  0  1 V2000
  150.6457  140.1904  155.7969 O   0  0  0  0  0  0  0  0  0  0  0  0
  150.8983  141.3907  156.4997 C   0  0  0  0  0  0  0  0  0  0  0  0
  150.7852  141.1923  158.0292 C   0  0  1  0  0  0  0  0  0  0  0  0
  151.7258  140.0367  158.4629 C   0  0  0  0  0  0  0  0  0  0  0  0
  151.1176  138.7187  158.4394 N   0  0  0  0  0  0  0  0  0  0  0  0
  151.7434  137.5193  158.6994 C   0  0  0  0  0  0  0  0  0  0  0  0
  150.9807  136.4632  158.6162 N   0  0  0  0  0  0  0  0  0  0  0  0
  149.7424  136.9738  158.2501 C   0  0  0  0  0  0  0  0  0  0  0  0
  148.4760  136.3918  157.9840 C   0  0  0  0  0  0  0  0  0  0  0  0
  148.2684  135.0607  158.0816 N   0  0  0  0  0  0  0  0  0  0  0  0
  149.1415  134.3499  157.1447 C   0  0  0  0  0  0  0  0  0  0  0  0
  148.7322  132.8810  157.0044 C   0  0  0  0  0  0  0  0  0  0  0  0
  148.7227  132.2136  158.3801 C   0  0  0  0  0  0  0  0  0  0  0  0
  147.8007  132.9897  159.3293 C   0  0  0  0  0  0  0  0  0  0  0  0
  148.1793  134.4919  159.4427 C   0  0  2  0  0  0  0  0  0  0  0  0
  147.1643  135.2404  160.3768 C   0  0  1  0  0  0  0  0  0  0  0  0
  146.9023  134.5645  161.7366 C   0  0  0  0  0  0  0  0  0  0  0  0
  146.2672  135.6304  162.6366 C   0  0  0  0  0  0  0  0  0  0  0  0
  146.5697  136.9808  161.9784 C   0  0  0  0  0  0  0  0  0  0  0  0
  147.5153  136.6825  160.8103 C   0  0  1  0  0  0  0  0  0  0  0  0
  148.8503  136.7697  161.2725 O   0  0  0  0  0  0  0  0  0  0  0  0
  147.4539  137.2171  157.6342 N   0  0  0  0  0  0  0  0  0  0  0  0
  147.6650  138.5334  157.5391 C   0  0  0  0  0  0  0  0  0  0  0  0
  148.7916  139.2168  157.7557 N   0  0  0  0  0  0  0  0  0  0  0  0
  149.8133  138.3879  158.1169 C   0  0  0  0  0  0  0  0  0  0  0  0
  150.9804  142.5192  158.8216 C   0  0  1  0  0  0  0  0  0  0  0  0
  152.3168  143.2071  158.5887 C   0  0  0  0  0  0  0  0  0  0  0  0
  152.0464  144.6186  159.0878 C   0  0  0  0  0  0  0  0  0  0  0  0
  150.7099  144.8881  158.6932 O   0  0  0  0  0  0  0  0  0  0  0  0
  150.0189  143.6642  158.4610 C   0  0  0  0  0  0  0  0  0  0  0  0
  149.7182  140.0118  155.8297 H   0  0  0  0  0  0  0  0  0  0  0  0
  151.8851  141.7605  156.2221 H   0  0  0  0  0  0  0  0  0  0  0  0
  150.1876  142.1459  156.1624 H   0  0  0  0  0  0  0  0  0  0  0  0
  149.7611  140.8622  158.2061 H   0  0  0  0  0  0  0  0  0  0  0  0
  152.5978  140.0015  157.8087 H   0  0  0  0  0  0  0  0  0  0  0  0
  152.1065  140.2204  159.4683 H   0  0  0  0  0  0  0  0  0  0  0  0
  152.7872  137.4528  158.9697 H   0  0  0  0  0  0  0  0  0  0  0  0
  149.1079  134.8298  156.1650 H   0  0  0  0  0  0  0  0  0  0  0  0
  150.1744  134.4087  157.4922 H   0  0  0  0  0  0  0  0  0  0  0  0
  147.7426  132.8142  156.5505 H   0  0  0  0  0  0  0  0  0  0  0  0
  149.4198  132.3612  156.3370 H   0  0  0  0  0  0  0  0  0  0  0  0
  148.3908  131.1785  158.2945 H   0  0  0  0  0  0  0  0  0  0  0  0
  149.7343  132.1874  158.7871 H   0  0  0  0  0  0  0  0  0  0  0  0
  146.7706  132.8984  158.9814 H   0  0  0  0  0  0  0  0  0  0  0  0
  147.8429  132.5029  160.3031 H   0  0  0  0  0  0  0  0  0  0  0  0
  149.1740  134.5407  159.8873 H   0  0  0  0  0  0  0  0  0  0  0  0
  146.2035  135.2761  159.8597 H   0  0  0  0  0  0  0  0  0  0  0  0
  146.2640  133.6846  161.6500 H   0  0  0  0  0  0  0  0  0  0  0  0
  147.8463  134.2426  162.1788 H   0  0  0  0  0  0  0  0  0  0  0  0
  145.1891  135.4823  162.7108 H   0  0  0  0  0  0  0  0  0  0  0  0
  146.6744  135.5770  163.6468 H   0  0  0  0  0  0  0  0  0  0  0  0
  145.6414  137.4019  161.5898 H   0  0  0  0  0  0  0  0  0  0  0  0
  146.9799  137.7079  162.6807 H   0  0  0  0  0  0  0  0  0  0  0  0
  147.3695  137.4182  160.0223 H   0  0  0  0  0  0  0  0  0  0  0  0
  149.2841  135.9505  161.0885 H   0  0  0  0  0  0  0  0  0  0  0  0
  146.8089  139.1232  157.2475 H   0  0  0  0  0  0  0  0  0  0  0  0
  150.8900  142.3158  159.8899 H   0  0  0  0  0  0  0  0  0  0  0  0
  153.1439  142.7340  159.1186 H   0  0  0  0  0  0  0  0  0  0  0  0
  152.5568  143.2278  157.5245 H   0  0  0  0  0  0  0  0  0  0  0  0
  152.1088  144.6573  160.1762 H   0  0  0  0  0  0  0  0  0  0  0  0
  152.7414  145.3517  158.6783 H   0  0  0  0  0  0  0  0  0  0  0  0
  149.7420  143.6303  157.4068 H   0  0  0  0  0  0  0  0  0  0  0  0
  149.1045  143.6384  159.0519 H   0  0  0  0  0  0  0  0  0  0  0  0
  1  2  1  0  0  0  0
  1 31  1  0  0  0  0
  2  3  1  0  0  0  0
  2 32  1  0  0  0  0
  2 33  1  0  0  0  0
  3  4  1  0  0  0  0
  3 26  1  0  0  0  0
  3 34  1  0  0  0  0
  4  5  1  0  0  0  0
  4 35  1  0  0  0  0
  4 36  1  0  0  0  0
  5 25  1  0  0  0  0
  5  6  1  0  0  0  0
  6  7  2  0  0  0  0
  6 37  1  0  0  0  0
  7  8  1  0  0  0  0
  8 25  2  0  0  0  0
  8  9  1  0  0  0  0
  9 10  1  0  0  0  0
  9 22  2  0  0  0  0
 10 15  1  0  0  0  0
 10 11  1  0  0  0  0
 11 12  1  0  0  0  0
 11 38  1  0  0  0  0
 11 39  1  0  0  0  0
 12 13  1  0  0  0  0
 12 40  1  0  0  0  0
 12 41  1  0  0  0  0
 13 14  1  0  0  0  0
 13 42  1  0  0  0  0
 13 43  1  0  0  0  0
 14 15  1  0  0  0  0
 14 44  1  0  0  0  0
 14 45  1  0  0  0  0
 15 16  1  0  0  0  0
 15 46  1  0  0  0  0
 16 20  1  0  0  0  0
 16 17  1  0  0  0  0
 16 47  1  0  0  0  0
 17 18  1  0  0  0  0
 17 48  1  0  0  0  0
 17 49  1  0  0  0  0
 18 19  1  0  0  0  0
 18 50  1  0  0  0  0
 18 51  1  0  0  0  0
 19 20  1  0  0  0  0
 19 52  1  0  0  0  0
 19 53  1  0  0  0  0
 20 21  1  0  0  0  0
 20 54  1  0  0  0  0
 21 55  1  0  0  0  0
 22 23  1  0  0  0  0
 23 24  2  0  0  0  0
 23 56  1  0  0  0  0
 24 25  1  0  0  0  0
 26 30  1  0  0  0  0
 26 27  1  0  0  0  0
 26 57  1  0  0  0  0
 27 28  1  0  0  0  0
 27 58  1  0  0  0  0
 27 59  1  0  0  0  0
 28 29  1  0  0  0  0
 28 60  1  0  0  0  0
 28 61  1  0  0  0  0
 29 30  1  0  0  0  0
 30 62  1  0  0  0  0
 30 63  1  0  0  0  0
M  END
> <s_m_source_file>
AV-unprocessed.smi

> <i_m_source_file_index>
148

> <i_lp_mmshare_version>
43012

> <i_f3d_flags>
0

> <s_epik_input>
W0NIMl0xT1tDSDJdW0NIMl1bQ0BIXTFbQ0BIXShbQ0gyXVtPSF0pW0NIMl1uKFtjSF1uMiljKGMyMyluW2NIXW5jM040W0NIMl1bQ0gyXVtDSDJdW0NIMl1bQ0BIXTRbQ0BASF01W0NIMl1bQ0gyXVtDSDJdW0NASF01W09IXQ==

> <s_epik_cmdline>
J2VwaWtfcHl0aG9uJywgJy1waCcsICc3LjAnLCAnLXRuJywgJzgnLCAnLW1hJywgJzIwMCcsICctbWV0YWxfYmluZGluZycsICctaW1hZScsICc8aW5maWxlLm1hZT4nLCAnLW9tYWUnLCAnPG91dGZpbGUubWFlPic=

> <r_lp_tautomer_probability>
1

> <r_epik_Ionization_Penalty>
0.00556303

> <r_epik_Ionization_Penalty_Charging>
0

> <r_epik_Ionization_Penalty_Neutral>
0.00556303

> <r_epik_State_Penalty>
0.00401767

> <r_epik_Charging_Adjusted_Penalty>
0.00401767

> <i_epik_Tot_Q>
0

> <i_epik_Tot_abs_Q>
0

> <r_epik_Metal_State_Penalty>
-0

> <b_epik_Metal_Only>
0

> <s_lp_Force_Field>
OPLS_2005

> <r_lp_Energy>
70.5137

> <b_lp_Chiralities_Consistent>
1

> <s_lp_Variant>
AV-unprocessed.smi:148-24

> <Gold.Version>
5.8.1

> <Gold.Id.Protein>
6NUR|6NUR_protein|mol2

> <Gold.PLP.Fitness>
45.9811

> <Gold.PLP.PLP>
-41.5010

> <Gold.PLP.part.hbond>
-2.0000

> <Gold.PLP.part.metal>
0.0000

> <Gold.PLP.part.buried>
-4.5235

> <Gold.PLP.part.nonpolar>
-35.5723

> <Gold.PLP.part.repulsive>
0.1649

> <Gold.PLP.ligand.clash>
0.0243

> <Gold.PLP.ligand.torsion>
0.7447

> <Gold.PLP.Chemscore.Hbond>
1.7840

> <Gold.PLP.Chemscore.CHOScore>
0.0000

> <Gold.PLP.Chemscore.Metal>
0.0000

> <Gold.Chemscore.Hbonds>
donor molecule, donor type, donor heavy atom, donor atom, acceptor molecule, acceptor atom, score
      P1  H  6896  6907       L1     7  0.82
      P1  H  6931  6943       L1    21  1.00

> <Gold.PLP.Chemscore.Internal.Correction>
0.6418

> <Gold.Rescore>
     Score         DG    S(hbond)    S(metal)    S(lipo)     H(rot)  DE(clash)    DE(int)     intcor
     11.97     -15.67       1.85        0.00     106.77       3.32       0.22       3.47       ----

> <Gold.Chemscore.Fitness>
11.9724

> <Gold.Chemscore.DG>
-15.6658

> <Gold.Chemscore.ZeroCoef>
-5.4800

> <Gold.Chemscore.Hbond>
1.8543

> <Gold.Chemscore.Metal>
0.0000

> <Gold.Chemscore.Lipo>
106.7744

> <Gold.Chemscore.Internal_Hbond>
0.0000

> <Gold.Chemscore.DEClash>
0.2190

> <Gold.Chemscore.DEInternal>
3.4745

> <Gold.Chemscore.Rot>
3.3203

> <Gold.Chemscore.Internal.Correction>
   9.000000E+99

> <Gold.Chemscore.Hbonds>
donor molecule, donor type, donor heavy atom, donor atom, acceptor molecule, acceptor atom, score
      P1  H  6896  6907       L1     7  0.79
      P1  H  6931  6943       L1    21  0.64

> <Gold.Chemscore.Hbond.Weighted>
-6.1932

> <Gold.Chemscore.Metal.Weighted>
-0.0000

> <Gold.Chemscore.Lipo.Weighted>
-12.4926

> <Gold.Chemscore.Internal_Hbond.Weighted>
0.0000

> <Gold.Chemscore.DEClash.Weighted>
0.2190

> <Gold.Chemscore.DEInternal.Weighted>
3.4745

> <Gold.Chemscore.Rot.Weighted>
8.5000

> <Gold.Chemscore.Internal.Correction.Weighted>
   9.000000E+99

> <Gold.Protein.RotatedTorsions>
[ 6907 6896 6895 6894 ] final  -34.34 input  -60.11 | X-H torsion
[ 7974 7965 7964 7962 ] final -120.13 input  175.53 | X-H torsion
[ 8008 7997 7996 7995 ] final -177.31 input   59.86 | X-H torsion
[ 10167 10162 10161 10158 ] final -179.35 input  -65.29 | X-H torsion
[ 10718 10713 10712 10709 ] final -109.43 input   66.30 | X-H torsion
[ 10763 10752 10751 10750 ] final  -65.00 input  -60.55 | X-H torsion
[ 11005 11000 10999 10996 ] final   39.27 input  -57.11 | X-H torsion

> <Gold.Protein.ActiveResidues>
 VAL166  LYS551  ARG553  GLY616  TRP617  ASP618  TYR619  PRO620  LYS621  CYS622 
 ASP623  PHE694  ASN695  SER759  ASP760  ASP761  ALA762  ILE779  LEU786  VAL792 
 PHE793  MET794  SER795  GLU796  ALA797  LYS798  CYS799  TRP800  GLU811  SER814 

> <Gold.Protein.RotatedAtoms>
  151.0539  134.9692  159.8225 H   0  0  0  0  0  0  0  0  0  0  0  0  # atno 6907 bound_to 6896
  152.5385  134.2502  159.8906 H   0  0  0  0  0  0  0  0  0  0  0  0  # atno 6908 bound_to 6896
  151.2519  133.4303  159.2645 H   0  0  0  0  0  0  0  0  0  0  0  0  # atno 6909 bound_to 6896
  145.0547  140.8245  143.4188 H   0  0  0  0  0  0  0  0  0  0  0  0  # atno 7974 bound_to 7965
  156.0055  140.1229  157.0506 H   0  0  0  0  0  0  0  0  0  0  0  0  # atno 8008 bound_to 7997
  154.4257  140.1098  156.5825 H   0  0  0  0  0  0  0  0  0  0  0  0  # atno 8009 bound_to 7997
  155.6153  140.3472  155.4637 H   0  0  0  0  0  0  0  0  0  0  0  0  # atno 8010 bound_to 7997
  139.5390  144.2415  152.0856 H   0  0  0  0  0  0  0  0  0  0  0  0  # atno 10167 bound_to 10162
  156.0536  130.5763  150.8098 H   0  0  0  0  0  0  0  0  0  0  0  0  # atno 10718 bound_to 10713
  154.3385  135.6161  153.5585 H   0  0  0  0  0  0  0  0  0  0  0  0  # atno 10763 bound_to 10752
  152.9806  135.5764  154.4880 H   0  0  0  0  0  0  0  0  0  0  0  0  # atno 10764 bound_to 10752
  154.4579  135.2855  155.1711 H   0  0  0  0  0  0  0  0  0  0  0  0  # atno 10765 bound_to 10752
  140.2045  134.3830  155.8079 H   0  0  0  0  0  0  0  0  0  0  0  0  # atno 11005 bound_to 11000
  145.1483  139.2530  143.5454 LP  0  0  0  0  0  0  0  0  0  0  0  0  # atno 17320 bound_to 7965
  146.3520  140.1178  142.8601 LP  0  0  0  0  0  0  0  0  0  0  0  0  # atno 17321 bound_to 7965
  140.1891  144.4770  150.6488 LP  0  0  0  0  0  0  0  0  0  0  0  0  # atno 17342 bound_to 10162
  140.6611  143.2252  151.5853 LP  0  0  0  0  0  0  0  0  0  0  0  0  # atno 17343 bound_to 10162
  157.5486  131.0943  150.9727 LP  0  0  0  0  0  0  0  0  0  0  0  0  # atno 17370 bound_to 10713
  156.9992  130.5593  149.5310 LP  0  0  0  0  0  0  0  0  0  0  0  0  # atno 17371 bound_to 10713
  141.2227  133.7111  156.8313 LP  0  0  0  0  0  0  0  0  0  0  0  0  # atno 17394 bound_to 11000
  140.2018  134.8891  157.3177 LP  0  0  0  0  0  0  0  0  0  0  0  0  # atno 17395 bound_to 11000

$$$$
