AV-unprocessed.smi:164|AV-procd|sdf|1384|dock7
  -GOLD-   2262019113D 1   1.00000     0.00000
 Structure written by MMmdl.
 53 55  0  0  0  0  0  0  0  0  1 V2000
  154.3762  142.9876  167.5559 C   0  0  0  0  0  0  0  0  0  0  0  0
  155.2671  141.9103  166.9616 C   0  0  0  0  0  0  0  0  0  0  0  0
  156.0046  141.0795  167.8296 C   0  0  0  0  0  0  0  0  0  0  0  0
  156.8430  140.0762  167.3135 C   0  0  0  0  0  0  0  0  0  0  0  0
  156.9446  139.8855  165.9220 C   0  0  0  0  0  0  0  0  0  0  0  0
  157.8600  138.8047  165.3779 C   0  0  0  0  0  0  0  0  0  0  0  0
  156.1947  140.7009  165.0436 C   0  0  0  0  0  0  0  0  0  0  0  0
  156.2910  140.4949  163.6914 O   0  0  0  0  0  0  0  0  0  0  0  0
  155.7660  139.2433  163.2705 C   0  0  0  0  0  0  0  0  0  0  0  0
  154.6487  139.4862  162.2459 C   0  0  2  0  0  0  0  0  0  0  0  0
  154.3344  138.2354  161.6683 O   0  0  0  0  0  0  0  0  0  0  0  0
  155.0907  140.4605  161.1311 C   0  0  0  0  0  0  0  0  0  0  0  0
  153.9960  140.9018  160.2828 N   0  0  0  0  0  0  0  0  0  0  0  0
  153.7717  140.2075  159.0695 C   0  0  0  0  0  0  0  0  0  0  0  0
  154.4851  139.2713  158.7049 O   0  0  0  0  0  0  0  0  0  0  0  0
  152.6228  140.6820  158.3075 C   0  0  0  0  0  0  0  0  0  0  0  0
  152.2934  140.0742  157.1551 F   0  0  0  0  0  0  0  0  0  0  0  0
  151.8696  141.7128  158.7477 C   0  0  0  0  0  0  0  0  0  0  0  0
  152.1315  142.4001  159.9245 N   0  0  0  0  0  0  0  0  0  0  0  0
  151.2245  143.5021  160.4520 C   0  0  1  0  0  0  0  0  0  0  0  0
  151.9363  144.8357  160.7155 C   0  0  0  0  0  0  0  0  0  0  0  0
  151.6716  145.6330  159.4410 C   0  0  0  0  0  0  0  0  0  0  0  0
  150.8082  144.7101  158.5741 C   0  0  0  0  0  0  0  0  0  0  0  0
  150.2561  143.7747  159.4903 O   0  0  0  0  0  0  0  0  0  0  0  0
  153.1922  141.9679  160.7522 C   0  0  0  0  0  0  0  0  0  0  0  0
  153.4010  142.5010  161.8449 O   0  0  0  0  0  0  0  0  0  0  0  0
  155.3685  141.7313  165.5592 C   0  0  0  0  0  0  0  0  0  0  0  0
  154.5949  142.6394  164.6125 C   0  0  0  0  0  0  0  0  0  0  0  0
  154.2916  142.8806  168.6379 H   0  0  0  0  0  0  0  0  0  0  0  0
  153.3707  142.9321  167.1378 H   0  0  0  0  0  0  0  0  0  0  0  0
  154.7857  143.9761  167.3474 H   0  0  0  0  0  0  0  0  0  0  0  0
  155.9347  141.2117  168.8993 H   0  0  0  0  0  0  0  0  0  0  0  0
  157.4072  139.4531  167.9920 H   0  0  0  0  0  0  0  0  0  0  0  0
  158.5044  139.2080  164.5966 H   0  0  0  0  0  0  0  0  0  0  0  0
  157.2755  137.9877  164.9550 H   0  0  0  0  0  0  0  0  0  0  0  0
  158.4992  138.3953  166.1604 H   0  0  0  0  0  0  0  0  0  0  0  0
  156.5480  138.6166  162.8382 H   0  0  0  0  0  0  0  0  0  0  0  0
  155.3702  138.7116  164.1372 H   0  0  0  0  0  0  0  0  0  0  0  0
  153.7664  139.8587  162.7679 H   0  0  0  0  0  0  0  0  0  0  0  0
  154.1041  137.6341  162.3599 H   0  0  0  0  0  0  0  0  0  0  0  0
  155.5271  141.3687  161.5496 H   0  0  0  0  0  0  0  0  0  0  0  0
  155.8858  140.0485  160.5077 H   0  0  0  0  0  0  0  0  0  0  0  0
  151.0202  141.9859  158.1421 H   0  0  0  0  0  0  0  0  0  0  0  0
  150.7826  143.1007  161.3655 H   0  0  0  0  0  0  0  0  0  0  0  0
  151.4439  145.3217  161.5584 H   0  0  0  0  0  0  0  0  0  0  0  0
  152.9870  144.7103  160.9764 H   0  0  0  0  0  0  0  0  0  0  0  0
  151.1327  146.5506  159.6796 H   0  0  0  0  0  0  0  0  0  0  0  0
  152.5925  145.9123  158.9285 H   0  0  0  0  0  0  0  0  0  0  0  0
  150.0262  145.2498  158.0402 H   0  0  0  0  0  0  0  0  0  0  0  0
  151.4169  144.1863  157.8360 H   0  0  0  0  0  0  0  0  0  0  0  0
  154.9662  142.5805  163.5898 H   0  0  0  0  0  0  0  0  0  0  0  0
  154.6759  143.6822  164.9192 H   0  0  0  0  0  0  0  0  0  0  0  0
  153.5403  142.3636  164.6065 H   0  0  0  0  0  0  0  0  0  0  0  0
  1  2  1  0  0  0  0
  1 29  1  0  0  0  0
  1 30  1  0  0  0  0
  1 31  1  0  0  0  0
  2 27  1  0  0  0  0
  2  3  2  0  0  0  0
  3  4  1  0  0  0  0
  3 32  1  0  0  0  0
  4  5  2  0  0  0  0
  4 33  1  0  0  0  0
  5  6  1  0  0  0  0
  5  7  1  0  0  0  0
  6 34  1  0  0  0  0
  6 35  1  0  0  0  0
  6 36  1  0  0  0  0
  7  8  1  0  0  0  0
  7 27  2  0  0  0  0
  8  9  1  0  0  0  0
  9 10  1  0  0  0  0
  9 37  1  0  0  0  0
  9 38  1  0  0  0  0
 10 11  1  0  0  0  0
 10 12  1  0  0  0  0
 10 39  1  0  0  0  0
 11 40  1  0  0  0  0
 12 13  1  0  0  0  0
 12 41  1  0  0  0  0
 12 42  1  0  0  0  0
 13 25  1  0  0  0  0
 13 14  1  0  0  0  0
 14 15  2  0  0  0  0
 14 16  1  0  0  0  0
 16 17  1  0  0  0  0
 16 18  2  0  0  0  0
 18 19  1  0  0  0  0
 18 43  1  0  0  0  0
 19 20  1  0  0  0  0
 19 25  1  0  0  0  0
 20 24  1  0  0  0  0
 20 21  1  0  0  0  0
 20 44  1  0  0  0  0
 21 22  1  0  0  0  0
 21 45  1  0  0  0  0
 21 46  1  0  0  0  0
 22 23  1  0  0  0  0
 22 47  1  0  0  0  0
 22 48  1  0  0  0  0
 23 24  1  0  0  0  0
 23 49  1  0  0  0  0
 23 50  1  0  0  0  0
 25 26  2  0  0  0  0
 27 28  1  0  0  0  0
 28 51  1  0  0  0  0
 28 52  1  0  0  0  0
 28 53  1  0  0  0  0
M  END
> <s_m_source_file>
AV-unprocessed.smi

> <i_m_source_file_index>
164

> <i_lp_mmshare_version>
43012

> <i_f3d_flags>
0

> <s_epik_input>
W0NIM11jMVtjSF1bY0hdYyhbQ0gzXSljKGMxW0NIM10pT1tDSDJdW0NASF0oW09IXSlbQ0gyXW4yYyg9TyljKEYpW2NIXW4oYzI9TylbQ0BASF0zW0NIMl1bQ0gyXVtDSDJdTzM=

> <s_epik_cmdline>
J2VwaWtfcHl0aG9uJywgJy1waCcsICc3LjAnLCAnLXRuJywgJzgnLCAnLW1hJywgJzIwMCcsICctbWV0YWxfYmluZGluZycsICctaW1hZScsICc8aW5maWxlLm1hZT4nLCAnLW9tYWUnLCAnPG91dGZpbGUubWFlPic=

> <r_lp_tautomer_probability>
1

> <r_epik_Ionization_Penalty>
1.45842e-07

> <r_epik_Ionization_Penalty_Charging>
2.86622e-08

> <r_epik_Ionization_Penalty_Neutral>
1.1718e-07

> <r_epik_State_Penalty>
-0

> <r_epik_Charging_Adjusted_Penalty>
2.86622e-08

> <i_epik_Tot_Q>
0

> <i_epik_Tot_abs_Q>
0

> <r_epik_Metal_State_Penalty>
-0

> <b_epik_Metal_Only>
0

> <s_epik_Chemistry_Notes>
This compound contains an acetal/aminal-like group ( X-CH(R)-Y where X, Y are N, S, or O) that may be acid/base labile, releasing an aldehyde.

> <s_lp_Force_Field>
OPLS_2005

> <r_lp_Energy>
42.2677

> <b_lp_Chiralities_Consistent>
1

> <s_lp_Variant>
AV-unprocessed.smi:164-3

> <Gold.Version>
5.8.1

> <Gold.Id.Protein>
6NUR|6NUR_protein|mol2

> <Gold.PLP.Fitness>
51.6476

> <Gold.PLP.PLP>
-50.3565

> <Gold.PLP.part.hbond>
-1.7914

> <Gold.PLP.part.metal>
0.0000

> <Gold.PLP.part.buried>
-1.9257

> <Gold.PLP.part.nonpolar>
-45.1147

> <Gold.PLP.part.repulsive>
0.1641

> <Gold.PLP.ligand.clash>
0.0000

> <Gold.PLP.ligand.torsion>
0.9009

> <Gold.PLP.Chemscore.Hbond>
0.9500

> <Gold.PLP.Chemscore.CHOScore>
0.0000

> <Gold.PLP.Chemscore.Metal>
0.0000

> <Gold.Chemscore.Hbonds>
donor molecule, donor type, donor heavy atom, donor atom, acceptor molecule, acceptor atom, score
      P1  H  7997  8009       L1    15  0.85

> <Gold.PLP.Chemscore.Internal.Correction>
0.2429

> <Gold.Rescore>
     Score         DG    S(hbond)    S(metal)    S(lipo)     H(rot)  DE(clash)    DE(int)     intcor
     12.16     -14.03       0.71        0.00     112.61       2.73       0.90       0.98       ----

> <Gold.Chemscore.Fitness>
12.1558

> <Gold.Chemscore.DG>
-14.0331

> <Gold.Chemscore.ZeroCoef>
-5.4800

> <Gold.Chemscore.Hbond>
0.7096

> <Gold.Chemscore.Metal>
0.0000

> <Gold.Chemscore.Lipo>
112.6123

> <Gold.Chemscore.Internal_Hbond>
0.0000

> <Gold.Chemscore.DEClash>
0.8963

> <Gold.Chemscore.DEInternal>
0.9811

> <Gold.Chemscore.Rot>
2.7315

> <Gold.Chemscore.Internal.Correction>
   9.000000E+99

> <Gold.Chemscore.Hbonds>
donor molecule, donor type, donor heavy atom, donor atom, acceptor molecule, acceptor atom, score
      P1  H  7997  8009       L1    15  0.15

> <Gold.Chemscore.Hbond.Weighted>
-2.3700

> <Gold.Chemscore.Metal.Weighted>
-0.0000

> <Gold.Chemscore.Lipo.Weighted>
-13.1756

> <Gold.Chemscore.Internal_Hbond.Weighted>
0.0000

> <Gold.Chemscore.DEClash.Weighted>
0.8963

> <Gold.Chemscore.DEInternal.Weighted>
0.9811

> <Gold.Chemscore.Rot.Weighted>
6.9925

> <Gold.Chemscore.Internal.Correction.Weighted>
   9.000000E+99

> <Gold.Protein.RotatedTorsions>
[ 6907 6896 6895 6894 ] final -135.02 input  -60.11 | X-H torsion
[ 7974 7965 7964 7962 ] final  -13.75 input  175.53 | X-H torsion
[ 8008 7997 7996 7995 ] final  118.94 input   59.86 | X-H torsion
[ 10167 10162 10161 10158 ] final  129.46 input  -65.29 | X-H torsion
[ 10718 10713 10712 10709 ] final  -71.10 input   66.30 | X-H torsion
[ 10763 10752 10751 10750 ] final -127.48 input  -60.55 | X-H torsion
[ 11005 11000 10999 10996 ] final   40.75 input  -57.11 | X-H torsion

> <Gold.Protein.ActiveResidues>
 VAL166  LYS551  ARG553  GLY616  TRP617  ASP618  TYR619  PRO620  LYS621  CYS622 
 ASP623  PHE694  ASN695  SER759  ASP760  ASP761  ALA762  ILE779  LEU786  VAL792 
 PHE793  MET794  SER795  GLU796  ALA797  LYS798  CYS799  TRP800  GLU811  SER814 

> <Gold.Protein.RotatedAtoms>
  150.9929  133.6132  159.2705 H   0  0  0  0  0  0  0  0  0  0  0  0  # atno 6907 bound_to 6896
  151.3346  135.0848  159.9360 H   0  0  0  0  0  0  0  0  0  0  0  0  # atno 6908 bound_to 6896
  152.5251  133.9552  159.7745 H   0  0  0  0  0  0  0  0  0  0  0  0  # atno 6909 bound_to 6896
  146.2102  140.3248  142.8393 H   0  0  0  0  0  0  0  0  0  0  0  0  # atno 7974 bound_to 7965
  156.2572  140.2863  156.0914 H   0  0  0  0  0  0  0  0  0  0  0  0  # atno 8008 bound_to 7997
  155.1459  140.0396  157.2827 H   0  0  0  0  0  0  0  0  0  0  0  0  # atno 8009 bound_to 7997
  154.6496  140.2541  155.7235 H   0  0  0  0  0  0  0  0  0  0  0  0  # atno 8010 bound_to 7997
  139.5477  144.6787  151.4422 H   0  0  0  0  0  0  0  0  0  0  0  0  # atno 10167 bound_to 10162
  156.0378  130.4344  150.2394 H   0  0  0  0  0  0  0  0  0  0  0  0  # atno 10718 bound_to 10713
  154.8752  135.3960  154.3601 H   0  0  0  0  0  0  0  0  0  0  0  0  # atno 10763 bound_to 10752
  153.4375  135.7026  153.6196 H   0  0  0  0  0  0  0  0  0  0  0  0  # atno 10764 bound_to 10752
  153.4791  135.3773  155.2402 H   0  0  0  0  0  0  0  0  0  0  0  0  # atno 10765 bound_to 10752
  140.1900  134.3998  155.8151 H   0  0  0  0  0  0  0  0  0  0  0  0  # atno 11005 bound_to 11000
  144.8894  140.7504  143.5936 LP  0  0  0  0  0  0  0  0  0  0  0  0  # atno 17320 bound_to 7965
  145.3170  139.1800  143.4608 LP  0  0  0  0  0  0  0  0  0  0  0  0  # atno 17321 bound_to 7965
  140.6730  143.8252  150.7023 LP  0  0  0  0  0  0  0  0  0  0  0  0  # atno 17342 bound_to 10162
  140.1682  143.4217  152.2019 LP  0  0  0  0  0  0  0  0  0  0  0  0  # atno 17343 bound_to 10162
  157.0492  131.0058  151.3259 LP  0  0  0  0  0  0  0  0  0  0  0  0  # atno 17370 bound_to 10713
  157.5153  130.7964  149.7749 LP  0  0  0  0  0  0  0  0  0  0  0  0  # atno 17371 bound_to 10713
  141.2226  133.7042  156.8079 LP  0  0  0  0  0  0  0  0  0  0  0  0  # atno 17394 bound_to 11000
  140.2170  134.8785  157.3336 LP  0  0  0  0  0  0  0  0  0  0  0  0  # atno 17395 bound_to 11000

$$$$
