AV-unprocessed.smi:3303|AV-procd|sdf|12696|dock1
  -GOLD-   2272019 33D 1   1.00000     0.00000
 Structure written by MMmdl.
 44 45  0  0  0  0  0  0  0  0  2 V2000
  151.1391  137.9535  154.8719 C   0  0  0  0  0  0  0  0  0  0  0  0
  150.2549  139.1272  154.4151 C   0  0  1  0  0  0  0  0  0  0  0  0
  148.8502  138.6139  154.0405 C   0  0  0  0  0  0  0  0  0  0  0  0
  147.9530  139.7066  153.5836 N   0  3  1  0  0  0  0  0  0  0  0  0
  146.6693  139.1627  153.0776 C   0  0  0  0  0  0  0  0  0  0  0  0
  147.7979  140.7672  154.6227 C   0  0  2  0  0  0  0  0  0  0  0  0
  146.8788  141.9185  154.1685 C   0  0  0  0  0  0  0  0  0  0  0  0
  149.1790  141.3313  155.0084 C   0  0  0  0  0  0  0  0  0  0  0  0
  150.1444  140.2346  155.4861 C   0  0  2  0  0  0  0  0  0  0  0  0
  151.4433  140.8631  155.6979 N   0  0  0  0  0  0  0  0  0  0  0  0
  151.3837  141.8514  156.7640 C   0  0  0  0  0  0  0  0  0  0  0  0
  152.3925  141.4871  157.8617 C   0  0  0  0  0  0  0  0  0  0  0  0
  152.4482  142.5333  158.9583 C   0  0  0  0  0  0  0  0  0  0  0  0
  153.0917  142.2597  160.1844 C   0  0  0  0  0  0  0  0  0  0  0  0
  153.1136  143.2660  161.1694 C   0  0  0  0  0  0  0  0  0  0  0  0
  152.4935  144.4998  160.8929 C   0  0  0  0  0  0  0  0  0  0  0  0
  151.8756  144.6731  159.6383 C   0  0  0  0  0  0  0  0  0  0  0  0
  151.8492  143.7149  158.6867 N   0  0  0  0  0  0  0  0  0  0  0  0
  150.7612  137.5055  155.7917 H   0  0  0  0  0  0  0  0  0  0  0  0
  152.1655  138.2725  155.0544 H   0  0  0  0  0  0  0  0  0  0  0  0
  151.1770  137.1719  154.1126 H   0  0  0  0  0  0  0  0  0  0  0  0
  150.7042  139.5542  153.5165 H   0  0  0  0  0  0  0  0  0  0  0  0
  148.9427  137.8714  153.2466 H   0  0  0  0  0  0  0  0  0  0  0  0
  148.3942  138.1062  154.8923 H   0  0  0  0  0  0  0  0  0  0  0  0
  146.0595  138.7744  153.8944 H   0  0  0  0  0  0  0  0  0  0  0  0
  146.8436  138.3512  152.3701 H   0  0  0  0  0  0  0  0  0  0  0  0
  146.0952  139.9202  152.5449 H   0  0  0  0  0  0  0  0  0  0  0  0
  147.3524  140.3105  155.5082 H   0  0  0  0  0  0  0  0  0  0  0  0
  146.8665  142.7199  154.9077 H   0  0  0  0  0  0  0  0  0  0  0  0
  145.8452  141.5951  154.0473 H   0  0  0  0  0  0  0  0  0  0  0  0
  147.2138  142.3484  153.2239 H   0  0  0  0  0  0  0  0  0  0  0  0
  149.6059  141.8521  154.1492 H   0  0  0  0  0  0  0  0  0  0  0  0
  149.0635  142.0793  155.7943 H   0  0  0  0  0  0  0  0  0  0  0  0
  149.7578  139.8079  156.4137 H   0  0  0  0  0  0  0  0  0  0  0  0
  151.7456  141.3159  154.8469 H   0  0  0  0  0  0  0  0  0  0  0  0
  151.6124  142.8379  156.3581 H   0  0  0  0  0  0  0  0  0  0  0  0
  150.3758  141.8907  157.1785 H   0  0  0  0  0  0  0  0  0  0  0  0
  152.1350  140.5219  158.3003 H   0  0  0  0  0  0  0  0  0  0  0  0
  153.3901  141.3743  157.4340 H   0  0  0  0  0  0  0  0  0  0  0  0
  153.5584  141.3028  160.3674 H   0  0  0  0  0  0  0  0  0  0  0  0
  153.5968  143.0948  162.1200 H   0  0  0  0  0  0  0  0  0  0  0  0
  152.4903  145.2941  161.6247 H   0  0  0  0  0  0  0  0  0  0  0  0
  151.3890  145.6055  159.3928 H   0  0  0  0  0  0  0  0  0  0  0  0
  148.4103  140.1389  152.7934 H   0  0  0  0  0  0  0  0  0  0  0  0
  1  2  1  0  0  0  0
  1 19  1  0  0  0  0
  1 20  1  0  0  0  0
  1 21  1  0  0  0  0
  2  9  1  0  0  0  0
  2  3  1  0  0  0  0
  2 22  1  0  0  0  0
  3  4  1  0  0  0  0
  3 23  1  0  0  0  0
  3 24  1  0  0  0  0
  4  5  1  0  0  0  0
  4  6  1  0  0  0  0
  4 44  1  0  0  0  0
  5 25  1  0  0  0  0
  5 26  1  0  0  0  0
  5 27  1  0  0  0  0
  6  7  1  0  0  0  0
  6  8  1  0  0  0  0
  6 28  1  0  0  0  0
  7 29  1  0  0  0  0
  7 30  1  0  0  0  0
  7 31  1  0  0  0  0
  8  9  1  0  0  0  0
  8 32  1  0  0  0  0
  8 33  1  0  0  0  0
  9 10  1  0  0  0  0
  9 34  1  0  0  0  0
 10 11  1  0  0  0  0
 10 35  1  0  0  0  0
 11 12  1  0  0  0  0
 11 36  1  0  0  0  0
 11 37  1  0  0  0  0
 12 13  1  0  0  0  0
 12 38  1  0  0  0  0
 12 39  1  0  0  0  0
 13 18  1  0  0  0  0
 13 14  2  0  0  0  0
 14 15  1  0  0  0  0
 14 40  1  0  0  0  0
 15 16  2  0  0  0  0
 15 41  1  0  0  0  0
 16 17  1  0  0  0  0
 16 42  1  0  0  0  0
 17 18  2  0  0  0  0
 17 43  1  0  0  0  0
M  CHG  1   4   1
M  END
> <s_m_source_file>
AV-unprocessed.smi

> <i_m_source_file_index>
3303

> <i_lp_mmshare_version>
43012

> <i_f3d_flags>
0

> <s_epik_input>
W0NIM11bQ0BASF0xW0NIMl1OKFtDSDNdKVtDQEBIXShbQ0gzXSlbQ0gyXVtDQEhdMVtOSF1bQ0gyXVtDSDJdYzJbY0hdW2NIXVtjSF1bY0hdbjI=

> <s_epik_cmdline>
J2VwaWtfcHl0aG9uJywgJy1waCcsICc3LjAnLCAnLXRuJywgJzgnLCAnLW1hJywgJzIwMCcsICctbWV0YWxfYmluZGluZycsICctaW1hZScsICc8aW5maWxlLm1hZT4nLCAnLW9tYWUnLCAnPG91dGZpbGUubWFlPic=

> <r_epik_Ionization_Penalty>
2.31085

> <r_epik_Ionization_Penalty_Charging>
0.000313057

> <r_epik_Ionization_Penalty_Neutral>
2.31054

> <r_epik_State_Penalty>
2.4087

> <r_epik_Charging_Adjusted_Penalty>
2.40902

> <i_epik_Tot_Q>
1

> <i_epik_Tot_abs_Q>
1

> <r_epik_Metal_State_Penalty>
2.30979

> <b_epik_Metal_Only>
0

> <s_lp_Force_Field>
OPLS_2005

> <r_lp_Energy>
23.6085

> <b_lp_Chiralities_Consistent>
1

> <s_lp_Variant>
AV-unprocessed.smi:3303-40

> <Gold.Version>
5.8.1

> <Gold.Id.Protein>
6NUR|6NUR_protein|mol2

> <Gold.PLP.Fitness>
45.6434

> <Gold.PLP.PLP>
-43.6771

> <Gold.PLP.part.hbond>
-1.8836

> <Gold.PLP.part.metal>
0.0000

> <Gold.PLP.part.buried>
-5.3980

> <Gold.PLP.part.nonpolar>
-35.7152

> <Gold.PLP.part.repulsive>
0.1309

> <Gold.PLP.ligand.clash>
0.0000

> <Gold.PLP.ligand.torsion>
0.5413

> <Gold.PLP.Chemscore.Hbond>
1.0000

> <Gold.PLP.Chemscore.CHOScore>
0.0000

> <Gold.PLP.Chemscore.Metal>
0.0000

> <Gold.Chemscore.Hbonds>
donor molecule, donor type, donor heavy atom, donor atom, acceptor molecule, acceptor atom, score
      L1  H     4    44       P1  7957  1.00

> <Gold.PLP.Chemscore.Internal.Correction>
0.0488

> <Gold.Rescore>
     Score         DG    S(hbond)    S(metal)    S(lipo)     H(rot)  DE(clash)    DE(int)     intcor
     19.33     -19.86       0.96        0.00     124.51       1.33       0.07       0.46       ----

> <Gold.Chemscore.Fitness>
19.3319

> <Gold.Chemscore.DG>
-19.8628

> <Gold.Chemscore.ZeroCoef>
-5.4800

> <Gold.Chemscore.Hbond>
0.9621

> <Gold.Chemscore.Metal>
0.0000

> <Gold.Chemscore.Lipo>
124.5056

> <Gold.Chemscore.Internal_Hbond>
0.0000

> <Gold.Chemscore.DEClash>
0.0747

> <Gold.Chemscore.DEInternal>
0.4562

> <Gold.Chemscore.Rot>
1.3272

> <Gold.Chemscore.Internal.Correction>
   9.000000E+99

> <Gold.Chemscore.Hbonds>
donor molecule, donor type, donor heavy atom, donor atom, acceptor molecule, acceptor atom, score
      L1  H     4    44       P1  7957  0.90

> <Gold.Chemscore.Hbond.Weighted>
-3.2133

> <Gold.Chemscore.Metal.Weighted>
-0.0000

> <Gold.Chemscore.Lipo.Weighted>
-14.5672

> <Gold.Chemscore.Internal_Hbond.Weighted>
0.0000

> <Gold.Chemscore.DEClash.Weighted>
0.0747

> <Gold.Chemscore.DEInternal.Weighted>
0.4562

> <Gold.Chemscore.Rot.Weighted>
3.3976

> <Gold.Chemscore.Internal.Correction.Weighted>
   9.000000E+99

> <Gold.Protein.RotatedTorsions>
[ 6907 6896 6895 6894 ] final  -53.01 input  -60.11 | X-H torsion
[ 7974 7965 7964 7962 ] final   74.60 input  175.53 | X-H torsion
[ 8008 7997 7996 7995 ] final  -67.77 input   59.86 | X-H torsion
[ 10167 10162 10161 10158 ] final   35.40 input  -65.29 | X-H torsion
[ 10718 10713 10712 10709 ] final  -89.39 input   66.30 | X-H torsion
[ 10763 10752 10751 10750 ] final  159.01 input  -60.55 | X-H torsion
[ 11005 11000 10999 10996 ] final  116.10 input  -57.11 | X-H torsion

> <Gold.Protein.ActiveResidues>
 VAL166  LYS551  ARG553  GLY616  TRP617  ASP618  TYR619  PRO620  LYS621  CYS622 
 ASP623  PHE694  ASN695  SER759  ASP760  ASP761  ALA762  ILE779  LEU786  VAL792 
 PHE793  MET794  SER795  GLU796  ALA797  LYS798  CYS799  TRP800  GLU811  SER814 

> <Gold.Protein.RotatedAtoms>
  150.8466  134.7777  159.6974 H   0  0  0  0  0  0  0  0  0  0  0  0  # atno 6907 bound_to 6896
  152.4541  134.5326  159.9825 H   0  0  0  0  0  0  0  0  0  0  0  0  # atno 6908 bound_to 6896
  151.5456  133.3388  159.2979 H   0  0  0  0  0  0  0  0  0  0  0  0  # atno 6909 bound_to 6896
  145.7262  139.2666  143.1567 H   0  0  0  0  0  0  0  0  0  0  0  0  # atno 7974 bound_to 7965
  154.4822  140.0886  156.7404 H   0  0  0  0  0  0  0  0  0  0  0  0  # atno 8008 bound_to 7997
  155.4441  140.3455  155.4275 H   0  0  0  0  0  0  0  0  0  0  0  0  # atno 8009 bound_to 7997
  156.1208  140.1474  156.9195 H   0  0  0  0  0  0  0  0  0  0  0  0  # atno 8010 bound_to 7997
  140.4225  144.1439  150.6149 H   0  0  0  0  0  0  0  0  0  0  0  0  # atno 10167 bound_to 10162
  155.9984  130.4870  150.5164 H   0  0  0  0  0  0  0  0  0  0  0  0  # atno 10718 bound_to 10713
  154.2251  135.2780  155.2910 H   0  0  0  0  0  0  0  0  0  0  0  0  # atno 10763 bound_to 10752
  154.5670  135.5630  153.7063 H   0  0  0  0  0  0  0  0  0  0  0  0  # atno 10764 bound_to 10752
  153.0033  135.6312  154.2392 H   0  0  0  0  0  0  0  0  0  0  0  0  # atno 10765 bound_to 10752
  139.9030  134.9593  156.7146 H   0  0  0  0  0  0  0  0  0  0  0  0  # atno 11005 bound_to 11000
  146.0580  140.8001  142.9749 LP  0  0  0  0  0  0  0  0  0  0  0  0  # atno 17320 bound_to 7965
  144.6904  140.3153  143.7241 LP  0  0  0  0  0  0  0  0  0  0  0  0  # atno 17321 bound_to 7965
  140.4518  143.2484  151.9338 LP  0  0  0  0  0  0  0  0  0  0  0  0  # atno 17342 bound_to 10162
  139.4783  144.5555  151.8320 LP  0  0  0  0  0  0  0  0  0  0  0  0  # atno 17343 bound_to 10162
  157.3131  131.0667  151.1986 LP  0  0  0  0  0  0  0  0  0  0  0  0  # atno 17370 bound_to 10713
  157.2926  130.6803  149.6122 LP  0  0  0  0  0  0  0  0  0  0  0  0  # atno 17371 bound_to 10713
  140.7049  133.9274  155.8047 LP  0  0  0  0  0  0  0  0  0  0  0  0  # atno 17394 bound_to 11000
  141.0344  134.0710  157.3976 LP  0  0  0  0  0  0  0  0  0  0  0  0  # atno 17395 bound_to 11000

$$$$
