AV-unprocessed.smi:3250|AV-procd|sdf|12425|dock8
  -GOLD-   2272018313D 1   1.00000     0.00000
 Structure written by MMmdl.
 39 40  0  0  0  0  0  0  0  0  2 V2000
  148.7494  132.8617  153.5547 C   0  0  0  0  0  0  0  0  0  0  0  0
  147.8943  133.8019  154.4164 C   0  0  0  0  0  0  0  0  0  0  0  0
  148.3343  135.2168  154.3290 N   0  3  1  0  0  0  0  0  0  0  0  0
  147.3450  136.1495  154.9193 C   0  0  0  0  0  0  0  0  0  0  0  0
  147.8181  137.6048  154.7719 C   0  0  0  0  0  0  0  0  0  0  0  0
  149.1006  137.7502  155.3688 O   0  0  0  0  0  0  0  0  0  0  0  0
  150.0827  136.9380  154.7363 C   0  0  1  0  0  0  0  0  0  0  0  0
  151.4440  137.2648  155.3768 C   0  0  0  0  0  0  0  0  0  0  0  0
  151.8702  138.6365  155.1279 N   0  0  0  0  0  0  0  0  0  0  0  0
  151.6613  139.6956  155.9931 C   0  0  0  0  0  0  0  0  0  0  0  0
  150.8640  140.6628  155.5355 N   0  0  0  0  0  0  0  0  0  0  0  0
  150.6331  141.7084  156.3596 C   0  0  0  0  0  0  0  0  0  0  0  0
  151.2021  141.7794  157.6469 C   0  0  0  0  0  0  0  0  0  0  0  0
  152.0284  140.7038  158.0292 C   0  0  0  0  0  0  0  0  0  0  0  0
  152.6170  140.7066  159.2767 O   0  0  0  0  0  0  0  0  0  0  0  0
  152.3372  141.7978  160.1473 C   0  0  0  0  0  0  0  0  0  0  0  0
  152.2533  139.6606  157.1921 N   0  0  0  0  0  0  0  0  0  0  0  0
  149.6807  135.4581  154.9040 C   0  0  0  0  0  0  0  0  0  0  0  0
  148.3313  131.8549  153.5583 H   0  0  0  0  0  0  0  0  0  0  0  0
  149.7724  132.7857  153.9223 H   0  0  0  0  0  0  0  0  0  0  0  0
  148.7861  133.1995  152.5187 H   0  0  0  0  0  0  0  0  0  0  0  0
  146.8638  133.7310  154.0660 H   0  0  0  0  0  0  0  0  0  0  0  0
  147.8907  133.4735  155.4567 H   0  0  0  0  0  0  0  0  0  0  0  0
  146.3800  136.0279  154.4258 H   0  0  0  0  0  0  0  0  0  0  0  0
  147.2005  135.9096  155.9739 H   0  0  0  0  0  0  0  0  0  0  0  0
  147.8547  137.9000  153.7219 H   0  0  0  0  0  0  0  0  0  0  0  0
  147.1191  138.2791  155.2670 H   0  0  0  0  0  0  0  0  0  0  0  0
  150.1109  137.1928  153.6755 H   0  0  0  0  0  0  0  0  0  0  0  0
  151.3983  137.1005  156.4543 H   0  0  0  0  0  0  0  0  0  0  0  0
  152.2093  136.5879  154.9965 H   0  0  0  0  0  0  0  0  0  0  0  0
  152.2934  138.8491  154.2361 H   0  0  0  0  0  0  0  0  0  0  0  0
  149.9882  142.4921  155.9906 H   0  0  0  0  0  0  0  0  0  0  0  0
  151.0148  142.6151  158.3048 H   0  0  0  0  0  0  0  0  0  0  0  0
  152.8713  141.6566  161.0868 H   0  0  0  0  0  0  0  0  0  0  0  0
  151.2727  141.8620  160.3785 H   0  0  0  0  0  0  0  0  0  0  0  0
  152.6669  142.7449  159.7178 H   0  0  0  0  0  0  0  0  0  0  0  0
  149.6837  135.1834  155.9602 H   0  0  0  0  0  0  0  0  0  0  0  0
  150.4160  134.8260  154.4071 H   0  0  0  0  0  0  0  0  0  0  0  0
  148.3877  135.4446  153.3462 H   0  0  0  0  0  0  0  0  0  0  0  0
  1  2  1  0  0  0  0
  1 19  1  0  0  0  0
  1 20  1  0  0  0  0
  1 21  1  0  0  0  0
  2  3  1  0  0  0  0
  2 22  1  0  0  0  0
  2 23  1  0  0  0  0
  3 18  1  0  0  0  0
  3  4  1  0  0  0  0
  3 39  1  0  0  0  0
  4  5  1  0  0  0  0
  4 24  1  0  0  0  0
  4 25  1  0  0  0  0
  5  6  1  0  0  0  0
  5 26  1  0  0  0  0
  5 27  1  0  0  0  0
  6  7  1  0  0  0  0
  7  8  1  0  0  0  0
  7 18  1  0  0  0  0
  7 28  1  0  0  0  0
  8  9  1  0  0  0  0
  8 29  1  0  0  0  0
  8 30  1  0  0  0  0
  9 10  1  0  0  0  0
  9 31  1  0  0  0  0
 10 17  1  0  0  0  0
 10 11  2  0  0  0  0
 11 12  1  0  0  0  0
 12 13  2  0  0  0  0
 12 32  1  0  0  0  0
 13 14  1  0  0  0  0
 13 33  1  0  0  0  0
 14 15  1  0  0  0  0
 14 17  2  0  0  0  0
 15 16  1  0  0  0  0
 16 34  1  0  0  0  0
 16 35  1  0  0  0  0
 16 36  1  0  0  0  0
 18 37  1  0  0  0  0
 18 38  1  0  0  0  0
M  CHG  1   3   1
M  END
> <s_m_source_file>
AV-unprocessed.smi

> <i_m_source_file_index>
3250

> <i_lp_mmshare_version>
43012

> <i_f3d_flags>
0

> <s_epik_input>
W0NIM11bQ0gyXU4xW0NIMl1bQ0gyXU9bQ0BIXShbQ0gyXTEpW0NIMl1bTkhdYzJuW2NIXVtjSF1jKG4yKU9bQ0gzXQ==

> <s_epik_cmdline>
J2VwaWtfcHl0aG9uJywgJy1waCcsICc3LjAnLCAnLXRuJywgJzgnLCAnLW1hJywgJzIwMCcsICctbWV0YWxfYmluZGluZycsICctaW1hZScsICc8aW5maWxlLm1hZT4nLCAnLW9tYWUnLCAnPG91dGZpbGUubWFlPic=

> <r_lp_tautomer_probability>
1

> <r_epik_Ionization_Penalty>
0.19684

> <r_epik_Ionization_Penalty_Charging>
0.178504

> <r_epik_Ionization_Penalty_Neutral>
0.0183356

> <r_epik_State_Penalty>
0.162939

> <r_epik_Charging_Adjusted_Penalty>
0.341443

> <i_epik_Tot_Q>
1

> <i_epik_Tot_abs_Q>
1

> <r_epik_Metal_State_Penalty>
0.1608

> <b_epik_Metal_Only>
0

> <s_lp_Force_Field>
OPLS_2005

> <r_lp_Energy>
7.38775

> <b_lp_Chiralities_Consistent>
1

> <s_lp_Variant>
AV-unprocessed.smi:3250-1

> <Gold.Version>
5.8.1

> <Gold.Id.Protein>
6NUR|6NUR_protein|mol2

> <Gold.PLP.Fitness>
40.0186

> <Gold.PLP.PLP>
-27.2278

> <Gold.PLP.part.hbond>
-3.0000

> <Gold.PLP.part.metal>
0.0000

> <Gold.PLP.part.buried>
-2.9099

> <Gold.PLP.part.nonpolar>
-21.2648

> <Gold.PLP.part.repulsive>
0.3283

> <Gold.PLP.ligand.clash>
0.1435

> <Gold.PLP.ligand.torsion>
0.8401

> <Gold.PLP.Chemscore.Hbond>
3.8640

> <Gold.PLP.Chemscore.CHOScore>
1.0000

> <Gold.PLP.Chemscore.Metal>
0.0000

> <Gold.Chemscore.Hbonds>
donor molecule, donor type, donor heavy atom, donor atom, acceptor molecule, acceptor atom, score
      L1  H     3    39       P1  7948  2.00
      P1  H  7989  7998       L1    11  0.55
      P1  H  7997  8008       L1    17  0.19
      L1  C    12    32       P1  8028  1.00

> <Gold.PLP.Chemscore.Internal.Correction>
0.0224

> <Gold.Rescore>
     Score         DG    S(hbond)    S(metal)    S(lipo)     H(rot)  DE(clash)    DE(int)     intcor
     10.94     -12.47       1.47        0.00      55.11       1.71       0.47       1.06       ----

> <Gold.Chemscore.Fitness>
10.9370

> <Gold.Chemscore.DG>
-12.4662

> <Gold.Chemscore.ZeroCoef>
-5.4800

> <Gold.Chemscore.Hbond>
1.4740

> <Gold.Chemscore.Metal>
0.0000

> <Gold.Chemscore.Lipo>
55.1083

> <Gold.Chemscore.Internal_Hbond>
0.0000

> <Gold.Chemscore.DEClash>
0.4660

> <Gold.Chemscore.DEInternal>
1.0631

> <Gold.Chemscore.Rot>
1.7127

> <Gold.Chemscore.Internal.Correction>
   9.000000E+99

> <Gold.Chemscore.Hbonds>
donor molecule, donor type, donor heavy atom, donor atom, acceptor molecule, acceptor atom, score
      L1  H     3    39       P1  7948  0.99
      P1  H  7989  7998       L1    11  0.16
      P1  H  7997  8008       L1    17  0.01

> <Gold.Chemscore.Hbond.Weighted>
-4.9231

> <Gold.Chemscore.Metal.Weighted>
-0.0000

> <Gold.Chemscore.Lipo.Weighted>
-6.4477

> <Gold.Chemscore.Internal_Hbond.Weighted>
0.0000

> <Gold.Chemscore.DEClash.Weighted>
0.4660

> <Gold.Chemscore.DEInternal.Weighted>
1.0631

> <Gold.Chemscore.Rot.Weighted>
4.3846

> <Gold.Chemscore.Internal.Correction.Weighted>
   9.000000E+99

> <Gold.Protein.RotatedTorsions>
[ 6907 6896 6895 6894 ] final  174.06 input  -60.11 | X-H torsion
[ 7974 7965 7964 7962 ] final -135.33 input  175.53 | X-H torsion
[ 8008 7997 7996 7995 ] final  -39.44 input   59.86 | X-H torsion
[ 10167 10162 10161 10158 ] final   91.77 input  -65.29 | X-H torsion
[ 10718 10713 10712 10709 ] final  121.26 input   66.30 | X-H torsion
[ 10763 10752 10751 10750 ] final   85.10 input  -60.55 | X-H torsion
[ 11005 11000 10999 10996 ] final   95.19 input  -57.11 | X-H torsion

> <Gold.Protein.ActiveResidues>
 VAL166  LYS551  ARG553  GLY616  TRP617  ASP618  TYR619  PRO620  LYS621  CYS622 
 ASP623  PHE694  ASN695  SER759  ASP760  ASP761  ALA762  ILE779  LEU786  VAL792 
 PHE793  MET794  SER795  GLU796  ALA797  LYS798  CYS799  TRP800  GLU811  SER814 

> <Gold.Protein.RotatedAtoms>
  151.7583  133.3332  159.3410 H   0  0  0  0  0  0  0  0  0  0  0  0  # atno 6907 bound_to 6896
  150.7508  134.6129  159.6105 H   0  0  0  0  0  0  0  0  0  0  0  0  # atno 6908 bound_to 6896
  152.3422  134.7121  160.0312 H   0  0  0  0  0  0  0  0  0  0  0  0  # atno 6909 bound_to 6896
  144.9023  140.6788  143.5077 H   0  0  0  0  0  0  0  0  0  0  0  0  # atno 7974 bound_to 7965
  154.4023  140.1551  156.2864 H   0  0  0  0  0  0  0  0  0  0  0  0  # atno 8008 bound_to 7997
  155.8824  140.3443  155.5875 H   0  0  0  0  0  0  0  0  0  0  0  0  # atno 8009 bound_to 7997
  155.7652  140.0823  157.2126 H   0  0  0  0  0  0  0  0  0  0  0  0  # atno 8010 bound_to 7997
  139.8342  144.6673  150.9363 H   0  0  0  0  0  0  0  0  0  0  0  0  # atno 10167 bound_to 10162
  157.5831  131.1073  150.8149 H   0  0  0  0  0  0  0  0  0  0  0  0  # atno 10718 bound_to 10713
  153.1443  135.4629  154.9543 H   0  0  0  0  0  0  0  0  0  0  0  0  # atno 10763 bound_to 10752
  154.7773  135.3177  154.8066 H   0  0  0  0  0  0  0  0  0  0  0  0  # atno 10764 bound_to 10752
  153.8583  135.6915  153.4839 H   0  0  0  0  0  0  0  0  0  0  0  0  # atno 10765 bound_to 10752
  139.8791  134.8886  156.3975 H   0  0  0  0  0  0  0  0  0  0  0  0  # atno 11005 bound_to 11000
  145.3595  139.1685  143.4391 LP  0  0  0  0  0  0  0  0  0  0  0  0  # atno 17320 bound_to 7965
  146.3115  140.3655  142.8669 LP  0  0  0  0  0  0  0  0  0  0  0  0  # atno 17321 bound_to 7965
  140.7804  143.3973  151.1209 LP  0  0  0  0  0  0  0  0  0  0  0  0  # atno 17342 bound_to 10162
  139.7624  143.8615  152.3103 LP  0  0  0  0  0  0  0  0  0  0  0  0  # atno 17343 bound_to 10162
  156.8590  130.5106  149.5305 LP  0  0  0  0  0  0  0  0  0  0  0  0  # atno 17370 bound_to 10713
  156.0878  130.5872  150.9679 LP  0  0  0  0  0  0  0  0  0  0  0  0  # atno 17371 bound_to 10713
  140.9290  133.7592  156.0001 LP  0  0  0  0  0  0  0  0  0  0  0  0  # atno 17394 bound_to 11000
  140.8352  134.3131  157.5334 LP  0  0  0  0  0  0  0  0  0  0  0  0  # atno 17395 bound_to 11000

$$$$
