AV-unprocessed.smi:1643|AV-procd|sdf|6580|dock1
  -GOLD-   22720 7263D 1   1.00000     0.00000
 Structure written by MMmdl.
 55 57  0  0  0  0  0  0  0  0  3 V2000
  149.5523  132.8240  158.3395 C   0  0  0  0  0  0  0  0  0  0  0  0
  149.9971  132.5176  156.9067 C   0  0  0  0  0  0  0  0  0  0  0  0
  150.9006  131.6973  156.7446 O   0  0  0  0  0  0  0  0  0  0  0  0
  149.3809  133.1432  155.8737 N   0  0  0  0  0  0  0  0  0  0  0  0
  149.6983  132.7997  154.4790 C   0  0  0  0  0  0  0  0  0  0  0  0
  150.6736  133.8102  153.8371 C   0  0  0  0  0  0  0  0  0  0  0  0
  150.7701  135.1804  154.5426 C   0  0  0  0  0  0  0  0  0  0  0  0
  149.5055  135.9662  154.5519 N   0  3  2  0  0  0  0  0  0  0  0  0
  149.6358  137.2425  155.3056 C   0  0  0  0  0  0  0  0  0  0  0  0
  150.2343  138.3531  154.4247 C   0  0  1  0  0  0  0  0  0  0  0  0
  149.3992  138.5713  153.3039 O   0  0  0  0  0  0  0  0  0  0  0  0
  150.3947  139.6791  155.1944 C   0  0  0  0  0  0  0  0  0  0  0  0
  151.2321  139.5414  156.3934 N   0  0  0  0  0  0  0  0  0  0  0  0
  151.9988  138.4983  156.8141 C   0  0  0  0  0  0  0  0  0  0  0  0
  152.5800  138.8645  157.9901 N   0  3  0  0  0  0  0  0  0  0  0  0
  152.1806  140.1602  158.3242 C   0  0  0  0  0  0  0  0  0  0  0  0
  152.5025  140.9607  159.4138 C   0  0  0  0  0  0  0  0  0  0  0  0
  151.9233  142.2490  159.4610 C   0  0  0  0  0  0  0  0  0  0  0  0
  152.2568  143.1512  160.6368 C   0  0  0  0  0  0  0  0  0  0  0  0
  151.0502  142.6954  158.4351 C   0  0  0  0  0  0  0  0  0  0  0  0
  150.4334  144.0825  158.4961 C   0  0  0  0  0  0  0  0  0  0  0  0
  150.7354  141.8660  157.3350 C   0  0  0  0  0  0  0  0  0  0  0  0
  151.3159  140.6005  157.3037 C   0  0  0  0  0  0  0  0  0  0  0  0
  148.2575  135.2177  154.8835 C   0  0  0  0  0  0  0  0  0  0  0  0
  148.3792  134.2122  156.0600 C   0  0  0  0  0  0  0  0  0  0  0  0
  148.4686  132.7551  158.4376 H   0  0  0  0  0  0  0  0  0  0  0  0
  149.8732  133.8219  158.6383 H   0  0  0  0  0  0  0  0  0  0  0  0
  149.9925  132.1103  159.0367 H   0  0  0  0  0  0  0  0  0  0  0  0
  150.1099  131.7930  154.3889 H   0  0  0  0  0  0  0  0  0  0  0  0
  148.7739  132.7426  153.9051 H   0  0  0  0  0  0  0  0  0  0  0  0
  151.6708  133.3683  153.8435 H   0  0  0  0  0  0  0  0  0  0  0  0
  150.4200  133.9457  152.7852 H   0  0  0  0  0  0  0  0  0  0  0  0
  151.1357  135.0509  155.5626 H   0  0  0  0  0  0  0  0  0  0  0  0
  151.5278  135.7787  154.0351 H   0  0  0  0  0  0  0  0  0  0  0  0
  148.6803  137.5541  155.7312 H   0  0  0  0  0  0  0  0  0  0  0  0
  150.2955  137.0962  156.1625 H   0  0  0  0  0  0  0  0  0  0  0  0
  151.2114  138.0303  154.0626 H   0  0  0  0  0  0  0  0  0  0  0  0
  149.4793  137.8342  152.7175 H   0  0  0  0  0  0  0  0  0  0  0  0
  150.8529  140.4375  154.5579 H   0  0  0  0  0  0  0  0  0  0  0  0
  149.4255  140.0768  155.4979 H   0  0  0  0  0  0  0  0  0  0  0  0
  152.1220  137.5510  156.3093 H   0  0  0  0  0  0  0  0  0  0  0  0
  153.1676  140.6140  160.1914 H   0  0  0  0  0  0  0  0  0  0  0  0
  152.7241  144.0737  160.2913 H   0  0  0  0  0  0  0  0  0  0  0  0
  152.9474  142.6672  161.3280 H   0  0  0  0  0  0  0  0  0  0  0  0
  151.3538  143.4063  161.1920 H   0  0  0  0  0  0  0  0  0  0  0  0
  149.7722  144.2632  157.6481 H   0  0  0  0  0  0  0  0  0  0  0  0
  151.2101  144.8473  158.4822 H   0  0  0  0  0  0  0  0  0  0  0  0
  149.8453  144.2017  159.4065 H   0  0  0  0  0  0  0  0  0  0  0  0
  150.0723  142.2066  156.5537 H   0  0  0  0  0  0  0  0  0  0  0  0
  147.4592  135.9270  155.1048 H   0  0  0  0  0  0  0  0  0  0  0  0
  147.9111  134.7183  153.9797 H   0  0  0  0  0  0  0  0  0  0  0  0
  147.4105  133.7418  156.2324 H   0  0  0  0  0  0  0  0  0  0  0  0
  148.6006  134.7950  156.9540 H   0  0  0  0  0  0  0  0  0  0  0  0
  149.3728  136.2544  153.5928 H   0  0  0  0  0  0  0  0  0  0  0  0
  153.2041  138.2721  158.5232 H   0  0  0  0  0  0  0  0  0  0  0  0
  1  2  1  0  0  0  0
  1 26  1  0  0  0  0
  1 27  1  0  0  0  0
  1 28  1  0  0  0  0
  2  3  2  0  0  0  0
  2  4  1  0  0  0  0
  4 25  1  0  0  0  0
  4  5  1  0  0  0  0
  5  6  1  0  0  0  0
  5 29  1  0  0  0  0
  5 30  1  0  0  0  0
  6  7  1  0  0  0  0
  6 31  1  0  0  0  0
  6 32  1  0  0  0  0
  7  8  1  0  0  0  0
  7 33  1  0  0  0  0
  7 34  1  0  0  0  0
  8  9  1  0  0  0  0
  8 24  1  0  0  0  0
  8 54  1  0  0  0  0
  9 10  1  0  0  0  0
  9 35  1  0  0  0  0
  9 36  1  0  0  0  0
 10 11  1  0  0  0  0
 10 12  1  0  0  0  0
 10 37  1  0  0  0  0
 11 38  1  0  0  0  0
 12 13  1  0  0  0  0
 12 39  1  0  0  0  0
 12 40  1  0  0  0  0
 13 23  1  0  0  0  0
 13 14  1  0  0  0  0
 14 15  2  0  0  0  0
 14 41  1  0  0  0  0
 15 16  1  0  0  0  0
 15 55  1  0  0  0  0
 16 23  2  0  0  0  0
 16 17  1  0  0  0  0
 17 18  2  0  0  0  0
 17 42  1  0  0  0  0
 18 19  1  0  0  0  0
 18 20  1  0  0  0  0
 19 43  1  0  0  0  0
 19 44  1  0  0  0  0
 19 45  1  0  0  0  0
 20 21  1  0  0  0  0
 20 22  2  0  0  0  0
 21 46  1  0  0  0  0
 21 47  1  0  0  0  0
 21 48  1  0  0  0  0
 22 23  1  0  0  0  0
 22 49  1  0  0  0  0
 24 25  1  0  0  0  0
 24 50  1  0  0  0  0
 24 51  1  0  0  0  0
 25 52  1  0  0  0  0
 25 53  1  0  0  0  0
M  CHG  1   8   1
M  CHG  1  15   1
M  END
> <s_m_source_file>
AV-unprocessed.smi

> <i_m_source_file_index>
1643

> <i_lp_mmshare_version>
43012

> <i_f3d_flags>
0

> <s_epik_input>
W0NIM11DKD1PKU4xW0NIMl1bQ0gyXVtDSDJdTihbQ0gyXVtDSDJdMSlbQ0gyXVtDQEhdKFtPSF0pW0NIMl1uKFtjSF1uMiljKGMyMylbY0hdYyhbQ0gzXSljKFtjSF0zKVtDSDNd

> <s_epik_cmdline>
J2VwaWtfcHl0aG9uJywgJy1waCcsICc3LjAnLCAnLXRuJywgJzgnLCAnLW1hJywgJzIwMCcsICctbWV0YWxfYmluZGluZycsICctaW1hZScsICc8aW5maWxlLm1hZT4nLCAnLW9tYWUnLCAnPG91dGZpbGUubWFlPic=

> <r_epik_Ionization_Penalty>
1.2865

> <r_epik_Ionization_Penalty_Charging>
1.2865

> <r_epik_Ionization_Penalty_Neutral>
2.89706e-06

> <r_epik_State_Penalty>
1.3566

> <r_epik_Charging_Adjusted_Penalty>
2.6431

> <i_epik_Tot_Q>
2

> <i_epik_Tot_abs_Q>
2

> <r_epik_Metal_State_Penalty>
5.37339

> <b_epik_Metal_Only>
0

> <s_lp_Force_Field>
OPLS_2005

> <r_lp_Energy>
57.2213

> <b_lp_Chiralities_Consistent>
1

> <s_lp_Variant>
AV-unprocessed.smi:1643-9

> <Gold.Version>
5.8.1

> <Gold.Id.Protein>
6NUR|6NUR_protein|mol2

> <Gold.PLP.Fitness>
48.9274

> <Gold.PLP.PLP>
-40.5847

> <Gold.PLP.part.hbond>
-2.7522

> <Gold.PLP.part.metal>
0.0000

> <Gold.PLP.part.buried>
-4.6077

> <Gold.PLP.part.nonpolar>
-32.5077

> <Gold.PLP.part.repulsive>
0.0777

> <Gold.PLP.ligand.clash>
0.0000

> <Gold.PLP.ligand.torsion>
0.4927

> <Gold.PLP.Chemscore.Hbond>
3.0000

> <Gold.PLP.Chemscore.CHOScore>
0.0000

> <Gold.PLP.Chemscore.Metal>
0.0000

> <Gold.Chemscore.Hbonds>
donor molecule, donor type, donor heavy atom, donor atom, acceptor molecule, acceptor atom, score
      L1  H     8    54       P1  7948  2.00
      L1  H    11    38       P1  7948  1.00

> <Gold.PLP.Chemscore.Internal.Correction>
0.3280

> <Gold.Rescore>
     Score         DG    S(hbond)    S(metal)    S(lipo)     H(rot)  DE(clash)    DE(int)     intcor
     18.27     -18.99       2.00        0.00     106.05       2.17       0.01       0.71       ----

> <Gold.Chemscore.Fitness>
18.2675

> <Gold.Chemscore.DG>
-18.9863

> <Gold.Chemscore.ZeroCoef>
-5.4800

> <Gold.Chemscore.Hbond>
1.9957

> <Gold.Chemscore.Metal>
0.0000

> <Gold.Chemscore.Lipo>
106.0455

> <Gold.Chemscore.Internal_Hbond>
0.0000

> <Gold.Chemscore.DEClash>
0.0095

> <Gold.Chemscore.DEInternal>
0.7094

> <Gold.Chemscore.Rot>
2.1744

> <Gold.Chemscore.Internal.Correction>
   9.000000E+99

> <Gold.Chemscore.Hbonds>
donor molecule, donor type, donor heavy atom, donor atom, acceptor molecule, acceptor atom, score
      L1  H     8    54       P1  7948  0.78
      L1  H    11    38       P1  7948  0.78

> <Gold.Chemscore.Hbond.Weighted>
-6.6656

> <Gold.Chemscore.Metal.Weighted>
-0.0000

> <Gold.Chemscore.Lipo.Weighted>
-12.4073

> <Gold.Chemscore.Internal_Hbond.Weighted>
0.0000

> <Gold.Chemscore.DEClash.Weighted>
0.0095

> <Gold.Chemscore.DEInternal.Weighted>
0.7094

> <Gold.Chemscore.Rot.Weighted>
5.5666

> <Gold.Chemscore.Internal.Correction.Weighted>
   9.000000E+99

> <Gold.Protein.RotatedTorsions>
[ 6907 6896 6895 6894 ] final   -5.79 input  -60.11 | X-H torsion
[ 7974 7965 7964 7962 ] final  140.03 input  175.53 | X-H torsion
[ 8008 7997 7996 7995 ] final  166.97 input   59.86 | X-H torsion
[ 10167 10162 10161 10158 ] final  -44.12 input  -65.29 | X-H torsion
[ 10718 10713 10712 10709 ] final  129.86 input   66.30 | X-H torsion
[ 10763 10752 10751 10750 ] final   55.32 input  -60.55 | X-H torsion
[ 11005 11000 10999 10996 ] final  125.02 input  -57.11 | X-H torsion

> <Gold.Protein.ActiveResidues>
 VAL166  LYS551  ARG553  GLY616  TRP617  ASP618  TYR619  PRO620  LYS621  CYS622 
 ASP623  PHE694  ASN695  SER759  ASP760  ASP761  ALA762  ILE779  LEU786  VAL792 
 PHE793  MET794  SER795  GLU796  ALA797  LYS798  CYS799  TRP800  GLU811  SER814 

> <Gold.Protein.RotatedAtoms>
  151.4759  135.1049  159.9763 H   0  0  0  0  0  0  0  0  0  0  0  0  # atno 6907 bound_to 6896
  152.4798  133.8223  159.7070 H   0  0  0  0  0  0  0  0  0  0  0  0  # atno 6908 bound_to 6896
  150.8862  133.7243  159.2944 H   0  0  0  0  0  0  0  0  0  0  0  0  # atno 6909 bound_to 6896
  144.9224  139.5151  143.5657 H   0  0  0  0  0  0  0  0  0  0  0  0  # atno 7974 bound_to 7965
  156.1674  140.1629  156.8507 H   0  0  0  0  0  0  0  0  0  0  0  0  # atno 8008 bound_to 7997
  154.5221  140.0776  156.8226 H   0  0  0  0  0  0  0  0  0  0  0  0  # atno 8009 bound_to 7997
  155.3583  140.3394  155.4242 H   0  0  0  0  0  0  0  0  0  0  0  0  # atno 8010 bound_to 7997
  140.6909  143.2947  151.3449 H   0  0  0  0  0  0  0  0  0  0  0  0  # atno 10167 bound_to 10162
  157.5115  131.1097  150.9285 H   0  0  0  0  0  0  0  0  0  0  0  0  # atno 10718 bound_to 10713
  152.9815  135.5715  154.5047 H   0  0  0  0  0  0  0  0  0  0  0  0  # atno 10763 bound_to 10752
  154.4561  135.2780  155.1748 H   0  0  0  0  0  0  0  0  0  0  0  0  # atno 10764 bound_to 10752
  154.3356  135.6240  153.5625 H   0  0  0  0  0  0  0  0  0  0  0  0  # atno 10765 bound_to 10752
  139.9386  134.9637  156.8496 H   0  0  0  0  0  0  0  0  0  0  0  0  # atno 11005 bound_to 11000
  146.3211  139.8114  142.8945 LP  0  0  0  0  0  0  0  0  0  0  0  0  # atno 17320 bound_to 7965
  145.3274  141.0258  143.3466 LP  0  0  0  0  0  0  0  0  0  0  0  0  # atno 17321 bound_to 7965
  139.6310  144.0720  152.2476 LP  0  0  0  0  0  0  0  0  0  0  0  0  # atno 17342 bound_to 10162
  140.0195  144.6164  150.7579 LP  0  0  0  0  0  0  0  0  0  0  0  0  # atno 17343 bound_to 10162
  156.9924  130.5568  149.5304 LP  0  0  0  0  0  0  0  0  0  0  0  0  # atno 17370 bound_to 10713
  156.0292  130.5385  150.8490 LP  0  0  0  0  0  0  0  0  0  0  0  0  # atno 17371 bound_to 10713
  140.6010  134.0172  155.7537 LP  0  0  0  0  0  0  0  0  0  0  0  0  # atno 17394 bound_to 11000
  141.1011  133.9766  157.3077 LP  0  0  0  0  0  0  0  0  0  0  0  0  # atno 17395 bound_to 11000

$$$$
