AV-unprocessed.smi:1581|AV-procd|sdf|6360|dock6
  -GOLD-   22720 6583D 1   1.00000     0.00000
 Structure written by MMmdl.
 34 35  0  0  0  0  0  0  0  0  1 V2000
  146.8037  144.9493  160.0673 C   0  0  0  0  0  0  0  0  0  0  0  0
  148.2870  144.8263  160.3972 C   0  0  0  0  0  0  0  0  0  0  0  0
  148.6434  144.4357  161.5083 O   0  0  0  0  0  0  0  0  0  0  0  0
  149.1416  145.1698  159.4219 N   0  0  0  0  0  0  0  0  0  0  0  0
  150.5969  145.1331  159.5332 C   0  0  0  0  0  0  0  0  0  0  0  0
  151.2413  143.8091  159.1398 C   0  0  0  0  0  0  0  0  0  0  0  0
  152.3389  143.3265  159.8789 C   0  0  0  0  0  0  0  0  0  0  0  0
  152.9100  142.0950  159.5092 C   0  0  0  0  0  0  0  0  0  0  0  0
  152.4595  141.3501  158.4786 N   0  0  0  0  0  0  0  0  0  0  0  0
  151.4053  141.8031  157.7561 C   0  0  0  0  0  0  0  0  0  0  0  0
  150.9484  141.0215  156.6735 N   0  0  0  0  0  0  0  0  0  0  0  0
  150.0970  141.7224  155.7156 C   0  0  0  0  0  0  0  0  0  0  0  0
  149.4302  140.7205  154.7567 C   0  0  0  0  0  0  0  0  0  0  0  0
  150.4228  139.9128  154.1324 O   0  0  0  0  0  0  0  0  0  0  0  0
  151.1643  139.1550  155.0826 C   0  0  0  0  0  0  0  0  0  0  0  0
  151.8975  140.1066  156.0426 C   0  0  0  0  0  0  0  0  0  0  0  0
  150.7635  143.0258  158.0647 C   0  0  0  0  0  0  0  0  0  0  0  0
  146.5381  145.9930  159.8974 H   0  0  0  0  0  0  0  0  0  0  0  0
  146.1912  144.5696  160.8859 H   0  0  0  0  0  0  0  0  0  0  0  0
  146.5633  144.3799  159.1692 H   0  0  0  0  0  0  0  0  0  0  0  0
  148.7593  145.4830  158.5415 H   0  0  0  0  0  0  0  0  0  0  0  0
  151.0286  145.9381  158.9359 H   0  0  0  0  0  0  0  0  0  0  0  0
  150.8609  145.3446  160.5694 H   0  0  0  0  0  0  0  0  0  0  0  0
  152.7363  143.8853  160.7135 H   0  0  0  0  0  0  0  0  0  0  0  0
  153.7516  141.6966  160.0562 H   0  0  0  0  0  0  0  0  0  0  0  0
  149.3240  142.3051  156.2147 H   0  0  0  0  0  0  0  0  0  0  0  0
  150.7096  142.4267  155.1513 H   0  0  0  0  0  0  0  0  0  0  0  0
  148.7160  140.0905  155.2891 H   0  0  0  0  0  0  0  0  0  0  0  0
  148.8717  141.2535  153.9871 H   0  0  0  0  0  0  0  0  0  0  0  0
  150.4983  138.4861  155.6304 H   0  0  0  0  0  0  0  0  0  0  0  0
  151.8823  138.5274  154.5548 H   0  0  0  0  0  0  0  0  0  0  0  0
  152.6476  140.6811  155.4970 H   0  0  0  0  0  0  0  0  0  0  0  0
  152.4205  139.5239  156.8021 H   0  0  0  0  0  0  0  0  0  0  0  0
  149.9087  143.3511  157.4912 H   0  0  0  0  0  0  0  0  0  0  0  0
  1  2  1  0  0  0  0
  1 18  1  0  0  0  0
  1 19  1  0  0  0  0
  1 20  1  0  0  0  0
  2  3  2  0  0  0  0
  2  4  1  0  0  0  0
  4  5  1  0  0  0  0
  4 21  1  0  0  0  0
  5  6  1  0  0  0  0
  5 22  1  0  0  0  0
  5 23  1  0  0  0  0
  6 17  1  0  0  0  0
  6  7  2  0  0  0  0
  7  8  1  0  0  0  0
  7 24  1  0  0  0  0
  8  9  2  0  0  0  0
  8 25  1  0  0  0  0
  9 10  1  0  0  0  0
 10 11  1  0  0  0  0
 10 17  2  0  0  0  0
 11 16  1  0  0  0  0
 11 12  1  0  0  0  0
 12 13  1  0  0  0  0
 12 26  1  0  0  0  0
 12 27  1  0  0  0  0
 13 14  1  0  0  0  0
 13 28  1  0  0  0  0
 13 29  1  0  0  0  0
 14 15  1  0  0  0  0
 15 16  1  0  0  0  0
 15 30  1  0  0  0  0
 15 31  1  0  0  0  0
 16 32  1  0  0  0  0
 16 33  1  0  0  0  0
 17 34  1  0  0  0  0
M  END
> <s_m_source_file>
AV-unprocessed.smi

> <i_m_source_file_index>
1581

> <i_lp_mmshare_version>
43012

> <i_f3d_flags>
0

> <s_epik_input>
W0NIM11DKD1PKVtOSF1bQ0gyXWMxW2NIXVtjSF1uYyhbY0hdMSlOMltDSDJdW0NIMl1PW0NIMl1bQ0gyXTI=

> <s_epik_cmdline>
J2VwaWtfcHl0aG9uJywgJy1waCcsICc3LjAnLCAnLXRuJywgJzgnLCAnLW1hJywgJzIwMCcsICctbWV0YWxfYmluZGluZycsICctaW1hZScsICc8aW5maWxlLm1hZT4nLCAnLW9tYWUnLCAnPG91dGZpbGUubWFlPic=

> <r_lp_tautomer_probability>
1

> <r_epik_Ionization_Penalty>
0.0056686

> <r_epik_Ionization_Penalty_Charging>
0

> <r_epik_Ionization_Penalty_Neutral>
0.0056686

> <r_epik_State_Penalty>
0.00415614

> <r_epik_Charging_Adjusted_Penalty>
0.00415614

> <i_epik_Tot_Q>
0

> <i_epik_Tot_abs_Q>
0

> <r_epik_Metal_State_Penalty>
-0

> <b_epik_Metal_Only>
0

> <s_lp_Force_Field>
OPLS_2005

> <r_lp_Energy>
12.8791

> <b_lp_Chiralities_Consistent>
1

> <s_lp_Variant>
AV-unprocessed.smi:1581-1

> <Gold.Version>
5.8.1

> <Gold.Id.Protein>
6NUR|6NUR_protein|mol2

> <Gold.PLP.Fitness>
43.6889

> <Gold.PLP.PLP>
-37.3687

> <Gold.PLP.part.hbond>
-3.0000

> <Gold.PLP.part.metal>
0.0000

> <Gold.PLP.part.buried>
-6.4037

> <Gold.PLP.part.nonpolar>
-29.0930

> <Gold.PLP.part.repulsive>
0.9570

> <Gold.PLP.ligand.clash>
0.0000

> <Gold.PLP.ligand.torsion>
1.0762

> <Gold.PLP.Chemscore.Hbond>
2.7200

> <Gold.PLP.Chemscore.CHOScore>
0.0000

> <Gold.PLP.Chemscore.Metal>
0.0000

> <Gold.Chemscore.Hbonds>
donor molecule, donor type, donor heavy atom, donor atom, acceptor molecule, acceptor atom, score
      L1  H     4    21       P1  8029  1.00
      P1  H  6933  6944       L1     3  0.69
      P1  H  7989  7998       L1    14  1.00

> <Gold.PLP.Chemscore.Internal.Correction>
0.3126

> <Gold.Rescore>
     Score         DG    S(hbond)    S(metal)    S(lipo)     H(rot)  DE(clash)    DE(int)     intcor
     18.29     -19.39       2.49        0.00      81.57       1.54       0.01       1.09       ----

> <Gold.Chemscore.Fitness>
18.2854

> <Gold.Chemscore.DG>
-19.3918

> <Gold.Chemscore.ZeroCoef>
-5.4800

> <Gold.Chemscore.Hbond>
2.4918

> <Gold.Chemscore.Metal>
0.0000

> <Gold.Chemscore.Lipo>
81.5694

> <Gold.Chemscore.Internal_Hbond>
0.0000

> <Gold.Chemscore.DEClash>
0.0146

> <Gold.Chemscore.DEInternal>
1.0918

> <Gold.Chemscore.Rot>
1.5448

> <Gold.Chemscore.Internal.Correction>
   9.000000E+99

> <Gold.Chemscore.Hbonds>
donor molecule, donor type, donor heavy atom, donor atom, acceptor molecule, acceptor atom, score
      L1  H     4    21       P1  8029  0.98
      P1  H  6933  6944       L1     3  0.40
      P1  H  7989  7998       L1    14  0.22

> <Gold.Chemscore.Hbond.Weighted>
-8.3227

> <Gold.Chemscore.Metal.Weighted>
-0.0000

> <Gold.Chemscore.Lipo.Weighted>
-9.5436

> <Gold.Chemscore.Internal_Hbond.Weighted>
0.0000

> <Gold.Chemscore.DEClash.Weighted>
0.0146

> <Gold.Chemscore.DEInternal.Weighted>
1.0918

> <Gold.Chemscore.Rot.Weighted>
3.9546

> <Gold.Chemscore.Internal.Correction.Weighted>
   9.000000E+99

> <Gold.Protein.RotatedTorsions>
[ 6907 6896 6895 6894 ] final -114.55 input  -60.11 | X-H torsion
[ 7974 7965 7964 7962 ] final -119.28 input  175.53 | X-H torsion
[ 8008 7997 7996 7995 ] final   81.94 input   59.86 | X-H torsion
[ 10167 10162 10161 10158 ] final  -68.60 input  -65.29 | X-H torsion
[ 10718 10713 10712 10709 ] final  138.34 input   66.30 | X-H torsion
[ 10763 10752 10751 10750 ] final  -63.06 input  -60.55 | X-H torsion
[ 11005 11000 10999 10996 ] final  -36.75 input  -57.11 | X-H torsion

> <Gold.Protein.ActiveResidues>
 VAL166  LYS551  ARG553  GLY616  TRP617  ASP618  TYR619  PRO620  LYS621  CYS622 
 ASP623  PHE694  ASN695  SER759  ASP760  ASP761  ALA762  ILE779  LEU786  VAL792 
 PHE793  MET794  SER795  GLU796  ALA797  LYS798  CYS799  TRP800  GLU811  SER814 

> <Gold.Protein.RotatedAtoms>
  150.7911  133.8785  159.3278 H   0  0  0  0  0  0  0  0  0  0  0  0  # atno 6907 bound_to 6896
  151.6623  135.0986  160.0191 H   0  0  0  0  0  0  0  0  0  0  0  0  # atno 6908 bound_to 6896
  152.3985  133.6743  159.6331 H   0  0  0  0  0  0  0  0  0  0  0  0  # atno 6909 bound_to 6896
  145.0643  140.8313  143.4134 H   0  0  0  0  0  0  0  0  0  0  0  0  # atno 7974 bound_to 7965
  155.9039  140.3431  155.6047 H   0  0  0  0  0  0  0  0  0  0  0  0  # atno 8008 bound_to 7997
  155.7468  140.0815  157.2239 H   0  0  0  0  0  0  0  0  0  0  0  0  # atno 8009 bound_to 7997
  154.4047  140.1560  156.2665 H   0  0  0  0  0  0  0  0  0  0  0  0  # atno 8010 bound_to 7997
  140.5495  143.2312  151.6939 H   0  0  0  0  0  0  0  0  0  0  0  0  # atno 10167 bound_to 10162
  157.4264  131.1044  151.0298 H   0  0  0  0  0  0  0  0  0  0  0  0  # atno 10718 bound_to 10713
  154.3094  135.6218  153.5459 H   0  0  0  0  0  0  0  0  0  0  0  0  # atno 10763 bound_to 10752
  152.9831  135.5697  154.5195 H   0  0  0  0  0  0  0  0  0  0  0  0  # atno 10764 bound_to 10752
  154.4841  135.2864  155.1524 H   0  0  0  0  0  0  0  0  0  0  0  0  # atno 10765 bound_to 10752
  140.9899  133.7010  156.1831 H   0  0  0  0  0  0  0  0  0  0  0  0  # atno 11005 bound_to 11000
  145.1371  139.2595  143.5509 LP  0  0  0  0  0  0  0  0  0  0  0  0  # atno 17320 bound_to 7965
  146.3526  140.1037  142.8607 LP  0  0  0  0  0  0  0  0  0  0  0  0  # atno 17321 bound_to 7965
  139.5021  144.3841  152.0346 LP  0  0  0  0  0  0  0  0  0  0  0  0  # atno 17342 bound_to 10162
  140.2957  144.3704  150.6075 LP  0  0  0  0  0  0  0  0  0  0  0  0  # atno 17343 bound_to 10162
  157.1210  130.6062  149.5505 LP  0  0  0  0  0  0  0  0  0  0  0  0  # atno 17370 bound_to 10713
  155.9898  130.4946  150.7229 LP  0  0  0  0  0  0  0  0  0  0  0  0  # atno 17371 bound_to 10713
  140.7056  134.4516  157.5584 LP  0  0  0  0  0  0  0  0  0  0  0  0  # atno 17394 bound_to 11000
  139.8987  134.8607  156.1989 LP  0  0  0  0  0  0  0  0  0  0  0  0  # atno 17395 bound_to 11000

$$$$
