AV-unprocessed.smi:253|AV-procd|sdf|1944|dock10
  -GOLD-   2262021 73D 1   1.00000     0.00000
 Structure written by MMmdl.
 52 54  0  0  0  0  0  0  0  0  1 V2000
  150.3163  130.2721  155.1046 C   0  0  0  0  0  0  0  0  0  0  0  0
  149.2061  131.2894  155.3969 C   0  0  0  0  0  0  0  0  0  0  0  0
  149.7480  132.5304  155.9358 N   0  0  0  0  0  0  0  0  0  0  0  0
  149.7700  133.7122  155.2960 C   0  0  0  0  0  0  0  0  0  0  0  0
  149.3229  133.8630  154.1596 O   0  0  0  0  0  0  0  0  0  0  0  0
  150.3864  134.9187  156.0206 C   0  0  0  0  0  0  0  0  0  0  0  0
  149.7186  136.1965  155.7333 N   0  0  0  0  0  0  0  0  0  0  0  0
  148.3019  136.3293  156.0757 C   0  0  0  0  0  0  0  0  0  0  0  0
  147.3577  136.0507  154.8943 C   0  0  0  0  0  0  0  0  0  0  0  0
  150.5285  137.2852  155.7717 C   0  0  0  0  0  0  0  0  0  0  0  0
  151.8523  137.0784  155.5518 N   0  0  0  0  0  0  0  0  0  0  0  0
  152.7084  138.1033  155.5739 C   0  0  0  0  0  0  0  0  0  0  0  0
  152.4582  139.3937  155.8007 N   0  0  0  0  0  0  0  0  0  0  0  0
  151.1325  139.6064  156.0395 C   0  0  0  0  0  0  0  0  0  0  0  0
  150.1059  138.6189  156.0457 C   0  0  0  0  0  0  0  0  0  0  0  0
  148.8856  139.2160  156.3425 N   0  0  0  0  0  0  0  0  0  0  0  0
  149.1723  140.4801  156.4919 C   0  0  0  0  0  0  0  0  0  0  0  0
  150.5005  140.8020  156.3335 N   0  0  0  0  0  0  0  0  0  0  0  0
  151.0968  142.1241  156.4501 C   0  0  0  0  0  0  0  0  0  0  0  0
  151.3937  142.5522  157.9088 C   0  0  0  0  0  0  0  0  0  0  0  0
  150.1640  142.5543  158.6137 O   0  0  0  0  0  0  0  0  0  0  0  0
  152.3660  141.5904  158.6267 C   0  0  0  0  0  0  0  0  0  0  0  0
  152.8125  142.1334  159.9958 C   0  0  0  0  0  0  0  0  0  0  0  0
  153.3770  143.4307  159.8480 O   0  0  0  0  0  0  0  0  0  0  0  0
  152.4442  144.3830  159.3521 C   0  0  0  0  0  0  0  0  0  0  0  0
  151.9780  143.9786  157.9422 C   0  0  0  0  0  0  0  0  0  0  0  0
  149.8961  129.3355  154.7380 H   0  0  0  0  0  0  0  0  0  0  0  0
  150.8926  130.0490  156.0028 H   0  0  0  0  0  0  0  0  0  0  0  0
  151.0060  130.6445  154.3467 H   0  0  0  0  0  0  0  0  0  0  0  0
  148.6248  131.4884  154.4953 H   0  0  0  0  0  0  0  0  0  0  0  0
  148.5117  130.8767  156.1287 H   0  0  0  0  0  0  0  0  0  0  0  0
  150.1315  132.4943  156.8696 H   0  0  0  0  0  0  0  0  0  0  0  0
  150.3518  134.7248  157.0935 H   0  0  0  0  0  0  0  0  0  0  0  0
  151.4470  134.9674  155.7657 H   0  0  0  0  0  0  0  0  0  0  0  0
  148.0742  135.6141  156.8671 H   0  0  0  0  0  0  0  0  0  0  0  0
  148.1081  137.3136  156.5011 H   0  0  0  0  0  0  0  0  0  0  0  0
  146.3177  136.0902  155.2181 H   0  0  0  0  0  0  0  0  0  0  0  0
  147.5364  135.0592  154.4776 H   0  0  0  0  0  0  0  0  0  0  0  0
  147.4745  136.7774  154.0908 H   0  0  0  0  0  0  0  0  0  0  0  0
  153.7417  137.8536  155.3831 H   0  0  0  0  0  0  0  0  0  0  0  0
  148.4193  141.2169  156.7315 H   0  0  0  0  0  0  0  0  0  0  0  0
  152.0166  142.1325  155.8638 H   0  0  0  0  0  0  0  0  0  0  0  0
  150.4290  142.8426  155.9725 H   0  0  0  0  0  0  0  0  0  0  0  0
  150.2568  143.1040  159.3768 H   0  0  0  0  0  0  0  0  0  0  0  0
  151.9175  140.6043  158.7535 H   0  0  0  0  0  0  0  0  0  0  0  0
  153.2515  141.4464  158.0065 H   0  0  0  0  0  0  0  0  0  0  0  0
  151.9781  142.1654  160.6978 H   0  0  0  0  0  0  0  0  0  0  0  0
  153.5628  141.4726  160.4302 H   0  0  0  0  0  0  0  0  0  0  0  0
  151.5993  144.4727  160.0364 H   0  0  0  0  0  0  0  0  0  0  0  0
  152.9266  145.3600  159.3181 H   0  0  0  0  0  0  0  0  0  0  0  0
  152.8347  144.0324  157.2692 H   0  0  0  0  0  0  0  0  0  0  0  0
  151.2507  144.7000  157.5674 H   0  0  0  0  0  0  0  0  0  0  0  0
  1  2  1  0  0  0  0
  1 27  1  0  0  0  0
  1 28  1  0  0  0  0
  1 29  1  0  0  0  0
  2  3  1  0  0  0  0
  2 30  1  0  0  0  0
  2 31  1  0  0  0  0
  3  4  1  0  0  0  0
  3 32  1  0  0  0  0
  4  5  2  0  0  0  0
  4  6  1  0  0  0  0
  6  7  1  0  0  0  0
  6 33  1  0  0  0  0
  6 34  1  0  0  0  0
  7  8  1  0  0  0  0
  7 10  1  0  0  0  0
  8  9  1  0  0  0  0
  8 35  1  0  0  0  0
  8 36  1  0  0  0  0
  9 37  1  0  0  0  0
  9 38  1  0  0  0  0
  9 39  1  0  0  0  0
 10 15  1  0  0  0  0
 10 11  2  0  0  0  0
 11 12  1  0  0  0  0
 12 13  2  0  0  0  0
 12 40  1  0  0  0  0
 13 14  1  0  0  0  0
 14 18  1  0  0  0  0
 14 15  2  0  0  0  0
 15 16  1  0  0  0  0
 16 17  2  0  0  0  0
 17 18  1  0  0  0  0
 17 41  1  0  0  0  0
 18 19  1  0  0  0  0
 19 20  1  0  0  0  0
 19 42  1  0  0  0  0
 19 43  1  0  0  0  0
 20 26  1  0  0  0  0
 20 21  1  0  0  0  0
 20 22  1  0  0  0  0
 21 44  1  0  0  0  0
 22 23  1  0  0  0  0
 22 45  1  0  0  0  0
 22 46  1  0  0  0  0
 23 24  1  0  0  0  0
 23 47  1  0  0  0  0
 23 48  1  0  0  0  0
 24 25  1  0  0  0  0
 25 26  1  0  0  0  0
 25 49  1  0  0  0  0
 25 50  1  0  0  0  0
 26 51  1  0  0  0  0
 26 52  1  0  0  0  0
M  END
> <s_m_source_file>
AV-unprocessed.smi

> <i_m_source_file_index>
253

> <i_lp_mmshare_version>
43012

> <i_f3d_flags>
0

> <s_epik_input>
W0NIM11bQ0gyXVtOSF1DKD1PKVtDSDJdTihbQ0gyXVtDSDNdKWMobltjSF1uMSljKGMxMiluW2NIXW4yW0NIMl1DMyhbT0hdKVtDSDJdW0NIMl1PW0NIMl1bQ0gyXTM=

> <s_epik_cmdline>
J2VwaWtfcHl0aG9uJywgJy1waCcsICc3LjAnLCAnLXRuJywgJzgnLCAnLW1hJywgJzIwMCcsICctbWV0YWxfYmluZGluZycsICctaW1hZScsICc8aW5maWxlLm1hZT4nLCAnLW9tYWUnLCAnPG91dGZpbGUubWFlPic=

> <r_lp_tautomer_probability>
1

> <r_epik_Ionization_Penalty>
0.000710585

> <r_epik_Ionization_Penalty_Charging>
0

> <r_epik_Ionization_Penalty_Neutral>
0.000710585

> <r_epik_State_Penalty>
0.000343566

> <r_epik_Charging_Adjusted_Penalty>
0.000343566

> <i_epik_Tot_Q>
0

> <i_epik_Tot_abs_Q>
0

> <r_epik_Metal_State_Penalty>
-0

> <b_epik_Metal_Only>
0

> <s_lp_Force_Field>
OPLS_2005

> <r_lp_Energy>
18.5015

> <b_lp_Chiralities_Consistent>
1

> <s_lp_Variant>
AV-unprocessed.smi:253-1

> <Gold.Version>
5.8.1

> <Gold.Id.Protein>
6NUR|6NUR_protein|mol2

> <Gold.PLP.Fitness>
46.0019

> <Gold.PLP.PLP>
-41.8362

> <Gold.PLP.part.hbond>
-1.9505

> <Gold.PLP.part.metal>
0.0000

> <Gold.PLP.part.buried>
-6.8558

> <Gold.PLP.part.nonpolar>
-33.4155

> <Gold.PLP.part.repulsive>
0.4963

> <Gold.PLP.ligand.clash>
0.0000

> <Gold.PLP.ligand.torsion>
1.2087

> <Gold.PLP.Chemscore.Hbond>
1.8703

> <Gold.PLP.Chemscore.CHOScore>
0.0000

> <Gold.PLP.Chemscore.Metal>
0.0000

> <Gold.Chemscore.Hbonds>
donor molecule, donor type, donor heavy atom, donor atom, acceptor molecule, acceptor atom, score
      P1  H  7997  8009       L1    13  0.89
      P1  H 10752 10763       L1    11  0.96

> <Gold.PLP.Chemscore.Internal.Correction>
0.9724

> <Gold.Rescore>
     Score         DG    S(hbond)    S(metal)    S(lipo)     H(rot)  DE(clash)    DE(int)     intcor
      8.20     -10.75       0.86        0.00      86.42       3.01       0.09       2.46       ----

> <Gold.Chemscore.Fitness>
8.2006

> <Gold.Chemscore.DG>
-10.7474

> <Gold.Chemscore.ZeroCoef>
-5.4800

> <Gold.Chemscore.Hbond>
0.8589

> <Gold.Chemscore.Metal>
0.0000

> <Gold.Chemscore.Lipo>
86.4158

> <Gold.Chemscore.Internal_Hbond>
0.0000

> <Gold.Chemscore.DEClash>
0.0855

> <Gold.Chemscore.DEInternal>
2.4613

> <Gold.Chemscore.Rot>
3.0125

> <Gold.Chemscore.Internal.Correction>
   9.000000E+99

> <Gold.Chemscore.Hbonds>
donor molecule, donor type, donor heavy atom, donor atom, acceptor molecule, acceptor atom, score
      P1  H  7997  8009       L1    13  0.30
      P1  H 10752 10763       L1    11  0.30

> <Gold.Chemscore.Hbond.Weighted>
-2.8688

> <Gold.Chemscore.Metal.Weighted>
-0.0000

> <Gold.Chemscore.Lipo.Weighted>
-10.1106

> <Gold.Chemscore.Internal_Hbond.Weighted>
0.0000

> <Gold.Chemscore.DEClash.Weighted>
0.0855

> <Gold.Chemscore.DEInternal.Weighted>
2.4613

> <Gold.Chemscore.Rot.Weighted>
7.7120

> <Gold.Chemscore.Internal.Correction.Weighted>
   9.000000E+99

> <Gold.Protein.RotatedTorsions>
[ 6907 6896 6895 6894 ] final   22.11 input  -60.11 | X-H torsion
[ 7974 7965 7964 7962 ] final -157.89 input  175.53 | X-H torsion
[ 8008 7997 7996 7995 ] final -157.39 input   59.86 | X-H torsion
[ 10167 10162 10161 10158 ] final  164.38 input  -65.29 | X-H torsion
[ 10718 10713 10712 10709 ] final  -46.49 input   66.30 | X-H torsion
[ 10763 10752 10751 10750 ] final   68.23 input  -60.55 | X-H torsion
[ 11005 11000 10999 10996 ] final  -45.36 input  -57.11 | X-H torsion

> <Gold.Protein.ActiveResidues>
 VAL166  LYS551  ARG553  GLY616  TRP617  ASP618  TYR619  PRO620  LYS621  CYS622 
 ASP623  PHE694  ASN695  SER759  ASP760  ASP761  ALA762  ILE779  LEU786  VAL792 
 PHE793  MET794  SER795  GLU796  ALA797  LYS798  CYS799  TRP800  GLU811  SER814 

> <Gold.Protein.RotatedAtoms>
  151.9221  135.0294  160.0522 H   0  0  0  0  0  0  0  0  0  0  0  0  # atno 6907 bound_to 6896
  152.2191  133.4965  159.5160 H   0  0  0  0  0  0  0  0  0  0  0  0  # atno 6908 bound_to 6896
  150.6995  134.1283  159.4103 H   0  0  0  0  0  0  0  0  0  0  0  0  # atno 6909 bound_to 6896
  144.7529  140.3905  143.6034 H   0  0  0  0  0  0  0  0  0  0  0  0  # atno 7974 bound_to 7965
  155.7317  140.0803  157.2286 H   0  0  0  0  0  0  0  0  0  0  0  0  # atno 8008 bound_to 7997
  154.4032  140.1594  156.2571 H   0  0  0  0  0  0  0  0  0  0  0  0  # atno 8009 bound_to 7997
  155.9102  140.3404  155.6096 H   0  0  0  0  0  0  0  0  0  0  0  0  # atno 8010 bound_to 7997
  139.4888  144.4241  151.9150 H   0  0  0  0  0  0  0  0  0  0  0  0  # atno 10167 bound_to 10162
  156.2178  130.4164  149.9031 H   0  0  0  0  0  0  0  0  0  0  0  0  # atno 10718 bound_to 10713
  153.0225  135.5255  154.7102 H   0  0  0  0  0  0  0  0  0  0  0  0  # atno 10763 bound_to 10752
  154.6186  135.2886  155.0353 H   0  0  0  0  0  0  0  0  0  0  0  0  # atno 10764 bound_to 10752
  154.1348  135.6587  153.4982 H   0  0  0  0  0  0  0  0  0  0  0  0  # atno 10765 bound_to 10752
  141.0510  133.6743  156.3002 H   0  0  0  0  0  0  0  0  0  0  0  0  # atno 11005 bound_to 11000
  145.6881  139.1633  143.2662 LP  0  0  0  0  0  0  0  0  0  0  0  0  # atno 17320 bound_to 7965
  146.1502  140.6936  142.9326 LP  0  0  0  0  0  0  0  0  0  0  0  0  # atno 17321 bound_to 7965
  140.3687  144.2883  150.5923 LP  0  0  0  0  0  0  0  0  0  0  0  0  # atno 17342 bound_to 10162
  140.5339  143.2237  151.8195 LP  0  0  0  0  0  0  0  0  0  0  0  0  # atno 17343 bound_to 10162
  156.6688  130.8812  151.3559 LP  0  0  0  0  0  0  0  0  0  0  0  0  # atno 17370 bound_to 10713
  157.7072  130.9398  150.0969 LP  0  0  0  0  0  0  0  0  0  0  0  0  # atno 17371 bound_to 10713
  140.6055  134.5511  157.5525 LP  0  0  0  0  0  0  0  0  0  0  0  0  # atno 17394 bound_to 11000
  139.9350  134.7891  156.0826 LP  0  0  0  0  0  0  0  0  0  0  0  0  # atno 17395 bound_to 11000

$$$$
