#       Name:                AV-unprocessed.smi:1800
#       Creating user name   scv26
#       Creation time:       Fri Mar 27 08:51:55 2020


#       File generated by GOLD software.
#

@<TRIPOS>MOLECULE
AV-unprocessed.smi:1800
    37    38     1
SMALL
NO_CHARGES


@<TRIPOS>ATOM
      1 ****        -2.8423  -1.9371   1.7739 C.3            1 S1                 0.0000
      2 ****        -2.1500  -1.0669   0.7158 C.3            1 S1                 0.0000
      3 ****        -2.3272  -1.6456  -0.7115 C.3            1 S1                 0.0000
      4 ****        -1.8187  -0.7866  -1.7778 N.pl3          1 S1                 0.0000
      5 ****        -2.3847   0.3557  -2.3128 C.2            1 S1                 0.0000
      6 ****        -1.5489   0.8075  -3.2934 C.2            1 S1                 0.0000
      7 ****        -0.4885  -0.1407  -3.2959 C.2            1 S1                 0.0000
      8 ****        -0.6591  -1.1004  -2.4020 N.2            1 S1                 0.0000
      9 ****        -0.7345  -0.9637   1.0432 N.pl3          1 S1                -1.0000
     10 ****        -0.0565   0.4975   1.2327 S.o2           1 S1                 0.0000
     11 ****        -0.1373   1.3229   0.0160 O.2            1 S1                 0.0000
     12 ****        -0.4634   1.1360   2.4950 O.2            1 S1                 0.0000
     13 ****         1.7261   0.0133   1.4351 C.3            1 S1                 0.0000
     14 ****         2.5477   1.1405   2.0686 C.3            1 S1                 0.0000
     15 ****         2.9096   2.0669   0.9057 C.3            1 S1                 0.0000
     16 ****         2.9796   1.1686  -0.3379 C.3            1 S1                 0.0000
     17 ****         2.4106  -0.1966   0.0779 C.3            1 S1                 0.0000
     18 ****        -3.9098  -2.0237   1.5703 H              1 S1                 0.0000
     19 ****        -2.7328  -1.5071   2.7703 H              1 S1                 0.0000
     20 ****        -2.4265  -2.9453   1.7971 H              1 S1                 0.0000
     21 ****        -2.6390  -0.0919   0.7400 H              1 S1                 0.0000
     22 ****        -1.8495  -2.6244  -0.7861 H              1 S1                 0.0000
     23 ****        -3.3871  -1.8117  -0.9073 H              1 S1                 0.0000
     24 ****        -3.3204   0.7515  -1.9464 H              1 S1                 0.0000
     25 ****        -1.6751   1.6833  -3.9121 H              1 S1                 0.0000
     26 ****         0.3919  -0.1633  -3.9209 H              1 S1                 0.0000
     27 ****         1.7553  -0.8834   2.0544 H              1 S1                 0.0000
     28 ****         2.0283   1.6610   2.8732 H              1 S1                 0.0000
     29 ****         3.4612   0.7225   2.4930 H              1 S1                 0.0000
     30 ****         2.1252   2.8134   0.7742 H              1 S1                 0.0000
     31 ****         3.8422   2.6026   1.0837 H              1 S1                 0.0000
     32 ****         2.3977   1.6024  -1.1518 H              1 S1                 0.0000
     33 ****         4.0051   1.0629  -0.6926 H              1 S1                 0.0000
     34 ****         3.2320  -0.9034   0.1997 H              1 S1                 0.0000
     35 ****         1.7387  -0.6155  -0.6718 H              1 S1                 0.0000
     36 ****        -0.0635  -1.8842  -2.2261 LP             1 S1                 0.0000
     37 ****        -0.1827  -1.7908   1.1508 LP             1 S1                 0.0000
@<TRIPOS>BOND
    1    1    2 1     
    2    1   18 1     
    3    1   19 1     
    4    1   20 1     
    5    2    3 1     
    6    2    9 1     
    7    2   21 1     
    8    3    4 1     
    9    3   22 1     
   10    3   23 1     
   11    4    8 1     
   12    4    5 1     
   13    5    6 2     
   14    5   24 1     
   15    6    7 1     
   16    6   25 1     
   17    7    8 2     
   18    7   26 1     
   19    9   10 1     
   20   10   11 2     
   21   10   12 2     
   22   10   13 1     
   23   13   17 1     
   24   13   14 1     
   25   13   27 1     
   26   14   15 1     
   27   14   28 1     
   28   14   29 1     
   29   15   16 1     
   30   15   30 1     
   31   15   31 1     
   32   16   17 1     
   33   16   32 1     
   34   16   33 1     
   35   17   34 1     
   36   17   35 1     
   37    8   36 1     
   38    9   37 1     
@<TRIPOS>SUBSTRUCTURE
      1 S1             1
@<TRIPOS>SET
LONE_PAIRS      STATIC     ATOMS    <user>   **** ""
4 36 37 11 12
ATOM$BLUE        STATIC     ATOMS    COLORGROUP SYSTEM
4 36 37 11 12
