AV-unprocessed.smi:2973|AV-procd|sdf|11347|dock8
  -GOLD-   2272016263D 1   1.00000     0.00000
 Structure written by MMmdl.
 48 50  0  0  0  0  0  0  0  0  2 V2000
  151.0236  142.4897  156.2255 C   0  0  0  0  0  0  0  0  0  0  0  0
  151.1597  142.7722  157.7384 C   0  0  2  0  0  0  0  0  0  0  0  0
  152.1390  143.9381  157.9948 C   0  0  0  0  0  0  0  0  0  0  0  0
  152.2031  144.3136  159.4828 C   0  0  0  0  0  0  0  0  0  0  0  0
  152.5857  143.1025  160.3429 C   0  0  0  0  0  0  0  0  0  0  0  0
  151.6196  141.9273  160.1119 C   0  0  0  0  0  0  0  0  0  0  0  0
  151.5104  141.5266  158.6174 C   0  0  2  0  0  0  0  0  0  0  0  0
  152.7391  140.8824  158.1800 N   0  5  0  0  0  0  0  0  0  0  0  0
  152.4670  139.6035  157.8330 C   0  0  0  0  0  0  0  0  0  0  0  0
  153.2665  138.7705  157.4079 O   0  0  0  0  0  0  0  0  0  0  0  0
  151.1586  139.3271  157.9936 N   0  0  0  0  0  0  0  0  0  0  0  0
  150.5180  138.0422  157.6705 C   0  0  0  0  0  0  0  0  0  0  0  0
  150.1448  137.1780  158.8880 C   0  0  0  0  0  0  0  0  0  0  0  0
  150.9135  137.1368  159.8483 O   0  0  0  0  0  0  0  0  0  0  0  0
  148.9884  136.4937  158.8552 N   0  0  0  0  0  0  0  0  0  0  0  0
  148.4995  135.6083  159.9044 C   0  0  0  0  0  0  0  0  0  0  0  0
  148.3410  136.3536  161.2404 C   0  0  0  0  0  0  0  0  0  0  0  0
  146.9235  136.2835  161.7756 C   0  0  0  0  0  0  0  0  0  0  0  0
  146.4140  135.0796  162.3079 C   0  0  0  0  0  0  0  0  0  0  0  0
  145.0928  135.0675  162.7957 C   0  0  0  0  0  0  0  0  0  0  0  0
  144.3361  136.2534  162.7332 C   0  0  0  0  0  0  0  0  0  0  0  0
  144.9374  137.4041  162.1850 C   0  0  0  0  0  0  0  0  0  0  0  0
  146.2037  137.4267  161.7165 N   0  0  0  0  0  0  0  0  0  0  0  0
  150.5024  140.3985  158.4523 C   0  0  0  0  0  0  0  0  0  0  0  0
  149.2982  140.4946  158.6936 O   0  0  0  0  0  0  0  0  0  0  0  0
  151.9593  142.1293  155.7975 H   0  0  0  0  0  0  0  0  0  0  0  0
  150.7455  143.3947  155.6853 H   0  0  0  0  0  0  0  0  0  0  0  0
  150.2532  141.7475  156.0173 H   0  0  0  0  0  0  0  0  0  0  0  0
  150.1790  143.1229  158.0651 H   0  0  0  0  0  0  0  0  0  0  0  0
  153.1360  143.6703  157.6426 H   0  0  0  0  0  0  0  0  0  0  0  0
  151.8364  144.8124  157.4175 H   0  0  0  0  0  0  0  0  0  0  0  0
  152.9247  145.1171  159.6318 H   0  0  0  0  0  0  0  0  0  0  0  0
  151.2363  144.7017  159.8057 H   0  0  0  0  0  0  0  0  0  0  0  0
  153.6056  142.7949  160.1087 H   0  0  0  0  0  0  0  0  0  0  0  0
  152.5848  143.3808  161.3969 H   0  0  0  0  0  0  0  0  0  0  0  0
  151.9315  141.0751  160.7184 H   0  0  0  0  0  0  0  0  0  0  0  0
  150.6349  142.2138  160.4850 H   0  0  0  0  0  0  0  0  0  0  0  0
  149.6130  138.2216  157.0880 H   0  0  0  0  0  0  0  0  0  0  0  0
  151.1684  137.4545  157.0209 H   0  0  0  0  0  0  0  0  0  0  0  0
  148.4156  136.5796  158.0273 H   0  0  0  0  0  0  0  0  0  0  0  0
  147.5537  135.1556  159.6023 H   0  0  0  0  0  0  0  0  0  0  0  0
  149.2147  134.7925  160.0149 H   0  0  0  0  0  0  0  0  0  0  0  0
  149.0214  135.9355  161.9838 H   0  0  0  0  0  0  0  0  0  0  0  0
  148.6234  137.4009  161.1243 H   0  0  0  0  0  0  0  0  0  0  0  0
  147.0206  134.1864  162.3431 H   0  0  0  0  0  0  0  0  0  0  0  0
  144.6683  134.1648  163.2097 H   0  0  0  0  0  0  0  0  0  0  0  0
  143.3194  136.2807  163.0966 H   0  0  0  0  0  0  0  0  0  0  0  0
  144.3863  138.3307  162.1209 H   0  0  0  0  0  0  0  0  0  0  0  0
  1  2  1  0  0  0  0
  1 26  1  0  0  0  0
  1 27  1  0  0  0  0
  1 28  1  0  0  0  0
  2  7  1  0  0  0  0
  2  3  1  0  0  0  0
  2 29  1  0  0  0  0
  3  4  1  0  0  0  0
  3 30  1  0  0  0  0
  3 31  1  0  0  0  0
  4  5  1  0  0  0  0
  4 32  1  0  0  0  0
  4 33  1  0  0  0  0
  5  6  1  0  0  0  0
  5 34  1  0  0  0  0
  5 35  1  0  0  0  0
  6  7  1  0  0  0  0
  6 36  1  0  0  0  0
  6 37  1  0  0  0  0
  7 24  1  0  0  0  0
  7  8  1  0  0  0  0
  8  9  1  0  0  0  0
  9 10  2  0  0  0  0
  9 11  1  0  0  0  0
 11 12  1  0  0  0  0
 11 24  1  0  0  0  0
 12 13  1  0  0  0  0
 12 38  1  0  0  0  0
 12 39  1  0  0  0  0
 13 14  2  0  0  0  0
 13 15  1  0  0  0  0
 15 16  1  0  0  0  0
 15 40  1  0  0  0  0
 16 17  1  0  0  0  0
 16 41  1  0  0  0  0
 16 42  1  0  0  0  0
 17 18  1  0  0  0  0
 17 43  1  0  0  0  0
 17 44  1  0  0  0  0
 18 23  1  0  0  0  0
 18 19  2  0  0  0  0
 19 20  1  0  0  0  0
 19 45  1  0  0  0  0
 20 21  2  0  0  0  0
 20 46  1  0  0  0  0
 21 22  1  0  0  0  0
 21 47  1  0  0  0  0
 22 23  2  0  0  0  0
 22 48  1  0  0  0  0
 24 25  2  0  0  0  0
M  CHG  1   8  -1
M  END
> <s_m_source_file>
AV-unprocessed.smi

> <i_m_source_file_index>
2973

> <i_lp_mmshare_version>
43012

> <i_f3d_flags>
0

> <s_epik_input>
W0NIMl0xW0NIMl1bQ0gyXVtDSDJdW0NAQEhdKFtDSDNdKVtDQF0xMltOSF1DKD1PKU4oQzI9TylbQ0gyXUMoPU8pW05IXVtDSDJdW0NIMl1jM1tjSF1bY0hdW2NIXVtjSF1uMw==

> <s_epik_cmdline>
J2VwaWtfcHl0aG9uJywgJy1waCcsICc3LjAnLCAnLXRuJywgJzgnLCAnLW1hJywgJzIwMCcsICctbWV0YWxfYmluZGluZycsICctaW1hZScsICc8aW5maWxlLm1hZT4nLCAnLW9tYWUnLCAnPG91dGZpbGUubWFlPic=

> <r_lp_tautomer_probability>
1

> <r_epik_Ionization_Penalty>
6.04175

> <r_epik_Ionization_Penalty_Charging>
6.01728

> <r_epik_Ionization_Penalty_Neutral>
0.0244696

> <r_epik_State_Penalty>
6.03712

> <r_epik_Charging_Adjusted_Penalty>
12.0544

> <i_epik_Tot_Q>
-1

> <i_epik_Tot_abs_Q>
1

> <r_epik_Metal_State_Penalty>
2.01153

> <b_epik_Metal_Only>
1

> <s_lp_Force_Field>
OPLS_2005

> <r_lp_Energy>
17.3345

> <b_lp_Chiralities_Consistent>
1

> <s_lp_Variant>
AV-unprocessed.smi:2973-11

> <Gold.Version>
5.8.1

> <Gold.Id.Protein>
6NUR|6NUR_protein|mol2

> <Gold.PLP.Fitness>
46.3374

> <Gold.PLP.PLP>
-40.3496

> <Gold.PLP.part.hbond>
-5.1422

> <Gold.PLP.part.metal>
0.0000

> <Gold.PLP.part.buried>
1.2632

> <Gold.PLP.part.nonpolar>
-36.4785

> <Gold.PLP.part.repulsive>
0.1395

> <Gold.PLP.ligand.clash>
0.0000

> <Gold.PLP.ligand.torsion>
1.0000

> <Gold.PLP.Chemscore.Hbond>
2.6520

> <Gold.PLP.Chemscore.CHOScore>
0.0000

> <Gold.PLP.Chemscore.Metal>
0.0000

> <Gold.Chemscore.Hbonds>
donor molecule, donor type, donor heavy atom, donor atom, acceptor molecule, acceptor atom, score
      P1  H  6896  6908       L1    14  0.67
      P1  H  6934  6947       L1    23  0.96
      P1  H  7997  8008       L1    10  0.70

> <Gold.PLP.Chemscore.Internal.Correction>
0.0317

> <Gold.Rescore>
     Score         DG    S(hbond)    S(metal)    S(lipo)     H(rot)  DE(clash)    DE(int)     intcor
     18.55     -22.53       2.54        0.00     112.83       1.81       3.20       0.78       ----

> <Gold.Chemscore.Fitness>
18.5473

> <Gold.Chemscore.DG>
-22.5305

> <Gold.Chemscore.ZeroCoef>
-5.4800

> <Gold.Chemscore.Hbond>
2.5391

> <Gold.Chemscore.Metal>
0.0000

> <Gold.Chemscore.Lipo>
112.8270

> <Gold.Chemscore.Internal_Hbond>
0.0000

> <Gold.Chemscore.DEClash>
3.2022

> <Gold.Chemscore.DEInternal>
0.7810

> <Gold.Chemscore.Rot>
1.8090

> <Gold.Chemscore.Internal.Correction>
   9.000000E+99

> <Gold.Chemscore.Hbonds>
donor molecule, donor type, donor heavy atom, donor atom, acceptor molecule, acceptor atom, score
      P1  H  6896  6908       L1    14  0.08
      P1  H  6934  6947       L1    23  0.81
      P1  H  7997  8008       L1    10  0.07

> <Gold.Chemscore.Hbond.Weighted>
-8.4808

> <Gold.Chemscore.Metal.Weighted>
-0.0000

> <Gold.Chemscore.Lipo.Weighted>
-13.2008

> <Gold.Chemscore.Internal_Hbond.Weighted>
0.0000

> <Gold.Chemscore.DEClash.Weighted>
3.2022

> <Gold.Chemscore.DEInternal.Weighted>
0.7810

> <Gold.Chemscore.Rot.Weighted>
4.6310

> <Gold.Chemscore.Internal.Correction.Weighted>
   9.000000E+99

> <Gold.Protein.RotatedTorsions>
[ 6907 6896 6895 6894 ] final -149.71 input  -60.11 | X-H torsion
[ 7974 7965 7964 7962 ] final  -44.19 input  175.53 | X-H torsion
[ 8008 7997 7996 7995 ] final  -75.06 input   59.86 | X-H torsion
[ 10167 10162 10161 10158 ] final -113.02 input  -65.29 | X-H torsion
[ 10718 10713 10712 10709 ] final  -52.94 input   66.30 | X-H torsion
[ 10763 10752 10751 10750 ] final  171.36 input  -60.55 | X-H torsion
[ 11005 11000 10999 10996 ] final   69.58 input  -57.11 | X-H torsion

> <Gold.Protein.ActiveResidues>
 VAL166  LYS551  ARG553  GLY616  TRP617  ASP618  TYR619  PRO620  LYS621  CYS622 
 ASP623  PHE694  ASN695  SER759  ASP760  ASP761  ALA762  ILE779  LEU786  VAL792 
 PHE793  MET794  SER795  GLU796  ALA797  LYS798  CYS799  TRP800  GLU811  SER814 

> <Gold.Protein.RotatedAtoms>
  151.1881  133.4684  159.2594 H   0  0  0  0  0  0  0  0  0  0  0  0  # atno 6907 bound_to 6896
  151.1191  135.0069  159.8540 H   0  0  0  0  0  0  0  0  0  0  0  0  # atno 6908 bound_to 6896
  152.5455  134.1794  159.8682 H   0  0  0  0  0  0  0  0  0  0  0  0  # atno 6909 bound_to 6896
  145.9945  140.7144  142.9301 H   0  0  0  0  0  0  0  0  0  0  0  0  # atno 7974 bound_to 7965
  154.5384  140.0750  156.8468 H   0  0  0  0  0  0  0  0  0  0  0  0  # atno 8008 bound_to 7997
  155.3230  140.3397  155.4222 H   0  0  0  0  0  0  0  0  0  0  0  0  # atno 8009 bound_to 7997
  156.1851  140.1666  156.8187 H   0  0  0  0  0  0  0  0  0  0  0  0  # atno 8010 bound_to 7997
  140.1164  143.4482  152.1719 H   0  0  0  0  0  0  0  0  0  0  0  0  # atno 10167 bound_to 10162
  156.1578  130.4150  149.9841 H   0  0  0  0  0  0  0  0  0  0  0  0  # atno 10718 bound_to 10713
  154.4108  135.2756  155.2038 H   0  0  0  0  0  0  0  0  0  0  0  0  # atno 10763 bound_to 10752
  154.4025  135.6041  153.5909 H   0  0  0  0  0  0  0  0  0  0  0  0  # atno 10764 bound_to 10752
  152.9831  135.5930  154.4389 H   0  0  0  0  0  0  0  0  0  0  0  0  # atno 10765 bound_to 10752
  139.9645  134.7003  156.0574 H   0  0  0  0  0  0  0  0  0  0  0  0  # atno 11005 bound_to 11000
  144.6899  140.3126  143.7245 LP  0  0  0  0  0  0  0  0  0  0  0  0  # atno 17320 bound_to 7965
  145.7581  139.1815  143.2283 LP  0  0  0  0  0  0  0  0  0  0  0  0  # atno 17321 bound_to 7965
  139.5592  144.7394  151.4205 LP  0  0  0  0  0  0  0  0  0  0  0  0  # atno 17342 bound_to 10162
  140.6897  143.7891  150.7237 LP  0  0  0  0  0  0  0  0  0  0  0  0  # atno 17343 bound_to 10162
  156.7680  130.9175  151.3643 LP  0  0  0  0  0  0  0  0  0  0  0  0  # atno 17370 bound_to 10713
  157.6709  130.9050  150.0037 LP  0  0  0  0  0  0  0  0  0  0  0  0  # atno 17371 bound_to 10713
  141.1325  133.6583  156.3502 LP  0  0  0  0  0  0  0  0  0  0  0  0  # atno 17394 bound_to 11000
  140.5426  134.6106  157.5384 LP  0  0  0  0  0  0  0  0  0  0  0  0  # atno 17395 bound_to 11000

$$$$
