AV-unprocessed.smi:1545|AV-procd|sdf|6216|dock7
  -GOLD-   22720 6383D 1   1.00000     0.00000
 Structure written by MMmdl.
 41 43  0  0  0  0  0  0  0  0  1 V2000
  152.3888  136.2235  156.7606 O   0  0  0  0  0  0  0  0  0  0  0  0
  153.1116  136.6684  157.8884 C   0  0  0  0  0  0  0  0  0  0  0  0
  152.2545  137.6268  158.7278 C   0  0  0  0  0  0  0  0  0  0  0  0
  151.8964  138.8258  157.9923 N   0  0  0  0  0  0  0  0  0  0  0  0
  151.9896  140.1766  158.3067 C   0  0  0  0  0  0  0  0  0  0  0  0
  152.4737  140.6431  159.4559 N   0  0  0  0  0  0  0  0  0  0  0  0
  152.3576  142.0102  159.2896 C   0  0  0  0  0  0  0  0  0  0  0  0
  152.7009  143.0720  160.1569 C   0  0  0  0  0  0  0  0  0  0  0  0
  152.4884  144.4102  159.7662 C   0  0  0  0  0  0  0  0  0  0  0  0
  151.9312  144.7061  158.5050 C   0  0  0  0  0  0  0  0  0  0  0  0
  151.5819  143.6642  157.6247 C   0  0  0  0  0  0  0  0  0  0  0  0
  151.7947  142.3296  158.0192 C   0  0  0  0  0  0  0  0  0  0  0  0
  151.5699  141.0990  157.4089 N   0  0  0  0  0  0  0  0  0  0  0  0
  151.0062  140.8702  156.0850 C   0  0  0  0  0  0  0  0  0  0  0  0
  149.8158  139.8910  156.1110 C   0  0  2  0  0  0  0  0  0  0  0  0
  150.2847  138.5579  156.0470 O   0  0  0  0  0  0  0  0  0  0  0  0
  148.8153  140.2038  155.0096 C   0  0  0  0  0  0  0  0  0  0  0  0
  148.4547  139.2031  154.0816 C   0  0  0  0  0  0  0  0  0  0  0  0
  147.5215  139.4812  153.0640 C   0  0  0  0  0  0  0  0  0  0  0  0
  146.9411  140.7606  152.9704 C   0  0  0  0  0  0  0  0  0  0  0  0
  147.2937  141.7619  153.8954 C   0  0  0  0  0  0  0  0  0  0  0  0
  146.7336  142.9914  153.8082 F   0  0  0  0  0  0  0  0  0  0  0  0
  148.2276  141.4847  154.9127 C   0  0  0  0  0  0  0  0  0  0  0  0
  151.5458  136.6504  156.7553 H   0  0  0  0  0  0  0  0  0  0  0  0
  153.4675  135.8207  158.4758 H   0  0  0  0  0  0  0  0  0  0  0  0
  153.9922  137.1957  157.5212 H   0  0  0  0  0  0  0  0  0  0  0  0
  151.3217  137.1306  158.9959 H   0  0  0  0  0  0  0  0  0  0  0  0
  152.7504  137.8869  159.6639 H   0  0  0  0  0  0  0  0  0  0  0  0
  151.5463  138.6376  157.0644 H   0  0  0  0  0  0  0  0  0  0  0  0
  153.1288  142.8554  161.1245 H   0  0  0  0  0  0  0  0  0  0  0  0
  152.7547  145.2131  160.4377 H   0  0  0  0  0  0  0  0  0  0  0  0
  151.7723  145.7340  158.2136 H   0  0  0  0  0  0  0  0  0  0  0  0
  151.1568  143.8891  156.6580 H   0  0  0  0  0  0  0  0  0  0  0  0
  150.6964  141.8307  155.6711 H   0  0  0  0  0  0  0  0  0  0  0  0
  151.7927  140.4984  155.4274 H   0  0  0  0  0  0  0  0  0  0  0  0
  149.3010  139.9876  157.0678 H   0  0  0  0  0  0  0  0  0  0  0  0
  150.8984  138.4889  155.3321 H   0  0  0  0  0  0  0  0  0  0  0  0
  148.8917  138.2174  154.1469 H   0  0  0  0  0  0  0  0  0  0  0  0
  147.2496  138.7124  152.3558 H   0  0  0  0  0  0  0  0  0  0  0  0
  146.2247  140.9728  152.1905 H   0  0  0  0  0  0  0  0  0  0  0  0
  148.4888  142.2586  155.6196 H   0  0  0  0  0  0  0  0  0  0  0  0
  1  2  1  0  0  0  0
  1 24  1  0  0  0  0
  2  3  1  0  0  0  0
  2 25  1  0  0  0  0
  2 26  1  0  0  0  0
  3  4  1  0  0  0  0
  3 27  1  0  0  0  0
  3 28  1  0  0  0  0
  4  5  1  0  0  0  0
  4 29  1  0  0  0  0
  5 13  1  0  0  0  0
  5  6  2  0  0  0  0
  6  7  1  0  0  0  0
  7 12  2  0  0  0  0
  7  8  1  0  0  0  0
  8  9  2  0  0  0  0
  8 30  1  0  0  0  0
  9 10  1  0  0  0  0
  9 31  1  0  0  0  0
 10 11  2  0  0  0  0
 10 32  1  0  0  0  0
 11 12  1  0  0  0  0
 11 33  1  0  0  0  0
 12 13  1  0  0  0  0
 13 14  1  0  0  0  0
 14 15  1  0  0  0  0
 14 34  1  0  0  0  0
 14 35  1  0  0  0  0
 15 16  1  0  0  0  0
 15 17  1  0  0  0  0
 15 36  1  0  0  0  0
 16 37  1  0  0  0  0
 17 23  1  0  0  0  0
 17 18  2  0  0  0  0
 18 19  1  0  0  0  0
 18 38  1  0  0  0  0
 19 20  2  0  0  0  0
 19 39  1  0  0  0  0
 20 21  1  0  0  0  0
 20 40  1  0  0  0  0
 21 22  1  0  0  0  0
 21 23  2  0  0  0  0
 23 41  1  0  0  0  0
M  END
> <s_m_source_file>
AV-unprocessed.smi

> <i_m_source_file_index>
1545

> <i_lp_mmshare_version>
43012

> <i_f3d_flags>
0

> <s_epik_input>
W09IXVtDSDJdW0NIMl1bTkhdYyhuMSluKGMoYzEyKVtjSF1bY0hdW2NIXVtjSF0yKVtDSDJdW0NASF0oW09IXSljM1tjSF1bY0hdW2NIXWMoRilbY0hdMw==

> <s_epik_cmdline>
J2VwaWtfcHl0aG9uJywgJy1waCcsICc3LjAnLCAnLXRuJywgJzgnLCAnLW1hJywgJzIwMCcsICctbWV0YWxfYmluZGluZycsICctaW1hZScsICc8aW5maWxlLm1hZT4nLCAnLW9tYWUnLCAnPG91dGZpbGUubWFlPic=

> <r_epik_Ionization_Penalty>
1.30972

> <r_epik_Ionization_Penalty_Charging>
0

> <r_epik_Ionization_Penalty_Neutral>
1.30972

> <r_epik_State_Penalty>
1.38438

> <r_epik_Charging_Adjusted_Penalty>
1.38438

> <i_epik_Tot_Q>
0

> <i_epik_Tot_abs_Q>
0

> <r_epik_Metal_State_Penalty>
0.00551145

> <b_epik_Metal_Only>
0

> <s_lp_Force_Field>
OPLS_2005

> <r_lp_Energy>
9.7293

> <b_lp_Chiralities_Consistent>
1

> <s_lp_Variant>
AV-unprocessed.smi:1545-3

> <Gold.Version>
5.8.1

> <Gold.Id.Protein>
6NUR|6NUR_protein|mol2

> <Gold.PLP.Fitness>
48.3391

> <Gold.PLP.PLP>
-46.1984

> <Gold.PLP.part.hbond>
-1.0000

> <Gold.PLP.part.metal>
0.0000

> <Gold.PLP.part.buried>
-4.3124

> <Gold.PLP.part.nonpolar>
-42.1253

> <Gold.PLP.part.repulsive>
0.0664

> <Gold.PLP.ligand.clash>
0.0000

> <Gold.PLP.ligand.torsion>
0.4506

> <Gold.PLP.Chemscore.Hbond>
1.0000

> <Gold.PLP.Chemscore.CHOScore>
0.0000

> <Gold.PLP.Chemscore.Metal>
0.0000

> <Gold.Chemscore.Hbonds>
donor molecule, donor type, donor heavy atom, donor atom, acceptor molecule, acceptor atom, score
      P1  H 10752 10763       L1     1  1.00

> <Gold.PLP.Chemscore.Internal.Correction>
0.0419

> <Gold.Rescore>
     Score         DG    S(hbond)    S(metal)    S(lipo)     H(rot)  DE(clash)    DE(int)     intcor
     13.54     -15.84       0.98        0.00     127.92       3.08       0.15       2.15       ----

> <Gold.Chemscore.Fitness>
13.5446

> <Gold.Chemscore.DG>
-15.8399

> <Gold.Chemscore.ZeroCoef>
-5.4800

> <Gold.Chemscore.Hbond>
0.9824

> <Gold.Chemscore.Metal>
0.0000

> <Gold.Chemscore.Lipo>
127.9187

> <Gold.Chemscore.Internal_Hbond>
0.0000

> <Gold.Chemscore.DEClash>
0.1486

> <Gold.Chemscore.DEInternal>
2.1467

> <Gold.Chemscore.Rot>
3.0812

> <Gold.Chemscore.Internal.Correction>
   9.000000E+99

> <Gold.Chemscore.Hbonds>
donor molecule, donor type, donor heavy atom, donor atom, acceptor molecule, acceptor atom, score
      P1  H 10752 10763       L1     1  0.95

> <Gold.Chemscore.Hbond.Weighted>
-3.2812

> <Gold.Chemscore.Metal.Weighted>
-0.0000

> <Gold.Chemscore.Lipo.Weighted>
-14.9665

> <Gold.Chemscore.Internal_Hbond.Weighted>
0.0000

> <Gold.Chemscore.DEClash.Weighted>
0.1486

> <Gold.Chemscore.DEInternal.Weighted>
2.1467

> <Gold.Chemscore.Rot.Weighted>
7.8878

> <Gold.Chemscore.Internal.Correction.Weighted>
   9.000000E+99

> <Gold.Protein.RotatedTorsions>
[ 6907 6896 6895 6894 ] final -108.05 input  -60.11 | X-H torsion
[ 7974 7965 7964 7962 ] final -163.68 input  175.53 | X-H torsion
[ 8008 7997 7996 7995 ] final    5.04 input   59.86 | X-H torsion
[ 10167 10162 10161 10158 ] final  -20.64 input  -65.29 | X-H torsion
[ 10718 10713 10712 10709 ] final  -48.29 input   66.30 | X-H torsion
[ 10763 10752 10751 10750 ] final   92.59 input  -60.55 | X-H torsion
[ 11005 11000 10999 10996 ] final -125.17 input  -57.11 | X-H torsion

> <Gold.Protein.ActiveResidues>
 VAL166  LYS551  ARG553  GLY616  TRP617  ASP618  TYR619  PRO620  LYS621  CYS622 
 ASP623  PHE694  ASN695  SER759  ASP760  ASP761  ALA762  ILE779  LEU786  VAL792 
 PHE793  MET794  SER795  GLU796  ALA797  LYS798  CYS799  TRP800  GLU811  SER814 

> <Gold.Protein.RotatedAtoms>
  150.7479  133.9735  159.3552 H   0  0  0  0  0  0  0  0  0  0  0  0  # atno 6907 bound_to 6896
  151.7670  135.0794  160.0363 H   0  0  0  0  0  0  0  0  0  0  0  0  # atno 6908 bound_to 6896
  152.3365  133.5980  159.5882 H   0  0  0  0  0  0  0  0  0  0  0  0  # atno 6909 bound_to 6896
  144.7319  140.3072  143.6194 H   0  0  0  0  0  0  0  0  0  0  0  0  # atno 7974 bound_to 7965
  154.7234  140.2716  155.6521 H   0  0  0  0  0  0  0  0  0  0  0  0  # atno 8008 bound_to 7997
  156.2830  140.2730  156.1837 H   0  0  0  0  0  0  0  0  0  0  0  0  # atno 8009 bound_to 7997
  155.0477  140.0371  157.2522 H   0  0  0  0  0  0  0  0  0  0  0  0  # atno 8010 bound_to 7997
  140.7277  143.4703  151.0256 H   0  0  0  0  0  0  0  0  0  0  0  0  # atno 10167 bound_to 10162
  156.2002  130.4156  149.9251 H   0  0  0  0  0  0  0  0  0  0  0  0  # atno 10718 bound_to 10713
  153.2209  135.4356  155.0487 H   0  0  0  0  0  0  0  0  0  0  0  0  # atno 10763 bound_to 10752
  154.8249  135.3356  154.6929 H   0  0  0  0  0  0  0  0  0  0  0  0  # atno 10764 bound_to 10752
  153.7361  135.7008  153.5034 H   0  0  0  0  0  0  0  0  0  0  0  0  # atno 10765 bound_to 10752
  140.9783  134.0709  157.3794 H   0  0  0  0  0  0  0  0  0  0  0  0  # atno 11005 bound_to 11000
  145.7701  139.1854  143.2217 LP  0  0  0  0  0  0  0  0  0  0  0  0  # atno 17320 bound_to 7965
  146.0917  140.7647  142.9592 LP  0  0  0  0  0  0  0  0  0  0  0  0  # atno 17321 bound_to 7965
  139.8395  143.7583  152.3180 LP  0  0  0  0  0  0  0  0  0  0  0  0  # atno 17342 bound_to 10162
  139.7727  144.7471  151.0201 LP  0  0  0  0  0  0  0  0  0  0  0  0  # atno 17343 bound_to 10162
  156.6963  130.8916  151.3594 LP  0  0  0  0  0  0  0  0  0  0  0  0  # atno 17370 bound_to 10713
  157.6981  130.9303  150.0704 LP  0  0  0  0  0  0  0  0  0  0  0  0  # atno 17371 bound_to 10713
  139.8939  135.0133  156.6925 LP  0  0  0  0  0  0  0  0  0  0  0  0  # atno 17394 bound_to 11000
  140.7225  133.9128  155.8156 LP  0  0  0  0  0  0  0  0  0  0  0  0  # atno 17395 bound_to 11000

$$$$
