AV-unprocessed.smi:2088|AV-procd|sdf|8527|dock2
  -GOLD-   2272011243D 1   1.00000     0.00000
 Structure written by MMmdl.
 33 34  0  0  0  0  0  0  0  0  1 V2000
  150.7878  137.7974  159.1119 O   0  0  0  0  0  0  0  0  0  0  0  0
  150.3083  138.4781  158.2056 C   0  0  0  0  0  0  0  0  0  0  0  0
  148.9434  138.1186  157.6207 C   0  0  0  0  0  0  0  0  0  0  0  0
  148.3812  136.9760  158.3175 N   0  0  0  0  0  0  0  0  0  0  0  0
  148.3685  135.6550  157.9244 C   0  0  0  0  0  0  0  0  0  0  0  0
  147.7581  134.9430  158.9164 C   0  0  0  0  0  0  0  0  0  0  0  0
  147.4262  135.9247  159.8951 C   0  0  0  0  0  0  0  0  0  0  0  0
  146.7420  135.7281  161.2221 C   0  0  0  0  0  0  0  0  0  0  0  0
  145.5875  136.3939  161.2509 F   0  0  0  0  0  0  0  0  0  0  0  0
  146.4948  134.4328  161.4173 F   0  0  0  0  0  0  0  0  0  0  0  0
  147.5204  136.1758  162.2072 F   0  0  0  0  0  0  0  0  0  0  0  0
  147.8009  137.1423  159.5258 N   0  0  0  0  0  0  0  0  0  0  0  0
  150.9008  139.5710  157.7001 N   0  0  0  0  0  0  0  0  0  0  0  0
  152.1222  140.1841  158.2094 C   0  0  0  0  0  0  0  0  0  0  0  0
  151.8117  141.4868  158.9655 C   0  0  1  0  0  0  0  0  0  0  0  0
  152.9380  142.0005  159.8642 C   0  0  0  0  0  0  0  0  0  0  0  0
  152.6087  143.4726  159.9482 C   0  0  0  0  0  0  0  0  0  0  0  0
  152.1260  143.7635  158.5299 C   0  0  0  0  0  0  0  0  0  0  0  0
  151.5609  142.5470  158.0469 O   0  0  0  0  0  0  0  0  0  0  0  0
  148.2592  138.9656  157.6941 H   0  0  0  0  0  0  0  0  0  0  0  0
  149.0431  137.8734  156.5625 H   0  0  0  0  0  0  0  0  0  0  0  0
  148.7960  135.3354  156.9853 H   0  0  0  0  0  0  0  0  0  0  0  0
  147.5799  133.8784  158.9425 H   0  0  0  0  0  0  0  0  0  0  0  0
  150.4268  140.0594  156.9540 H   0  0  0  0  0  0  0  0  0  0  0  0
  152.6760  139.4952  158.8492 H   0  0  0  0  0  0  0  0  0  0  0  0
  152.7709  140.4004  157.3603 H   0  0  0  0  0  0  0  0  0  0  0  0
  150.9102  141.3585  159.5672 H   0  0  0  0  0  0  0  0  0  0  0  0
  152.9640  141.5107  160.8384 H   0  0  0  0  0  0  0  0  0  0  0  0
  153.9080  141.8621  159.3842 H   0  0  0  0  0  0  0  0  0  0  0  0
  151.8002  143.6345  160.6623 H   0  0  0  0  0  0  0  0  0  0  0  0
  153.4580  144.0884  160.2459 H   0  0  0  0  0  0  0  0  0  0  0  0
  151.4033  144.5789  158.4971 H   0  0  0  0  0  0  0  0  0  0  0  0
  152.9669  144.0307  157.8892 H   0  0  0  0  0  0  0  0  0  0  0  0
  1  2  2  0  0  0  0
  2  3  1  0  0  0  0
  2 13  1  0  0  0  0
  3  4  1  0  0  0  0
  3 20  1  0  0  0  0
  3 21  1  0  0  0  0
  4 12  1  0  0  0  0
  4  5  1  0  0  0  0
  5  6  2  0  0  0  0
  5 22  1  0  0  0  0
  6  7  1  0  0  0  0
  6 23  1  0  0  0  0
  7  8  1  0  0  0  0
  7 12  2  0  0  0  0
  8  9  1  0  0  0  0
  8 10  1  0  0  0  0
  8 11  1  0  0  0  0
 13 14  1  0  0  0  0
 13 24  1  0  0  0  0
 14 15  1  0  0  0  0
 14 25  1  0  0  0  0
 14 26  1  0  0  0  0
 15 19  1  0  0  0  0
 15 16  1  0  0  0  0
 15 27  1  0  0  0  0
 16 17  1  0  0  0  0
 16 28  1  0  0  0  0
 16 29  1  0  0  0  0
 17 18  1  0  0  0  0
 17 30  1  0  0  0  0
 17 31  1  0  0  0  0
 18 19  1  0  0  0  0
 18 32  1  0  0  0  0
 18 33  1  0  0  0  0
M  END
> <s_m_source_file>
AV-unprocessed.smi

> <i_m_source_file_index>
2088

> <i_lp_mmshare_version>
43012

> <i_f3d_flags>
0

> <s_epik_input>
TzFbQ0gyXVtDSDJdW0NIMl1bQ0BIXTFbQ0gyXVtOSF1DKD1PKVtDSDJdbjJbY0hdW2NIXWMobjIpQyhGKShGKUY=

> <s_epik_cmdline>
J2VwaWtfcHl0aG9uJywgJy1waCcsICc3LjAnLCAnLXRuJywgJzgnLCAnLW1hJywgJzIwMCcsICctbWV0YWxfYmluZGluZycsICctaW1hZScsICc8aW5maWxlLm1hZT4nLCAnLW9tYWUnLCAnPG91dGZpbGUubWFlPic=

> <r_lp_tautomer_probability>
1

> <r_epik_Ionization_Penalty>
2.25732e-07

> <r_epik_Ionization_Penalty_Charging>
0

> <r_epik_Ionization_Penalty_Neutral>
2.25732e-07

> <r_epik_State_Penalty>
-0

> <r_epik_Charging_Adjusted_Penalty>
0

> <i_epik_Tot_Q>
0

> <i_epik_Tot_abs_Q>
0

> <r_epik_Metal_State_Penalty>
-0

> <b_epik_Metal_Only>
0

> <s_lp_Force_Field>
OPLS_2005

> <r_lp_Energy>
19.1857

> <b_lp_Chiralities_Consistent>
1

> <s_lp_Variant>
AV-unprocessed.smi:2088-2

> <Gold.Version>
5.8.1

> <Gold.Id.Protein>
6NUR|6NUR_protein|mol2

> <Gold.PLP.Fitness>
43.9658

> <Gold.PLP.PLP>
-41.0589

> <Gold.PLP.part.hbond>
-2.9431

> <Gold.PLP.part.metal>
0.0000

> <Gold.PLP.part.buried>
-4.0314

> <Gold.PLP.part.nonpolar>
-34.3245

> <Gold.PLP.part.repulsive>
0.1428

> <Gold.PLP.ligand.clash>
0.0000

> <Gold.PLP.ligand.torsion>
0.5183

> <Gold.PLP.Chemscore.Hbond>
1.2997

> <Gold.PLP.Chemscore.CHOScore>
0.0000

> <Gold.PLP.Chemscore.Metal>
0.0000

> <Gold.Chemscore.Hbonds>
donor molecule, donor type, donor heavy atom, donor atom, acceptor molecule, acceptor atom, score
      P1  H  6934  6947       L1    12  0.04

> <Gold.PLP.Chemscore.Internal.Correction>
0.0442

> <Gold.Rescore>
     Score         DG    S(hbond)    S(metal)    S(lipo)     H(rot)  DE(clash)    DE(int)     intcor
     12.53     -13.72       1.25        0.00      76.16       1.89       0.04       1.15       ----

> <Gold.Chemscore.Fitness>
12.5331

> <Gold.Chemscore.DG>
-13.7179

> <Gold.Chemscore.ZeroCoef>
-5.4800

> <Gold.Chemscore.Hbond>
1.2491

> <Gold.Chemscore.Metal>
0.0000

> <Gold.Chemscore.Lipo>
76.1641

> <Gold.Chemscore.Internal_Hbond>
0.0000

> <Gold.Chemscore.DEClash>
0.0387

> <Gold.Chemscore.DEInternal>
1.1461

> <Gold.Chemscore.Rot>
1.8928

> <Gold.Chemscore.Internal.Correction>
   9.000000E+99

> <Gold.Chemscore.Hbonds>
donor molecule, donor type, donor heavy atom, donor atom, acceptor molecule, acceptor atom, score
      P1  H  6934  6947       L1    12  0.07

> <Gold.Chemscore.Hbond.Weighted>
-4.1722

> <Gold.Chemscore.Metal.Weighted>
-0.0000

> <Gold.Chemscore.Lipo.Weighted>
-8.9112

> <Gold.Chemscore.Internal_Hbond.Weighted>
0.0000

> <Gold.Chemscore.DEClash.Weighted>
0.0387

> <Gold.Chemscore.DEInternal.Weighted>
1.1461

> <Gold.Chemscore.Rot.Weighted>
4.8455

> <Gold.Chemscore.Internal.Correction.Weighted>
   9.000000E+99

> <Gold.Protein.RotatedTorsions>
[ 6907 6896 6895 6894 ] final  168.54 input  -60.11 | X-H torsion
[ 7974 7965 7964 7962 ] final  -26.30 input  175.53 | X-H torsion
[ 8008 7997 7996 7995 ] final   38.40 input   59.86 | X-H torsion
[ 10167 10162 10161 10158 ] final -119.45 input  -65.29 | X-H torsion
[ 10718 10713 10712 10709 ] final  -84.74 input   66.30 | X-H torsion
[ 10763 10752 10751 10750 ] final   21.57 input  -60.55 | X-H torsion
[ 11005 11000 10999 10996 ] final  -48.79 input  -57.11 | X-H torsion

> <Gold.Protein.ActiveResidues>
 VAL166  LYS551  ARG553  GLY616  TRP617  ASP618  TYR619  PRO620  LYS621  CYS622 
 ASP623  PHE694  ASN695  SER759  ASP760  ASP761  ALA762  ILE779  LEU786  VAL792 
 PHE793  MET794  SER795  GLU796  ALA797  LYS798  CYS799  TRP800  GLU811  SER814 

> <Gold.Protein.RotatedAtoms>
  151.8461  133.3431  159.3657 H   0  0  0  0  0  0  0  0  0  0  0  0  # atno 6907 bound_to 6896
  150.7220  134.5345  159.5726 H   0  0  0  0  0  0  0  0  0  0  0  0  # atno 6908 bound_to 6896
  152.2828  134.7810  160.0444 H   0  0  0  0  0  0  0  0  0  0  0  0  # atno 6909 bound_to 6896
  146.1435  140.5001  142.8642 H   0  0  0  0  0  0  0  0  0  0  0  0  # atno 7974 bound_to 7965
  155.2195  140.3330  155.4317 H   0  0  0  0  0  0  0  0  0  0  0  0  # atno 8008 bound_to 7997
  156.2339  140.1863  156.7219 H   0  0  0  0  0  0  0  0  0  0  0  0  # atno 8009 bound_to 7997
  154.6024  140.0621  156.9372 H   0  0  0  0  0  0  0  0  0  0  0  0  # atno 8010 bound_to 7997
  140.0465  143.5102  152.2104 H   0  0  0  0  0  0  0  0  0  0  0  0  # atno 10167 bound_to 10162
  156.0003  130.4708  150.4456 H   0  0  0  0  0  0  0  0  0  0  0  0  # atno 10718 bound_to 10713
  153.0985  135.6666  153.9718 H   0  0  0  0  0  0  0  0  0  0  0  0  # atno 10763 bound_to 10752
  153.9295  135.3005  155.3447 H   0  0  0  0  0  0  0  0  0  0  0  0  # atno 10764 bound_to 10752
  154.7405  135.5082  153.9189 H   0  0  0  0  0  0  0  0  0  0  0  0  # atno 10765 bound_to 10752
  141.0721  133.6676  156.3492 H   0  0  0  0  0  0  0  0  0  0  0  0  # atno 11005 bound_to 11000
  144.7819  140.5857  143.6600 LP  0  0  0  0  0  0  0  0  0  0  0  0  # atno 17320 bound_to 7965
  145.4993  139.1484  143.3666 LP  0  0  0  0  0  0  0  0  0  0  0  0  # atno 17321 bound_to 7965
  139.5980  144.7573  151.3239 LP  0  0  0  0  0  0  0  0  0  0  0  0  # atno 17342 bound_to 10162
  140.7236  143.7066  150.7803 LP  0  0  0  0  0  0  0  0  0  0  0  0  # atno 17343 bound_to 10162
  157.2494  131.0543  151.2388 LP  0  0  0  0  0  0  0  0  0  0  0  0  # atno 17370 bound_to 10713
  157.3543  130.7098  149.6461 LP  0  0  0  0  0  0  0  0  0  0  0  0  # atno 17371 bound_to 10713
  140.5650  134.5896  157.5443 LP  0  0  0  0  0  0  0  0  0  0  0  0  # atno 17394 bound_to 11000
  139.9534  134.7576  156.0395 LP  0  0  0  0  0  0  0  0  0  0  0  0  # atno 17395 bound_to 11000

$$$$
