#       Name:                AV-unprocessed.smi:101
#       Creating user name   scv26
#       Creation time:       Thu Mar 26 17:43:19 2020


#       File generated by GOLD software.
#

@<TRIPOS>MOLECULE
AV-unprocessed.smi:101
    56    58     1
SMALL
NO_CHARGES


@<TRIPOS>ATOM
      1 ****        -3.4602   1.2974   4.2802 C.3            1 S1                 0.0000
      2 ****        -3.6570   1.1345   2.7817 C.2            1 S1                 0.0000
      3 ****        -2.6268   0.8753   1.9358 C.2            1 S1                 0.0000
      4 ****        -2.7751   0.7180   0.5615 N.am           1 S1                 0.0000
      5 ****        -1.6042   0.4550  -0.3719 C.3            1 S1                 0.0000
      6 ****        -0.4108   0.4373   0.3508 O.3            1 S1                 0.0000
      7 ****        -0.0828  -0.9040   0.6809 C.3            1 S1                 0.0000
      8 ****         1.3999  -1.0157   1.0618 C.3            1 S1                 0.0000
      9 ****         2.2156  -0.6210  -0.0302 O.3            1 S1                 0.0000
     10 ****         3.5565  -0.6357   0.0849 C.2            1 S1                 0.0000
     11 ****         4.1502  -0.9788   1.1092 O.2            1 S1                 0.0000
     12 ****         4.2481  -0.1922  -1.1598 C.ar           1 S1                 0.0000
     13 ****         5.6615  -0.1453  -1.1889 C.ar           1 S1                 0.0000
     14 ****         6.3417   0.2705  -2.3499 C.ar           1 S1                 0.0000
     15 ****         5.6169   0.6435  -3.4967 C.ar           1 S1                 0.0000
     16 ****         4.2106   0.6002  -3.4811 C.ar           1 S1                 0.0000
     17 ****         3.5284   0.1858  -2.3205 C.ar           1 S1                 0.0000
     18 ****        -0.5128  -1.7013  -0.5518 C.3            1 S1                 0.0000
     19 ****        -0.8711  -3.0171  -0.1799 O.3            1 S1                 0.0000
     20 ****        -1.7307  -0.9291  -1.0577 C.3            1 S1                 0.0000
     21 ****        -1.6870  -0.8189  -2.4661 O.3            1 S1                 0.0000
     22 ****        -4.0537   0.8889  -0.0109 C.2            1 S1                 0.0000
     23 ****        -4.2552   0.8167  -1.2229 O.2            1 S1                 0.0000
     24 ****        -5.1119   1.1484   0.8570 N.am           1 S1                 0.0000
     25 ****        -5.0121   1.2775   2.2435 C.2            1 S1                 0.0000
     26 ****        -6.0231   1.5008   2.9071 O.2            1 S1                 0.0000
     27 ****        -6.0286   1.2584   0.4484 H              1 S1                 0.0000
     28 ****        -2.4162   1.1720   4.5692 H              1 S1                 0.0000
     29 ****        -4.0481   0.5570   4.8240 H              1 S1                 0.0000
     30 ****        -3.7785   2.2900   4.6004 H              1 S1                 0.0000
     31 ****        -1.6448   0.7977   2.3763 H              1 S1                 0.0000
     32 ****        -1.6004   1.3047  -1.0579 H              1 S1                 0.0000
     33 ****        -0.6920  -1.1996   1.5367 H              1 S1                 0.0000
     34 ****         1.6098  -0.3847   1.9264 H              1 S1                 0.0000
     35 ****         1.6347  -2.0434   1.3418 H              1 S1                 0.0000
     36 ****         6.2396  -0.4279  -0.3209 H              1 S1                 0.0000
     37 ****         7.4211   0.3030  -2.3601 H              1 S1                 0.0000
     38 ****         6.1388   0.9619  -4.3870 H              1 S1                 0.0000
     39 ****         3.6530   0.8857  -4.3609 H              1 S1                 0.0000
     40 ****         2.4485   0.1644  -2.3427 H              1 S1                 0.0000
     41 ****         0.2778  -1.7214  -1.3035 H              1 S1                 0.0000
     42 ****        -1.1722  -3.4729  -0.9512 H              1 S1                 0.0000
     43 ****        -2.6599  -1.4160  -0.7573 H              1 S1                 0.0000
     44 ****        -2.4373  -0.3179  -2.7484 H              1 S1                 0.0000
     45 ****        -0.5201   0.9707   1.1896 LP             1 S1                 0.0000
     46 ****         0.3213   0.8336  -0.2032 LP             1 S1                 0.0000
     47 ****         3.6322  -1.2670   1.9146 LP             1 S1                 0.0000
     48 ****         5.1498  -0.9690   1.1348 LP             1 S1                 0.0000
     49 ****        -1.6017  -2.9884   0.5024 LP             1 S1                 0.0000
     50 ****        -0.0763  -3.4885   0.2025 LP             1 S1                 0.0000
     51 ****        -1.7146  -1.7300  -2.8775 LP             1 S1                 0.0000
     52 ****        -0.8462  -0.3536  -2.7428 LP             1 S1                 0.0000
     53 ****        -3.4955   0.6300  -1.8458 LP             1 S1                 0.0000
     54 ****        -5.1786   0.9446  -1.5847 LP             1 S1                 0.0000
     55 ****        -5.9577   1.5997   3.9001 LP             1 S1                 0.0000
     56 ****        -6.9106   1.5834   2.4538 LP             1 S1                 0.0000
@<TRIPOS>BOND
    1    1    2 1     
    2    1   28 1     
    3    1   29 1     
    4    1   30 1     
    5    2   25 1     
    6    2    3 2     
    7    3    4 1     
    8    3   31 1     
    9    4    5 1     
   10    4   22 1     
   11    5   20 1     
   12    5    6 1     
   13    5   32 1     
   14    6    7 1     
   15    7    8 1     
   16    7   18 1     
   17    7   33 1     
   18    8    9 1     
   19    8   34 1     
   20    8   35 1     
   21    9   10 1     
   22   10   11 2     
   23   10   12 1     
   24   12   17 ar    
   25   12   13 ar    
   26   13   14 ar    
   27   13   36 1     
   28   14   15 ar    
   29   14   37 1     
   30   15   16 ar    
   31   15   38 1     
   32   16   17 ar    
   33   16   39 1     
   34   17   40 1     
   35   18   19 1     
   36   18   20 1     
   37   18   41 1     
   38   19   42 1     
   39   20   21 1     
   40   20   43 1     
   41   21   44 1     
   42   22   23 2     
   43   22   24 1     
   44   24   27 1     
   45   24   25 1     
   46   25   26 2     
   47    6   45 1     
   48    6   46 1     
   49   11   47 1     
   50   11   48 1     
   51   19   49 1     
   52   19   50 1     
   53   21   51 1     
   54   21   52 1     
   55   23   53 1     
   56   23   54 1     
   57   26   55 1     
   58   26   56 1     
@<TRIPOS>SUBSTRUCTURE
      1 S1             1
@<TRIPOS>SET
LONE_PAIRS      STATIC     ATOMS    <user>   **** ""
12 45 46 47 48 49 50 51 52 53 54 55 56
DONOR_HYDROGENS      STATIC     ATOMS    <user>   **** ""
3 42 44 27
ATOM$BLUE        STATIC     ATOMS    COLORGROUP SYSTEM
12 45 46 47 48 49 50 51 52 53 54 55 56
ATOM$RED        STATIC     ATOMS    COLORGROUP SYSTEM
3 42 44 27
