#       Name:                AV-unprocessed.smi:1510
#       Creating user name   scv26
#       Creation time:       Fri Mar 27 06:22:26 2020


#       File generated by GOLD software.
#

@<TRIPOS>MOLECULE
AV-unprocessed.smi:1510
    41    42     1
SMALL
NO_CHARGES


@<TRIPOS>ATOM
      1 ****        -0.3977   1.4274  -0.3354 O.2            1 S1                 0.0000
      2 ****         0.3206   0.6234  -0.9323 C.2            1 S1                 0.0000
      3 ****         1.8255   0.8764  -1.1157 C.3            1 S1                 0.0000
      4 ****         2.3459   2.0163  -0.3465 N.am           1 S1                 0.0000
      5 ****         2.5862   3.2104  -1.1522 N.pl3          1 S1                -1.0000
      6 ****         3.0644   4.3311  -0.5494 C.2            1 S1                 0.0000
      7 ****         3.2790   5.3760  -1.1595 O.2            1 S1                 0.0000
      8 ****         3.3338   4.2784   0.8781 C.2            1 S1                 0.0000
      9 ****         3.1195   3.1568   1.5937 C.2            1 S1                 0.0000
     10 ****         2.6040   1.9339   0.9902 C.2            1 S1                 0.0000
     11 ****         2.4143   0.9031   1.6361 O.2            1 S1                 0.0000
     12 ****        -0.1446  -0.5143  -1.4698 N.am           1 S1                 0.0000
     13 ****        -1.5306  -0.9636  -1.4194 C.3            1 S1                 0.0000
     14 ****        -1.8634  -1.6243  -0.0713 C.3            1 S1                 0.0000
     15 ****        -3.3131  -2.0994   0.0446 C.3            1 S1                 0.0000
     16 ****        -3.2355  -3.3074   0.9689 C.3            1 S1                 0.0000
     17 ****        -1.7356  -3.5313   1.1691 C.3            1 S1                 0.0000
     18 ****        -1.1276  -2.8261   0.0986 O.3            1 S1                 0.0000
     19 ****         2.3728  -0.0271  -0.8414 H              1 S1                 0.0000
     20 ****         2.0155   1.0200  -2.1810 H              1 S1                 0.0000
     21 ****         3.7169   5.1576   1.3749 H              1 S1                 0.0000
     22 ****         3.3361   3.1626   2.6516 H              1 S1                 0.0000
     23 ****         0.5133  -1.1170  -1.9416 H              1 S1                 0.0000
     24 ****        -2.1990  -0.1206  -1.6027 H              1 S1                 0.0000
     25 ****        -1.6921  -1.6697  -2.2343 H              1 S1                 0.0000
     26 ****        -1.6347  -0.9494   0.7560 H              1 S1                 0.0000
     27 ****        -3.9718  -1.3185   0.4260 H              1 S1                 0.0000
     28 ****        -3.6941  -2.4106  -0.9291 H              1 S1                 0.0000
     29 ****        -3.7397  -3.1331   1.9199 H              1 S1                 0.0000
     30 ****        -3.7000  -4.1740   0.4968 H              1 S1                 0.0000
     31 ****        -1.4055  -3.1009   2.1158 H              1 S1                 0.0000
     32 ****        -1.4615  -4.5864   1.1604 H              1 S1                 0.0000
     33 ****        -0.0039   2.2656   0.0418 LP             1 S1                 0.0000
     34 ****        -1.3745   1.2416  -0.2282 LP             1 S1                 0.0000
     35 ****         2.4013   3.2037  -2.1349 LP             1 S1                 0.0000
     36 ****         3.1013   5.4267  -2.1423 LP             1 S1                 0.0000
     37 ****         3.6312   6.1756  -0.6732 LP             1 S1                 0.0000
     38 ****         2.0585   0.0865   1.1815 LP             1 S1                 0.0000
     39 ****         2.6159   0.8824   2.6154 LP             1 S1                 0.0000
     40 ****        -0.1750  -2.6180   0.3205 LP             1 S1                 0.0000
     41 ****        -1.1633  -3.3727  -0.7380 LP             1 S1                 0.0000
@<TRIPOS>BOND
    1    1    2 2     
    2    2    3 1     
    3    2   12 am    
    4    3   19 1     
    5    3   20 1     
    6    3    4 1     
    7    4    5 1     
    8    4   10 am    
    9    5    6 1     
   10    6    7 2     
   11    6    8 1     
   12    8   21 1     
   13    8    9 2     
   14    9   22 1     
   15    9   10 1     
   16   10   11 2     
   17   12   13 1     
   18   12   23 1     
   19   13   14 1     
   20   13   24 1     
   21   13   25 1     
   22   14   18 1     
   23   14   15 1     
   24   14   26 1     
   25   15   16 1     
   26   15   27 1     
   27   15   28 1     
   28   16   17 1     
   29   16   29 1     
   30   16   30 1     
   31   17   18 1     
   32   17   31 1     
   33   17   32 1     
   34    1   33 1     
   35    1   34 1     
   36    5   35 1     
   37    7   36 1     
   38    7   37 1     
   39   11   38 1     
   40   11   39 1     
   41   18   40 1     
   42   18   41 1     
@<TRIPOS>SUBSTRUCTURE
      1 S1             1
@<TRIPOS>SET
LONE_PAIRS      STATIC     ATOMS    <user>   **** ""
9 33 34 35 36 37 38 39 40 41
DONOR_HYDROGENS      STATIC     ATOMS    <user>   **** ""
1 23
ATOM$BLUE        STATIC     ATOMS    COLORGROUP SYSTEM
9 33 34 35 36 37 38 39 40 41
ATOM$RED        STATIC     ATOMS    COLORGROUP SYSTEM
1 23
