AV-unprocessed.smi:3234|AV-procd|sdf|12356|dock8
  -GOLD-   2272018213D 1   1.00000     0.00000
 Structure written by MMmdl.
 37 39  0  0  0  0  0  0  0  0  4 V2000
  145.2602  138.2589  153.5773 O   0  0  0  0  0  0  0  0  0  0  0  0
  146.1856  137.6406  153.0387 C   0  0  0  0  0  0  0  0  0  0  0  0
  147.4300  138.1509  153.0326 N   0  0  0  0  0  0  0  0  0  0  0  0
  147.8832  139.3990  153.5372 C   0  0  0  0  0  0  0  0  0  0  0  0
  147.0233  140.5120  153.4098 C   0  0  0  0  0  0  0  0  0  0  0  0
  147.4274  141.7632  153.9183 C   0  0  0  0  0  0  0  0  0  0  0  0
  148.6231  141.8846  154.5339 N   0  3  0  0  0  0  0  0  0  0  0  0
  149.4701  140.8452  154.6959 C   0  0  0  0  0  0  0  0  0  0  0  0
  149.1208  139.5701  154.2073 C   0  0  0  0  0  0  0  0  0  0  0  0
  146.1275  136.4237  152.4327 N   0  5  0  0  0  0  0  0  0  0  0  0
  144.9902  135.9328  151.6492 C   0  0  2  0  0  0  0  0  0  0  0  0
  143.8147  135.5471  152.5676 C   0  0  0  0  0  0  0  0  0  0  0  0
  143.3445  134.1871  152.0550 C   0  0  0  0  0  0  0  0  0  0  0  0
  144.5657  133.5554  151.5279 N   0  3  1  0  0  0  0  0  0  0  0  0
  144.3205  132.3920  150.6497 C   0  0  0  0  0  0  0  0  0  0  0  0
  145.4041  132.1741  149.6211 C   0  0  0  0  0  0  0  0  0  0  0  0
  144.0744  132.7671  149.2080 C   0  0  0  0  0  0  0  0  0  0  0  0
  145.3594  134.6344  150.9068 C   0  0  0  0  0  0  0  0  0  0  0  0
  148.1477  137.5367  152.6768 H   0  0  0  0  0  0  0  0  0  0  0  0
  146.0651  140.4117  152.9204 H   0  0  0  0  0  0  0  0  0  0  0  0
  146.8328  142.6626  153.8536 H   0  0  0  0  0  0  0  0  0  0  0  0
  150.3927  141.0609  155.2144 H   0  0  0  0  0  0  0  0  0  0  0  0
  149.7974  138.7435  154.3645 H   0  0  0  0  0  0  0  0  0  0  0  0
  144.6486  136.6608  150.9118 H   0  0  0  0  0  0  0  0  0  0  0  0
  144.1418  135.4391  153.6036 H   0  0  0  0  0  0  0  0  0  0  0  0
  143.0175  136.2911  152.5557 H   0  0  0  0  0  0  0  0  0  0  0  0
  142.8884  133.5829  152.8399 H   0  0  0  0  0  0  0  0  0  0  0  0
  142.6097  134.3079  151.2553 H   0  0  0  0  0  0  0  0  0  0  0  0
  143.8015  131.5457  151.0967 H   0  0  0  0  0  0  0  0  0  0  0  0
  146.2674  132.8373  149.6337 H   0  0  0  0  0  0  0  0  0  0  0  0
  145.6089  131.1497  149.3169 H   0  0  0  0  0  0  0  0  0  0  0  0
  143.4039  132.1330  148.6316 H   0  0  0  0  0  0  0  0  0  0  0  0
  144.0537  133.8239  148.9476 H   0  0  0  0  0  0  0  0  0  0  0  0
  145.0804  134.7309  149.8561 H   0  0  0  0  0  0  0  0  0  0  0  0
  146.4240  134.3965  150.9384 H   0  0  0  0  0  0  0  0  0  0  0  0
  145.0946  133.2410  152.3288 H   0  0  0  0  0  0  0  0  0  0  0  0
  148.8956  142.7983  154.8970 H   0  0  0  0  0  0  0  0  0  0  0  0
  1  2  2  0  0  0  0
  2  3  1  0  0  0  0
  2 10  1  0  0  0  0
  3  4  1  0  0  0  0
  3 19  1  0  0  0  0
  4  9  1  0  0  0  0
  4  5  2  0  0  0  0
  5  6  1  0  0  0  0
  5 20  1  0  0  0  0
  6  7  2  0  0  0  0
  6 21  1  0  0  0  0
  7  8  1  0  0  0  0
  7 37  1  0  0  0  0
  8  9  2  0  0  0  0
  8 22  1  0  0  0  0
  9 23  1  0  0  0  0
 10 11  1  0  0  0  0
 11 18  1  0  0  0  0
 11 12  1  0  0  0  0
 11 24  1  0  0  0  0
 12 13  1  0  0  0  0
 12 25  1  0  0  0  0
 12 26  1  0  0  0  0
 13 14  1  0  0  0  0
 13 27  1  0  0  0  0
 13 28  1  0  0  0  0
 14 15  1  0  0  0  0
 14 18  1  0  0  0  0
 14 36  1  0  0  0  0
 15 17  1  0  0  0  0
 15 16  1  0  0  0  0
 15 29  1  0  0  0  0
 16 17  1  0  0  0  0
 16 30  1  0  0  0  0
 16 31  1  0  0  0  0
 17 32  1  0  0  0  0
 17 33  1  0  0  0  0
 18 34  1  0  0  0  0
 18 35  1  0  0  0  0
M  CHG  1   7   1
M  CHG  1  10  -1
M  CHG  1  14   1
M  END
> <s_m_source_file>
AV-unprocessed.smi

> <i_m_source_file_index>
3234

> <i_lp_mmshare_version>
43012

> <i_f3d_flags>
0

> <s_epik_input>
W2NIXTFbY0hdbltjSF1bY0hdYzFbTkhdQyg9TylbTkhdW0NAQEhdMltDSDJdW0NIMl1OKFtDSDJdMilbQ0hdM1tDSDJdW0NIMl0z

> <s_epik_cmdline>
J2VwaWtfcHl0aG9uJywgJy1waCcsICc3LjAnLCAnLXRuJywgJzgnLCAnLW1hJywgJzIwMCcsICctbWV0YWxfYmluZGluZycsICctaW1hZScsICc8aW5maWxlLm1hZT4nLCAnLW9tYWUnLCAnPG91dGZpbGUubWFlPic=

> <r_epik_Ionization_Penalty>
8.3234

> <r_epik_Ionization_Penalty_Charging>
8.3234

> <r_epik_Ionization_Penalty_Neutral>
3.58513e-06

> <r_epik_State_Penalty>
7.99376

> <r_epik_Charging_Adjusted_Penalty>
16.3172

> <i_epik_Tot_Q>
1

> <i_epik_Tot_abs_Q>
3

> <r_epik_Metal_State_Penalty>
3.98956

> <b_epik_Metal_Only>
1

> <s_lp_Force_Field>
OPLS_2005

> <r_lp_Energy>
40.8871

> <b_lp_Chiralities_Consistent>
1

> <s_lp_Variant>
AV-unprocessed.smi:3234-9

> <Gold.Version>
5.8.1

> <Gold.Id.Protein>
6NUR|6NUR_protein|mol2

> <Gold.PLP.Fitness>
41.1202

> <Gold.PLP.PLP>
-33.4244

> <Gold.PLP.part.hbond>
-2.0000

> <Gold.PLP.part.metal>
0.0000

> <Gold.PLP.part.buried>
-4.7553

> <Gold.PLP.part.nonpolar>
-29.9790

> <Gold.PLP.part.repulsive>
3.3634

> <Gold.PLP.ligand.clash>
0.0000

> <Gold.PLP.ligand.torsion>
1.2856

> <Gold.PLP.Chemscore.Hbond>
3.0000

> <Gold.PLP.Chemscore.CHOScore>
0.0000

> <Gold.PLP.Chemscore.Metal>
0.0000

> <Gold.Chemscore.Hbonds>
donor molecule, donor type, donor heavy atom, donor atom, acceptor molecule, acceptor atom, score
      L1  H     3    19       P1  7948  1.00
      L1  H     7    37       P1  8028  1.89

> <Gold.PLP.Chemscore.Internal.Correction>
1.2671

> <Gold.Rescore>
     Score         DG    S(hbond)    S(metal)    S(lipo)     H(rot)  DE(clash)    DE(int)     intcor
     15.50     -18.25       1.97        0.00      79.49       1.21       0.19       2.57       ----

> <Gold.Chemscore.Fitness>
15.4968

> <Gold.Chemscore.DG>
-18.2542

> <Gold.Chemscore.ZeroCoef>
-5.4800

> <Gold.Chemscore.Hbond>
1.9683

> <Gold.Chemscore.Metal>
0.0000

> <Gold.Chemscore.Lipo>
79.4857

> <Gold.Chemscore.Internal_Hbond>
0.0000

> <Gold.Chemscore.DEClash>
0.1918

> <Gold.Chemscore.DEInternal>
2.5656

> <Gold.Chemscore.Rot>
1.2108

> <Gold.Chemscore.Internal.Correction>
   9.000000E+99

> <Gold.Chemscore.Hbonds>
donor molecule, donor type, donor heavy atom, donor atom, acceptor molecule, acceptor atom, score
      L1  H     3    19       P1  7948  1.00
      L1  H     7    37       P1  8028  0.90

> <Gold.Chemscore.Hbond.Weighted>
-6.5740

> <Gold.Chemscore.Metal.Weighted>
-0.0000

> <Gold.Chemscore.Lipo.Weighted>
-9.2998

> <Gold.Chemscore.Internal_Hbond.Weighted>
0.0000

> <Gold.Chemscore.DEClash.Weighted>
0.1918

> <Gold.Chemscore.DEInternal.Weighted>
2.5656

> <Gold.Chemscore.Rot.Weighted>
3.0996

> <Gold.Chemscore.Internal.Correction.Weighted>
   9.000000E+99

> <Gold.Protein.RotatedTorsions>
[ 6907 6896 6895 6894 ] final -154.24 input  -60.11 | X-H torsion
[ 7974 7965 7964 7962 ] final   -6.78 input  175.53 | X-H torsion
[ 8008 7997 7996 7995 ] final    3.69 input   59.86 | X-H torsion
[ 10167 10162 10161 10158 ] final -149.25 input  -65.29 | X-H torsion
[ 10718 10713 10712 10709 ] final  -83.79 input   66.30 | X-H torsion
[ 10763 10752 10751 10750 ] final -113.52 input  -60.55 | X-H torsion
[ 11005 11000 10999 10996 ] final  -51.11 input  -57.11 | X-H torsion

> <Gold.Protein.ActiveResidues>
 VAL166  LYS551  ARG553  GLY616  TRP617  ASP618  TYR619  PRO620  LYS621  CYS622 
 ASP623  PHE694  ASN695  SER759  ASP760  ASP761  ALA762  ILE779  LEU786  VAL792 
 PHE793  MET794  SER795  GLU796  ALA797  LYS798  CYS799  TRP800  GLU811  SER814 

> <Gold.Protein.RotatedAtoms>
  151.2545  133.4333  159.2612 H   0  0  0  0  0  0  0  0  0  0  0  0  # atno 6907 bound_to 6896
  151.0587  134.9722  159.8259 H   0  0  0  0  0  0  0  0  0  0  0  0  # atno 6908 bound_to 6896
  152.5395  134.2496  159.8946 H   0  0  0  0  0  0  0  0  0  0  0  0  # atno 6909 bound_to 6896
  146.2323  140.2221  142.8338 H   0  0  0  0  0  0  0  0  0  0  0  0  # atno 7974 bound_to 7965
  154.7067  140.2684  155.6667 H   0  0  0  0  0  0  0  0  0  0  0  0  # atno 8008 bound_to 7997
  156.2782  140.2761  156.1620 H   0  0  0  0  0  0  0  0  0  0  0  0  # atno 8009 bound_to 7997
  155.0690  140.0372  157.2592 H   0  0  0  0  0  0  0  0  0  0  0  0  # atno 8010 bound_to 7997
  139.7459  143.8591  152.2574 H   0  0  0  0  0  0  0  0  0  0  0  0  # atno 10167 bound_to 10162
  156.0014  130.4677  150.4311 H   0  0  0  0  0  0  0  0  0  0  0  0  # atno 10718 bound_to 10713
  154.8400  135.4451  154.1362 H   0  0  0  0  0  0  0  0  0  0  0  0  # atno 10763 bound_to 10752
  153.2560  135.6931  153.7635 H   0  0  0  0  0  0  0  0  0  0  0  0  # atno 10764 bound_to 10752
  153.6930  135.3384  155.3182 H   0  0  0  0  0  0  0  0  0  0  0  0  # atno 10765 bound_to 10752
  141.0853  133.6644  156.3829 H   0  0  0  0  0  0  0  0  0  0  0  0  # atno 11005 bound_to 11000
  144.9624  140.8288  143.5505 LP  0  0  0  0  0  0  0  0  0  0  0  0  # atno 17320 bound_to 7965
  145.2193  139.2166  143.5101 LP  0  0  0  0  0  0  0  0  0  0  0  0  # atno 17321 bound_to 7965
  139.8555  144.7143  150.9162 LP  0  0  0  0  0  0  0  0  0  0  0  0  # atno 17342 bound_to 10162
  140.7792  143.3862  151.1389 LP  0  0  0  0  0  0  0  0  0  0  0  0  # atno 17343 bound_to 10162
  157.2360  131.0515  151.2465 LP  0  0  0  0  0  0  0  0  0  0  0  0  # atno 17370 bound_to 10713
  157.3666  130.7159  149.6537 LP  0  0  0  0  0  0  0  0  0  0  0  0  # atno 17371 bound_to 10713
  140.5377  134.6151  157.5370 LP  0  0  0  0  0  0  0  0  0  0  0  0  # atno 17394 bound_to 11000
  139.9670  134.7356  156.0117 LP  0  0  0  0  0  0  0  0  0  0  0  0  # atno 17395 bound_to 11000

$$$$
