AV-unprocessed.smi:1565|AV-procd|sdf|6298|dock3
  -GOLD-   22720 6493D 1   1.00000     0.00000
 Structure written by MMmdl.
 40 41  0  0  0  0  0  0  0  0  1 V2000
  153.3936  142.2941  161.9956 C   0  0  0  0  0  0  0  0  0  0  0  0
  153.2017  142.4219  160.4808 C   0  0  1  0  0  0  0  0  0  0  0  0
  152.5437  141.1683  159.8738 C   0  0  0  0  0  0  0  0  0  0  0  0
  152.2664  141.3736  158.4548 N   0  0  0  0  0  0  0  0  0  0  0  0
  151.9232  140.2135  157.7276 C   0  0  0  0  0  0  0  0  0  0  0  0
  150.8609  139.3880  158.1656 C   0  0  0  0  0  0  0  0  0  0  0  0
  150.5333  138.2370  157.4241 C   0  0  0  0  0  0  0  0  0  0  0  0
  151.2806  137.9290  156.2661 C   0  0  0  0  0  0  0  0  0  0  0  0
  150.9658  136.7316  155.4172 C   0  0  0  0  0  0  0  0  0  0  0  0
  151.6019  136.5028  154.3884 O   0  0  0  0  0  0  0  0  0  0  0  0
  150.0007  135.9254  155.8875 N   0  0  0  0  0  0  0  0  0  0  0  0
  149.5345  134.7047  155.2384 C   0  0  0  0  0  0  0  0  0  0  0  0
  149.9385  133.4448  156.0229 C   0  0  0  0  0  0  0  0  0  0  0  0
  149.1469  133.3207  157.0873 F   0  0  0  0  0  0  0  0  0  0  0  0
  149.7990  132.3611  155.2590 F   0  0  0  0  0  0  0  0  0  0  0  0
  151.2015  133.5280  156.4402 F   0  0  0  0  0  0  0  0  0  0  0  0
  152.3171  138.8151  155.9034 C   0  0  0  0  0  0  0  0  0  0  0  0
  152.6360  139.9184  156.6126 N   0  0  0  0  0  0  0  0  0  0  0  0
  151.5135  142.5970  158.1864 C   0  0  0  0  0  0  0  0  0  0  0  0
  152.2052  143.8085  158.8384 C   0  0  1  0  0  0  0  0  0  0  0  0
  151.3857  145.0933  158.6792 C   0  0  0  0  0  0  0  0  0  0  0  0
  152.3748  143.5551  160.2301 O   0  0  0  0  0  0  0  0  0  0  0  0
  154.0312  141.4442  162.2406 H   0  0  0  0  0  0  0  0  0  0  0  0
  152.4391  142.1547  162.5040 H   0  0  0  0  0  0  0  0  0  0  0  0
  153.8612  143.1896  162.4054 H   0  0  0  0  0  0  0  0  0  0  0  0
  154.1783  142.5829  160.0206 H   0  0  0  0  0  0  0  0  0  0  0  0
  153.1962  140.3114  160.0359 H   0  0  0  0  0  0  0  0  0  0  0  0
  151.6044  140.9519  160.3848 H   0  0  0  0  0  0  0  0  0  0  0  0
  150.3040  139.6167  159.0618 H   0  0  0  0  0  0  0  0  0  0  0  0
  149.7177  137.6078  157.7495 H   0  0  0  0  0  0  0  0  0  0  0  0
  149.5466  136.1823  156.7517 H   0  0  0  0  0  0  0  0  0  0  0  0
  148.4525  134.7345  155.0967 H   0  0  0  0  0  0  0  0  0  0  0  0
  149.9724  134.6709  154.2403 H   0  0  0  0  0  0  0  0  0  0  0  0
  152.9165  138.6377  155.0222 H   0  0  0  0  0  0  0  0  0  0  0  0
  151.4352  142.7607  157.1109 H   0  0  0  0  0  0  0  0  0  0  0  0
  150.5000  142.4878  158.5751 H   0  0  0  0  0  0  0  0  0  0  0  0
  153.1840  143.9627  158.3807 H   0  0  0  0  0  0  0  0  0  0  0  0
  151.2376  145.3363  157.6268 H   0  0  0  0  0  0  0  0  0  0  0  0
  151.8914  145.9382  159.1473 H   0  0  0  0  0  0  0  0  0  0  0  0
  150.4034  144.9947  159.1419 H   0  0  0  0  0  0  0  0  0  0  0  0
  1  2  1  0  0  0  0
  1 23  1  0  0  0  0
  1 24  1  0  0  0  0
  1 25  1  0  0  0  0
  2 22  1  0  0  0  0
  2  3  1  0  0  0  0
  2 26  1  0  0  0  0
  3  4  1  0  0  0  0
  3 27  1  0  0  0  0
  3 28  1  0  0  0  0
  4  5  1  0  0  0  0
  4 19  1  0  0  0  0
  5 18  1  0  0  0  0
  5  6  2  0  0  0  0
  6  7  1  0  0  0  0
  6 29  1  0  0  0  0
  7  8  2  0  0  0  0
  7 30  1  0  0  0  0
  8  9  1  0  0  0  0
  8 17  1  0  0  0  0
  9 10  2  0  0  0  0
  9 11  1  0  0  0  0
 11 12  1  0  0  0  0
 11 31  1  0  0  0  0
 12 13  1  0  0  0  0
 12 32  1  0  0  0  0
 12 33  1  0  0  0  0
 13 14  1  0  0  0  0
 13 15  1  0  0  0  0
 13 16  1  0  0  0  0
 17 18  2  0  0  0  0
 17 34  1  0  0  0  0
 19 20  1  0  0  0  0
 19 35  1  0  0  0  0
 19 36  1  0  0  0  0
 20 21  1  0  0  0  0
 20 22  1  0  0  0  0
 20 37  1  0  0  0  0
 21 38  1  0  0  0  0
 21 39  1  0  0  0  0
 21 40  1  0  0  0  0
M  END
> <s_m_source_file>
AV-unprocessed.smi

> <i_m_source_file_index>
1565

> <i_lp_mmshare_version>
43012

> <i_f3d_flags>
0

> <s_epik_input>
W0NIM11bQ0BASF0xW0NIMl1OKFtDSDJdW0NASF0oTzEpW0NIM10pYzJbY0hdW2NIXWMoW2NIXW4yKUMoPU8pW05IXVtDSDJdQyhGKShGKUY=

> <s_epik_cmdline>
J2VwaWtfcHl0aG9uJywgJy1waCcsICc3LjAnLCAnLXRuJywgJzgnLCAnLW1hJywgJzIwMCcsICctbWV0YWxfYmluZGluZycsICctaW1hZScsICc8aW5maWxlLm1hZT4nLCAnLW9tYWUnLCAnPG91dGZpbGUubWFlPic=

> <r_lp_tautomer_probability>
1

> <r_epik_Ionization_Penalty>
1.48031e-05

> <r_epik_Ionization_Penalty_Charging>
0

> <r_epik_Ionization_Penalty_Neutral>
1.48031e-05

> <r_epik_State_Penalty>
-0

> <r_epik_Charging_Adjusted_Penalty>
0

> <i_epik_Tot_Q>
0

> <i_epik_Tot_abs_Q>
0

> <r_epik_Metal_State_Penalty>
0.00620302

> <b_epik_Metal_Only>
0

> <s_lp_Force_Field>
OPLS_2005

> <r_lp_Energy>
16.2805

> <b_lp_Chiralities_Consistent>
1

> <s_lp_Variant>
AV-unprocessed.smi:1565-2

> <Gold.Version>
5.8.1

> <Gold.Id.Protein>
6NUR|6NUR_protein|mol2

> <Gold.PLP.Fitness>
43.8245

> <Gold.PLP.PLP>
-38.7138

> <Gold.PLP.part.hbond>
-2.0000

> <Gold.PLP.part.metal>
0.0000

> <Gold.PLP.part.buried>
-5.8767

> <Gold.PLP.part.nonpolar>
-31.7106

> <Gold.PLP.part.repulsive>
1.2004

> <Gold.PLP.ligand.clash>
0.0000

> <Gold.PLP.ligand.torsion>
0.6088

> <Gold.PLP.Chemscore.Hbond>
2.0000

> <Gold.PLP.Chemscore.CHOScore>
0.0000

> <Gold.PLP.Chemscore.Metal>
0.0000

> <Gold.Chemscore.Hbonds>
donor molecule, donor type, donor heavy atom, donor atom, acceptor molecule, acceptor atom, score
      P1  H  7997  8008       L1    18  1.00
      P1  H 10752 10763       L1    10  1.00

> <Gold.PLP.Chemscore.Internal.Correction>
0.3284

> <Gold.Rescore>
     Score         DG    S(hbond)    S(metal)    S(lipo)     H(rot)  DE(clash)    DE(int)     intcor
     18.95     -19.53       1.95        0.00      92.98       1.31       0.06       0.52       ----

> <Gold.Chemscore.Fitness>
18.9467

> <Gold.Chemscore.DG>
-19.5286

> <Gold.Chemscore.ZeroCoef>
-5.4800

> <Gold.Chemscore.Hbond>
1.9494

> <Gold.Chemscore.Metal>
0.0000

> <Gold.Chemscore.Lipo>
92.9818

> <Gold.Chemscore.Internal_Hbond>
0.0000

> <Gold.Chemscore.DEClash>
0.0584

> <Gold.Chemscore.DEInternal>
0.5235

> <Gold.Chemscore.Rot>
1.3052

> <Gold.Chemscore.Internal.Correction>
   9.000000E+99

> <Gold.Chemscore.Hbonds>
donor molecule, donor type, donor heavy atom, donor atom, acceptor molecule, acceptor atom, score
      P1  H  7997  8008       L1    18  0.68
      P1  H 10752 10763       L1    10  0.98

> <Gold.Chemscore.Hbond.Weighted>
-6.5111

> <Gold.Chemscore.Metal.Weighted>
-0.0000

> <Gold.Chemscore.Lipo.Weighted>
-10.8789

> <Gold.Chemscore.Internal_Hbond.Weighted>
0.0000

> <Gold.Chemscore.DEClash.Weighted>
0.0584

> <Gold.Chemscore.DEInternal.Weighted>
0.5235

> <Gold.Chemscore.Rot.Weighted>
3.3414

> <Gold.Chemscore.Internal.Correction.Weighted>
   9.000000E+99

> <Gold.Protein.RotatedTorsions>
[ 6907 6896 6895 6894 ] final  -40.22 input  -60.11 | X-H torsion
[ 7974 7965 7964 7962 ] final  -86.86 input  175.53 | X-H torsion
[ 8008 7997 7996 7995 ] final  -58.92 input   59.86 | X-H torsion
[ 10167 10162 10161 10158 ] final -154.45 input  -65.29 | X-H torsion
[ 10718 10713 10712 10709 ] final   23.91 input   66.30 | X-H torsion
[ 10763 10752 10751 10750 ] final   37.65 input  -60.55 | X-H torsion
[ 11005 11000 10999 10996 ] final -139.48 input  -57.11 | X-H torsion

> <Gold.Protein.ActiveResidues>
 VAL166  LYS551  ARG553  GLY616  TRP617  ASP618  TYR619  PRO620  LYS621  CYS622 
 ASP623  PHE694  ASN695  SER759  ASP760  ASP761  ALA762  ILE779  LEU786  VAL792 
 PHE793  MET794  SER795  GLU796  ALA797  LYS798  CYS799  TRP800  GLU811  SER814 

> <Gold.Protein.RotatedAtoms>
  150.9810  134.9165  159.7843 H   0  0  0  0  0  0  0  0  0  0  0  0  # atno 6907 bound_to 6896
  152.5221  134.3411  159.9227 H   0  0  0  0  0  0  0  0  0  0  0  0  # atno 6908 bound_to 6896
  151.3418  133.3918  159.2706 H   0  0  0  0  0  0  0  0  0  0  0  0  # atno 6909 bound_to 6896
  145.4743  140.9559  143.1900 H   0  0  0  0  0  0  0  0  0  0  0  0  # atno 7974 bound_to 7965
  154.4330  140.1073  156.6034 H   0  0  0  0  0  0  0  0  0  0  0  0  # atno 8008 bound_to 7997
  155.5887  140.3492  155.4541 H   0  0  0  0  0  0  0  0  0  0  0  0  # atno 8009 bound_to 7997
  156.0263  140.1251  157.0294 H   0  0  0  0  0  0  0  0  0  0  0  0  # atno 8010 bound_to 7997
  139.7013  143.9259  152.2429 H   0  0  0  0  0  0  0  0  0  0  0  0  # atno 10167 bound_to 10162
  157.1725  130.6766  149.6083 H   0  0  0  0  0  0  0  0  0  0  0  0  # atno 10718 bound_to 10713
  153.0030  135.6272  154.2178 H   0  0  0  0  0  0  0  0  0  0  0  0  # atno 10763 bound_to 10752
  154.1922  135.2808  155.3020 H   0  0  0  0  0  0  0  0  0  0  0  0  # atno 10764 bound_to 10752
  154.5751  135.5665  153.7191 H   0  0  0  0  0  0  0  0  0  0  0  0  # atno 10765 bound_to 10752
  140.8515  134.2279  157.4757 H   0  0  0  0  0  0  0  0  0  0  0  0  # atno 11005 bound_to 11000
  144.7927  139.6296  143.7106 LP  0  0  0  0  0  0  0  0  0  0  0  0  # atno 17320 bound_to 7965
  146.2379  139.5941  142.9511 LP  0  0  0  0  0  0  0  0  0  0  0  0  # atno 17321 bound_to 7965
  139.9102  144.6861  150.8570 LP  0  0  0  0  0  0  0  0  0  0  0  0  # atno 17342 bound_to 10162
  140.7710  143.3449  151.2132 LP  0  0  0  0  0  0  0  0  0  0  0  0  # atno 17343 bound_to 10162
  155.9736  130.4674  150.6323 LP  0  0  0  0  0  0  0  0  0  0  0  0  # atno 17370 bound_to 10713
  157.4029  131.0812  151.1291 LP  0  0  0  0  0  0  0  0  0  0  0  0  # atno 17371 bound_to 10713
  139.8704  134.9686  156.4636 LP  0  0  0  0  0  0  0  0  0  0  0  0  # atno 17394 bound_to 11000
  140.8784  133.7936  155.9440 LP  0  0  0  0  0  0  0  0  0  0  0  0  # atno 17395 bound_to 11000

$$$$
