AV-unprocessed.smi:1897|AV-procd|sdf|7695|dock4
  -GOLD-   22720 9433D 1   1.00000     0.00000
 Structure written by MMmdl.
 38 40  0  0  0  0  0  0  0  0  3 V2000
  152.4136  141.4958  159.2377 C   0  0  0  0  0  0  0  0  0  0  0  0
  152.0403  140.9542  157.9004 C   0  0  0  0  0  0  0  0  0  0  0  0
  152.6570  139.9066  157.3483 N   0  0  0  0  0  0  0  0  0  0  0  0
  152.1345  139.5888  156.1033 N   0  0  0  0  0  0  0  0  0  0  0  0
  151.1219  140.3886  155.7385 C   0  0  0  0  0  0  0  0  0  0  0  0
  150.4560  140.2318  154.5785 N   0  5  0  0  0  0  0  0  0  0  0  0
  149.1192  139.9928  154.5356 C   0  0  0  0  0  0  0  0  0  0  0  0
  148.3743  140.1077  155.5077 O   0  0  0  0  0  0  0  0  0  0  0  0
  148.5957  139.6127  153.3558 N   0  0  0  0  0  0  0  0  0  0  0  0
  147.1985  139.2978  153.0811 C   0  0  1  0  0  0  0  0  0  0  0  0
  146.8998  139.0659  151.5839 C   0  0  0  0  0  0  0  0  0  0  0  0
  146.0695  137.7791  151.5387 C   0  0  0  0  0  0  0  0  0  0  0  0
  146.5591  137.0238  152.6982 N   0  3  2  0  0  0  0  0  0  0  0  0
  145.7985  135.8325  153.1287 C   0  0  0  0  0  0  0  0  0  0  0  0
  146.5810  135.1272  154.2574 C   0  0  0  0  0  0  0  0  0  0  0  0
  146.9460  136.0931  155.4070 C   0  0  0  0  0  0  0  0  0  0  0  0
  147.6350  137.3685  154.8785 C   0  0  0  0  0  0  0  0  0  0  0  0
  146.7524  137.9989  153.7844 C   0  0  1  0  0  0  0  0  0  0  0  0
  150.7495  141.6373  156.9263 S   0  0  0  0  0  0  0  0  0  0  0  0
  152.0487  140.8336  160.0229 H   0  0  0  0  0  0  0  0  0  0  0  0
  151.9768  142.4842  159.3819 H   0  0  0  0  0  0  0  0  0  0  0  0
  153.4975  141.5783  159.3220 H   0  0  0  0  0  0  0  0  0  0  0  0
  149.2360  139.5330  152.5795 H   0  0  0  0  0  0  0  0  0  0  0  0
  146.5846  140.1195  153.4553 H   0  0  0  0  0  0  0  0  0  0  0  0
  146.3817  139.9091  151.1263 H   0  0  0  0  0  0  0  0  0  0  0  0
  147.8280  138.9142  151.0303 H   0  0  0  0  0  0  0  0  0  0  0  0
  145.0092  138.0032  151.6660 H   0  0  0  0  0  0  0  0  0  0  0  0
  146.1984  137.2272  150.6072 H   0  0  0  0  0  0  0  0  0  0  0  0
  144.8044  136.1251  153.4699 H   0  0  0  0  0  0  0  0  0  0  0  0
  145.6657  135.1563  152.2837 H   0  0  0  0  0  0  0  0  0  0  0  0
  146.0033  134.2870  154.6438 H   0  0  0  0  0  0  0  0  0  0  0  0
  147.4981  134.7041  153.8452 H   0  0  0  0  0  0  0  0  0  0  0  0
  146.0389  136.3702  155.9458 H   0  0  0  0  0  0  0  0  0  0  0  0
  147.5908  135.5910  156.1291 H   0  0  0  0  0  0  0  0  0  0  0  0
  147.7944  138.0745  155.6944 H   0  0  0  0  0  0  0  0  0  0  0  0
  148.6193  137.1175  154.4799 H   0  0  0  0  0  0  0  0  0  0  0  0
  145.7708  138.2032  154.2180 H   0  0  0  0  0  0  0  0  0  0  0  0
  147.4826  136.7041  152.4431 H   0  0  0  0  0  0  0  0  0  0  0  0
  1  2  1  0  0  0  0
  1 20  1  0  0  0  0
  1 21  1  0  0  0  0
  1 22  1  0  0  0  0
  2 19  1  0  0  0  0
  2  3  2  0  0  0  0
  3  4  1  0  0  0  0
  4  5  2  0  0  0  0
  5  6  1  0  0  0  0
  5 19  1  0  0  0  0
  6  7  1  0  0  0  0
  7  8  2  0  0  0  0
  7  9  1  0  0  0  0
  9 10  1  0  0  0  0
  9 23  1  0  0  0  0
 10 18  1  0  0  0  0
 10 11  1  0  0  0  0
 10 24  1  0  0  0  0
 11 12  1  0  0  0  0
 11 25  1  0  0  0  0
 11 26  1  0  0  0  0
 12 13  1  0  0  0  0
 12 27  1  0  0  0  0
 12 28  1  0  0  0  0
 13 18  1  0  0  0  0
 13 14  1  0  0  0  0
 13 38  1  0  0  0  0
 14 15  1  0  0  0  0
 14 29  1  0  0  0  0
 14 30  1  0  0  0  0
 15 16  1  0  0  0  0
 15 31  1  0  0  0  0
 15 32  1  0  0  0  0
 16 17  1  0  0  0  0
 16 33  1  0  0  0  0
 16 34  1  0  0  0  0
 17 18  1  0  0  0  0
 17 35  1  0  0  0  0
 17 36  1  0  0  0  0
 18 37  1  0  0  0  0
M  CHG  1   6  -1
M  CHG  1  13   1
M  END
> <s_m_source_file>
AV-unprocessed.smi

> <i_m_source_file_index>
1897

> <i_lp_mmshare_version>
43012

> <i_f3d_flags>
0

> <s_epik_input>
W0NIM11jMW5uYyhzMSlbTkhdQyg9TylbTkhdW0NASF0oW0NIMl1bQ0gyXTIpW0NAQEhdKE4yMylbQ0gyXVtDSDJdW0NIMl1bQ0gyXTM=

> <s_epik_cmdline>
J2VwaWtfcHl0aG9uJywgJy1waCcsICc3LjAnLCAnLXRuJywgJzgnLCAnLW1hJywgJzIwMCcsICctbWV0YWxfYmluZGluZycsICctaW1hZScsICc8aW5maWxlLm1hZT4nLCAnLW9tYWUnLCAnPG91dGZpbGUubWFlPic=

> <r_lp_tautomer_probability>
1

> <r_epik_Ionization_Penalty>
3.77712

> <r_epik_Ionization_Penalty_Charging>
3.67739

> <r_epik_Ionization_Penalty_Neutral>
0.0997294

> <r_epik_State_Penalty>
3.67514

> <r_epik_Charging_Adjusted_Penalty>
7.35254

> <i_epik_Tot_Q>
0

> <i_epik_Tot_abs_Q>
2

> <r_epik_Metal_State_Penalty>
0.540795

> <b_epik_Metal_Only>
1

> <s_lp_Force_Field>
OPLS_2005

> <r_lp_Energy>
34.5765

> <b_lp_Chiralities_Consistent>
1

> <s_lp_Variant>
AV-unprocessed.smi:1897-12

> <Gold.Version>
5.8.1

> <Gold.Id.Protein>
6NUR|6NUR_protein|mol2

> <Gold.PLP.Fitness>
41.0746

> <Gold.PLP.PLP>
-27.5073

> <Gold.PLP.part.hbond>
-4.1377

> <Gold.PLP.part.metal>
0.0000

> <Gold.PLP.part.buried>
-0.5054

> <Gold.PLP.part.nonpolar>
-24.3640

> <Gold.PLP.part.repulsive>
0.2577

> <Gold.PLP.ligand.clash>
0.0000

> <Gold.PLP.ligand.torsion>
0.6461

> <Gold.PLP.Chemscore.Hbond>
4.9500

> <Gold.PLP.Chemscore.CHOScore>
0.0000

> <Gold.PLP.Chemscore.Metal>
0.0000

> <Gold.Chemscore.Hbonds>
donor molecule, donor type, donor heavy atom, donor atom, acceptor molecule, acceptor atom, score
      L1  H     9    23       P1  7957  0.93
      L1  H    13    38       P1  7948  2.00
      P1  H  7989  7998       L1     6  1.00
      P1  H  7997  8009       L1     3  0.95

> <Gold.PLP.Chemscore.Internal.Correction>
0.0095

> <Gold.Rescore>
     Score         DG    S(hbond)    S(metal)    S(lipo)     H(rot)  DE(clash)    DE(int)     intcor
     16.85     -18.40       2.47        0.00      61.73       1.00       0.67       0.89       ----

> <Gold.Chemscore.Fitness>
16.8455

> <Gold.Chemscore.DG>
-18.3978

> <Gold.Chemscore.ZeroCoef>
-5.4800

> <Gold.Chemscore.Hbond>
2.4717

> <Gold.Chemscore.Metal>
0.0000

> <Gold.Chemscore.Lipo>
61.7301

> <Gold.Chemscore.Internal_Hbond>
0.0000

> <Gold.Chemscore.DEClash>
0.6655

> <Gold.Chemscore.DEInternal>
0.8867

> <Gold.Chemscore.Rot>
1.0000

> <Gold.Chemscore.Internal.Correction>
   9.000000E+99

> <Gold.Chemscore.Hbonds>
donor molecule, donor type, donor heavy atom, donor atom, acceptor molecule, acceptor atom, score
      L1  H     9    23       P1  7957  0.85
      L1  H    13    38       P1  7948  1.00
      P1  H  7989  7998       L1     6  0.25
      P1  H  7997  8009       L1     3  0.20

> <Gold.Chemscore.Hbond.Weighted>
-8.2554

> <Gold.Chemscore.Metal.Weighted>
-0.0000

> <Gold.Chemscore.Lipo.Weighted>
-7.2224

> <Gold.Chemscore.Internal_Hbond.Weighted>
0.0000

> <Gold.Chemscore.DEClash.Weighted>
0.6655

> <Gold.Chemscore.DEInternal.Weighted>
0.8867

> <Gold.Chemscore.Rot.Weighted>
2.5600

> <Gold.Chemscore.Internal.Correction.Weighted>
   9.000000E+99

> <Gold.Protein.RotatedTorsions>
[ 6907 6896 6895 6894 ] final -149.15 input  -60.11 | X-H torsion
[ 7974 7965 7964 7962 ] final  -59.05 input  175.53 | X-H torsion
[ 8008 7997 7996 7995 ] final  165.14 input   59.86 | X-H torsion
[ 10167 10162 10161 10158 ] final   93.90 input  -65.29 | X-H torsion
[ 10718 10713 10712 10709 ] final -114.36 input   66.30 | X-H torsion
[ 10763 10752 10751 10750 ] final   41.11 input  -60.55 | X-H torsion
[ 11005 11000 10999 10996 ] final  119.51 input  -57.11 | X-H torsion

> <Gold.Protein.ActiveResidues>
 VAL166  LYS551  ARG553  GLY616  TRP617  ASP618  TYR619  PRO620  LYS621  CYS622 
 ASP623  PHE694  ASN695  SER759  ASP760  ASP761  ALA762  ILE779  LEU786  VAL792 
 PHE793  MET794  SER795  GLU796  ALA797  LYS798  CYS799  TRP800  GLU811  SER814 

> <Gold.Protein.RotatedAtoms>
  151.1801  133.4730  159.2593 H   0  0  0  0  0  0  0  0  0  0  0  0  # atno 6907 bound_to 6896
  151.1268  135.0109  159.8574 H   0  0  0  0  0  0  0  0  0  0  0  0  # atno 6908 bound_to 6896
  152.5458  134.1707  159.8648 H   0  0  0  0  0  0  0  0  0  0  0  0  # atno 6909 bound_to 6896
  145.8321  140.8473  143.0078 H   0  0  0  0  0  0  0  0  0  0  0  0  # atno 7974 bound_to 7965
  156.1824  140.1678  156.8248 H   0  0  0  0  0  0  0  0  0  0  0  0  # atno 8008 bound_to 7997
  154.5375  140.0743  156.8486 H   0  0  0  0  0  0  0  0  0  0  0  0  # atno 8009 bound_to 7997
  155.3281  140.3377  155.4242 H   0  0  0  0  0  0  0  0  0  0  0  0  # atno 8010 bound_to 7997
  139.8135  144.6763  150.9609 H   0  0  0  0  0  0  0  0  0  0  0  0  # atno 10167 bound_to 10162
  156.0825  130.6022  150.8764 H   0  0  0  0  0  0  0  0  0  0  0  0  # atno 10718 bound_to 10713
  152.9917  135.6171  154.2735 H   0  0  0  0  0  0  0  0  0  0  0  0  # atno 10763 bound_to 10752
  154.2467  135.2786  155.2834 H   0  0  0  0  0  0  0  0  0  0  0  0  # atno 10764 bound_to 10752
  154.5323  135.5784  153.6827 H   0  0  0  0  0  0  0  0  0  0  0  0  # atno 10765 bound_to 10752
  139.9149  134.9629  156.7666 H   0  0  0  0  0  0  0  0  0  0  0  0  # atno 11005 bound_to 11000
  144.6739  140.0687  143.7473 LP  0  0  0  0  0  0  0  0  0  0  0  0  # atno 17320 bound_to 7965
  145.9560  139.2767  143.1184 LP  0  0  0  0  0  0  0  0  0  0  0  0  # atno 17321 bound_to 7965
  140.7817  143.4161  151.0915 LP  0  0  0  0  0  0  0  0  0  0  0  0  # atno 17342 bound_to 10162
  139.7826  143.8333  152.3140 LP  0  0  0  0  0  0  0  0  0  0  0  0  # atno 17343 bound_to 10162
  157.5947  131.0943  150.9061 LP  0  0  0  0  0  0  0  0  0  0  0  0  # atno 17370 bound_to 10713
  156.9230  130.5322  149.5279 LP  0  0  0  0  0  0  0  0  0  0  0  0  # atno 17371 bound_to 10713
  140.6655  133.9607  155.7827 LP  0  0  0  0  0  0  0  0  0  0  0  0  # atno 17394 bound_to 11000
  141.0614  134.0340  157.3653 LP  0  0  0  0  0  0  0  0  0  0  0  0  # atno 17395 bound_to 11000

$$$$
