AV-unprocessed.smi:1242|AV-procd|sdf|5216|dock2
  -GOLD-   22720 4313D 1   1.00000     0.00000
 Structure written by MMmdl.
 39 40  0  0  0  0  0  0  0  0  1 V2000
  150.8428  141.1016  157.6271 O   0  0  0  0  0  0  0  0  0  0  0  0
  150.6992  142.2289  157.1513 C   0  0  0  0  0  0  0  0  0  0  0  0
  151.4981  143.4256  157.6878 C   0  0  0  0  0  0  0  0  0  0  0  0
  152.0100  143.2329  159.0552 N   0  0  0  0  0  0  0  0  0  0  0  0
  152.8921  142.1543  159.2630 C   0  0  0  0  0  0  0  0  0  0  0  0
  153.4366  141.8727  160.4622 C   0  0  0  0  0  0  0  0  0  0  0  0
  154.3414  140.6671  160.6635 C   0  0  0  0  0  0  0  0  0  0  0  0
  155.4675  140.7869  159.9596 F   0  0  0  0  0  0  0  0  0  0  0  0
  154.6651  140.5209  161.9489 F   0  0  0  0  0  0  0  0  0  0  0  0
  153.7173  139.5595  160.2649 F   0  0  0  0  0  0  0  0  0  0  0  0
  153.0441  142.7278  161.5655 C   0  0  0  0  0  0  0  0  0  0  0  0
  152.1974  143.7603  161.3853 C   0  0  0  0  0  0  0  0  0  0  0  0
  151.6310  144.0670  160.0699 C   0  0  0  0  0  0  0  0  0  0  0  0
  150.8631  145.0128  159.8913 O   0  0  0  0  0  0  0  0  0  0  0  0
  149.8474  142.5024  156.1515 N   0  0  0  0  0  0  0  0  0  0  0  0
  148.9758  141.5394  155.4781 C   0  0  2  0  0  0  0  0  0  0  0  0
  147.8655  141.0437  156.4419 C   0  0  0  0  0  0  0  0  0  0  0  0
  147.2956  139.6375  156.1607 C   0  0  0  0  0  0  0  0  0  0  0  0
  146.7494  139.4133  154.7362 C   0  0  0  0  0  0  0  0  0  0  0  0
  147.7077  139.7431  153.5679 C   0  0  0  0  0  0  0  0  0  0  0  0
  149.1254  139.6338  153.9085 N   0  0  0  0  0  0  0  0  0  0  0  0
  149.7817  140.4347  154.7657 C   0  0  0  0  0  0  0  0  0  0  0  0
  150.9815  140.2836  154.9930 O   0  0  0  0  0  0  0  0  0  0  0  0
  152.3230  143.6361  157.0044 H   0  0  0  0  0  0  0  0  0  0  0  0
  150.8598  144.3091  157.6406 H   0  0  0  0  0  0  0  0  0  0  0  0
  153.1017  141.5676  158.3803 H   0  0  0  0  0  0  0  0  0  0  0  0
  153.4385  142.5405  162.5535 H   0  0  0  0  0  0  0  0  0  0  0  0
  151.9287  144.3776  162.2298 H   0  0  0  0  0  0  0  0  0  0  0  0
  149.7873  143.4583  155.8307 H   0  0  0  0  0  0  0  0  0  0  0  0
  148.4855  142.0891  154.6736 H   0  0  0  0  0  0  0  0  0  0  0  0
  148.2509  141.0377  157.4626 H   0  0  0  0  0  0  0  0  0  0  0  0
  147.0504  141.7684  156.4429 H   0  0  0  0  0  0  0  0  0  0  0  0
  148.0600  138.8891  156.3751 H   0  0  0  0  0  0  0  0  0  0  0  0
  146.4975  139.4356  156.8757 H   0  0  0  0  0  0  0  0  0  0  0  0
  146.4606  138.3648  154.6574 H   0  0  0  0  0  0  0  0  0  0  0  0
  145.8268  139.9798  154.6059 H   0  0  0  0  0  0  0  0  0  0  0  0
  147.5022  139.0759  152.7305 H   0  0  0  0  0  0  0  0  0  0  0  0
  147.5060  140.7460  153.1903 H   0  0  0  0  0  0  0  0  0  0  0  0
  149.6500  138.9018  153.4515 H   0  0  0  0  0  0  0  0  0  0  0  0
  1  2  2  0  0  0  0
  2  3  1  0  0  0  0
  2 15  1  0  0  0  0
  3  4  1  0  0  0  0
  3 24  1  0  0  0  0
  3 25  1  0  0  0  0
  4 13  1  0  0  0  0
  4  5  1  0  0  0  0
  5  6  2  0  0  0  0
  5 26  1  0  0  0  0
  6  7  1  0  0  0  0
  6 11  1  0  0  0  0
  7  8  1  0  0  0  0
  7  9  1  0  0  0  0
  7 10  1  0  0  0  0
 11 12  2  0  0  0  0
 11 27  1  0  0  0  0
 12 13  1  0  0  0  0
 12 28  1  0  0  0  0
 13 14  2  0  0  0  0
 15 16  1  0  0  0  0
 15 29  1  0  0  0  0
 16 22  1  0  0  0  0
 16 17  1  0  0  0  0
 16 30  1  0  0  0  0
 17 18  1  0  0  0  0
 17 31  1  0  0  0  0
 17 32  1  0  0  0  0
 18 19  1  0  0  0  0
 18 33  1  0  0  0  0
 18 34  1  0  0  0  0
 19 20  1  0  0  0  0
 19 35  1  0  0  0  0
 19 36  1  0  0  0  0
 20 21  1  0  0  0  0
 20 37  1  0  0  0  0
 20 38  1  0  0  0  0
 21 22  1  0  0  0  0
 21 39  1  0  0  0  0
 22 23  2  0  0  0  0
M  END
> <s_m_source_file>
AV-unprocessed.smi

> <i_m_source_file_index>
1242

> <i_lp_mmshare_version>
43012

> <i_f3d_flags>
0

> <s_epik_input>
Tz1jMVtjSF1bY0hdYyhDKEYpKEYpRilbY0hdbjFbQ0gyXUMoPU8pW05IXVtDQEBIXTJbQ0gyXVtDSDJdW0NIMl1bQ0gyXVtOSF1DMj1P

> <s_epik_cmdline>
J2VwaWtfcHl0aG9uJywgJy1waCcsICc3LjAnLCAnLXRuJywgJzgnLCAnLW1hJywgJzIwMCcsICctbWV0YWxfYmluZGluZycsICctaW1hZScsICc8aW5maWxlLm1hZT4nLCAnLW9tYWUnLCAnPG91dGZpbGUubWFlPic=

> <r_lp_tautomer_probability>
1

> <r_epik_Ionization_Penalty>
6.92876e-08

> <r_epik_Ionization_Penalty_Charging>
1.59659e-08

> <r_epik_Ionization_Penalty_Neutral>
5.33217e-08

> <r_epik_State_Penalty>
-0

> <r_epik_Charging_Adjusted_Penalty>
1.59659e-08

> <i_epik_Tot_Q>
0

> <i_epik_Tot_abs_Q>
0

> <r_epik_Metal_State_Penalty>
-0

> <b_epik_Metal_Only>
0

> <s_lp_Force_Field>
OPLS_2005

> <r_lp_Energy>
26.9049

> <b_lp_Chiralities_Consistent>
1

> <s_lp_Variant>
AV-unprocessed.smi:1242-1

> <Gold.Version>
5.8.1

> <Gold.Id.Protein>
6NUR|6NUR_protein|mol2

> <Gold.PLP.Fitness>
53.3329

> <Gold.PLP.PLP>
-48.1909

> <Gold.PLP.part.hbond>
-2.7868

> <Gold.PLP.part.metal>
0.0000

> <Gold.PLP.part.buried>
-5.0069

> <Gold.PLP.part.nonpolar>
-41.2882

> <Gold.PLP.part.repulsive>
0.4518

> <Gold.PLP.ligand.clash>
0.0000

> <Gold.PLP.ligand.torsion>
0.3883

> <Gold.PLP.Chemscore.Hbond>
1.9440

> <Gold.PLP.Chemscore.CHOScore>
0.0000

> <Gold.PLP.Chemscore.Metal>
0.0000

> <Gold.Chemscore.Hbonds>
donor molecule, donor type, donor heavy atom, donor atom, acceptor molecule, acceptor atom, score
      L1  H    15    29       P1  8028  0.94
      P1  H  7989  7998       L1    23  1.00

> <Gold.PLP.Chemscore.Internal.Correction>
0.0865

> <Gold.Rescore>
     Score         DG    S(hbond)    S(metal)    S(lipo)     H(rot)  DE(clash)    DE(int)     intcor
     12.67     -16.91       1.83        0.00      83.18       1.72       0.05       4.19       ----

> <Gold.Chemscore.Fitness>
12.6699

> <Gold.Chemscore.DG>
-16.9064

> <Gold.Chemscore.ZeroCoef>
-5.4800

> <Gold.Chemscore.Hbond>
1.8266

> <Gold.Chemscore.Metal>
0.0000

> <Gold.Chemscore.Lipo>
83.1777

> <Gold.Chemscore.Internal_Hbond>
0.0000

> <Gold.Chemscore.DEClash>
0.0464

> <Gold.Chemscore.DEInternal>
4.1901

> <Gold.Chemscore.Rot>
1.7212

> <Gold.Chemscore.Internal.Correction>
   9.000000E+99

> <Gold.Chemscore.Hbonds>
donor molecule, donor type, donor heavy atom, donor atom, acceptor molecule, acceptor atom, score
      L1  H    15    29       P1  8028  0.87
      P1  H  7989  7998       L1    23  0.25

> <Gold.Chemscore.Hbond.Weighted>
-6.1009

> <Gold.Chemscore.Metal.Weighted>
-0.0000

> <Gold.Chemscore.Lipo.Weighted>
-9.7318

> <Gold.Chemscore.Internal_Hbond.Weighted>
0.0000

> <Gold.Chemscore.DEClash.Weighted>
0.0464

> <Gold.Chemscore.DEInternal.Weighted>
4.1901

> <Gold.Chemscore.Rot.Weighted>
4.4062

> <Gold.Chemscore.Internal.Correction.Weighted>
   9.000000E+99

> <Gold.Protein.RotatedTorsions>
[ 6907 6896 6895 6894 ] final -172.32 input  -60.11 | X-H torsion
[ 7974 7965 7964 7962 ] final  114.36 input  175.53 | X-H torsion
[ 8008 7997 7996 7995 ] final  -68.38 input   59.86 | X-H torsion
[ 10167 10162 10161 10158 ] final   46.66 input  -65.29 | X-H torsion
[ 10718 10713 10712 10709 ] final  -64.93 input   66.30 | X-H torsion
[ 10763 10752 10751 10750 ] final    8.97 input  -60.55 | X-H torsion
[ 11005 11000 10999 10996 ] final  136.70 input  -57.11 | X-H torsion

> <Gold.Protein.ActiveResidues>
 VAL166  LYS551  ARG553  GLY616  TRP617  ASP618  TYR619  PRO620  LYS621  CYS622 
 ASP623  PHE694  ASN695  SER759  ASP760  ASP761  ALA762  ILE779  LEU786  VAL792 
 PHE793  MET794  SER795  GLU796  ALA797  LYS798  CYS799  TRP800  GLU811  SER814 

> <Gold.Protein.RotatedAtoms>
  151.5382  133.3437  159.2930 H   0  0  0  0  0  0  0  0  0  0  0  0  # atno 6907 bound_to 6896
  150.8552  134.7891  159.7051 H   0  0  0  0  0  0  0  0  0  0  0  0  # atno 6908 bound_to 6896
  152.4587  134.5241  159.9843 H   0  0  0  0  0  0  0  0  0  0  0  0  # atno 6909 bound_to 6896
  145.2054  139.2932  143.4296 H   0  0  0  0  0  0  0  0  0  0  0  0  # atno 7974 bound_to 7965
  154.4864  140.0874  156.7496 H   0  0  0  0  0  0  0  0  0  0  0  0  # atno 8008 bound_to 7997
  155.4339  140.3451  155.4265 H   0  0  0  0  0  0  0  0  0  0  0  0  # atno 8009 bound_to 7997
  156.1267  140.1489  156.9113 H   0  0  0  0  0  0  0  0  0  0  0  0  # atno 8010 bound_to 7997
  140.3116  144.2813  150.6198 H   0  0  0  0  0  0  0  0  0  0  0  0  # atno 10167 bound_to 10162
  156.0699  130.4240  150.1491 H   0  0  0  0  0  0  0  0  0  0  0  0  # atno 10718 bound_to 10713
  153.2191  135.6879  153.8021 H   0  0  0  0  0  0  0  0  0  0  0  0  # atno 10763 bound_to 10752
  153.7226  135.3265  155.3271 H   0  0  0  0  0  0  0  0  0  0  0  0  # atno 10764 bound_to 10752
  154.8261  135.4617  154.1031 H   0  0  0  0  0  0  0  0  0  0  0  0  # atno 10765 bound_to 10752
  140.0064  134.9457  157.0184 H   0  0  0  0  0  0  0  0  0  0  0  0  # atno 11005 bound_to 11000
  146.3409  140.2312  142.8593 LP  0  0  0  0  0  0  0  0  0  0  0  0  # atno 17320 bound_to 7965
  144.9907  140.8544  143.5341 LP  0  0  0  0  0  0  0  0  0  0  0  0  # atno 17321 bound_to 7965
  140.5563  143.2198  151.7842 LP  0  0  0  0  0  0  0  0  0  0  0  0  # atno 17342 bound_to 10162
  139.4892  144.4410  151.9765 LP  0  0  0  0  0  0  0  0  0  0  0  0  # atno 17343 bound_to 10162
  156.9544  130.9785  151.3492 LP  0  0  0  0  0  0  0  0  0  0  0  0  # atno 17370 bound_to 10713
  157.5764  130.8346  149.8462 LP  0  0  0  0  0  0  0  0  0  0  0  0  # atno 17371 bound_to 10713
  140.4634  134.1461  155.7194 LP  0  0  0  0  0  0  0  0  0  0  0  0  # atno 17394 bound_to 11000
  141.1680  133.8665  157.1658 LP  0  0  0  0  0  0  0  0  0  0  0  0  # atno 17395 bound_to 11000

$$$$
