AV-unprocessed.smi:212|AV-procd|sdf|1625|dock6
  -GOLD-   2262019563D 1   1.00000     0.00000
 Structure written by MMmdl.
 65 68  0  0  0  0  0  0  0  0  2 V2000
  149.5403  129.8595  154.5790 C   0  0  0  0  0  0  0  0  0  0  0  0
  148.8585  129.5309  153.2359 C   0  0  2  0  0  0  0  0  0  0  0  0
  147.4753  130.1992  153.0994 C   0  0  0  0  0  0  0  0  0  0  0  0
  146.8764  129.9118  151.7708 N   0  3  2  0  0  0  0  0  0  0  0  0
  145.5977  130.6317  151.5335 C   0  0  0  0  0  0  0  0  0  0  0  0
  145.8222  132.0786  151.0384 C   0  0  0  0  0  0  0  0  0  0  0  0
  144.4815  132.7132  150.6323 C   0  0  0  0  0  0  0  0  0  0  0  0
  146.5332  132.9598  152.0820 C   0  0  0  0  0  0  0  0  0  0  0  0
  146.6227  132.0342  149.8729 O   0  0  0  0  0  0  0  0  0  0  0  0
  146.7894  128.4565  151.4893 C   0  0  0  0  0  0  0  0  0  0  0  0
  148.1574  127.7661  151.6649 C   0  0  0  0  0  0  0  0  0  0  0  0
  148.7811  128.0954  152.9442 N   0  0  0  0  0  0  0  0  0  0  0  0
  148.4719  127.2603  153.9640 C   0  0  0  0  0  0  0  0  0  0  0  0
  149.4282  126.4721  154.5198 N   0  0  0  0  0  0  0  0  0  0  0  0
  149.1095  125.6372  155.5138 C   0  0  0  0  0  0  0  0  0  0  0  0
  147.9201  125.4354  156.0851 N   0  0  0  0  0  0  0  0  0  0  0  0
  146.9592  126.2248  155.5251 C   0  0  0  0  0  0  0  0  0  0  0  0
  147.1506  127.1615  154.4720 C   0  0  0  0  0  0  0  0  0  0  0  0
  145.9507  127.7880  154.1628 N   0  0  0  0  0  0  0  0  0  0  0  0
  145.0934  127.2498  154.9871 C   0  0  0  0  0  0  0  0  0  0  0  0
  145.6091  126.2858  155.8249 N   0  0  0  0  0  0  0  0  0  0  0  0
  144.8780  125.5313  156.8257 C   0  0  0  0  0  0  0  0  0  0  0  0
  145.1817  124.0063  156.8302 C   0  0  2  0  0  0  0  0  0  0  0  0
  145.5472  123.5383  155.4040 C   0  0  0  0  0  0  0  0  0  0  0  0
  146.0138  122.2044  155.4076 O   0  0  0  0  0  0  0  0  0  0  0  0
  144.0783  123.0779  157.4204 C   0  0  1  0  0  0  0  0  0  0  0  0
  143.3655  123.5249  158.6846 C   0  0  0  0  0  0  0  0  0  0  0  0
  142.2009  122.5409  158.7379 C   0  0  0  0  0  0  0  0  0  0  0  0
  141.8795  122.2404  157.3815 O   0  0  0  0  0  0  0  0  0  0  0  0
  142.8994  122.7237  156.5110 C   0  0  0  0  0  0  0  0  0  0  0  0
  149.6722  130.9355  154.6934 H   0  0  0  0  0  0  0  0  0  0  0  0
  150.5279  129.4015  154.6412 H   0  0  0  0  0  0  0  0  0  0  0  0
  148.9544  129.5121  155.4309 H   0  0  0  0  0  0  0  0  0  0  0  0
  149.4975  129.9509  152.4578 H   0  0  0  0  0  0  0  0  0  0  0  0
  146.8021  129.8567  153.8865 H   0  0  0  0  0  0  0  0  0  0  0  0
  147.5780  131.2783  153.2212 H   0  0  0  0  0  0  0  0  0  0  0  0
  144.9919  130.0891  150.8051 H   0  0  0  0  0  0  0  0  0  0  0  0
  145.0006  130.6466  152.4469 H   0  0  0  0  0  0  0  0  0  0  0  0
  143.8048  132.7832  151.4846 H   0  0  0  0  0  0  0  0  0  0  0  0
  143.9792  132.1268  149.8616 H   0  0  0  0  0  0  0  0  0  0  0  0
  144.6191  133.7214  150.2394 H   0  0  0  0  0  0  0  0  0  0  0  0
  145.9630  133.0070  153.0103 H   0  0  0  0  0  0  0  0  0  0  0  0
  146.6548  133.9814  151.7198 H   0  0  0  0  0  0  0  0  0  0  0  0
  147.5277  132.5836  152.3242 H   0  0  0  0  0  0  0  0  0  0  0  0
  147.2809  131.3644  149.9838 H   0  0  0  0  0  0  0  0  0  0  0  0
  146.0466  128.0056  152.1480 H   0  0  0  0  0  0  0  0  0  0  0  0
  146.4352  128.3031  150.4694 H   0  0  0  0  0  0  0  0  0  0  0  0
  148.0512  126.6851  151.5604 H   0  0  0  0  0  0  0  0  0  0  0  0
  148.8328  128.0858  150.8705 H   0  0  0  0  0  0  0  0  0  0  0  0
  149.9219  125.0433  155.9060 H   0  0  0  0  0  0  0  0  0  0  0  0
  144.0508  127.5333  154.9987 H   0  0  0  0  0  0  0  0  0  0  0  0
  145.0624  125.9654  157.8082 H   0  0  0  0  0  0  0  0  0  0  0  0
  143.8191  125.7000  156.6277 H   0  0  0  0  0  0  0  0  0  0  0  0
  146.0703  123.8478  157.4427 H   0  0  0  0  0  0  0  0  0  0  0  0
  144.6778  123.5744  154.7470 H   0  0  0  0  0  0  0  0  0  0  0  0
  146.3062  124.1863  154.9648 H   0  0  0  0  0  0  0  0  0  0  0  0
  146.9162  122.2016  155.6893 H   0  0  0  0  0  0  0  0  0  0  0  0
  144.5616  122.1370  157.6894 H   0  0  0  0  0  0  0  0  0  0  0  0
  143.9982  123.4795  159.5715 H   0  0  0  0  0  0  0  0  0  0  0  0
  142.9669  124.5320  158.6058 H   0  0  0  0  0  0  0  0  0  0  0  0
  142.5052  121.6185  159.2339 H   0  0  0  0  0  0  0  0  0  0  0  0
  141.3401  122.9438  159.2722 H   0  0  0  0  0  0  0  0  0  0  0  0
  142.5054  123.5981  155.9968 H   0  0  0  0  0  0  0  0  0  0  0  0
  143.1626  121.9805  155.7582 H   0  0  0  0  0  0  0  0  0  0  0  0
  147.5237  130.2805  151.0885 H   0  0  0  0  0  0  0  0  0  0  0  0
  1  2  1  0  0  0  0
  1 31  1  0  0  0  0
  1 32  1  0  0  0  0
  1 33  1  0  0  0  0
  2 12  1  0  0  0  0
  2  3  1  0  0  0  0
  2 34  1  0  0  0  0
  3  4  1  0  0  0  0
  3 35  1  0  0  0  0
  3 36  1  0  0  0  0
  4  5  1  0  0  0  0
  4 10  1  0  0  0  0
  4 65  1  0  0  0  0
  5  6  1  0  0  0  0
  5 37  1  0  0  0  0
  5 38  1  0  0  0  0
  6  7  1  0  0  0  0
  6  8  1  0  0  0  0
  6  9  1  0  0  0  0
  7 39  1  0  0  0  0
  7 40  1  0  0  0  0
  7 41  1  0  0  0  0
  8 42  1  0  0  0  0
  8 43  1  0  0  0  0
  8 44  1  0  0  0  0
  9 45  1  0  0  0  0
 10 11  1  0  0  0  0
 10 46  1  0  0  0  0
 10 47  1  0  0  0  0
 11 12  1  0  0  0  0
 11 48  1  0  0  0  0
 11 49  1  0  0  0  0
 12 13  1  0  0  0  0
 13 18  1  0  0  0  0
 13 14  2  0  0  0  0
 14 15  1  0  0  0  0
 15 16  2  0  0  0  0
 15 50  1  0  0  0  0
 16 17  1  0  0  0  0
 17 21  1  0  0  0  0
 17 18  2  0  0  0  0
 18 19  1  0  0  0  0
 19 20  2  0  0  0  0
 20 21  1  0  0  0  0
 20 51  1  0  0  0  0
 21 22  1  0  0  0  0
 22 23  1  0  0  0  0
 22 52  1  0  0  0  0
 22 53  1  0  0  0  0
 23 24  1  0  0  0  0
 23 26  1  0  0  0  0
 23 54  1  0  0  0  0
 24 25  1  0  0  0  0
 24 55  1  0  0  0  0
 24 56  1  0  0  0  0
 25 57  1  0  0  0  0
 26 30  1  0  0  0  0
 26 27  1  0  0  0  0
 26 58  1  0  0  0  0
 27 28  1  0  0  0  0
 27 59  1  0  0  0  0
 27 60  1  0  0  0  0
 28 29  1  0  0  0  0
 28 61  1  0  0  0  0
 28 62  1  0  0  0  0
 29 30  1  0  0  0  0
 30 63  1  0  0  0  0
 30 64  1  0  0  0  0
M  CHG  1   4   1
M  END
> <s_m_source_file>
AV-unprocessed.smi

> <i_m_source_file_index>
212

> <i_lp_mmshare_version>
43012

> <i_f3d_flags>
0

> <s_epik_input>
W0NIM11bQ0BASF0xW0NIMl1OKFtDSDJdQyhbQ0gzXSkoW0NIM10pW09IXSlbQ0gyXVtDSDJdTjFjKG5bY0hdbjIpYyhjMjMpbltjSF1uM1tDSDJdW0NASF0oW0NIMl1bT0hdKVtDQEBIXTRbQ0gyXVtDSDJdT1tDSDJdNA==

> <s_epik_cmdline>
J2VwaWtfcHl0aG9uJywgJy1waCcsICc3LjAnLCAnLXRuJywgJzgnLCAnLW1hJywgJzIwMCcsICctbWV0YWxfYmluZGluZycsICctaW1hZScsICc8aW5maWxlLm1hZT4nLCAnLW9tYWUnLCAnPG91dGZpbGUubWFlPic=

> <r_lp_tautomer_probability>
1

> <r_epik_Ionization_Penalty>
0.00182193

> <r_epik_Ionization_Penalty_Charging>
0.00173996

> <r_epik_Ionization_Penalty_Neutral>
8.19718e-05

> <r_epik_State_Penalty>
-0

> <r_epik_Charging_Adjusted_Penalty>
0.00173996

> <i_epik_Tot_Q>
1

> <i_epik_Tot_abs_Q>
1

> <r_epik_Metal_State_Penalty>
-0

> <b_epik_Metal_Only>
0

> <s_lp_Force_Field>
OPLS_2005

> <r_lp_Energy>
61.8926

> <b_lp_Chiralities_Consistent>
1

> <s_lp_Variant>
AV-unprocessed.smi:212-9

> <Gold.Version>
5.8.1

> <Gold.Id.Protein>
6NUR|6NUR_protein|mol2

> <Gold.PLP.Fitness>
47.7820

> <Gold.PLP.PLP>
-40.9673

> <Gold.PLP.part.hbond>
-2.0000

> <Gold.PLP.part.metal>
0.0000

> <Gold.PLP.part.buried>
-6.4354

> <Gold.PLP.part.nonpolar>
-32.5558

> <Gold.PLP.part.repulsive>
0.4221

> <Gold.PLP.ligand.clash>
0.0000

> <Gold.PLP.ligand.torsion>
1.3319

> <Gold.PLP.Chemscore.Hbond>
1.9920

> <Gold.PLP.Chemscore.CHOScore>
0.8154

> <Gold.PLP.Chemscore.Metal>
0.0000

> <Gold.Chemscore.Hbonds>
donor molecule, donor type, donor heavy atom, donor atom, acceptor molecule, acceptor atom, score
      L1  H     4    65       P1 10747  1.00
      L1  H     9    45       P1 10747  1.00
      L1  C    20    51       P1 10956  0.95

> <Gold.PLP.Chemscore.Internal.Correction>
1.0565

> <Gold.Rescore>
     Score         DG    S(hbond)    S(metal)    S(lipo)     H(rot)  DE(clash)    DE(int)     intcor
      9.71     -13.72       1.92        0.00      96.20       3.68       0.40       3.61       ----

> <Gold.Chemscore.Fitness>
9.7096

> <Gold.Chemscore.DG>
-13.7204

> <Gold.Chemscore.ZeroCoef>
-5.4800

> <Gold.Chemscore.Hbond>
1.9188

> <Gold.Chemscore.Metal>
0.0000

> <Gold.Chemscore.Lipo>
96.1997

> <Gold.Chemscore.Internal_Hbond>
0.0000

> <Gold.Chemscore.DEClash>
0.3993

> <Gold.Chemscore.DEInternal>
3.6115

> <Gold.Chemscore.Rot>
3.6812

> <Gold.Chemscore.Internal.Correction>
   9.000000E+99

> <Gold.Chemscore.Hbonds>
donor molecule, donor type, donor heavy atom, donor atom, acceptor molecule, acceptor atom, score
      L1  H     4    65       P1 10747  1.00
      L1  H     9    45       P1 10747  0.96

> <Gold.Chemscore.Hbond.Weighted>
-6.4089

> <Gold.Chemscore.Metal.Weighted>
-0.0000

> <Gold.Chemscore.Lipo.Weighted>
-11.2554

> <Gold.Chemscore.Internal_Hbond.Weighted>
0.0000

> <Gold.Chemscore.DEClash.Weighted>
0.3993

> <Gold.Chemscore.DEInternal.Weighted>
3.6115

> <Gold.Chemscore.Rot.Weighted>
9.4239

> <Gold.Chemscore.Internal.Correction.Weighted>
   9.000000E+99

> <Gold.Protein.RotatedTorsions>
[ 6907 6896 6895 6894 ] final    2.22 input  -60.11 | X-H torsion
[ 7974 7965 7964 7962 ] final  -10.93 input  175.53 | X-H torsion
[ 8008 7997 7996 7995 ] final   82.40 input   59.86 | X-H torsion
[ 10167 10162 10161 10158 ] final  -64.86 input  -65.29 | X-H torsion
[ 10718 10713 10712 10709 ] final   37.25 input   66.30 | X-H torsion
[ 10763 10752 10751 10750 ] final  121.01 input  -60.55 | X-H torsion
[ 11005 11000 10999 10996 ] final -155.54 input  -57.11 | X-H torsion

> <Gold.Protein.ActiveResidues>
 VAL166  LYS551  ARG553  GLY616  TRP617  ASP618  TYR619  PRO620  LYS621  CYS622 
 ASP623  PHE694  ASN695  SER759  ASP760  ASP761  ALA762  ILE779  LEU786  VAL792 
 PHE793  MET794  SER795  GLU796  ALA797  LYS798  CYS799  TRP800  GLU811  SER814 

> <Gold.Protein.RotatedAtoms>
  151.6054  135.1044  160.0069 H   0  0  0  0  0  0  0  0  0  0  0  0  # atno 6907 bound_to 6896
  152.4236  133.7153  159.6513 H   0  0  0  0  0  0  0  0  0  0  0  0  # atno 6908 bound_to 6896
  150.8124  133.8325  159.3198 H   0  0  0  0  0  0  0  0  0  0  0  0  # atno 6909 bound_to 6896
  146.2204  140.2836  142.8364 H   0  0  0  0  0  0  0  0  0  0  0  0  # atno 7974 bound_to 7965
  155.9101  140.3428  155.6092 H   0  0  0  0  0  0  0  0  0  0  0  0  # atno 8008 bound_to 7997
  155.7397  140.0806  157.2270 H   0  0  0  0  0  0  0  0  0  0  0  0  # atno 8009 bound_to 7997
  154.4054  140.1573  156.2590 H   0  0  0  0  0  0  0  0  0  0  0  0  # atno 8010 bound_to 7997
  140.5771  143.2323  151.6419 H   0  0  0  0  0  0  0  0  0  0  0  0  # atno 10167 bound_to 10162
  157.3447  130.7566  149.6936 H   0  0  0  0  0  0  0  0  0  0  0  0  # atno 10718 bound_to 10713
  153.6075  135.3436  155.2967 H   0  0  0  0  0  0  0  0  0  0  0  0  # atno 10763 bound_to 10752
  154.8625  135.4242  154.2346 H   0  0  0  0  0  0  0  0  0  0  0  0  # atno 10764 bound_to 10752
  153.3189  135.7037  153.7120 H   0  0  0  0  0  0  0  0  0  0  0  0  # atno 10765 bound_to 10752
  140.6853  134.4100  157.5223 H   0  0  0  0  0  0  0  0  0  0  0  0  # atno 11005 bound_to 11000
  144.9178  140.7833  143.5767 LP  0  0  0  0  0  0  0  0  0  0  0  0  # atno 17320 bound_to 7965
  145.2771  139.1932  143.4811 LP  0  0  0  0  0  0  0  0  0  0  0  0  # atno 17321 bound_to 7965
  139.5149  144.3397  152.0752 LP  0  0  0  0  0  0  0  0  0  0  0  0  # atno 17342 bound_to 10162
  140.2542  144.4137  150.6210 LP  0  0  0  0  0  0  0  0  0  0  0  0  # atno 17343 bound_to 10162
  155.9712  130.4157  150.4197 LP  0  0  0  0  0  0  0  0  0  0  0  0  # atno 17370 bound_to 10713
  157.2250  131.0491  151.2525 LP  0  0  0  0  0  0  0  0  0  0  0  0  # atno 17371 bound_to 10713
  139.8939  134.8719  156.2201 LP  0  0  0  0  0  0  0  0  0  0  0  0  # atno 17394 bound_to 11000
  141.0284  133.7002  156.1388 LP  0  0  0  0  0  0  0  0  0  0  0  0  # atno 17395 bound_to 11000

$$$$
