AV-unprocessed.smi:1957|AV-procd|sdf|7905|dock6
  -GOLD-   2272010 63D 1   1.00000     0.00000
 Structure written by MMmdl.
 42 43  0  0  0  0  0  0  0  0  1 V2000
  151.9037  140.0321  156.0747 C   0  0  0  0  0  0  0  0  0  0  0  0
  151.6931  139.8894  154.6809 O   0  0  0  0  0  0  0  0  0  0  0  0
  151.0932  138.6491  154.3477 C   0  0  0  0  0  0  0  0  0  0  0  0
  149.7209  138.5621  155.0324 C   0  0  0  0  0  0  0  0  0  0  0  0
  148.6491  139.0372  154.1518 N   0  0  0  0  0  0  0  0  0  0  0  0
  147.7329  138.0599  153.7999 N   0  0  0  0  0  0  0  0  0  0  0  0
  146.7313  138.3528  153.0348 C   0  0  0  0  0  0  0  0  0  0  0  0
  145.7223  137.3327  152.6371 C   0  0  0  0  0  0  0  0  0  0  0  0
  144.5141  137.5149  152.7962 O   0  0  0  0  0  0  0  0  0  0  0  0
  146.2256  136.2043  152.1026 N   0  0  0  0  0  0  0  0  0  0  0  0
  145.4463  135.0371  151.6843 C   0  0  1  0  0  0  0  0  0  0  0  0
  146.4450  133.9494  151.2269 C   0  0  0  0  0  0  0  0  0  0  0  0
  145.8296  132.8990  150.2857 C   0  0  0  0  0  0  0  0  0  0  0  0
  144.7387  132.0206  150.9172 C   0  0  0  0  0  0  0  0  0  0  0  0
  143.5008  132.8083  151.3794 C   0  0  0  0  0  0  0  0  0  0  0  0
  143.7320  133.5028  152.6392 N   0  0  0  0  0  0  0  0  0  0  0  0
  144.6090  134.4923  152.8656 C   0  0  0  0  0  0  0  0  0  0  0  0
  144.7454  134.9533  153.9991 O   0  0  0  0  0  0  0  0  0  0  0  0
  146.5497  139.7040  152.5313 C   0  0  0  0  0  0  0  0  0  0  0  0
  147.4500  140.6470  152.8854 C   0  0  0  0  0  0  0  0  0  0  0  0
  148.5895  140.3434  153.7527 C   0  0  0  0  0  0  0  0  0  0  0  0
  149.4176  141.1864  154.0956 O   0  0  0  0  0  0  0  0  0  0  0  0
  152.3579  141.0015  156.2792 H   0  0  0  0  0  0  0  0  0  0  0  0
  152.5744  139.2594  156.4525 H   0  0  0  0  0  0  0  0  0  0  0  0
  150.9628  139.9787  156.6240 H   0  0  0  0  0  0  0  0  0  0  0  0
  150.9777  138.5688  153.2654 H   0  0  0  0  0  0  0  0  0  0  0  0
  151.7347  137.8285  154.6724 H   0  0  0  0  0  0  0  0  0  0  0  0
  149.5254  137.5369  155.3516 H   0  0  0  0  0  0  0  0  0  0  0  0
  149.7371  139.1533  155.9500 H   0  0  0  0  0  0  0  0  0  0  0  0
  147.2290  136.1352  152.0115 H   0  0  0  0  0  0  0  0  0  0  0  0
  144.7922  135.3193  150.8572 H   0  0  0  0  0  0  0  0  0  0  0  0
  147.2615  134.4251  150.6810 H   0  0  0  0  0  0  0  0  0  0  0  0
  146.9139  133.4619  152.0836 H   0  0  0  0  0  0  0  0  0  0  0  0
  145.4263  133.3972  149.4032 H   0  0  0  0  0  0  0  0  0  0  0  0
  146.6270  132.2509  149.9205 H   0  0  0  0  0  0  0  0  0  0  0  0
  144.4226  131.2879  150.1740 H   0  0  0  0  0  0  0  0  0  0  0  0
  145.1510  131.4447  151.7469 H   0  0  0  0  0  0  0  0  0  0  0  0
  143.1654  133.5071  150.6117 H   0  0  0  0  0  0  0  0  0  0  0  0
  142.6760  132.1145  151.5438 H   0  0  0  0  0  0  0  0  0  0  0  0
  143.1946  133.1790  153.4305 H   0  0  0  0  0  0  0  0  0  0  0  0
  145.7179  139.9566  151.8899 H   0  0  0  0  0  0  0  0  0  0  0  0
  147.3266  141.6556  152.5192 H   0  0  0  0  0  0  0  0  0  0  0  0
  1  2  1  0  0  0  0
  1 23  1  0  0  0  0
  1 24  1  0  0  0  0
  1 25  1  0  0  0  0
  2  3  1  0  0  0  0
  3  4  1  0  0  0  0
  3 26  1  0  0  0  0
  3 27  1  0  0  0  0
  4  5  1  0  0  0  0
  4 28  1  0  0  0  0
  4 29  1  0  0  0  0
  5 21  1  0  0  0  0
  5  6  1  0  0  0  0
  6  7  2  0  0  0  0
  7  8  1  0  0  0  0
  7 19  1  0  0  0  0
  8  9  2  0  0  0  0
  8 10  1  0  0  0  0
 10 11  1  0  0  0  0
 10 30  1  0  0  0  0
 11 17  1  0  0  0  0
 11 12  1  0  0  0  0
 11 31  1  0  0  0  0
 12 13  1  0  0  0  0
 12 32  1  0  0  0  0
 12 33  1  0  0  0  0
 13 14  1  0  0  0  0
 13 34  1  0  0  0  0
 13 35  1  0  0  0  0
 14 15  1  0  0  0  0
 14 36  1  0  0  0  0
 14 37  1  0  0  0  0
 15 16  1  0  0  0  0
 15 38  1  0  0  0  0
 15 39  1  0  0  0  0
 16 17  1  0  0  0  0
 16 40  1  0  0  0  0
 17 18  2  0  0  0  0
 19 20  2  0  0  0  0
 19 41  1  0  0  0  0
 20 21  1  0  0  0  0
 20 42  1  0  0  0  0
 21 22  2  0  0  0  0
M  END
> <s_m_source_file>
AV-unprocessed.smi

> <i_m_source_file_index>
1957

> <i_lp_mmshare_version>
43012

> <i_f3d_flags>
0

> <s_epik_input>
W0NIM11PW0NIMl1bQ0gyXW4xbmMoW2NIXVtjSF1jMT1PKUMoPU8pW05IXVtDQEBIXTJbQ0gyXVtDSDJdW0NIMl1bQ0gyXVtOSF1DMj1P

> <s_epik_cmdline>
J2VwaWtfcHl0aG9uJywgJy1waCcsICc3LjAnLCAnLXRuJywgJzgnLCAnLW1hJywgJzIwMCcsICctbWV0YWxfYmluZGluZycsICctaW1hZScsICc8aW5maWxlLm1hZT4nLCAnLW9tYWUnLCAnPG91dGZpbGUubWFlPic=

> <r_lp_tautomer_probability>
1

> <r_epik_Ionization_Penalty>
2.17512e-06

> <r_epik_Ionization_Penalty_Charging>
5.0222e-09

> <r_epik_Ionization_Penalty_Neutral>
2.1701e-06

> <r_epik_State_Penalty>
-0

> <r_epik_Charging_Adjusted_Penalty>
5.0222e-09

> <i_epik_Tot_Q>
0

> <i_epik_Tot_abs_Q>
0

> <r_epik_Metal_State_Penalty>
-0

> <b_epik_Metal_Only>
0

> <s_lp_Force_Field>
OPLS_2005

> <r_lp_Energy>
29.6922

> <b_lp_Chiralities_Consistent>
1

> <s_lp_Variant>
AV-unprocessed.smi:1957-2

> <Gold.Version>
5.8.1

> <Gold.Id.Protein>
6NUR|6NUR_protein|mol2

> <Gold.PLP.Fitness>
41.6925

> <Gold.PLP.PLP>
-33.6448

> <Gold.PLP.part.hbond>
-4.8426

> <Gold.PLP.part.metal>
0.0000

> <Gold.PLP.part.buried>
0.0174

> <Gold.PLP.part.nonpolar>
-30.8650

> <Gold.PLP.part.repulsive>
2.3652

> <Gold.PLP.ligand.clash>
0.0000

> <Gold.PLP.ligand.torsion>
1.1949

> <Gold.PLP.Chemscore.Hbond>
3.4754

> <Gold.PLP.Chemscore.CHOScore>
0.0000

> <Gold.PLP.Chemscore.Metal>
0.0000

> <Gold.Chemscore.Hbonds>
donor molecule, donor type, donor heavy atom, donor atom, acceptor molecule, acceptor atom, score
      L1  H    10    30       P1  7948  1.00
      L1  H    16    40       P1 10957  1.00
      P1  H  7989  7998       L1     2  0.99
      P1  H  8011  8017       L1    22  0.50

> <Gold.PLP.Chemscore.Internal.Correction>
0.0113

> <Gold.Rescore>
     Score         DG    S(hbond)    S(metal)    S(lipo)     H(rot)  DE(clash)    DE(int)     intcor
     11.14     -19.57       2.92        0.00      75.89       1.78       1.64       6.79       ----

> <Gold.Chemscore.Fitness>
11.1359

> <Gold.Chemscore.DG>
-19.5660

> <Gold.Chemscore.ZeroCoef>
-5.4800

> <Gold.Chemscore.Hbond>
2.9224

> <Gold.Chemscore.Metal>
0.0000

> <Gold.Chemscore.Lipo>
75.8941

> <Gold.Chemscore.Internal_Hbond>
0.0000

> <Gold.Chemscore.DEClash>
1.6397

> <Gold.Chemscore.DEInternal>
6.7904

> <Gold.Chemscore.Rot>
1.7791

> <Gold.Chemscore.Internal.Correction>
   9.000000E+99

> <Gold.Chemscore.Hbonds>
donor molecule, donor type, donor heavy atom, donor atom, acceptor molecule, acceptor atom, score
      L1  H    10    30       P1  7948  1.00
      L1  H    16    40       P1 10957  0.86
      P1  H  7989  7998       L1     2  0.71
      P1  H  8011  8017       L1    22  0.27

> <Gold.Chemscore.Hbond.Weighted>
-9.7608

> <Gold.Chemscore.Metal.Weighted>
-0.0000

> <Gold.Chemscore.Lipo.Weighted>
-8.8796

> <Gold.Chemscore.Internal_Hbond.Weighted>
0.0000

> <Gold.Chemscore.DEClash.Weighted>
1.6397

> <Gold.Chemscore.DEInternal.Weighted>
6.7904

> <Gold.Chemscore.Rot.Weighted>
4.5544

> <Gold.Chemscore.Internal.Correction.Weighted>
   9.000000E+99

> <Gold.Protein.RotatedTorsions>
[ 6907 6896 6895 6894 ] final   97.11 input  -60.11 | X-H torsion
[ 7974 7965 7964 7962 ] final  155.39 input  175.53 | X-H torsion
[ 8008 7997 7996 7995 ] final -129.20 input   59.86 | X-H torsion
[ 10167 10162 10161 10158 ] final   59.77 input  -65.29 | X-H torsion
[ 10718 10713 10712 10709 ] final -132.86 input   66.30 | X-H torsion
[ 10763 10752 10751 10750 ] final  166.10 input  -60.55 | X-H torsion
[ 11005 11000 10999 10996 ] final  -61.29 input  -57.11 | X-H torsion

> <Gold.Protein.ActiveResidues>
 VAL166  LYS551  ARG553  GLY616  TRP617  ASP618  TYR619  PRO620  LYS621  CYS622 
 ASP623  PHE694  ASN695  SER759  ASP760  ASP761  ALA762  ILE779  LEU786  VAL792 
 PHE793  MET794  SER795  GLU796  ALA797  LYS798  CYS799  TRP800  GLU811  SER814 

> <Gold.Protein.RotatedAtoms>
  152.5427  134.0783  159.8224 H   0  0  0  0  0  0  0  0  0  0  0  0  # atno 6907 bound_to 6896
  151.0888  133.5324  159.2623 H   0  0  0  0  0  0  0  0  0  0  0  0  # atno 6908 bound_to 6896
  151.2123  135.0495  159.8970 H   0  0  0  0  0  0  0  0  0  0  0  0  # atno 6909 bound_to 6896
  144.8028  139.7062  143.6175 H   0  0  0  0  0  0  0  0  0  0  0  0  # atno 7974 bound_to 7965
  155.2752  140.0441  157.3010 H   0  0  0  0  0  0  0  0  0  0  0  0  # atno 8008 bound_to 7997
  154.5629  140.2351  155.8276 H   0  0  0  0  0  0  0  0  0  0  0  0  # atno 8009 bound_to 7997
  156.2062  140.3012  155.9639 H   0  0  0  0  0  0  0  0  0  0  0  0  # atno 8010 bound_to 7997
  140.1729  144.4259  150.6653 H   0  0  0  0  0  0  0  0  0  0  0  0  # atno 10167 bound_to 10162
  156.2389  130.7084  151.0937 H   0  0  0  0  0  0  0  0  0  0  0  0  # atno 10718 bound_to 10713
  154.3339  135.2754  155.2458 H   0  0  0  0  0  0  0  0  0  0  0  0  # atno 10763 bound_to 10752
  154.4758  135.5871  153.6357 H   0  0  0  0  0  0  0  0  0  0  0  0  # atno 10764 bound_to 10752
  152.9864  135.6099  154.3534 H   0  0  0  0  0  0  0  0  0  0  0  0  # atno 10765 bound_to 10752
  141.1319  133.6629  156.5353 H   0  0  0  0  0  0  0  0  0  0  0  0  # atno 11005 bound_to 11000
  146.2313  139.5819  142.9553 LP  0  0  0  0  0  0  0  0  0  0  0  0  # atno 17320 bound_to 7965
  145.5511  141.0413  143.2277 LP  0  0  0  0  0  0  0  0  0  0  0  0  # atno 17321 bound_to 7965
  140.6570  143.2240  151.5944 LP  0  0  0  0  0  0  0  0  0  0  0  0  # atno 17342 bound_to 10162
  139.5330  144.2861  152.1190 LP  0  0  0  0  0  0  0  0  0  0  0  0  # atno 17343 bound_to 10162
  157.7167  131.0706  150.6300 LP  0  0  0  0  0  0  0  0  0  0  0  0  # atno 17370 bound_to 10713
  156.6372  130.4448  149.5765 LP  0  0  0  0  0  0  0  0  0  0  0  0  # atno 17371 bound_to 10713
  140.4183  134.7210  157.4875 LP  0  0  0  0  0  0  0  0  0  0  0  0  # atno 17394 bound_to 11000
  140.0378  134.6312  155.9021 LP  0  0  0  0  0  0  0  0  0  0  0  0  # atno 17395 bound_to 11000

$$$$
