#       Name:                AV-unprocessed.smi:3014
#       Creating user name   scv26
#       Creation time:       Fri Mar 27 16:40:17 2020


#       File generated by GOLD software.
#

@<TRIPOS>MOLECULE
AV-unprocessed.smi:3014
    51    52     1
SMALL
NO_CHARGES


@<TRIPOS>ATOM
      1 ****        -3.6675   2.4499   2.5650 C.3            1 S1                 0.0000
      2 ****        -3.2299   1.8231   1.2336 C.3            1 S1                 0.0000
      3 ****        -3.6308   2.7083   0.0378 C.3            1 S1                 0.0000
      4 ****        -3.2061   2.0811  -1.2993 C.3            1 S1                 0.0000
      5 ****        -3.7696   0.6588  -1.4541 C.3            1 S1                 0.0000
      6 ****        -3.3743  -0.2427  -0.2714 C.3            1 S1                 0.0000
      7 ****        -1.9654  -0.4281  -0.3252 O.3            1 S1                 0.0000
      8 ****        -1.4863  -1.5867   0.3470 C.3            1 S1                 0.0000
      9 ****         0.0417  -1.6359   0.2685 C.2            1 S1                 0.0000
     10 ****         0.6538  -2.3768   1.0375 O.2            1 S1                 0.0000
     11 ****         0.6222  -0.8581  -0.6657 N.am           1 S1                 0.0000
     12 ****         2.0047  -0.6863  -0.9324 C.ar           1 S1                 0.0000
     13 ****         2.3228   0.1955  -1.9875 C.ar           1 S1                 0.0000
     14 ****         3.6883   0.3896  -2.2710 C.ar           1 S1                 0.0000
     15 ****         4.6554  -0.2346  -1.5683 N.ar           1 S1                 0.0000
     16 ****         4.2682  -1.0532  -0.5826 C.ar           1 S1                 0.0000
     17 ****         5.2671  -1.6983   0.1519 N.pl3          1 S1                 0.0000
     18 ****         4.9322  -2.6075   1.2444 C.3            1 S1                 0.0000
     19 ****         6.6810  -1.4649  -0.1271 C.3            1 S1                 0.0000
     20 ****         2.9967  -1.3006  -0.2428 N.ar           1 S1                 0.0000
     21 ****        -3.7999   0.3999   1.0665 C.3            1 S1                 0.0000
     22 ****        -4.7519   2.5513   2.6182 H              1 S1                 0.0000
     23 ****        -3.2337   3.4421   2.6926 H              1 S1                 0.0000
     24 ****        -3.3477   1.8401   3.4103 H              1 S1                 0.0000
     25 ****        -2.1413   1.7510   1.2496 H              1 S1                 0.0000
     26 ****        -4.7108   2.8615   0.0387 H              1 S1                 0.0000
     27 ****        -3.1791   3.6960   0.1365 H              1 S1                 0.0000
     28 ****        -3.5450   2.7060  -2.1259 H              1 S1                 0.0000
     29 ****        -2.1175   2.0542  -1.3611 H              1 S1                 0.0000
     30 ****        -4.8570   0.7088  -1.5231 H              1 S1                 0.0000
     31 ****        -3.4233   0.2204  -2.3906 H              1 S1                 0.0000
     32 ****        -3.8726  -1.2059  -0.3945 H              1 S1                 0.0000
     33 ****        -1.7818  -1.5829   1.3961 H              1 S1                 0.0000
     34 ****        -1.8956  -2.4872  -0.1125 H              1 S1                 0.0000
     35 ****        -0.0054  -0.3140  -1.2397 H              1 S1                 0.0000
     36 ****         1.5582   0.7034  -2.5569 H              1 S1                 0.0000
     37 ****         4.0051   1.0497  -3.0647 H              1 S1                 0.0000
     38 ****         4.2919  -3.4147   0.8866 H              1 S1                 0.0000
     39 ****         4.4021  -2.0727   2.0331 H              1 S1                 0.0000
     40 ****         5.8202  -3.0600   1.6858 H              1 S1                 0.0000
     41 ****         6.9183  -0.4051  -0.0282 H              1 S1                 0.0000
     42 ****         6.9246  -1.7787  -1.1426 H              1 S1                 0.0000
     43 ****         7.3279  -2.0147   0.5566 H              1 S1                 0.0000
     44 ****        -3.4987  -0.2248   1.9069 H              1 S1                 0.0000
     45 ****        -4.8892   0.4428   1.1060 H              1 S1                 0.0000
     46 ****        -1.5311   0.3723   0.0879 LP             1 S1                 0.0000
     47 ****        -1.6975  -0.4938  -1.2864 LP             1 S1                 0.0000
     48 ****         0.1528  -2.9341   1.6996 LP             1 S1                 0.0000
     49 ****         1.6521  -2.4215   1.0001 LP             1 S1                 0.0000
     50 ****         5.6232  -0.0916  -1.7754 LP             1 S1                 0.0000
     51 ****         2.7829  -1.9274   0.5064 LP             1 S1                 0.0000
@<TRIPOS>BOND
    1    1    2 1     
    2    1   22 1     
    3    1   23 1     
    4    1   24 1     
    5    2   21 1     
    6    2    3 1     
    7    2   25 1     
    8    3    4 1     
    9    3   26 1     
   10    3   27 1     
   11    4    5 1     
   12    4   28 1     
   13    4   29 1     
   14    5    6 1     
   15    5   30 1     
   16    5   31 1     
   17    6    7 1     
   18    6   21 1     
   19    6   32 1     
   20    7    8 1     
   21    8    9 1     
   22    8   33 1     
   23    8   34 1     
   24    9   10 2     
   25    9   11 am    
   26   11   12 1     
   27   11   35 1     
   28   12   20 ar    
   29   12   13 ar    
   30   13   14 ar    
   31   13   36 1     
   32   14   15 ar    
   33   14   37 1     
   34   15   16 ar    
   35   16   17 1     
   36   16   20 ar    
   37   17   18 1     
   38   17   19 1     
   39   18   38 1     
   40   18   39 1     
   41   18   40 1     
   42   19   41 1     
   43   19   42 1     
   44   19   43 1     
   45   21   44 1     
   46   21   45 1     
   47    7   46 1     
   48    7   47 1     
   49   10   48 1     
   50   10   49 1     
   51   15   50 1     
   52   20   51 1     
@<TRIPOS>SUBSTRUCTURE
      1 S1             1
@<TRIPOS>SET
LONE_PAIRS      STATIC     ATOMS    <user>   **** ""
6 46 47 48 49 50 51
DONOR_HYDROGENS      STATIC     ATOMS    <user>   **** ""
1 35
ATOM$BLUE        STATIC     ATOMS    COLORGROUP SYSTEM
6 46 47 48 49 50 51
ATOM$RED        STATIC     ATOMS    COLORGROUP SYSTEM
1 35
