#       Name:                AV-unprocessed.smi:112
#       Creating user name   scv26
#       Creation time:       Thu Mar 26 18:17:35 2020


#       File generated by GOLD software.
#

@<TRIPOS>MOLECULE
AV-unprocessed.smi:112
    68    71     1
SMALL
NO_CHARGES


@<TRIPOS>ATOM
      1 ****        -1.1849   4.4637  -0.9821 C.3            1 S1                 0.0000
      2 ****        -0.5266   3.1001  -1.1241 C.2            1 S1                 0.0000
      3 ****         0.8169   2.9530  -1.1884 C.2            1 S1                 0.0000
      4 ****         1.4457   1.7273  -1.3158 N.am           1 S1                 0.0000
      5 ****         2.9532   1.5962  -1.3535 C.3            1 S1                 0.0000
      6 ****         3.5000   1.2738   0.0449 C.3            1 S1                 0.0000
      7 ****         4.6942   2.2010   0.1603 C.3            1 S1                 0.0000
      8 ****         5.8619   1.5767  -0.3395 O.3            1 S1                 0.0000
      9 ****         4.2585   3.3936  -0.7000 C.3            1 S1                 0.0000
     10 ****         5.3714   4.3120  -1.2332 C.3            1 S1                 0.0000
     11 ****         6.0167   4.9715  -0.1647 O.3            1 S1                 0.0000
     12 ****         3.5258   2.8029  -1.7691 O.3            1 S1                 0.0000
     13 ****         0.6730   0.5503  -1.3707 C.2            1 S1                 0.0000
     14 ****         1.2137  -0.5553  -1.4515 O.2            1 S1                 0.0000
     15 ****        -0.7338   0.6700  -1.3166 N.am           1 S1                 0.0000
     16 ****        -1.5499  -0.5644  -1.3594 C.3            1 S1                 0.0000
     17 ****        -1.7866  -1.2007   0.0282 C.2            1 S1                 0.0000
     18 ****        -1.3172  -0.6482   1.0239 O.2            1 S1                 0.0000
     19 ****        -2.5074  -2.3482   0.0847 N.am           1 S1                 0.0000
     20 ****        -3.0822  -3.0064  -1.1017 C.3            1 S1                 0.0000
     21 ****        -3.8099  -4.2681  -0.5883 C.3            1 S1                 0.0000
     22 ****        -3.5761  -4.2155   0.8926 C.ar           1 S1                 0.0000
     23 ****        -4.0290  -5.1421   1.8471 C.ar           1 S1                 0.0000
     24 ****        -3.7077  -4.9322   3.2114 C.ar           1 S1                 0.0000
     25 ****        -4.1634  -5.8866   4.2417 N.pl3          1 S1                 1.0000
     26 ****        -3.8617  -5.6685   5.4107 O.2            1 S1                 0.0000
     27 ****        -4.8232  -6.8570   3.8835 O.2            1 S1                -1.0000
     28 ****        -2.9409  -3.7925   3.5724 C.ar           1 S1                 0.0000
     29 ****        -2.4947  -2.8711   2.5999 C.ar           1 S1                 0.0000
     30 ****        -2.8252  -3.1006   1.2467 C.ar           1 S1                 0.0000
     31 ****        -1.3901   1.9184  -1.1850 C.2            1 S1                 0.0000
     32 ****        -2.6195   1.9775  -1.1176 O.2            1 S1                 0.0000
     33 ****        -0.4509   5.2699  -0.9669 H              1 S1                 0.0000
     34 ****        -1.7563   4.5158  -0.0547 H              1 S1                 0.0000
     35 ****        -1.8646   4.6488  -1.8147 H              1 S1                 0.0000
     36 ****         1.4174   3.8478  -1.1318 H              1 S1                 0.0000
     37 ****         3.1813   0.8359  -2.1025 H              1 S1                 0.0000
     38 ****         2.7546   1.5355   0.7979 H              1 S1                 0.0000
     39 ****         3.7390   0.2142   0.1445 H              1 S1                 0.0000
     40 ****         4.8785   2.4956   1.1938 H              1 S1                 0.0000
     41 ****         6.5790   2.1891  -0.2756 H              1 S1                 0.0000
     42 ****         3.5538   3.9926  -0.1209 H              1 S1                 0.0000
     43 ****         6.1034   3.7573  -1.8204 H              1 S1                 0.0000
     44 ****         4.9434   5.0671  -1.8927 H              1 S1                 0.0000
     45 ****         6.6741   5.5495  -0.5214 H              1 S1                 0.0000
     46 ****        -2.5149  -0.3702  -1.8291 H              1 S1                 0.0000
     47 ****        -1.0793  -1.3011  -2.0121 H              1 S1                 0.0000
     48 ****        -3.7848  -2.3443  -1.6095 H              1 S1                 0.0000
     49 ****        -2.2997  -3.2838  -1.8092 H              1 S1                 0.0000
     50 ****        -4.8776  -4.2397  -0.8080 H              1 S1                 0.0000
     51 ****        -3.3866  -5.1806  -1.0096 H              1 S1                 0.0000
     52 ****        -4.6103  -5.9956   1.5308 H              1 S1                 0.0000
     53 ****        -2.6847  -3.6123   4.6061 H              1 S1                 0.0000
     54 ****        -1.9139  -2.0195   2.9170 H              1 S1                 0.0000
     55 ****         5.7234   1.3176  -1.2953 LP             1 S1                 0.0000
     56 ****         6.0659   0.7604   0.2009 LP             1 S1                 0.0000
     57 ****         6.4492   4.2983   0.4351 LP             1 S1                 0.0000
     58 ****         5.3485   5.5020   0.3569 LP             1 S1                 0.0000
     59 ****         2.8022   3.4291  -2.0593 LP             1 S1                 0.0000
     60 ****         4.1433   2.6286  -2.5361 LP             1 S1                 0.0000
     61 ****         2.2110  -0.6234  -1.4787 LP             1 S1                 0.0000
     62 ****         0.6547  -1.3837  -1.4897 LP             1 S1                 0.0000
     63 ****        -0.7931   0.1977   0.9259 LP             1 S1                 0.0000
     64 ****        -1.4603  -1.0456   1.9304 LP             1 S1                 0.0000
     65 ****        -3.3205  -4.8610   5.6451 LP             1 S1                 0.0000
     66 ****        -4.1570  -6.2983   6.1292 LP             1 S1                 0.0000
     67 ****        -3.0727   2.8631  -1.0163 LP             1 S1                 0.0000
     68 ****        -3.1637   1.1398  -1.1642 LP             1 S1                 0.0000
@<TRIPOS>BOND
    1    1    2 1     
    2    1   33 1     
    3    1   34 1     
    4    1   35 1     
    5    2   31 1     
    6    2    3 2     
    7    3    4 1     
    8    3   36 1     
    9    4    5 1     
   10    4   13 am    
   11    5   12 1     
   12    5    6 1     
   13    5   37 1     
   14    6    7 1     
   15    6   38 1     
   16    6   39 1     
   17    7    8 1     
   18    7    9 1     
   19    7   40 1     
   20    8   41 1     
   21    9   10 1     
   22    9   12 1     
   23    9   42 1     
   24   10   11 1     
   25   10   43 1     
   26   10   44 1     
   27   11   45 1     
   28   13   14 2     
   29   13   15 am    
   30   15   16 1     
   31   15   31 am    
   32   16   17 1     
   33   16   46 1     
   34   16   47 1     
   35   17   18 2     
   36   17   19 am    
   37   19   30 1     
   38   19   20 1     
   39   20   21 1     
   40   20   48 1     
   41   20   49 1     
   42   21   22 1     
   43   21   50 1     
   44   21   51 1     
   45   22   30 ar    
   46   22   23 ar    
   47   23   24 ar    
   48   23   52 1     
   49   24   25 1     
   50   24   28 ar    
   51   25   26 2     
   52   25   27 1     
   53   28   29 ar    
   54   28   53 1     
   55   29   30 ar    
   56   29   54 1     
   57   31   32 2     
   58    8   55 1     
   59    8   56 1     
   60   11   57 1     
   61   11   58 1     
   62   12   59 1     
   63   12   60 1     
   64   14   61 1     
   65   14   62 1     
   66   18   63 1     
   67   18   64 1     
   68   26   65 1     
   69   26   66 1     
   70   32   67 1     
   71   32   68 1     
@<TRIPOS>SUBSTRUCTURE
      1 S1             1
@<TRIPOS>SET
LONE_PAIRS      STATIC     ATOMS    <user>   **** ""
15 55 56 57 58 59 60 61 62 63 64 65 66 27 67 68
DONOR_HYDROGENS      STATIC     ATOMS    <user>   **** ""
2 41 45
ATOM$BLUE        STATIC     ATOMS    COLORGROUP SYSTEM
15 55 56 57 58 59 60 61 62 63 64 65 66 27 67 68
ATOM$RED        STATIC     ATOMS    COLORGROUP SYSTEM
2 41 45
