AV-unprocessed.smi:3155|AV-procd|sdf|12026|dock5
  -GOLD-   2272017443D 1   1.00000     0.00000
 Structure written by MMmdl.
 38 39  0  0  0  0  0  0  0  0  2 V2000
  144.3001  136.1599  153.4063 C   0  0  0  0  0  0  0  0  0  0  0  0
  145.5816  136.0006  152.5647 C   0  0  1  0  0  0  0  0  0  0  0  0
  145.2769  135.6694  151.0890 C   0  0  0  0  0  0  0  0  0  0  0  0
  145.1836  134.2432  150.8337 N   0  0  0  0  0  0  0  0  0  0  0  0
  144.0666  133.4968  150.5212 C   0  0  0  0  0  0  0  0  0  0  0  0
  144.4742  132.2032  150.3639 C   0  0  0  0  0  0  0  0  0  0  0  0
  145.8768  132.2593  150.5957 C   0  0  0  0  0  0  0  0  0  0  0  0
  146.2987  133.4825  150.8735 N   0  0  0  0  0  0  0  0  0  0  0  0
  146.4176  137.2200  152.6280 N   0  3  0  0  0  0  0  0  0  0  0  0
  146.5038  137.8636  153.9578 C   0  0  0  0  0  0  0  0  0  0  0  0
  147.2605  139.1987  153.9117 C   0  0  0  0  0  0  0  0  0  0  0  0
  146.7890  140.1454  153.2799 O   0  0  0  0  0  0  0  0  0  0  0  0
  148.4329  139.2895  154.5727 N   0  0  0  0  0  0  0  0  0  0  0  0
  149.0273  138.1827  155.3201 C   0  0  0  0  0  0  0  0  0  0  0  0
  150.4439  138.6353  155.6740 C   0  0  0  0  0  0  0  0  0  0  0  0
  150.3564  140.1551  155.6852 C   0  0  0  0  0  0  0  0  0  0  0  0
  149.2824  140.4780  154.6458 C   0  0  0  0  0  0  0  0  0  0  0  0
  143.6952  135.2530  153.3875 H   0  0  0  0  0  0  0  0  0  0  0  0
  143.6820  136.9773  153.0338 H   0  0  0  0  0  0  0  0  0  0  0  0
  144.5248  136.3626  154.4530 H   0  0  0  0  0  0  0  0  0  0  0  0
  146.1665  135.1767  152.9765 H   0  0  0  0  0  0  0  0  0  0  0  0
  144.3393  136.1358  150.7826 H   0  0  0  0  0  0  0  0  0  0  0  0
  146.0540  136.0775  150.4409 H   0  0  0  0  0  0  0  0  0  0  0  0
  143.0857  133.9417  150.4402 H   0  0  0  0  0  0  0  0  0  0  0  0
  143.8639  131.3468  150.1181 H   0  0  0  0  0  0  0  0  0  0  0  0
  146.5962  131.4538  150.5689 H   0  0  0  0  0  0  0  0  0  0  0  0
  147.3586  136.9611  152.3668 H   0  0  0  0  0  0  0  0  0  0  0  0
  145.5012  138.0379  154.3476 H   0  0  0  0  0  0  0  0  0  0  0  0
  147.0176  137.1911  154.6457 H   0  0  0  0  0  0  0  0  0  0  0  0
  148.4426  138.0124  156.2253 H   0  0  0  0  0  0  0  0  0  0  0  0
  149.0397  137.2557  154.7449 H   0  0  0  0  0  0  0  0  0  0  0  0
  150.7951  138.2243  156.6210 H   0  0  0  0  0  0  0  0  0  0  0  0
  151.1361  138.3152  154.8942 H   0  0  0  0  0  0  0  0  0  0  0  0
  150.0264  140.4929  156.6687 H   0  0  0  0  0  0  0  0  0  0  0  0
  151.3112  140.6362  155.4709 H   0  0  0  0  0  0  0  0  0  0  0  0
  149.7382  140.6528  153.6702 H   0  0  0  0  0  0  0  0  0  0  0  0
  148.7247  141.3717  154.9282 H   0  0  0  0  0  0  0  0  0  0  0  0
  146.0769  137.8919  151.9551 H   0  0  0  0  0  0  0  0  0  0  0  0
  1  2  1  0  0  0  0
  1 18  1  0  0  0  0
  1 19  1  0  0  0  0
  1 20  1  0  0  0  0
  2  3  1  0  0  0  0
  2  9  1  0  0  0  0
  2 21  1  0  0  0  0
  3  4  1  0  0  0  0
  3 22  1  0  0  0  0
  3 23  1  0  0  0  0
  4  8  1  0  0  0  0
  4  5  1  0  0  0  0
  5  6  2  0  0  0  0
  5 24  1  0  0  0  0
  6  7  1  0  0  0  0
  6 25  1  0  0  0  0
  7  8  2  0  0  0  0
  7 26  1  0  0  0  0
  9 10  1  0  0  0  0
  9 27  1  0  0  0  0
  9 38  1  0  0  0  0
 10 11  1  0  0  0  0
 10 28  1  0  0  0  0
 10 29  1  0  0  0  0
 11 12  2  0  0  0  0
 11 13  1  0  0  0  0
 13 17  1  0  0  0  0
 13 14  1  0  0  0  0
 14 15  1  0  0  0  0
 14 30  1  0  0  0  0
 14 31  1  0  0  0  0
 15 16  1  0  0  0  0
 15 32  1  0  0  0  0
 15 33  1  0  0  0  0
 16 17  1  0  0  0  0
 16 34  1  0  0  0  0
 16 35  1  0  0  0  0
 17 36  1  0  0  0  0
 17 37  1  0  0  0  0
M  CHG  1   9   1
M  END
> <s_m_source_file>
AV-unprocessed.smi

> <i_m_source_file_index>
3155

> <i_lp_mmshare_version>
43012

> <i_f3d_flags>
0

> <s_epik_input>
bjFbY0hdW2NIXVtjSF1uMVtDSDJdW0NAQEhdKFtDSDNdKVtOSF1bQ0gyXUMoPU8pTjJbQ0gyXVtDSDJdW0NIMl1bQ0gyXTI=

> <s_epik_cmdline>
J2VwaWtfcHl0aG9uJywgJy1waCcsICc3LjAnLCAnLXRuJywgJzgnLCAnLW1hJywgJzIwMCcsICctbWV0YWxfYmluZGluZycsICctaW1hZScsICc8aW5maWxlLm1hZT4nLCAnLW9tYWUnLCAnPG91dGZpbGUubWFlPic=

> <r_lp_tautomer_probability>
1

> <r_epik_Ionization_Penalty>
0.120138

> <r_epik_Ionization_Penalty_Charging>
0.120135

> <r_epik_Ionization_Penalty_Neutral>
3.43791e-06

> <r_epik_State_Penalty>
0.109683

> <r_epik_Charging_Adjusted_Penalty>
0.229818

> <i_epik_Tot_Q>
1

> <i_epik_Tot_abs_Q>
1

> <r_epik_Metal_State_Penalty>
0.109693

> <b_epik_Metal_Only>
0

> <s_lp_Force_Field>
OPLS_2005

> <r_lp_Energy>
27.7776

> <b_lp_Chiralities_Consistent>
1

> <s_lp_Variant>
AV-unprocessed.smi:3155-2

> <Gold.Version>
5.8.1

> <Gold.Id.Protein>
6NUR|6NUR_protein|mol2

> <Gold.PLP.Fitness>
40.2995

> <Gold.PLP.PLP>
-29.6522

> <Gold.PLP.part.hbond>
-1.0000

> <Gold.PLP.part.metal>
0.0000

> <Gold.PLP.part.buried>
-3.3829

> <Gold.PLP.part.nonpolar>
-26.7101

> <Gold.PLP.part.repulsive>
0.8880

> <Gold.PLP.ligand.clash>
0.0000

> <Gold.PLP.ligand.torsion>
0.6883

> <Gold.PLP.Chemscore.Hbond>
2.0000

> <Gold.PLP.Chemscore.CHOScore>
1.9984

> <Gold.PLP.Chemscore.Metal>
0.0000

> <Gold.Chemscore.Hbonds>
donor molecule, donor type, donor heavy atom, donor atom, acceptor molecule, acceptor atom, score
      L1  H     9    27       P1  7948  2.00
      L1  C     5    24       P1 10186  1.00
      L1  C     7    26       P1 10747  1.00

> <Gold.PLP.Chemscore.Internal.Correction>
0.0288

> <Gold.Rescore>
     Score         DG    S(hbond)    S(metal)    S(lipo)     H(rot)  DE(clash)    DE(int)     intcor
     11.52     -12.44       1.00        0.00      71.11       1.84       0.25       0.66       ----

> <Gold.Chemscore.Fitness>
11.5227

> <Gold.Chemscore.DG>
-12.4383

> <Gold.Chemscore.ZeroCoef>
-5.4800

> <Gold.Chemscore.Hbond>
1.0000

> <Gold.Chemscore.Metal>
0.0000

> <Gold.Chemscore.Lipo>
71.1111

> <Gold.Chemscore.Internal_Hbond>
0.0000

> <Gold.Chemscore.DEClash>
0.2524

> <Gold.Chemscore.DEInternal>
0.6632

> <Gold.Chemscore.Rot>
1.8366

> <Gold.Chemscore.Internal.Correction>
   9.000000E+99

> <Gold.Chemscore.Hbonds>
donor molecule, donor type, donor heavy atom, donor atom, acceptor molecule, acceptor atom, score
      L1  H     9    27       P1  7948  1.00

> <Gold.Chemscore.Hbond.Weighted>
-3.3399

> <Gold.Chemscore.Metal.Weighted>
-0.0000

> <Gold.Chemscore.Lipo.Weighted>
-8.3200

> <Gold.Chemscore.Internal_Hbond.Weighted>
0.0000

> <Gold.Chemscore.DEClash.Weighted>
0.2524

> <Gold.Chemscore.DEInternal.Weighted>
0.6632

> <Gold.Chemscore.Rot.Weighted>
4.7017

> <Gold.Chemscore.Internal.Correction.Weighted>
   9.000000E+99

> <Gold.Protein.RotatedTorsions>
[ 6907 6896 6895 6894 ] final  -72.12 input  -60.11 | X-H torsion
[ 7974 7965 7964 7962 ] final  128.77 input  175.53 | X-H torsion
[ 8008 7997 7996 7995 ] final -136.53 input   59.86 | X-H torsion
[ 10167 10162 10161 10158 ] final  -46.81 input  -65.29 | X-H torsion
[ 10718 10713 10712 10709 ] final  -15.49 input   66.30 | X-H torsion
[ 10763 10752 10751 10750 ] final  134.31 input  -60.55 | X-H torsion
[ 11005 11000 10999 10996 ] final  -62.20 input  -57.11 | X-H torsion

> <Gold.Protein.ActiveResidues>
 VAL166  LYS551  ARG553  GLY616  TRP617  ASP618  TYR619  PRO620  LYS621  CYS622 
 ASP623  PHE694  ASN695  SER759  ASP760  ASP761  ALA762  ILE779  LEU786  VAL792 
 PHE793  MET794  SER795  GLU796  ALA797  LYS798  CYS799  TRP800  GLU811  SER814 

> <Gold.Protein.RotatedAtoms>
  150.7183  134.5210  159.5653 H   0  0  0  0  0  0  0  0  0  0  0  0  # atno 6907 bound_to 6896
  152.2765  134.7873  160.0414 H   0  0  0  0  0  0  0  0  0  0  0  0  # atno 6908 bound_to 6896
  151.8535  133.3409  159.3717 H   0  0  0  0  0  0  0  0  0  0  0  0  # atno 6909 bound_to 6896
  145.0359  139.4005  143.5126 H   0  0  0  0  0  0  0  0  0  0  0  0  # atno 7974 bound_to 7965
  155.3967  140.0503  157.3038 H   0  0  0  0  0  0  0  0  0  0  0  0  # atno 8008 bound_to 7997
  154.5010  140.2157  155.9307 H   0  0  0  0  0  0  0  0  0  0  0  0  # atno 8009 bound_to 7997
  156.1467  140.3144  155.8587 H   0  0  0  0  0  0  0  0  0  0  0  0  # atno 8010 bound_to 7997
  140.6802  143.2813  151.3837 H   0  0  0  0  0  0  0  0  0  0  0  0  # atno 10167 bound_to 10162
  156.6011  130.4824  149.6239 H   0  0  0  0  0  0  0  0  0  0  0  0  # atno 10718 bound_to 10713
  153.8214  135.3116  155.3410 H   0  0  0  0  0  0  0  0  0  0  0  0  # atno 10763 bound_to 10752
  154.8011  135.4726  154.0281 H   0  0  0  0  0  0  0  0  0  0  0  0  # atno 10764 bound_to 10752
  153.1691  135.6874  153.8723 H   0  0  0  0  0  0  0  0  0  0  0  0  # atno 10765 bound_to 10752
  141.1351  133.6637  156.5491 H   0  0  0  0  0  0  0  0  0  0  0  0  # atno 11005 bound_to 11000
  146.3504  139.9935  142.8683 LP  0  0  0  0  0  0  0  0  0  0  0  0  # atno 17320 bound_to 7965
  145.1710  140.9720  143.4322 LP  0  0  0  0  0  0  0  0  0  0  0  0  # atno 17321 bound_to 7965
  139.6119  144.1081  152.2307 LP  0  0  0  0  0  0  0  0  0  0  0  0  # atno 17342 bound_to 10162
  140.0498  144.5941  150.7345 LP  0  0  0  0  0  0  0  0  0  0  0  0  # atno 17343 bound_to 10162
  156.2468  130.6884  151.1608 LP  0  0  0  0  0  0  0  0  0  0  0  0  # atno 17370 bound_to 10713
  157.7279  131.0635  150.5843 LP  0  0  0  0  0  0  0  0  0  0  0  0  # atno 17371 bound_to 10713
  140.4078  134.7299  157.4818 LP  0  0  0  0  0  0  0  0  0  0  0  0  # atno 17394 bound_to 11000
  140.0449  134.6214  155.8934 LP  0  0  0  0  0  0  0  0  0  0  0  0  # atno 17395 bound_to 11000

$$$$
