AV-unprocessed.smi:1270|AV-procd|sdf|5331|dock2
  -GOLD-   22720 4463D 1   1.00000     0.00000
 Structure written by MMmdl.
 42 43  0  0  0  0  0  0  0  0  1 V2000
  146.7117  132.5687  152.4553 C   0  0  0  0  0  0  0  0  0  0  0  0
  147.7115  133.3825  153.0592 O   0  0  0  0  0  0  0  0  0  0  0  0
  148.4878  132.8372  154.0643 C   0  0  0  0  0  0  0  0  0  0  0  0
  148.3240  131.5240  154.3644 N   0  0  0  0  0  0  0  0  0  0  0  0
  149.0759  130.9908  155.3489 C   0  0  0  0  0  0  0  0  0  0  0  0
  150.0181  131.7318  156.0852 C   0  0  0  0  0  0  0  0  0  0  0  0
  150.1898  133.0938  155.7762 C   0  0  0  0  0  0  0  0  0  0  0  0
  149.4178  133.6655  154.7353 C   0  0  0  0  0  0  0  0  0  0  0  0
  149.4944  135.0338  154.3525 N   0  0  0  0  0  0  0  0  0  0  0  0
  149.9811  136.0771  155.0457 C   0  0  0  0  0  0  0  0  0  0  0  0
  150.4873  136.0166  156.1658 O   0  0  0  0  0  0  0  0  0  0  0  0
  149.8646  137.2164  154.3487 N   0  0  0  0  0  0  0  0  0  0  0  0
  150.2875  138.5341  154.8142 C   0  0  0  0  0  0  0  0  0  0  0  0
  151.7782  138.5036  155.1822 C   0  0  0  0  0  0  0  0  0  0  0  0
  152.2501  139.8619  155.7307 C   0  0  0  0  0  0  0  0  0  0  0  0
  151.4117  140.3161  156.8585 N   0  0  0  0  0  0  0  0  0  0  0  0
  151.9812  140.1388  158.4937 S   0  0  0  0  0  0  0  0  0  0  0  0
  152.0972  141.8648  159.1190 C   0  0  0  0  0  0  0  0  0  0  0  0
  150.9372  139.4424  159.2609 O   0  0  0  0  0  0  0  0  0  0  0  0
  153.3405  139.5795  158.4385 O   0  0  0  0  0  0  0  0  0  0  0  0
  149.9614  140.3305  156.5806 C   0  0  0  0  0  0  0  0  0  0  0  0
  149.4717  138.9752  156.0415 C   0  0  0  0  0  0  0  0  0  0  0  0
  146.1933  133.1443  151.6886 H   0  0  0  0  0  0  0  0  0  0  0  0
  145.9679  132.2440  153.1844 H   0  0  0  0  0  0  0  0  0  0  0  0
  147.1470  131.6922  151.9726 H   0  0  0  0  0  0  0  0  0  0  0  0
  148.9164  129.9439  155.5613 H   0  0  0  0  0  0  0  0  0  0  0  0
  150.5922  131.2673  156.8732 H   0  0  0  0  0  0  0  0  0  0  0  0
  150.8958  133.6702  156.3531 H   0  0  0  0  0  0  0  0  0  0  0  0
  149.1865  135.2321  153.4117 H   0  0  0  0  0  0  0  0  0  0  0  0
  149.4435  137.1716  153.4322 H   0  0  0  0  0  0  0  0  0  0  0  0
  150.1457  139.2586  154.0097 H   0  0  0  0  0  0  0  0  0  0  0  0
  151.9635  137.7217  155.9180 H   0  0  0  0  0  0  0  0  0  0  0  0
  152.3721  138.2421  154.3055 H   0  0  0  0  0  0  0  0  0  0  0  0
  153.2958  139.8073  156.0316 H   0  0  0  0  0  0  0  0  0  0  0  0
  152.1975  140.6113  154.9401 H   0  0  0  0  0  0  0  0  0  0  0  0
  152.4466  141.8454  160.1509 H   0  0  0  0  0  0  0  0  0  0  0  0
  151.1175  142.3377  159.0871 H   0  0  0  0  0  0  0  0  0  0  0  0
  152.8062  142.4305  158.5172 H   0  0  0  0  0  0  0  0  0  0  0  0
  149.4050  140.6063  157.4757 H   0  0  0  0  0  0  0  0  0  0  0  0
  149.7606  141.1083  155.8429 H   0  0  0  0  0  0  0  0  0  0  0  0
  148.4152  139.0536  155.7825 H   0  0  0  0  0  0  0  0  0  0  0  0
  149.5363  138.2179  156.8220 H   0  0  0  0  0  0  0  0  0  0  0  0
  1  2  1  0  0  0  0
  1 23  1  0  0  0  0
  1 24  1  0  0  0  0
  1 25  1  0  0  0  0
  2  3  1  0  0  0  0
  3  8  1  0  0  0  0
  3  4  2  0  0  0  0
  4  5  1  0  0  0  0
  5  6  2  0  0  0  0
  5 26  1  0  0  0  0
  6  7  1  0  0  0  0
  6 27  1  0  0  0  0
  7  8  2  0  0  0  0
  7 28  1  0  0  0  0
  8  9  1  0  0  0  0
  9 10  1  0  0  0  0
  9 29  1  0  0  0  0
 10 11  2  0  0  0  0
 10 12  1  0  0  0  0
 12 13  1  0  0  0  0
 12 30  1  0  0  0  0
 13 22  1  0  0  0  0
 13 14  1  0  0  0  0
 13 31  1  0  0  0  0
 14 15  1  0  0  0  0
 14 32  1  0  0  0  0
 14 33  1  0  0  0  0
 15 16  1  0  0  0  0
 15 34  1  0  0  0  0
 15 35  1  0  0  0  0
 16 17  1  0  0  0  0
 16 21  1  0  0  0  0
 17 18  1  0  0  0  0
 17 19  2  0  0  0  0
 17 20  2  0  0  0  0
 18 36  1  0  0  0  0
 18 37  1  0  0  0  0
 18 38  1  0  0  0  0
 21 22  1  0  0  0  0
 21 39  1  0  0  0  0
 21 40  1  0  0  0  0
 22 41  1  0  0  0  0
 22 42  1  0  0  0  0
M  END
> <s_m_source_file>
AV-unprocessed.smi

> <i_m_source_file_index>
1270

> <i_lp_mmshare_version>
43012

> <i_f3d_flags>
0

> <s_epik_input>
W0NIM11PYzFuW2NIXVtjSF1bY0hdYzFbTkhdQyg9TylbTkhdW0NIXTJbQ0gyXVtDSDJdTihTKD1PKSg9TylbQ0gzXSlbQ0gyXVtDSDJdMg==

> <s_epik_cmdline>
J2VwaWtfcHl0aG9uJywgJy1waCcsICc3LjAnLCAnLXRuJywgJzgnLCAnLW1hJywgJzIwMCcsICctbWV0YWxfYmluZGluZycsICctaW1hZScsICc8aW5maWxlLm1hZT4nLCAnLW9tYWUnLCAnPG91dGZpbGUubWFlPic=

> <r_lp_tautomer_probability>
1

> <r_epik_Ionization_Penalty>
9.27336e-05

> <r_epik_Ionization_Penalty_Charging>
0

> <r_epik_Ionization_Penalty_Neutral>
9.27336e-05

> <r_epik_State_Penalty>
-0

> <r_epik_Charging_Adjusted_Penalty>
0

> <i_epik_Tot_Q>
0

> <i_epik_Tot_abs_Q>
0

> <r_epik_Metal_State_Penalty>
-0

> <b_epik_Metal_Only>
0

> <s_lp_Force_Field>
OPLS_2005

> <r_lp_Energy>
1.71558

> <b_lp_Chiralities_Consistent>
1

> <s_lp_Variant>
AV-unprocessed.smi:1270-1

> <Gold.Version>
5.8.1

> <Gold.Id.Protein>
6NUR|6NUR_protein|mol2

> <Gold.PLP.Fitness>
40.9175

> <Gold.PLP.PLP>
-32.9514

> <Gold.PLP.part.hbond>
-4.2301

> <Gold.PLP.part.metal>
0.0000

> <Gold.PLP.part.buried>
-1.9132

> <Gold.PLP.part.nonpolar>
-27.3221

> <Gold.PLP.part.repulsive>
0.3791

> <Gold.PLP.ligand.clash>
0.0000

> <Gold.PLP.ligand.torsion>
1.1584

> <Gold.PLP.Chemscore.Hbond>
2.7420

> <Gold.PLP.Chemscore.CHOScore>
0.0000

> <Gold.PLP.Chemscore.Metal>
0.0000

> <Gold.Chemscore.Hbonds>
donor molecule, donor type, donor heavy atom, donor atom, acceptor molecule, acceptor atom, score
      L1  H     9    29       P1  7948  1.00
      L1  H    12    30       P1  7948  1.00
      P1  H  7997  8009       L1    20  1.00

> <Gold.PLP.Chemscore.Internal.Correction>
2.0568

> <Gold.Rescore>
     Score         DG    S(hbond)    S(metal)    S(lipo)     H(rot)  DE(clash)    DE(int)     intcor
     13.36     -17.09       2.21        0.00      64.37       1.29       0.08       3.66       ----

> <Gold.Chemscore.Fitness>
13.3566

> <Gold.Chemscore.DG>
-17.0924

> <Gold.Chemscore.ZeroCoef>
-5.4800

> <Gold.Chemscore.Hbond>
2.2099

> <Gold.Chemscore.Metal>
0.0000

> <Gold.Chemscore.Lipo>
64.3696

> <Gold.Chemscore.Internal_Hbond>
0.0000

> <Gold.Chemscore.DEClash>
0.0786

> <Gold.Chemscore.DEInternal>
3.6573

> <Gold.Chemscore.Rot>
1.2890

> <Gold.Chemscore.Internal.Correction>
   9.000000E+99

> <Gold.Chemscore.Hbonds>
donor molecule, donor type, donor heavy atom, donor atom, acceptor molecule, acceptor atom, score
      L1  H     9    29       P1  7948  0.25
      L1  H    12    30       P1  7948  0.89
      P1  H  7997  8009       L1    20  0.94

> <Gold.Chemscore.Hbond.Weighted>
-7.3811

> <Gold.Chemscore.Metal.Weighted>
-0.0000

> <Gold.Chemscore.Lipo.Weighted>
-7.5312

> <Gold.Chemscore.Internal_Hbond.Weighted>
0.0000

> <Gold.Chemscore.DEClash.Weighted>
0.0786

> <Gold.Chemscore.DEInternal.Weighted>
3.6573

> <Gold.Chemscore.Rot.Weighted>
3.2999

> <Gold.Chemscore.Internal.Correction.Weighted>
   9.000000E+99

> <Gold.Protein.RotatedTorsions>
[ 6907 6896 6895 6894 ] final  105.43 input  -60.11 | X-H torsion
[ 7974 7965 7964 7962 ] final  -79.53 input  175.53 | X-H torsion
[ 8008 7997 7996 7995 ] final  162.74 input   59.86 | X-H torsion
[ 10167 10162 10161 10158 ] final  -56.29 input  -65.29 | X-H torsion
[ 10718 10713 10712 10709 ] final  157.85 input   66.30 | X-H torsion
[ 10763 10752 10751 10750 ] final -157.93 input  -60.55 | X-H torsion
[ 11005 11000 10999 10996 ] final   14.74 input  -57.11 | X-H torsion

> <Gold.Protein.ActiveResidues>
 VAL166  LYS551  ARG553  GLY616  TRP617  ASP618  TYR619  PRO620  LYS621  CYS622 
 ASP623  PHE694  ASN695  SER759  ASP760  ASP761  ALA762  ILE779  LEU786  VAL792 
 PHE793  MET794  SER795  GLU796  ALA797  LYS798  CYS799  TRP800  GLU811  SER814 

> <Gold.Protein.RotatedAtoms>
  152.5231  133.9530  159.7680 H   0  0  0  0  0  0  0  0  0  0  0  0  # atno 6907 bound_to 6896
  150.9836  133.6212  159.2726 H   0  0  0  0  0  0  0  0  0  0  0  0  # atno 6908 bound_to 6896
  151.3380  135.0863  159.9414 H   0  0  0  0  0  0  0  0  0  0  0  0  # atno 6909 bound_to 6896
  145.5720  140.9464  143.1390 H   0  0  0  0  0  0  0  0  0  0  0  0  # atno 7974 bound_to 7965
  156.2009  140.1742  156.7901 H   0  0  0  0  0  0  0  0  0  0  0  0  # atno 8008 bound_to 7997
  154.5591  140.0703  156.8821 H   0  0  0  0  0  0  0  0  0  0  0  0  # atno 8009 bound_to 7997
  155.2883  140.3353  155.4256 H   0  0  0  0  0  0  0  0  0  0  0  0  # atno 8010 bound_to 7997
  140.6326  143.2466  151.5202 H   0  0  0  0  0  0  0  0  0  0  0  0  # atno 10167 bound_to 10162
  157.1858  131.0643  151.2106 H   0  0  0  0  0  0  0  0  0  0  0  0  # atno 10718 bound_to 10713
  154.7597  135.3114  154.8402 H   0  0  0  0  0  0  0  0  0  0  0  0  # atno 10763 bound_to 10752
  153.9167  135.6800  153.4753 H   0  0  0  0  0  0  0  0  0  0  0  0  # atno 10764 bound_to 10752
  153.1196  135.4828  154.9105 H   0  0  0  0  0  0  0  0  0  0  0  0  # atno 10765 bound_to 10752
  140.4661  134.1078  155.7724 H   0  0  0  0  0  0  0  0  0  0  0  0  # atno 11005 bound_to 11000
  144.7433  139.7388  143.7302 LP  0  0  0  0  0  0  0  0  0  0  0  0  # atno 17320 bound_to 7965
  146.1778  139.4956  142.9886 LP  0  0  0  0  0  0  0  0  0  0  0  0  # atno 17321 bound_to 7965
  139.5538  144.2326  152.1577 LP  0  0  0  0  0  0  0  0  0  0  0  0  # atno 17342 bound_to 10162
  140.1574  144.5058  150.6652 LP  0  0  0  0  0  0  0  0  0  0  0  0  # atno 17343 bound_to 10162
  157.3908  130.7281  149.6696 LP  0  0  0  0  0  0  0  0  0  0  0  0  # atno 17370 bound_to 10713
  155.9718  130.4147  150.4144 LP  0  0  0  0  0  0  0  0  0  0  0  0  # atno 17371 bound_to 10713
  141.1599  133.8813  157.1877 LP  0  0  0  0  0  0  0  0  0  0  0  0  # atno 17394 bound_to 11000
  139.9914  135.0063  156.9984 LP  0  0  0  0  0  0  0  0  0  0  0  0  # atno 17395 bound_to 11000

$$$$
