#       Name:                AV-unprocessed.smi:1870
#       Creating user name   scv26
#       Creation time:       Fri Mar 27 09:30:58 2020


#       File generated by GOLD software.
#

@<TRIPOS>MOLECULE
AV-unprocessed.smi:1870
    54    56     1
SMALL
NO_CHARGES


@<TRIPOS>ATOM
      1 ****        -3.9533   2.2380   2.1438 C.3            1 S1                 0.0000
      2 ****        -3.5020   0.8101   2.2948 C.2            1 S1                 0.0000
      3 ****        -2.2262   0.6017   2.2952 N.2            1 S1                 0.0000
      4 ****        -1.7050  -0.6705   2.4308 N.am           1 S1                 0.0000
      5 ****        -0.2383  -0.7212   2.3973 C.3            1 S1                 0.0000
      6 ****         0.3046  -0.7837   0.9531 C.3            1 S1                 0.0000
      7 ****         0.2748  -2.1284   0.5146 O.3            1 S1                 0.0000
      8 ****         1.7702  -0.3072   0.8791 C.3            1 S1                 0.0000
      9 ****         2.3046  -0.2870  -0.5079 N.4            1 S1                 1.0000
     10 ****         3.7862  -0.2964  -0.5439 C.3            1 S1                 0.0000
     11 ****         4.2794  -0.6103  -1.9621 C.3            1 S1                 0.0000
     12 ****         3.6123   0.2609  -3.0103 C.ar           1 S1                 0.0000
     13 ****         4.1914   0.3861  -4.2900 C.ar           1 S1                 0.0000
     14 ****         3.5584   1.1614  -5.2800 C.ar           1 S1                 0.0000
     15 ****         2.3426   1.8109  -4.9946 C.ar           1 S1                 0.0000
     16 ****         1.7609   1.6879  -3.7181 C.ar           1 S1                 0.0000
     17 ****         2.3906   0.9147  -2.7203 C.ar           1 S1                 0.0000
     18 ****         1.7540   0.8180  -1.3386 C.3            1 S1                 0.0000
     19 ****        -2.4497  -1.8041   2.5710 C.2            1 S1                 0.0000
     20 ****        -1.9425  -2.9210   2.6831 O.2            1 S1                 0.0000
     21 ****        -3.8941  -1.5607   2.5715 C.2            1 S1                 0.0000
     22 ****        -4.7120  -2.7207   2.7244 C.1            1 S1                 0.0000
     23 ****        -5.3913  -3.6492   2.8533 N.1            1 S1                 0.0000
     24 ****        -4.4183  -0.3168   2.4367 C.2            1 S1                 0.0000
     25 ****        -5.9102  -0.0124   2.4301 C.3            1 S1                 0.0000
     26 ****        -4.6109   2.5263   2.9639 H              1 S1                 0.0000
     27 ****        -4.4976   2.3739   1.2090 H              1 S1                 0.0000
     28 ****        -3.1120   2.9327   2.1397 H              1 S1                 0.0000
     29 ****         0.1313   0.1861   2.8791 H              1 S1                 0.0000
     30 ****         0.1614  -1.5360   3.0043 H              1 S1                 0.0000
     31 ****        -0.3244  -0.1782   0.3013 H              1 S1                 0.0000
     32 ****         0.7132  -2.6680   1.1552 H              1 S1                 0.0000
     33 ****         1.8701   0.6899   1.3109 H              1 S1                 0.0000
     34 ****         2.3785  -0.9676   1.4994 H              1 S1                 0.0000
     35 ****         4.1622   0.6730  -0.2124 H              1 S1                 0.0000
     36 ****         4.1856  -1.0441   0.1422 H              1 S1                 0.0000
     37 ****         5.3618  -0.4861  -2.0152 H              1 S1                 0.0000
     38 ****         4.0691  -1.6524  -2.2055 H              1 S1                 0.0000
     39 ****         5.1197  -0.1173  -4.5182 H              1 S1                 0.0000
     40 ****         4.0034   1.2547  -6.2597 H              1 S1                 0.0000
     41 ****         1.8564   2.4045  -5.7549 H              1 S1                 0.0000
     42 ****         0.8303   2.1939  -3.5059 H              1 S1                 0.0000
     43 ****         0.6799   0.6887  -1.4666 H              1 S1                 0.0000
     44 ****         1.9054   1.7713  -0.8301 H              1 S1                 0.0000
     45 ****        -6.5148  -0.9187   2.4173 H              1 S1                 0.0000
     46 ****        -6.1837   0.5705   1.5501 H              1 S1                 0.0000
     47 ****        -6.1852   0.5565   3.3187 H              1 S1                 0.0000
     48 ****         2.0113  -1.1537  -0.9366 H              1 S1                 0.0000
     49 ****        -1.6034   1.3777   2.1953 LP             1 S1                 0.0000
     50 ****         0.7426  -2.2051  -0.3659 LP             1 S1                 0.0000
     51 ****        -0.6739  -2.4285   0.4153 LP             1 S1                 0.0000
     52 ****        -0.9476  -3.0216   2.6733 LP             1 S1                 0.0000
     53 ****        -2.5256  -3.7271   2.7839 LP             1 S1                 0.0000
     54 ****        -5.9780  -4.4512   2.9647 LP             1 S1                 0.0000
@<TRIPOS>BOND
    1    1    2 1     
    2    1   26 1     
    3    1   27 1     
    4    1   28 1     
    5    2   24 1     
    6    2    3 2     
    7    3    4 1     
    8    4    5 1     
    9    4   19 am    
   10    5    6 1     
   11    5   29 1     
   12    5   30 1     
   13    6    7 1     
   14    6    8 1     
   15    6   31 1     
   16    7   32 1     
   17    8    9 1     
   18    8   33 1     
   19    8   34 1     
   20    9   18 1     
   21    9   10 1     
   22    9   48 1     
   23   10   11 1     
   24   10   35 1     
   25   10   36 1     
   26   11   12 1     
   27   11   37 1     
   28   11   38 1     
   29   12   17 ar    
   30   12   13 ar    
   31   13   14 ar    
   32   13   39 1     
   33   14   15 ar    
   34   14   40 1     
   35   15   16 ar    
   36   15   41 1     
   37   16   17 ar    
   38   16   42 1     
   39   17   18 1     
   40   18   43 1     
   41   18   44 1     
   42   19   20 2     
   43   19   21 1     
   44   21   22 1     
   45   21   24 2     
   46   22   23 3     
   47   24   25 1     
   48   25   45 1     
   49   25   46 1     
   50   25   47 1     
   51    3   49 1     
   52    7   50 1     
   53    7   51 1     
   54   20   52 1     
   55   20   53 1     
   56   23   54 1     
@<TRIPOS>SUBSTRUCTURE
      1 S1             1
@<TRIPOS>SET
LONE_PAIRS      STATIC     ATOMS    <user>   **** ""
6 49 50 51 52 53 54
DONOR_HYDROGENS      STATIC     ATOMS    <user>   **** ""
2 32 48
ATOM$BLUE        STATIC     ATOMS    COLORGROUP SYSTEM
6 49 50 51 52 53 54
ATOM$RED        STATIC     ATOMS    COLORGROUP SYSTEM
2 32 48
