AV-unprocessed.smi:1693|AV-procd|sdf|6786|dock1
  -GOLD-   22720 7543D 1   1.00000     0.00000
 Structure written by MMmdl.
 35 36  0  0  0  0  0  0  0  0  2 V2000
  151.0826  137.8697  159.0058 C   0  0  0  0  0  0  0  0  0  0  0  0
  150.5753  136.9443  157.9535 C   0  0  0  0  0  0  0  0  0  0  0  0
  149.8043  135.8902  158.2309 N   0  0  0  0  0  0  0  0  0  0  0  0
  149.4561  135.1825  157.0895 N   0  0  0  0  0  0  0  0  0  0  0  0
  149.9603  135.7139  155.9666 C   0  0  0  0  0  0  0  0  0  0  0  0
  149.7419  135.1768  154.7548 N   0  5  0  0  0  0  0  0  0  0  0  0
  149.1480  133.9663  154.6484 C   0  0  0  0  0  0  0  0  0  0  0  0
  149.2491  133.0323  155.4473 O   0  0  0  0  0  0  0  0  0  0  0  0
  148.3844  133.8352  153.5534 N   0  0  0  0  0  0  0  0  0  0  0  0
  147.6156  132.6534  153.1622 C   0  0  0  0  0  0  0  0  0  0  0  0
  146.7236  132.8841  151.9155 C   0  0  0  0  0  0  0  0  0  0  0  0
  147.5967  133.0067  150.8064 O   0  0  0  0  0  0  0  0  0  0  0  0
  145.8446  131.6329  151.6726 C   0  0  0  0  0  0  0  0  0  0  0  0
  144.8676  131.7948  150.4943 C   0  0  0  0  0  0  0  0  0  0  0  0
  143.9928  133.0439  150.6653 C   0  0  0  0  0  0  0  0  0  0  0  0
  144.8598  134.2987  150.8339 C   0  0  0  0  0  0  0  0  0  0  0  0
  145.8387  134.1538  152.0129 C   0  0  0  0  0  0  0  0  0  0  0  0
  150.9420  137.1517  156.2492 S   0  0  0  0  0  0  0  0  0  0  0  0
  150.2784  138.5214  159.3470 H   0  0  0  0  0  0  0  0  0  0  0  0
  151.8903  138.4864  158.6114 H   0  0  0  0  0  0  0  0  0  0  0  0
  151.4614  137.3024  159.8562 H   0  0  0  0  0  0  0  0  0  0  0  0
  148.3271  134.6319  152.9363 H   0  0  0  0  0  0  0  0  0  0  0  0
  148.3166  131.8381  152.9790 H   0  0  0  0  0  0  0  0  0  0  0  0
  146.9998  132.3208  153.9990 H   0  0  0  0  0  0  0  0  0  0  0  0
  148.0413  132.1820  150.6854 H   0  0  0  0  0  0  0  0  0  0  0  0
  146.4722  130.7554  151.5100 H   0  0  0  0  0  0  0  0  0  0  0  0
  145.2642  131.4236  152.5724 H   0  0  0  0  0  0  0  0  0  0  0  0
  145.4223  131.8598  149.5576 H   0  0  0  0  0  0  0  0  0  0  0  0
  144.2365  130.9093  150.4143 H   0  0  0  0  0  0  0  0  0  0  0  0
  143.3341  133.1586  149.8043 H   0  0  0  0  0  0  0  0  0  0  0  0
  143.3475  132.9245  151.5366 H   0  0  0  0  0  0  0  0  0  0  0  0
  145.4148  134.4865  149.9140 H   0  0  0  0  0  0  0  0  0  0  0  0
  144.2232  135.1700  150.9891 H   0  0  0  0  0  0  0  0  0  0  0  0
  145.2669  134.1196  152.9413 H   0  0  0  0  0  0  0  0  0  0  0  0
  146.4561  135.0511  152.0701 H   0  0  0  0  0  0  0  0  0  0  0  0
  1  2  1  0  0  0  0
  1 19  1  0  0  0  0
  1 20  1  0  0  0  0
  1 21  1  0  0  0  0
  2 18  1  0  0  0  0
  2  3  2  0  0  0  0
  3  4  1  0  0  0  0
  4  5  2  0  0  0  0
  5  6  1  0  0  0  0
  5 18  1  0  0  0  0
  6  7  1  0  0  0  0
  7  8  2  0  0  0  0
  7  9  1  0  0  0  0
  9 10  1  0  0  0  0
  9 22  1  0  0  0  0
 10 11  1  0  0  0  0
 10 23  1  0  0  0  0
 10 24  1  0  0  0  0
 11 17  1  0  0  0  0
 11 12  1  0  0  0  0
 11 13  1  0  0  0  0
 12 25  1  0  0  0  0
 13 14  1  0  0  0  0
 13 26  1  0  0  0  0
 13 27  1  0  0  0  0
 14 15  1  0  0  0  0
 14 28  1  0  0  0  0
 14 29  1  0  0  0  0
 15 16  1  0  0  0  0
 15 30  1  0  0  0  0
 15 31  1  0  0  0  0
 16 17  1  0  0  0  0
 16 32  1  0  0  0  0
 16 33  1  0  0  0  0
 17 34  1  0  0  0  0
 17 35  1  0  0  0  0
M  CHG  1   6  -1
M  END
> <s_m_source_file>
AV-unprocessed.smi

> <i_m_source_file_index>
1693

> <i_lp_mmshare_version>
43012

> <i_f3d_flags>
0

> <s_epik_input>
W0NIM11jMW5uYyhzMSlbTkhdQyg9TylbTkhdW0NIMl1DMihbT0hdKVtDSDJdW0NIMl1bQ0gyXVtDSDJdW0NIMl0y

> <s_epik_cmdline>
J2VwaWtfcHl0aG9uJywgJy1waCcsICc3LjAnLCAnLXRuJywgJzgnLCAnLW1hJywgJzIwMCcsICctbWV0YWxfYmluZGluZycsICctaW1hZScsICc8aW5maWxlLm1hZT4nLCAnLW9tYWUnLCAnPG91dGZpbGUubWFlPic=

> <r_lp_tautomer_probability>
1

> <r_epik_Ionization_Penalty>
4.37877

> <r_epik_Ionization_Penalty_Charging>
4.24206

> <r_epik_Ionization_Penalty_Neutral>
0.136706

> <r_epik_State_Penalty>
4.2416

> <r_epik_Charging_Adjusted_Penalty>
8.48367

> <i_epik_Tot_Q>
-1

> <i_epik_Tot_abs_Q>
1

> <r_epik_Metal_State_Penalty>
0.704476

> <b_epik_Metal_Only>
1

> <s_lp_Force_Field>
OPLS_2005

> <r_lp_Energy>
12.2595

> <b_lp_Chiralities_Consistent>
1

> <s_lp_Variant>
AV-unprocessed.smi:1693-2

> <Gold.Version>
5.8.1

> <Gold.Id.Protein>
6NUR|6NUR_protein|mol2

> <Gold.PLP.Fitness>
35.7954

> <Gold.PLP.PLP>
-27.3516

> <Gold.PLP.part.hbond>
-3.0000

> <Gold.PLP.part.metal>
0.0000

> <Gold.PLP.part.buried>
-3.6168

> <Gold.PLP.part.nonpolar>
-20.5839

> <Gold.PLP.part.repulsive>
0.2133

> <Gold.PLP.ligand.clash>
0.0000

> <Gold.PLP.ligand.torsion>
0.3118

> <Gold.PLP.Chemscore.Hbond>
3.0000

> <Gold.PLP.Chemscore.CHOScore>
0.0000

> <Gold.PLP.Chemscore.Metal>
0.0000

> <Gold.Chemscore.Hbonds>
donor molecule, donor type, donor heavy atom, donor atom, acceptor molecule, acceptor atom, score
      L1  H     9    22       P1  7948  1.00
      L1  H    12    25       P1 10747  1.00
      P1  H  6896  6907       L1     3  0.99

> <Gold.PLP.Chemscore.Internal.Correction>
0.0675

> <Gold.Rescore>
     Score         DG    S(hbond)    S(metal)    S(lipo)     H(rot)  DE(clash)    DE(int)     intcor
     13.34     -15.49       2.41        0.00      56.79       1.83       0.36       1.78       ----

> <Gold.Chemscore.Fitness>
13.3410

> <Gold.Chemscore.DG>
-15.4857

> <Gold.Chemscore.ZeroCoef>
-5.4800

> <Gold.Chemscore.Hbond>
2.4091

> <Gold.Chemscore.Metal>
0.0000

> <Gold.Chemscore.Lipo>
56.7931

> <Gold.Chemscore.Internal_Hbond>
0.0000

> <Gold.Chemscore.DEClash>
0.3648

> <Gold.Chemscore.DEInternal>
1.7800

> <Gold.Chemscore.Rot>
1.8303

> <Gold.Chemscore.Internal.Correction>
   9.000000E+99

> <Gold.Chemscore.Hbonds>
donor molecule, donor type, donor heavy atom, donor atom, acceptor molecule, acceptor atom, score
      L1  H     9    22       P1  7948  0.48
      L1  H    12    25       P1 10747  1.00
      P1  H  6896  6907       L1     3  0.53

> <Gold.Chemscore.Hbond.Weighted>
-8.0464

> <Gold.Chemscore.Metal.Weighted>
-0.0000

> <Gold.Chemscore.Lipo.Weighted>
-6.6448

> <Gold.Chemscore.Internal_Hbond.Weighted>
0.0000

> <Gold.Chemscore.DEClash.Weighted>
0.3648

> <Gold.Chemscore.DEInternal.Weighted>
1.7800

> <Gold.Chemscore.Rot.Weighted>
4.6855

> <Gold.Chemscore.Internal.Correction.Weighted>
   9.000000E+99

> <Gold.Protein.RotatedTorsions>
[ 6907 6896 6895 6894 ] final  -62.90 input  -60.11 | X-H torsion
[ 7974 7965 7964 7962 ] final  -12.52 input  175.53 | X-H torsion
[ 8008 7997 7996 7995 ] final   31.34 input   59.86 | X-H torsion
[ 10167 10162 10161 10158 ] final  -92.35 input  -65.29 | X-H torsion
[ 10718 10713 10712 10709 ] final   26.96 input   66.30 | X-H torsion
[ 10763 10752 10751 10750 ] final   51.65 input  -60.55 | X-H torsion
[ 11005 11000 10999 10996 ] final    7.66 input  -57.11 | X-H torsion

> <Gold.Protein.ActiveResidues>
 VAL166  LYS551  ARG553  GLY616  TRP617  ASP618  TYR619  PRO620  LYS621  CYS622 
 ASP623  PHE694  ASN695  SER759  ASP760  ASP761  ALA762  ILE779  LEU786  VAL792 
 PHE793  MET794  SER795  GLU796  ALA797  LYS798  CYS799  TRP800  GLU811  SER814 

> <Gold.Protein.RotatedAtoms>
  150.7684  134.6507  159.6286 H   0  0  0  0  0  0  0  0  0  0  0  0  # atno 6907 bound_to 6896
  152.3726  134.6708  160.0180 H   0  0  0  0  0  0  0  0  0  0  0  0  # atno 6908 bound_to 6896
  151.7063  133.3275  159.3315 H   0  0  0  0  0  0  0  0  0  0  0  0  # atno 6909 bound_to 6896
  146.2149  140.3070  142.8379 H   0  0  0  0  0  0  0  0  0  0  0  0  # atno 7974 bound_to 7965
  155.1048  140.3233  155.4537 H   0  0  0  0  0  0  0  0  0  0  0  0  # atno 8008 bound_to 7997
  156.2707  140.2054  156.6121 H   0  0  0  0  0  0  0  0  0  0  0  0  # atno 8009 bound_to 7997
  154.6801  140.0527  157.0244 H   0  0  0  0  0  0  0  0  0  0  0  0  # atno 8010 bound_to 7997
  140.3357  143.2970  151.9892 H   0  0  0  0  0  0  0  0  0  0  0  0  # atno 10167 bound_to 10162
  157.2139  130.6947  149.6240 H   0  0  0  0  0  0  0  0  0  0  0  0  # atno 10718 bound_to 10713
  152.9786  135.5838  154.4451 H   0  0  0  0  0  0  0  0  0  0  0  0  # atno 10763 bound_to 10752
  154.4047  135.2769  155.2077 H   0  0  0  0  0  0  0  0  0  0  0  0  # atno 10764 bound_to 10752
  154.3892  135.6129  153.5888 H   0  0  0  0  0  0  0  0  0  0  0  0  # atno 10765 bound_to 10752
  140.5458  134.0331  155.7919 H   0  0  0  0  0  0  0  0  0  0  0  0  # atno 11005 bound_to 11000
  144.9016  140.7649  143.5863 LP  0  0  0  0  0  0  0  0  0  0  0  0  # atno 17320 bound_to 7965
  145.2996  139.1855  143.4696 LP  0  0  0  0  0  0  0  0  0  0  0  0  # atno 17321 bound_to 7965
  139.4849  144.6198  151.7276 LP  0  0  0  0  0  0  0  0  0  0  0  0  # atno 17342 bound_to 10162
  140.5356  144.0661  150.6069 LP  0  0  0  0  0  0  0  0  0  0  0  0  # atno 17343 bound_to 10162
  155.9688  130.4542  150.5841 LP  0  0  0  0  0  0  0  0  0  0  0  0  # atno 17370 bound_to 10713
  157.3645  131.0755  151.1609 LP  0  0  0  0  0  0  0  0  0  0  0  0  # atno 17371 bound_to 10713
  141.1201  133.9476  157.2746 LP  0  0  0  0  0  0  0  0  0  0  0  0  # atno 17394 bound_to 11000
  139.9481  135.0180  156.8911 LP  0  0  0  0  0  0  0  0  0  0  0  0  # atno 17395 bound_to 11000

$$$$
