AV-unprocessed.smi:1041|AV-procd|sdf|4535|dock3
  -GOLD-   22720 2563D 1   1.00000     0.00000
 Structure written by MMmdl.
 51 52  0  0  0  0  0  0  0  0  2 V2000
  148.1898  145.7312  160.9771 C   0  0  0  0  0  0  0  0  0  0  0  0
  149.3178  145.7146  160.1204 O   0  0  0  0  0  0  0  0  0  0  0  0
  150.3004  144.7783  160.5327 C   0  0  0  0  0  0  0  0  0  0  0  0
  151.5244  144.8439  159.6033 C   0  0  0  0  0  0  0  0  0  0  0  0
  152.1162  143.5548  159.2399 N   0  0  0  0  0  0  0  0  0  0  0  0
  151.1480  142.6413  158.6276 C   0  0  0  0  0  0  0  0  0  0  0  0
  151.7778  141.3010  158.2112 C   0  0  0  0  0  0  0  0  0  0  0  0
  152.4465  140.6073  159.4114 C   0  0  0  0  0  0  0  0  0  0  0  0
  153.1221  139.2878  158.9953 C   0  0  0  0  0  0  0  0  0  0  0  0
  153.9479  138.7584  160.0717 N   0  0  0  0  0  0  0  0  0  0  0  0
  153.7821  137.5575  160.6430 C   0  0  0  0  0  0  0  0  0  0  0  0
  152.8840  136.7768  160.3294 O   0  0  0  0  0  0  0  0  0  0  0  0
  154.7930  137.1773  161.7263 C   0  0  0  0  0  0  0  0  0  0  0  0
  154.4849  135.8893  162.4887 C   0  0  0  0  0  0  0  0  0  0  0  0
  154.1178  135.8699  163.8028 C   0  0  0  0  0  0  0  0  0  0  0  0
  153.9893  137.1275  164.6460 C   0  0  0  0  0  0  0  0  0  0  0  0
  153.8335  134.6612  164.4606 N   0  0  0  0  0  0  0  0  0  0  0  0
  153.9162  133.5595  163.8171 C   0  0  0  0  0  0  0  0  0  0  0  0
  153.6048  132.2609  164.5300 C   0  0  0  0  0  0  0  0  0  0  0  0
  154.2735  133.4696  162.4908 N   0  5  0  0  0  0  0  0  0  0  0  0
  154.5750  134.5967  161.7851 C   0  0  0  0  0  0  0  0  0  0  0  0
  154.9147  134.5539  160.6033 O   0  0  0  0  0  0  0  0  0  0  0  0
  153.4245  141.5965  160.0786 C   0  0  0  0  0  0  0  0  0  0  0  0
  152.7168  142.9200  160.4133 C   0  0  0  0  0  0  0  0  0  0  0  0
  147.4616  146.4542  160.6102 H   0  0  0  0  0  0  0  0  0  0  0  0
  148.4699  146.0213  161.9905 H   0  0  0  0  0  0  0  0  0  0  0  0
  147.7061  144.7544  161.0128 H   0  0  0  0  0  0  0  0  0  0  0  0
  150.5984  144.9514  161.5683 H   0  0  0  0  0  0  0  0  0  0  0  0
  149.8682  143.7776  160.4845 H   0  0  0  0  0  0  0  0  0  0  0  0
  151.1940  145.3328  158.6858 H   0  0  0  0  0  0  0  0  0  0  0  0
  152.2810  145.5028  160.0322 H   0  0  0  0  0  0  0  0  0  0  0  0
  150.3214  142.4603  159.3165 H   0  0  0  0  0  0  0  0  0  0  0  0
  150.7172  143.0948  157.7363 H   0  0  0  0  0  0  0  0  0  0  0  0
  151.0133  140.6536  157.7807 H   0  0  0  0  0  0  0  0  0  0  0  0
  152.5145  141.4755  157.4258 H   0  0  0  0  0  0  0  0  0  0  0  0
  151.6637  140.3689  160.1337 H   0  0  0  0  0  0  0  0  0  0  0  0
  152.3652  138.5468  158.7334 H   0  0  0  0  0  0  0  0  0  0  0  0
  153.7381  139.4435  158.1079 H   0  0  0  0  0  0  0  0  0  0  0  0
  154.7126  139.3356  160.3897 H   0  0  0  0  0  0  0  0  0  0  0  0
  155.7815  137.0772  161.2766 H   0  0  0  0  0  0  0  0  0  0  0  0
  154.8908  138.0225  162.4079 H   0  0  0  0  0  0  0  0  0  0  0  0
  154.9495  137.6371  164.7234 H   0  0  0  0  0  0  0  0  0  0  0  0
  153.6572  136.8911  165.6574 H   0  0  0  0  0  0  0  0  0  0  0  0
  153.2641  137.8140  164.2097 H   0  0  0  0  0  0  0  0  0  0  0  0
  154.3606  131.5086  164.3019 H   0  0  0  0  0  0  0  0  0  0  0  0
  152.6326  131.8823  164.2133 H   0  0  0  0  0  0  0  0  0  0  0  0
  153.5832  132.4029  165.6112 H   0  0  0  0  0  0  0  0  0  0  0  0
  153.8407  141.1690  160.9911 H   0  0  0  0  0  0  0  0  0  0  0  0
  154.2682  141.7911  159.4149 H   0  0  0  0  0  0  0  0  0  0  0  0
  153.4419  143.5974  160.8659 H   0  0  0  0  0  0  0  0  0  0  0  0
  151.9506  142.7409  161.1694 H   0  0  0  0  0  0  0  0  0  0  0  0
  1  2  1  0  0  0  0
  1 25  1  0  0  0  0
  1 26  1  0  0  0  0
  1 27  1  0  0  0  0
  2  3  1  0  0  0  0
  3  4  1  0  0  0  0
  3 28  1  0  0  0  0
  3 29  1  0  0  0  0
  4  5  1  0  0  0  0
  4 30  1  0  0  0  0
  4 31  1  0  0  0  0
  5 24  1  0  0  0  0
  5  6  1  0  0  0  0
  6  7  1  0  0  0  0
  6 32  1  0  0  0  0
  6 33  1  0  0  0  0
  7  8  1  0  0  0  0
  7 34  1  0  0  0  0
  7 35  1  0  0  0  0
  8  9  1  0  0  0  0
  8 23  1  0  0  0  0
  8 36  1  0  0  0  0
  9 10  1  0  0  0  0
  9 37  1  0  0  0  0
  9 38  1  0  0  0  0
 10 11  1  0  0  0  0
 10 39  1  0  0  0  0
 11 12  2  0  0  0  0
 11 13  1  0  0  0  0
 13 14  1  0  0  0  0
 13 40  1  0  0  0  0
 13 41  1  0  0  0  0
 14 21  1  0  0  0  0
 14 15  2  0  0  0  0
 15 16  1  0  0  0  0
 15 17  1  0  0  0  0
 16 42  1  0  0  0  0
 16 43  1  0  0  0  0
 16 44  1  0  0  0  0
 17 18  2  0  0  0  0
 18 19  1  0  0  0  0
 18 20  1  0  0  0  0
 19 45  1  0  0  0  0
 19 46  1  0  0  0  0
 19 47  1  0  0  0  0
 20 21  1  0  0  0  0
 21 22  2  0  0  0  0
 23 24  1  0  0  0  0
 23 48  1  0  0  0  0
 23 49  1  0  0  0  0
 24 50  1  0  0  0  0
 24 51  1  0  0  0  0
M  CHG  1  20  -1
M  END
> <s_m_source_file>
AV-unprocessed.smi

> <i_m_source_file_index>
1041

> <i_lp_mmshare_version>
43012

> <i_f3d_flags>
0

> <s_epik_input>
W0NIM11PW0NIMl1bQ0gyXU4xW0NIMl1bQ0gyXVtDSF0oW0NIMl1bQ0gyXTEpW0NIMl1bTkhdQyg9TylbQ0gyXWMyYyhbQ0gzXSluYyhbQ0gzXSlbbkhdYzI9Tw==

> <s_epik_cmdline>
J2VwaWtfcHl0aG9uJywgJy1waCcsICc3LjAnLCAnLXRuJywgJzgnLCAnLW1hJywgJzIwMCcsICctbWV0YWxfYmluZGluZycsICctaW1hZScsICc8aW5maWxlLm1hZT4nLCAnLW9tYWUnLCAnPG91dGZpbGUubWFlPic=

> <r_lp_tautomer_probability>
0.839158

> <r_epik_Ionization_Penalty>
9.04559

> <r_epik_Ionization_Penalty_Charging>
6.70107e-08

> <r_epik_Ionization_Penalty_Neutral>
9.04559

> <r_epik_State_Penalty>
7.10582

> <r_epik_Charging_Adjusted_Penalty>
7.10582

> <i_epik_Tot_Q>
-1

> <i_epik_Tot_abs_Q>
1

> <r_epik_Metal_State_Penalty>
3.46994

> <b_epik_Metal_Only>
1

> <s_lp_Force_Field>
OPLS_2005

> <r_lp_Energy>
32.0623

> <b_lp_Chiralities_Consistent>
1

> <s_lp_Variant>
AV-unprocessed.smi:1041-8

> <Gold.Version>
5.8.1

> <Gold.Id.Protein>
6NUR|6NUR_protein|mol2

> <Gold.PLP.Fitness>
49.1921

> <Gold.PLP.PLP>
-47.1457

> <Gold.PLP.part.hbond>
-1.9738

> <Gold.PLP.part.metal>
0.0000

> <Gold.PLP.part.buried>
-7.4257

> <Gold.PLP.part.nonpolar>
-36.9937

> <Gold.PLP.part.repulsive>
0.3795

> <Gold.PLP.ligand.clash>
0.0000

> <Gold.PLP.ligand.torsion>
0.5055

> <Gold.PLP.Chemscore.Hbond>
1.0000

> <Gold.PLP.Chemscore.CHOScore>
0.0000

> <Gold.PLP.Chemscore.Metal>
0.0000

> <Gold.Chemscore.Hbonds>
donor molecule, donor type, donor heavy atom, donor atom, acceptor molecule, acceptor atom, score
      P1  H  6896  6908       L1    12  1.00

> <Gold.PLP.Chemscore.Internal.Correction>
0.0573

> <Gold.Rescore>
     Score         DG    S(hbond)    S(metal)    S(lipo)     H(rot)  DE(clash)    DE(int)     intcor
     15.53     -16.11       1.00        0.00     112.40       2.28       0.07       0.51       ----

> <Gold.Chemscore.Fitness>
15.5325

> <Gold.Chemscore.DG>
-16.1144

> <Gold.Chemscore.ZeroCoef>
-5.4800

> <Gold.Chemscore.Hbond>
0.9953

> <Gold.Chemscore.Metal>
0.0000

> <Gold.Chemscore.Lipo>
112.4011

> <Gold.Chemscore.Internal_Hbond>
0.0000

> <Gold.Chemscore.DEClash>
0.0710

> <Gold.Chemscore.DEInternal>
0.5109

> <Gold.Chemscore.Rot>
2.2816

> <Gold.Chemscore.Internal.Correction>
   9.000000E+99

> <Gold.Chemscore.Hbonds>
donor molecule, donor type, donor heavy atom, donor atom, acceptor molecule, acceptor atom, score
      P1  H  6896  6908       L1    12  0.99

> <Gold.Chemscore.Hbond.Weighted>
-3.3244

> <Gold.Chemscore.Metal.Weighted>
-0.0000

> <Gold.Chemscore.Lipo.Weighted>
-13.1509

> <Gold.Chemscore.Internal_Hbond.Weighted>
0.0000

> <Gold.Chemscore.DEClash.Weighted>
0.0710

> <Gold.Chemscore.DEInternal.Weighted>
0.5109

> <Gold.Chemscore.Rot.Weighted>
5.8409

> <Gold.Chemscore.Internal.Correction.Weighted>
   9.000000E+99

> <Gold.Protein.RotatedTorsions>
[ 6907 6896 6895 6894 ] final  -89.85 input  -60.11 | X-H torsion
[ 7974 7965 7964 7962 ] final -159.84 input  175.53 | X-H torsion
[ 8008 7997 7996 7995 ] final  -77.44 input   59.86 | X-H torsion
[ 10167 10162 10161 10158 ] final   94.67 input  -65.29 | X-H torsion
[ 10718 10713 10712 10709 ] final   -3.97 input   66.30 | X-H torsion
[ 10763 10752 10751 10750 ] final   -7.32 input  -60.55 | X-H torsion
[ 11005 11000 10999 10996 ] final  -60.58 input  -57.11 | X-H torsion

> <Gold.Protein.ActiveResidues>
 VAL166  LYS551  ARG553  GLY616  TRP617  ASP618  TYR619  PRO620  LYS621  CYS622 
 ASP623  PHE694  ASN695  SER759  ASP760  ASP761  ALA762  ILE779  LEU786  VAL792 
 PHE793  MET794  SER795  GLU796  ALA797  LYS798  CYS799  TRP800  GLU811  SER814 

> <Gold.Protein.RotatedAtoms>
  150.6877  134.2523  159.4515 H   0  0  0  0  0  0  0  0  0  0  0  0  # atno 6907 bound_to 6896
  152.0459  134.9680  160.0583 H   0  0  0  0  0  0  0  0  0  0  0  0  # atno 6908 bound_to 6896
  152.1164  133.4294  159.4692 H   0  0  0  0  0  0  0  0  0  0  0  0  # atno 6909 bound_to 6896
  144.7450  140.3627  143.6092 H   0  0  0  0  0  0  0  0  0  0  0  0  # atno 7974 bound_to 7965
  154.5596  140.0710  156.8798 H   0  0  0  0  0  0  0  0  0  0  0  0  # atno 8008 bound_to 7997
  155.2836  140.3373  155.4238 H   0  0  0  0  0  0  0  0  0  0  0  0  # atno 8009 bound_to 7997
  156.2031  140.1729  156.7842 H   0  0  0  0  0  0  0  0  0  0  0  0  # atno 8010 bound_to 7997
  139.8061  144.6793  150.9701 H   0  0  0  0  0  0  0  0  0  0  0  0  # atno 10167 bound_to 10162
  156.7681  130.5291  149.5772 H   0  0  0  0  0  0  0  0  0  0  0  0  # atno 10718 bound_to 10713
  153.4247  135.7011  153.6270 H   0  0  0  0  0  0  0  0  0  0  0  0  # atno 10763 bound_to 10752
  153.4710  135.3715  155.2391 H   0  0  0  0  0  0  0  0  0  0  0  0  # atno 10764 bound_to 10752
  154.8723  135.4043  154.3621 H   0  0  0  0  0  0  0  0  0  0  0  0  # atno 10765 bound_to 10752
  141.1292  133.6623  156.5245 H   0  0  0  0  0  0  0  0  0  0  0  0  # atno 11005 bound_to 11000
  145.7160  139.1697  143.2512 LP  0  0  0  0  0  0  0  0  0  0  0  0  # atno 17320 bound_to 7965
  146.1312  140.7183  142.9411 LP  0  0  0  0  0  0  0  0  0  0  0  0  # atno 17321 bound_to 7965
  140.7819  143.4232  151.0809 LP  0  0  0  0  0  0  0  0  0  0  0  0  # atno 17342 bound_to 10162
  139.7901  143.8231  152.3150 LP  0  0  0  0  0  0  0  0  0  0  0  0  # atno 17343 bound_to 10162
  156.1295  130.6168  151.0313 LP  0  0  0  0  0  0  0  0  0  0  0  0  # atno 17370 bound_to 10713
  157.6703  131.0863  150.7627 LP  0  0  0  0  0  0  0  0  0  0  0  0  # atno 17371 bound_to 10713
  140.4266  134.7140  157.4919 LP  0  0  0  0  0  0  0  0  0  0  0  0  # atno 17394 bound_to 11000
  140.0323  134.6388  155.9090 LP  0  0  0  0  0  0  0  0  0  0  0  0  # atno 17395 bound_to 11000

$$$$
