AV-unprocessed.smi:3301|AV-procd|sdf|12652|dock1
  -GOLD-   2272018583D 1   1.00000     0.00000
 Structure written by MMmdl.
 37 38  0  0  0  0  0  0  0  0  2 V2000
  151.1005  139.9674  155.5756 C   0  0  0  0  0  0  0  0  0  0  0  0
  150.0052  141.0335  155.7105 C   0  0  2  0  0  0  0  0  0  0  0  0
  149.3529  141.3411  154.3444 C   0  0  0  0  0  0  0  0  0  0  0  0
  147.9067  141.0947  154.3252 N   0  0  0  0  0  0  0  0  0  0  0  0
  146.9587  141.6459  155.1486 C   0  0  0  0  0  0  0  0  0  0  0  0
  145.7544  141.1100  154.7721 C   0  0  0  0  0  0  0  0  0  0  0  0
  146.0167  140.2620  153.7298 N   0  3  0  0  0  0  0  0  0  0  0  0
  147.3252  140.2591  153.4550 C   0  0  0  0  0  0  0  0  0  0  0  0
  150.5867  142.2402  156.2983 N   0  0  0  0  0  0  0  0  0  0  0  0
  150.7806  142.4568  157.6091 C   0  0  0  0  0  0  0  0  0  0  0  0
  150.5038  141.6298  158.4792 O   0  0  0  0  0  0  0  0  0  0  0  0
  151.3836  143.8142  157.9895 C   0  0  0  0  0  0  0  0  0  0  0  0
  151.6033  143.9496  159.4303 N   0  0  0  0  0  0  0  0  0  0  0  0
  152.2550  142.8906  160.1833 C   0  0  0  0  0  0  0  0  0  0  0  0
  152.4136  143.4440  161.6074 C   0  0  0  0  0  0  0  0  0  0  0  0
  151.6079  144.7472  161.6500 C   0  0  0  0  0  0  0  0  0  0  0  0
  151.2296  144.9811  160.1980 C   0  0  0  0  0  0  0  0  0  0  0  0
  150.6492  145.9964  159.8154 O   0  0  0  0  0  0  0  0  0  0  0  0
  150.6964  139.0397  155.1696 H   0  0  0  0  0  0  0  0  0  0  0  0
  151.5448  139.7350  156.5440 H   0  0  0  0  0  0  0  0  0  0  0  0
  151.9007  140.2992  154.9130 H   0  0  0  0  0  0  0  0  0  0  0  0
  149.2456  140.6276  156.3811 H   0  0  0  0  0  0  0  0  0  0  0  0
  149.5230  142.3808  154.0607 H   0  0  0  0  0  0  0  0  0  0  0  0
  149.7976  140.7238  153.5626 H   0  0  0  0  0  0  0  0  0  0  0  0
  147.2049  142.3511  155.9294 H   0  0  0  0  0  0  0  0  0  0  0  0
  144.7578  141.2636  155.1594 H   0  0  0  0  0  0  0  0  0  0  0  0
  147.8168  139.6838  152.6907 H   0  0  0  0  0  0  0  0  0  0  0  0
  150.8535  142.9731  155.6566 H   0  0  0  0  0  0  0  0  0  0  0  0
  152.3300  143.9318  157.4605 H   0  0  0  0  0  0  0  0  0  0  0  0
  150.7341  144.6220  157.6475 H   0  0  0  0  0  0  0  0  0  0  0  0
  151.6264  141.9991  160.1749 H   0  0  0  0  0  0  0  0  0  0  0  0
  153.2195  142.6326  159.7440 H   0  0  0  0  0  0  0  0  0  0  0  0
  152.0631  142.7292  162.3530 H   0  0  0  0  0  0  0  0  0  0  0  0
  153.4644  143.6467  161.8185 H   0  0  0  0  0  0  0  0  0  0  0  0
  150.7046  144.6395  162.2510 H   0  0  0  0  0  0  0  0  0  0  0  0
  152.1937  145.5788  162.0431 H   0  0  0  0  0  0  0  0  0  0  0  0
  145.3229  139.7132  153.2376 H   0  0  0  0  0  0  0  0  0  0  0  0
  1  2  1  0  0  0  0
  1 19  1  0  0  0  0
  1 20  1  0  0  0  0
  1 21  1  0  0  0  0
  2  3  1  0  0  0  0
  2  9  1  0  0  0  0
  2 22  1  0  0  0  0
  3  4  1  0  0  0  0
  3 23  1  0  0  0  0
  3 24  1  0  0  0  0
  4  8  1  0  0  0  0
  4  5  1  0  0  0  0
  5  6  2  0  0  0  0
  5 25  1  0  0  0  0
  6  7  1  0  0  0  0
  6 26  1  0  0  0  0
  7  8  2  0  0  0  0
  7 37  1  0  0  0  0
  8 27  1  0  0  0  0
  9 10  1  0  0  0  0
  9 28  1  0  0  0  0
 10 11  2  0  0  0  0
 10 12  1  0  0  0  0
 12 13  1  0  0  0  0
 12 29  1  0  0  0  0
 12 30  1  0  0  0  0
 13 17  1  0  0  0  0
 13 14  1  0  0  0  0
 14 15  1  0  0  0  0
 14 31  1  0  0  0  0
 14 32  1  0  0  0  0
 15 16  1  0  0  0  0
 15 33  1  0  0  0  0
 15 34  1  0  0  0  0
 16 17  1  0  0  0  0
 16 35  1  0  0  0  0
 16 36  1  0  0  0  0
 17 18  2  0  0  0  0
M  CHG  1   7   1
M  END
> <s_m_source_file>
AV-unprocessed.smi

> <i_m_source_file_index>
3301

> <i_lp_mmshare_version>
43012

> <i_f3d_flags>
0

> <s_epik_input>
W2NIXTFuW2NIXVtjSF1uMVtDSDJdW0NAQEhdKFtDSDNdKVtOSF1DKD1PKVtDSDJdTjJbQ0gyXVtDSDJdW0NIMl1DMj1P

> <s_epik_cmdline>
J2VwaWtfcHl0aG9uJywgJy1waCcsICc3LjAnLCAnLXRuJywgJzgnLCAnLW1hJywgJzIwMCcsICctbWV0YWxfYmluZGluZycsICctaW1hZScsICc8aW5maWxlLm1hZT4nLCAnLW9tYWUnLCAnPG91dGZpbGUubWFlPic=

> <r_lp_tautomer_probability>
1

> <r_epik_Ionization_Penalty>
0.254232

> <r_epik_Ionization_Penalty_Charging>
0

> <r_epik_Ionization_Penalty_Neutral>
0.254232

> <r_epik_State_Penalty>
0.245698

> <r_epik_Charging_Adjusted_Penalty>
0.245698

> <i_epik_Tot_Q>
1

> <i_epik_Tot_abs_Q>
1

> <r_epik_Metal_State_Penalty>
0.5358

> <b_epik_Metal_Only>
0

> <s_lp_Force_Field>
OPLS_2005

> <r_lp_Energy>
13.6599

> <b_lp_Chiralities_Consistent>
1

> <s_lp_Variant>
AV-unprocessed.smi:3301-1

> <Gold.Version>
5.8.1

> <Gold.Id.Protein>
6NUR|6NUR_protein|mol2

> <Gold.PLP.Fitness>
52.1509

> <Gold.PLP.PLP>
-43.2086

> <Gold.PLP.part.hbond>
-3.6175

> <Gold.PLP.part.metal>
0.0000

> <Gold.PLP.part.buried>
0.4014

> <Gold.PLP.part.nonpolar>
-39.4303

> <Gold.PLP.part.repulsive>
0.3430

> <Gold.PLP.ligand.clash>
0.0173

> <Gold.PLP.ligand.torsion>
1.2262

> <Gold.PLP.Chemscore.Hbond>
2.0000

> <Gold.PLP.Chemscore.CHOScore>
1.7790

> <Gold.PLP.Chemscore.Metal>
0.0000

> <Gold.Chemscore.Hbonds>
donor molecule, donor type, donor heavy atom, donor atom, acceptor molecule, acceptor atom, score
      L1  H     7    37       P1 10175  0.93
      L1  C     5    25       P1  8028  0.10
      L1  C     8    27       P1  7957  1.00

> <Gold.PLP.Chemscore.Internal.Correction>
0.0750

> <Gold.Rescore>
     Score         DG    S(hbond)    S(metal)    S(lipo)     H(rot)  DE(clash)    DE(int)     intcor
      9.00     -11.64       0.91        0.00      77.85       2.35       0.47       2.17       ----

> <Gold.Chemscore.Fitness>
8.9995

> <Gold.Chemscore.DG>
-11.6350

> <Gold.Chemscore.ZeroCoef>
-5.4800

> <Gold.Chemscore.Hbond>
0.9147

> <Gold.Chemscore.Metal>
0.0000

> <Gold.Chemscore.Lipo>
77.8476

> <Gold.Chemscore.Internal_Hbond>
0.0000

> <Gold.Chemscore.DEClash>
0.4657

> <Gold.Chemscore.DEInternal>
2.1699

> <Gold.Chemscore.Rot>
2.3470

> <Gold.Chemscore.Internal.Correction>
   9.000000E+99

> <Gold.Chemscore.Hbonds>
donor molecule, donor type, donor heavy atom, donor atom, acceptor molecule, acceptor atom, score
      L1  H     7    37       P1 10175  0.47

> <Gold.Chemscore.Hbond.Weighted>
-3.0552

> <Gold.Chemscore.Metal.Weighted>
-0.0000

> <Gold.Chemscore.Lipo.Weighted>
-9.1082

> <Gold.Chemscore.Internal_Hbond.Weighted>
0.0000

> <Gold.Chemscore.DEClash.Weighted>
0.4657

> <Gold.Chemscore.DEInternal.Weighted>
2.1699

> <Gold.Chemscore.Rot.Weighted>
6.0083

> <Gold.Chemscore.Internal.Correction.Weighted>
   9.000000E+99

> <Gold.Protein.RotatedTorsions>
[ 6907 6896 6895 6894 ] final    5.09 input  -60.11 | X-H torsion
[ 7974 7965 7964 7962 ] final   -3.85 input  175.53 | X-H torsion
[ 8008 7997 7996 7995 ] final   30.82 input   59.86 | X-H torsion
[ 10167 10162 10161 10158 ] final  139.68 input  -65.29 | X-H torsion
[ 10718 10713 10712 10709 ] final  -81.92 input   66.30 | X-H torsion
[ 10763 10752 10751 10750 ] final  -24.96 input  -60.55 | X-H torsion
[ 11005 11000 10999 10996 ] final  122.37 input  -57.11 | X-H torsion

> <Gold.Protein.ActiveResidues>
 VAL166  LYS551  ARG553  GLY616  TRP617  ASP618  TYR619  PRO620  LYS621  CYS622 
 ASP623  PHE694  ASN695  SER759  ASP760  ASP761  ALA762  ILE779  LEU786  VAL792 
 PHE793  MET794  SER795  GLU796  ALA797  LYS798  CYS799  TRP800  GLU811  SER814 

> <Gold.Protein.RotatedAtoms>
  151.6518  135.1000  160.0161 H   0  0  0  0  0  0  0  0  0  0  0  0  # atno 6907 bound_to 6896
  152.3996  133.6794  159.6314 H   0  0  0  0  0  0  0  0  0  0  0  0  # atno 6908 bound_to 6896
  150.7898  133.8731  159.3305 H   0  0  0  0  0  0  0  0  0  0  0  0  # atno 6909 bound_to 6896
  146.2383  140.1782  142.8332 H   0  0  0  0  0  0  0  0  0  0  0  0  # atno 7974 bound_to 7965
  155.0966  140.3225  155.4559 H   0  0  0  0  0  0  0  0  0  0  0  0  # atno 8008 bound_to 7997
  156.2728  140.2068  156.6039 H   0  0  0  0  0  0  0  0  0  0  0  0  # atno 8009 bound_to 7997
  154.6862  140.0521  157.0304 H   0  0  0  0  0  0  0  0  0  0  0  0  # atno 8010 bound_to 7997
  139.5071  144.6280  151.5889 H   0  0  0  0  0  0  0  0  0  0  0  0  # atno 10167 bound_to 10162
  156.0042  130.4618  150.4025 H   0  0  0  0  0  0  0  0  0  0  0  0  # atno 10718 bound_to 10713
  153.6921  135.6961  153.5087 H   0  0  0  0  0  0  0  0  0  0  0  0  # atno 10763 bound_to 10752
  153.2405  135.4307  155.0692 H   0  0  0  0  0  0  0  0  0  0  0  0  # atno 10764 bound_to 10752
  154.8369  135.3506  154.6463 H   0  0  0  0  0  0  0  0  0  0  0  0  # atno 10765 bound_to 10752
  139.9265  134.9641  156.8099 H   0  0  0  0  0  0  0  0  0  0  0  0  # atno 11005 bound_to 11000
  144.9955  140.8586  143.5313 LP  0  0  0  0  0  0  0  0  0  0  0  0  # atno 17320 bound_to 7965
  145.1794  139.2360  143.5300 LP  0  0  0  0  0  0  0  0  0  0  0  0  # atno 17321 bound_to 7965
  140.6003  143.9621  150.6382 LP  0  0  0  0  0  0  0  0  0  0  0  0  # atno 17342 bound_to 10162
  140.2831  143.3376  152.1133 LP  0  0  0  0  0  0  0  0  0  0  0  0  # atno 17343 bound_to 10162
  157.2093  131.0456  151.2608 LP  0  0  0  0  0  0  0  0  0  0  0  0  # atno 17370 bound_to 10713
  157.3903  130.7278  149.6693 LP  0  0  0  0  0  0  0  0  0  0  0  0  # atno 17371 bound_to 10713
  140.6320  133.9896  155.7666 LP  0  0  0  0  0  0  0  0  0  0  0  0  # atno 17394 bound_to 11000
  141.0827  134.0038  157.3362 LP  0  0  0  0  0  0  0  0  0  0  0  0  # atno 17395 bound_to 11000

$$$$
