AV-unprocessed.smi:2855|AV-procd|sdf|10991|dock1
  -GOLD-   2272015443D 1   1.00000     0.00000
 Structure written by MMmdl.
 46 47  0  0  0  0  0  0  0  0  2 V2000
  151.3181  141.8278  157.9670 C   0  0  0  0  0  0  0  0  0  0  0  0
  151.4511  140.4231  157.3627 C   0  0  2  0  0  0  0  0  0  0  0  0
  151.8845  140.4835  155.8837 C   0  0  0  0  0  0  0  0  0  0  0  0
  151.9431  139.0823  155.2462 C   0  0  0  0  0  0  0  0  0  0  0  0
  150.5876  138.3377  155.3471 C   0  0  2  0  0  0  0  0  0  0  0  0
  149.4687  138.9677  154.4440 C   0  0  0  0  0  0  0  0  0  0  0  0
  149.0731  140.4040  154.8408 C   0  0  0  0  0  0  0  0  0  0  0  0
  148.1856  138.1123  154.4173 C   0  0  0  0  0  0  0  0  0  0  0  0
  150.2770  138.2230  156.8718 C   0  0  2  0  0  0  0  0  0  0  0  0
  149.1287  137.3843  157.2019 N   0  0  0  0  0  0  0  0  0  0  0  0
  149.1471  136.3200  158.0190 C   0  0  0  0  0  0  0  0  0  0  0  0
  150.1638  135.9307  158.5957 O   0  0  0  0  0  0  0  0  0  0  0  0
  147.8093  135.5833  158.1761 C   0  0  0  0  0  0  0  0  0  0  0  0
  147.4903  135.2319  159.5692 N   0  0  0  0  0  0  0  0  0  0  0  0
  147.1036  133.9060  159.8326 C   0  0  0  0  0  0  0  0  0  0  0  0
  146.7965  133.4889  161.0756 C   0  0  0  0  0  0  0  0  0  0  0  0
  146.8728  134.4536  162.1656 C   0  0  0  0  0  0  0  0  0  0  0  0
  146.5889  134.0924  163.3060 O   0  0  0  0  0  0  0  0  0  0  0  0
  147.2604  135.7268  161.8605 N   0  5  0  0  0  0  0  0  0  0  0  0
  147.5739  136.1357  160.5918 C   0  0  0  0  0  0  0  0  0  0  0  0
  147.9262  137.2884  160.3393 O   0  0  0  0  0  0  0  0  0  0  0  0
  150.1508  139.6104  157.5293 C   0  0  0  0  0  0  0  0  0  0  0  0
  150.5511  142.4088  157.4537 H   0  0  0  0  0  0  0  0  0  0  0  0
  152.2568  142.3774  157.8933 H   0  0  0  0  0  0  0  0  0  0  0  0
  151.0473  141.7775  159.0218 H   0  0  0  0  0  0  0  0  0  0  0  0
  152.2361  139.9034  157.9143 H   0  0  0  0  0  0  0  0  0  0  0  0
  151.2006  141.1182  155.3198 H   0  0  0  0  0  0  0  0  0  0  0  0
  152.8645  140.9557  155.8083 H   0  0  0  0  0  0  0  0  0  0  0  0
  152.2957  139.1463  154.2184 H   0  0  0  0  0  0  0  0  0  0  0  0
  152.7081  138.4987  155.7605 H   0  0  0  0  0  0  0  0  0  0  0  0
  150.7621  137.3297  154.9686 H   0  0  0  0  0  0  0  0  0  0  0  0
  149.8276  139.0157  153.4166 H   0  0  0  0  0  0  0  0  0  0  0  0
  148.8668  140.4807  155.9089 H   0  0  0  0  0  0  0  0  0  0  0  0
  148.1790  140.7321  154.3101 H   0  0  0  0  0  0  0  0  0  0  0  0
  149.8476  141.1254  154.5864 H   0  0  0  0  0  0  0  0  0  0  0  0
  147.8167  137.9178  155.4248 H   0  0  0  0  0  0  0  0  0  0  0  0
  148.3421  137.1552  153.9211 H   0  0  0  0  0  0  0  0  0  0  0  0
  147.3881  138.6093  153.8644 H   0  0  0  0  0  0  0  0  0  0  0  0
  151.1330  137.7374  157.3457 H   0  0  0  0  0  0  0  0  0  0  0  0
  148.2489  137.6310  156.7725 H   0  0  0  0  0  0  0  0  0  0  0  0
  147.0141  136.1933  157.7441 H   0  0  0  0  0  0  0  0  0  0  0  0
  147.8416  134.6814  157.5629 H   0  0  0  0  0  0  0  0  0  0  0  0
  147.0800  133.2548  158.9710 H   0  0  0  0  0  0  0  0  0  0  0  0
  146.5049  132.4656  161.2617 H   0  0  0  0  0  0  0  0  0  0  0  0
  149.9355  139.4933  158.5923 H   0  0  0  0  0  0  0  0  0  0  0  0
  149.3058  140.1554  157.1081 H   0  0  0  0  0  0  0  0  0  0  0  0
  1  2  1  0  0  0  0
  1 23  1  0  0  0  0
  1 24  1  0  0  0  0
  1 25  1  0  0  0  0
  2 22  1  0  0  0  0
  2  3  1  0  0  0  0
  2 26  1  0  0  0  0
  3  4  1  0  0  0  0
  3 27  1  0  0  0  0
  3 28  1  0  0  0  0
  4  5  1  0  0  0  0
  4 29  1  0  0  0  0
  4 30  1  0  0  0  0
  5  6  1  0  0  0  0
  5  9  1  0  0  0  0
  5 31  1  0  0  0  0
  6  7  1  0  0  0  0
  6  8  1  0  0  0  0
  6 32  1  0  0  0  0
  7 33  1  0  0  0  0
  7 34  1  0  0  0  0
  7 35  1  0  0  0  0
  8 36  1  0  0  0  0
  8 37  1  0  0  0  0
  8 38  1  0  0  0  0
  9 10  1  0  0  0  0
  9 22  1  0  0  0  0
  9 39  1  0  0  0  0
 10 11  1  0  0  0  0
 10 40  1  0  0  0  0
 11 12  2  0  0  0  0
 11 13  1  0  0  0  0
 13 14  1  0  0  0  0
 13 41  1  0  0  0  0
 13 42  1  0  0  0  0
 14 20  1  0  0  0  0
 14 15  1  0  0  0  0
 15 16  2  0  0  0  0
 15 43  1  0  0  0  0
 16 17  1  0  0  0  0
 16 44  1  0  0  0  0
 17 18  2  0  0  0  0
 17 19  1  0  0  0  0
 19 20  1  0  0  0  0
 20 21  2  0  0  0  0
 22 45  1  0  0  0  0
 22 46  1  0  0  0  0
M  CHG  1  19  -1
M  END
> <s_m_source_file>
AV-unprocessed.smi

> <i_m_source_file_index>
2855

> <i_lp_mmshare_version>
43012

> <i_f3d_flags>
0

> <s_epik_input>
W0NIM11bQ0BASF0xW0NIMl1bQ0gyXVtDQEBIXShbQ0hdKFtDSDNdKVtDSDNdKVtDQEhdKFtDSDJdMSlbTkhdQyg9TylbQ0gyXW4yW2NIXVtjSF1jKD1PKVtuSF1jMj1P

> <s_epik_cmdline>
J2VwaWtfcHl0aG9uJywgJy1waCcsICc3LjAnLCAnLXRuJywgJzgnLCAnLW1hJywgJzIwMCcsICctbWV0YWxfYmluZGluZycsICctaW1hZScsICc8aW5maWxlLm1hZT4nLCAnLW9tYWUnLCAnPG91dGZpbGUubWFlPic=

> <r_lp_tautomer_probability>
0.999537

> <r_epik_Ionization_Penalty>
3.12102

> <r_epik_Ionization_Penalty_Charging>
2.9581e-08

> <r_epik_Ionization_Penalty_Neutral>
3.12102

> <r_epik_State_Penalty>
3.12011

> <r_epik_Charging_Adjusted_Penalty>
3.12011

> <i_epik_Tot_Q>
-1

> <i_epik_Tot_abs_Q>
1

> <r_epik_Metal_State_Penalty>
0.463583

> <b_epik_Metal_Only>
1

> <s_lp_Force_Field>
OPLS_2005

> <r_lp_Energy>
28.6833

> <b_lp_Chiralities_Consistent>
1

> <s_lp_Variant>
AV-unprocessed.smi:2855-15

> <Gold.Version>
5.8.1

> <Gold.Id.Protein>
6NUR|6NUR_protein|mol2

> <Gold.PLP.Fitness>
37.3663

> <Gold.PLP.PLP>
-30.9985

> <Gold.PLP.part.hbond>
-4.0000

> <Gold.PLP.part.metal>
0.0000

> <Gold.PLP.part.buried>
-4.1288

> <Gold.PLP.part.nonpolar>
-23.8869

> <Gold.PLP.part.repulsive>
0.0317

> <Gold.PLP.ligand.clash>
0.0130

> <Gold.PLP.ligand.torsion>
0.3786

> <Gold.PLP.Chemscore.Hbond>
2.3448

> <Gold.PLP.Chemscore.CHOScore>
0.0000

> <Gold.PLP.Chemscore.Metal>
0.0000

> <Gold.Chemscore.Hbonds>
donor molecule, donor type, donor heavy atom, donor atom, acceptor molecule, acceptor atom, score
      P1  H  6896  6907       L1    12  1.00
      P1  H  6931  6943       L1    21  0.49
      P1  H  6934  6947       L1    21  0.77

> <Gold.PLP.Chemscore.Internal.Correction>
0.1035

> <Gold.Rescore>
     Score         DG    S(hbond)    S(metal)    S(lipo)     H(rot)  DE(clash)    DE(int)     intcor
     10.59     -16.24       2.31        0.00      65.63       1.81       1.37       4.28       ----

> <Gold.Chemscore.Fitness>
10.5852

> <Gold.Chemscore.DG>
-16.2353

> <Gold.Chemscore.ZeroCoef>
-5.4800

> <Gold.Chemscore.Hbond>
2.3084

> <Gold.Chemscore.Metal>
0.0000

> <Gold.Chemscore.Lipo>
65.6311

> <Gold.Chemscore.Internal_Hbond>
0.0000

> <Gold.Chemscore.DEClash>
1.3711

> <Gold.Chemscore.DEInternal>
4.2790

> <Gold.Chemscore.Rot>
1.8100

> <Gold.Chemscore.Internal.Correction>
   9.000000E+99

> <Gold.Chemscore.Hbonds>
donor molecule, donor type, donor heavy atom, donor atom, acceptor molecule, acceptor atom, score
      P1  H  6896  6907       L1    12  0.95
      P1  H  6931  6943       L1    21  0.45
      P1  H  6934  6947       L1    21  0.76

> <Gold.Chemscore.Hbond.Weighted>
-7.7099

> <Gold.Chemscore.Metal.Weighted>
-0.0000

> <Gold.Chemscore.Lipo.Weighted>
-7.6788

> <Gold.Chemscore.Internal_Hbond.Weighted>
0.0000

> <Gold.Chemscore.DEClash.Weighted>
1.3711

> <Gold.Chemscore.DEInternal.Weighted>
4.2790

> <Gold.Chemscore.Rot.Weighted>
4.6335

> <Gold.Chemscore.Internal.Correction.Weighted>
   9.000000E+99

> <Gold.Protein.RotatedTorsions>
[ 6907 6896 6895 6894 ] final  -59.61 input  -60.11 | X-H torsion
[ 7974 7965 7964 7962 ] final   78.83 input  175.53 | X-H torsion
[ 8008 7997 7996 7995 ] final -173.43 input   59.86 | X-H torsion
[ 10167 10162 10161 10158 ] final -157.19 input  -65.29 | X-H torsion
[ 10718 10713 10712 10709 ] final   18.59 input   66.30 | X-H torsion
[ 10763 10752 10751 10750 ] final  -91.88 input  -60.55 | X-H torsion
[ 11005 11000 10999 10996 ] final   59.41 input  -57.11 | X-H torsion

> <Gold.Protein.ActiveResidues>
 VAL166  LYS551  ARG553  GLY616  TRP617  ASP618  TYR619  PRO620  LYS621  CYS622 
 ASP623  PHE694  ASN695  SER759  ASP760  ASP761  ALA762  ILE779  LEU786  VAL792 
 PHE793  MET794  SER795  GLU796  ALA797  LYS798  CYS799  TRP800  GLU811  SER814 

> <Gold.Protein.RotatedAtoms>
  150.7917  134.6945  159.6515 H   0  0  0  0  0  0  0  0  0  0  0  0  # atno 6907 bound_to 6896
  152.4023  134.6262  160.0073 H   0  0  0  0  0  0  0  0  0  0  0  0  # atno 6908 bound_to 6896
  151.6529  133.3283  159.3192 H   0  0  0  0  0  0  0  0  0  0  0  0  # atno 6909 bound_to 6896
  145.6720  139.2499  143.1863 H   0  0  0  0  0  0  0  0  0  0  0  0  # atno 7974 bound_to 7965
  155.9574  140.1138  157.0925 H   0  0  0  0  0  0  0  0  0  0  0  0  # atno 8008 bound_to 7997
  154.4124  140.1188  156.5200 H   0  0  0  0  0  0  0  0  0  0  0  0  # atno 8009 bound_to 7997
  155.6765  140.3473  155.4840 H   0  0  0  0  0  0  0  0  0  0  0  0  # atno 8010 bound_to 7997
  139.6790  143.9614  152.2326 H   0  0  0  0  0  0  0  0  0  0  0  0  # atno 10167 bound_to 10162
  157.0984  130.6457  149.5866 H   0  0  0  0  0  0  0  0  0  0  0  0  # atno 10718 bound_to 10713
  154.6805  135.5252  153.8256 H   0  0  0  0  0  0  0  0  0  0  0  0  # atno 10763 bound_to 10752
  153.0561  135.6551  154.0583 H   0  0  0  0  0  0  0  0  0  0  0  0  # atno 10764 bound_to 10752
  154.0471  135.2972  155.3326 H   0  0  0  0  0  0  0  0  0  0  0  0  # atno 10765 bound_to 10752
  140.0305  134.6018  155.9513 H   0  0  0  0  0  0  0  0  0  0  0  0  # atno 11005 bound_to 11000
  146.1037  140.7513  142.9537 LP  0  0  0  0  0  0  0  0  0  0  0  0  # atno 17320 bound_to 7965
  144.7054  140.3828  143.7123 LP  0  0  0  0  0  0  0  0  0  0  0  0  # atno 17321 bound_to 7965
  139.9399  144.6688  150.8277 LP  0  0  0  0  0  0  0  0  0  0  0  0  # atno 17342 bound_to 10162
  140.7645  143.3252  151.2533 LP  0  0  0  0  0  0  0  0  0  0  0  0  # atno 17343 bound_to 10162
  155.9880  130.4921  150.7149 LP  0  0  0  0  0  0  0  0  0  0  0  0  # atno 17370 bound_to 10713
  157.4662  131.0888  151.0693 LP  0  0  0  0  0  0  0  0  0  0  0  0  # atno 17371 bound_to 10713
  141.1828  133.6549  156.5092 LP  0  0  0  0  0  0  0  0  0  0  0  0  # atno 17394 bound_to 11000
  140.4233  134.7168  157.4902 LP  0  0  0  0  0  0  0  0  0  0  0  0  # atno 17395 bound_to 11000

$$$$
