AV-unprocessed.smi:2044|AV-procd|sdf|8298|dock6
  -GOLD-   2272010563D 1   1.00000     0.00000
 Structure written by MMmdl.
 39 40  0  0  0  0  0  0  0  0  1 V2000
  146.7258  139.5108  151.4827 C   0  0  0  0  0  0  0  0  0  0  0  0
  147.0251  139.9315  152.8808 C   0  0  0  0  0  0  0  0  0  0  0  0
  147.9654  140.7637  153.4200 C   0  0  0  0  0  0  0  0  0  0  0  0
  147.6834  140.7065  154.8108 C   0  0  0  0  0  0  0  0  0  0  0  0
  148.4566  141.4466  155.7414 N   0  0  0  0  0  0  0  0  0  0  0  0
  149.7955  141.5484  155.7964 C   0  0  0  0  0  0  0  0  0  0  0  0
  150.5807  140.9878  155.0310 O   0  0  0  0  0  0  0  0  0  0  0  0
  150.1808  142.3428  156.8053 N   0  0  0  0  0  0  0  0  0  0  0  0
  151.5631  142.6545  157.1643 C   0  0  0  0  0  0  0  0  0  0  0  0
  151.6737  143.3573  158.5431 C   0  0  2  0  0  0  0  0  0  0  0  0
  152.6978  144.5088  158.4264 C   0  0  0  0  0  0  0  0  0  0  0  0
  151.9451  142.4365  159.6693 N   0  0  0  0  0  0  0  0  0  0  0  0
  153.1857  141.6767  159.4868 C   0  0  0  0  0  0  0  0  0  0  0  0
  153.4844  140.7363  160.6673 C   0  0  0  0  0  0  0  0  0  0  0  0
  153.5381  141.4849  161.8745 O   0  0  0  0  0  0  0  0  0  0  0  0
  152.3263  142.1831  162.1278 C   0  0  0  0  0  0  0  0  0  0  0  0
  152.0225  143.1334  160.9568 C   0  0  0  0  0  0  0  0  0  0  0  0
  146.6630  139.9115  155.0948 N   0  0  0  0  0  0  0  0  0  0  0  0
  146.2363  139.4102  153.8593 O   0  0  0  0  0  0  0  0  0  0  0  0
  147.1203  140.2321  150.7669 H   0  0  0  0  0  0  0  0  0  0  0  0
  145.6504  139.4297  151.3218 H   0  0  0  0  0  0  0  0  0  0  0  0
  147.1744  138.5409  151.2683 H   0  0  0  0  0  0  0  0  0  0  0  0
  148.7307  141.3207  152.9004 H   0  0  0  0  0  0  0  0  0  0  0  0
  147.9338  141.9570  156.4377 H   0  0  0  0  0  0  0  0  0  0  0  0
  149.4633  142.7523  157.3855 H   0  0  0  0  0  0  0  0  0  0  0  0
  152.1777  141.7529  157.1544 H   0  0  0  0  0  0  0  0  0  0  0  0
  151.9865  143.2759  156.3761 H   0  0  0  0  0  0  0  0  0  0  0  0
  150.7057  143.8278  158.7228 H   0  0  0  0  0  0  0  0  0  0  0  0
  152.5325  145.0941  157.5214 H   0  0  0  0  0  0  0  0  0  0  0  0
  153.7209  144.1333  158.3931 H   0  0  0  0  0  0  0  0  0  0  0  0
  152.6238  145.2093  159.2576 H   0  0  0  0  0  0  0  0  0  0  0  0
  153.1296  141.0643  158.5879 H   0  0  0  0  0  0  0  0  0  0  0  0
  154.0231  142.3628  159.3505 H   0  0  0  0  0  0  0  0  0  0  0  0
  152.7224  139.9592  160.7448 H   0  0  0  0  0  0  0  0  0  0  0  0
  154.4405  140.2338  160.5185 H   0  0  0  0  0  0  0  0  0  0  0  0
  151.5108  141.4725  162.2713 H   0  0  0  0  0  0  0  0  0  0  0  0
  152.4273  142.7460  163.0556 H   0  0  0  0  0  0  0  0  0  0  0  0
  152.7895  143.9082  160.9124 H   0  0  0  0  0  0  0  0  0  0  0  0
  151.0815  143.6342  161.1786 H   0  0  0  0  0  0  0  0  0  0  0  0
  1  2  1  0  0  0  0
  1 20  1  0  0  0  0
  1 21  1  0  0  0  0
  1 22  1  0  0  0  0
  2 19  1  0  0  0  0
  2  3  2  0  0  0  0
  3  4  1  0  0  0  0
  3 23  1  0  0  0  0
  4  5  1  0  0  0  0
  4 18  2  0  0  0  0
  5  6  1  0  0  0  0
  5 24  1  0  0  0  0
  6  7  2  0  0  0  0
  6  8  1  0  0  0  0
  8  9  1  0  0  0  0
  8 25  1  0  0  0  0
  9 10  1  0  0  0  0
  9 26  1  0  0  0  0
  9 27  1  0  0  0  0
 10 11  1  0  0  0  0
 10 12  1  0  0  0  0
 10 28  1  0  0  0  0
 11 29  1  0  0  0  0
 11 30  1  0  0  0  0
 11 31  1  0  0  0  0
 12 17  1  0  0  0  0
 12 13  1  0  0  0  0
 13 14  1  0  0  0  0
 13 32  1  0  0  0  0
 13 33  1  0  0  0  0
 14 15  1  0  0  0  0
 14 34  1  0  0  0  0
 14 35  1  0  0  0  0
 15 16  1  0  0  0  0
 16 17  1  0  0  0  0
 16 36  1  0  0  0  0
 16 37  1  0  0  0  0
 17 38  1  0  0  0  0
 17 39  1  0  0  0  0
 18 19  1  0  0  0  0
M  END
> <s_m_source_file>
AV-unprocessed.smi

> <i_m_source_file_index>
2044

> <i_lp_mmshare_version>
43012

> <i_f3d_flags>
0

> <s_epik_input>
W0NIM11jMVtjSF1jKG5vMSlbTkhdQyg9TylbTkhdW0NIMl1bQ0BIXShbQ0gzXSlOMltDSDJdW0NIMl1PW0NIMl1bQ0gyXTI=

> <s_epik_cmdline>
J2VwaWtfcHl0aG9uJywgJy1waCcsICc3LjAnLCAnLXRuJywgJzgnLCAnLW1hJywgJzIwMCcsICctbWV0YWxfYmluZGluZycsICctaW1hZScsICc8aW5maWxlLm1hZT4nLCAnLW9tYWUnLCAnPG91dGZpbGUubWFlPic=

> <r_epik_Ionization_Penalty>
0.214073

> <r_epik_Ionization_Penalty_Charging>
0

> <r_epik_Ionization_Penalty_Neutral>
0.214073

> <r_epik_State_Penalty>
0.204211

> <r_epik_Charging_Adjusted_Penalty>
0.204211

> <i_epik_Tot_Q>
0

> <i_epik_Tot_abs_Q>
0

> <r_epik_Metal_State_Penalty>
0.217151

> <b_epik_Metal_Only>
0

> <s_lp_Force_Field>
OPLS_2005

> <r_lp_Energy>
29.787

> <b_lp_Chiralities_Consistent>
1

> <s_lp_Variant>
AV-unprocessed.smi:2044-1

> <Gold.Version>
5.8.1

> <Gold.Id.Protein>
6NUR|6NUR_protein|mol2

> <Gold.PLP.Fitness>
39.3204

> <Gold.PLP.PLP>
-38.8757

> <Gold.PLP.part.hbond>
-2.7497

> <Gold.PLP.part.metal>
0.0000

> <Gold.PLP.part.buried>
-3.3588

> <Gold.PLP.part.nonpolar>
-32.1676

> <Gold.PLP.part.repulsive>
0.2451

> <Gold.PLP.ligand.clash>
0.0000

> <Gold.PLP.ligand.torsion>
1.0020

> <Gold.PLP.Chemscore.Hbond>
0.8000

> <Gold.PLP.Chemscore.CHOScore>
0.0000

> <Gold.PLP.Chemscore.Metal>
0.0000

> <Gold.Chemscore.Hbonds>
donor molecule, donor type, donor heavy atom, donor atom, acceptor molecule, acceptor atom, score
      P1  H  7989  7998       L1     7  0.72

> <Gold.PLP.Chemscore.Internal.Correction>
0.0487

> <Gold.Rescore>
     Score         DG    S(hbond)    S(metal)    S(lipo)     H(rot)  DE(clash)    DE(int)     intcor
     14.33     -15.99       0.75        0.00     102.99       1.58       0.14       1.53       ----

> <Gold.Chemscore.Fitness>
14.3288

> <Gold.Chemscore.DG>
-15.9939

> <Gold.Chemscore.ZeroCoef>
-5.4800

> <Gold.Chemscore.Hbond>
0.7475

> <Gold.Chemscore.Metal>
0.0000

> <Gold.Chemscore.Lipo>
102.9931

> <Gold.Chemscore.Internal_Hbond>
0.0000

> <Gold.Chemscore.DEClash>
0.1381

> <Gold.Chemscore.DEInternal>
1.5270

> <Gold.Chemscore.Rot>
1.5753

> <Gold.Chemscore.Internal.Correction>
   9.000000E+99

> <Gold.Chemscore.Hbonds>
donor molecule, donor type, donor heavy atom, donor atom, acceptor molecule, acceptor atom, score
      P1  H  7989  7998       L1     7  0.72

> <Gold.Chemscore.Hbond.Weighted>
-2.4966

> <Gold.Chemscore.Metal.Weighted>
-0.0000

> <Gold.Chemscore.Lipo.Weighted>
-12.0502

> <Gold.Chemscore.Internal_Hbond.Weighted>
0.0000

> <Gold.Chemscore.DEClash.Weighted>
0.1381

> <Gold.Chemscore.DEInternal.Weighted>
1.5270

> <Gold.Chemscore.Rot.Weighted>
4.0329

> <Gold.Chemscore.Internal.Correction.Weighted>
   9.000000E+99

> <Gold.Protein.RotatedTorsions>
[ 6907 6896 6895 6894 ] final  119.68 input  -60.11 | X-H torsion
[ 7974 7965 7964 7962 ] final  117.95 input  175.53 | X-H torsion
[ 8008 7997 7996 7995 ] final  113.07 input   59.86 | X-H torsion
[ 10167 10162 10161 10158 ] final  124.71 input  -65.29 | X-H torsion
[ 10718 10713 10712 10709 ] final  -18.52 input   66.30 | X-H torsion
[ 10763 10752 10751 10750 ] final -104.95 input  -60.55 | X-H torsion
[ 11005 11000 10999 10996 ] final  149.70 input  -57.11 | X-H torsion

> <Gold.Protein.ActiveResidues>
 VAL166  LYS551  ARG553  GLY616  TRP617  ASP618  TYR619  PRO620  LYS621  CYS622 
 ASP623  PHE694  ASN695  SER759  ASP760  ASP761  ALA762  ILE779  LEU786  VAL792 
 PHE793  MET794  SER795  GLU796  ALA797  LYS798  CYS799  TRP800  GLU811  SER814 

> <Gold.Protein.RotatedAtoms>
  152.4454  133.7527  159.6702 H   0  0  0  0  0  0  0  0  0  0  0  0  # atno 6907 bound_to 6896
  150.8353  133.8013  159.3088 H   0  0  0  0  0  0  0  0  0  0  0  0  # atno 6908 bound_to 6896
  151.5654  135.1067  160.0034 H   0  0  0  0  0  0  0  0  0  0  0  0  # atno 6909 bound_to 6896
  145.1612  139.3154  143.4516 H   0  0  0  0  0  0  0  0  0  0  0  0  # atno 7974 bound_to 7965
  156.2234  140.2987  156.0007 H   0  0  0  0  0  0  0  0  0  0  0  0  # atno 8008 bound_to 7997
  155.2421  140.0423  157.2993 H   0  0  0  0  0  0  0  0  0  0  0  0  # atno 8009 bound_to 7997
  154.5876  140.2392  155.7973 H   0  0  0  0  0  0  0  0  0  0  0  0  # atno 8010 bound_to 7997
  139.5726  144.6947  151.3737 H   0  0  0  0  0  0  0  0  0  0  0  0  # atno 10167 bound_to 10162
  156.5583  130.4719  149.6418 H   0  0  0  0  0  0  0  0  0  0  0  0  # atno 10718 bound_to 10713
  154.7913  135.4767  154.0060 H   0  0  0  0  0  0  0  0  0  0  0  0  # atno 10763 bound_to 10752
  153.1636  135.6813  153.8714 H   0  0  0  0  0  0  0  0  0  0  0  0  # atno 10764 bound_to 10752
  153.8320  135.3190  155.3397 H   0  0  0  0  0  0  0  0  0  0  0  0  # atno 10765 bound_to 10752
  140.1068  134.8949  157.1877 H   0  0  0  0  0  0  0  0  0  0  0  0  # atno 11005 bound_to 11000
  146.3482  140.1722  142.8589 LP  0  0  0  0  0  0  0  0  0  0  0  0  # atno 17320 bound_to 7965
  145.0329  140.8885  143.5098 LP  0  0  0  0  0  0  0  0  0  0  0  0  # atno 17321 bound_to 7965
  140.7010  143.7631  150.7403 LP  0  0  0  0  0  0  0  0  0  0  0  0  # atno 17342 bound_to 10162
  140.1142  143.4671  152.2352 LP  0  0  0  0  0  0  0  0  0  0  0  0  # atno 17343 bound_to 10162
  156.2822  130.7077  151.1904 LP  0  0  0  0  0  0  0  0  0  0  0  0  # atno 17370 bound_to 10713
  157.7373  131.0552  150.5360 LP  0  0  0  0  0  0  0  0  0  0  0  0  # atno 17371 bound_to 10713
  140.3145  134.2986  155.7259 LP  0  0  0  0  0  0  0  0  0  0  0  0  # atno 17394 bound_to 11000
  141.2120  133.7671  156.9824 LP  0  0  0  0  0  0  0  0  0  0  0  0  # atno 17395 bound_to 11000

$$$$
