#       Name:                AV-unprocessed.smi:1047
#       Creating user name   scv26
#       Creation time:       Fri Mar 27 03:07:04 2020


#       File generated by GOLD software.
#

@<TRIPOS>MOLECULE
AV-unprocessed.smi:1047
    62    64     1
SMALL
NO_CHARGES


@<TRIPOS>ATOM
      1 ****        -6.4557   4.0862  -1.8279 C.3            1 S1                 0.0000
      2 ****        -5.3098   4.5870  -2.7191 C.3            1 S1                 0.0000
      3 ****        -3.9672   4.3223  -2.2045 N.3            1 S1                 0.0000
      4 ****        -2.9582   5.0205  -2.9934 C.3            1 S1                 0.0000
      5 ****        -1.5359   4.7526  -2.4733 C.3            1 S1                 0.0000
      6 ****        -1.2932   3.3496  -2.4556 O.3            1 S1                 0.0000
      7 ****        -2.2238   2.6335  -1.6470 C.3            1 S1                 0.0000
      8 ****        -1.8583   1.1440  -1.6997 C.3            1 S1                 0.0000
      9 ****        -0.5666   0.8890  -1.0323 N.4            1 S1                 1.0000
     10 ****        -0.1492  -0.5276  -1.0491 C.3            1 S1                 0.0000
     11 ****         1.2004  -0.7229  -0.3380 C.3            1 S1                 0.0000
     12 ****         1.0286  -0.4779   1.0448 O.3            1 S1                 0.0000
     13 ****         1.7633  -2.1429  -0.5474 C.3            1 S1                 0.0000
     14 ****         3.0702  -2.3386   0.0976 N.pl3          1 S1                 0.0000
     15 ****         4.3132  -2.0071  -0.3467 C.2            1 S1                 0.0000
     16 ****         5.2070  -2.3900   0.6060 N.pl3          1 S1                 1.0000
     17 ****         4.5265  -2.9756   1.6751 C.ar           1 S1                 0.0000
     18 ****         4.9979  -3.5130   2.8668 C.ar           1 S1                 0.0000
     19 ****         4.0388  -4.0385   3.7615 C.ar           1 S1                 0.0000
     20 ****         4.5205  -4.6329   5.0741 C.3            1 S1                 0.0000
     21 ****         2.6559  -4.0137   3.4455 C.ar           1 S1                 0.0000
     22 ****         1.6336  -4.5820   4.4153 C.3            1 S1                 0.0000
     23 ****         2.1962  -3.4621   2.2280 C.ar           1 S1                 0.0000
     24 ****         3.1543  -2.9482   1.3564 C.ar           1 S1                 0.0000
     25 ****        -3.6470   2.8973  -2.1794 C.3            1 S1                 0.0000
     26 ****        -7.4176   4.4151  -2.2215 H              1 S1                 0.0000
     27 ****        -6.3639   4.4754  -0.8135 H              1 S1                 0.0000
     28 ****        -6.4853   2.9983  -1.7724 H              1 S1                 0.0000
     29 ****        -5.4146   4.1642  -3.7193 H              1 S1                 0.0000
     30 ****        -5.4348   5.6644  -2.8354 H              1 S1                 0.0000
     31 ****        -3.0237   4.7094  -4.0373 H              1 S1                 0.0000
     32 ****        -3.1514   6.0937  -2.9756 H              1 S1                 0.0000
     33 ****        -0.7992   5.2343  -3.1163 H              1 S1                 0.0000
     34 ****        -1.4056   5.1651  -1.4716 H              1 S1                 0.0000
     35 ****        -2.1544   2.9863  -0.6162 H              1 S1                 0.0000
     36 ****        -2.6297   0.5572  -1.1993 H              1 S1                 0.0000
     37 ****        -1.8137   0.8023  -2.7348 H              1 S1                 0.0000
     38 ****         0.1438   1.4402  -1.4927 H              1 S1                 0.0000
     39 ****        -0.9189  -1.1483  -0.5878 H              1 S1                 0.0000
     40 ****        -0.0649  -0.8454  -2.0892 H              1 S1                 0.0000
     41 ****         1.9198   0.0006  -0.7247 H              1 S1                 0.0000
     42 ****         0.4394  -1.1270   1.3979 H              1 S1                 0.0000
     43 ****         1.0662  -2.9040  -0.1962 H              1 S1                 0.0000
     44 ****         1.9050  -2.3305  -1.6125 H              1 S1                 0.0000
     45 ****         4.5492  -1.5264  -1.2853 H              1 S1                 0.0000
     46 ****         6.0525  -3.5283   3.1008 H              1 S1                 0.0000
     47 ****         4.2607  -5.6901   5.1331 H              1 S1                 0.0000
     48 ****         4.0659  -4.1158   5.9195 H              1 S1                 0.0000
     49 ****         5.6028  -4.5493   5.1768 H              1 S1                 0.0000
     50 ****         0.6212  -4.5109   4.0169 H              1 S1                 0.0000
     51 ****         1.6587  -4.0379   5.3598 H              1 S1                 0.0000
     52 ****         1.8386  -5.6340   4.6154 H              1 S1                 0.0000
     53 ****         1.1427  -3.4430   1.9935 H              1 S1                 0.0000
     54 ****        -4.3586   2.3646  -1.5489 H              1 S1                 0.0000
     55 ****        -3.7450   2.4798  -3.1830 H              1 S1                 0.0000
     56 ****        -0.6334   1.1916  -0.0707 H              1 S1                 0.0000
     57 ****         6.2078  -2.2601   0.5302 H              1 S1                 0.0000
     58 ****        -3.9592   4.6616  -1.2638 LP             1 S1                 0.0000
     59 ****        -0.3726   3.1899  -2.0993 LP             1 S1                 0.0000
     60 ****        -1.3528   3.0040  -3.3921 LP             1 S1                 0.0000
     61 ****         0.6428   0.4348   1.1791 LP             1 S1                 0.0000
     62 ****         1.9122  -0.5379   1.5092 LP             1 S1                 0.0000
@<TRIPOS>BOND
    1    1    2 1     
    2    1   26 1     
    3    1   27 1     
    4    1   28 1     
    5    2    3 1     
    6    2   29 1     
    7    2   30 1     
    8    3   25 1     
    9    3    4 1     
   10    4    5 1     
   11    4   31 1     
   12    4   32 1     
   13    5    6 1     
   14    5   33 1     
   15    5   34 1     
   16    6    7 1     
   17    7    8 1     
   18    7   25 1     
   19    7   35 1     
   20    8    9 1     
   21    8   36 1     
   22    8   37 1     
   23    9   10 1     
   24    9   38 1     
   25    9   56 1     
   26   10   11 1     
   27   10   39 1     
   28   10   40 1     
   29   11   12 1     
   30   11   13 1     
   31   11   41 1     
   32   12   42 1     
   33   13   14 1     
   34   13   43 1     
   35   13   44 1     
   36   14   24 1     
   37   14   15 1     
   38   15   16 2     
   39   15   45 1     
   40   16   17 1     
   41   16   57 1     
   42   17   24 ar    
   43   17   18 ar    
   44   18   19 ar    
   45   18   46 1     
   46   19   20 1     
   47   19   21 ar    
   48   20   47 1     
   49   20   48 1     
   50   20   49 1     
   51   21   22 1     
   52   21   23 ar    
   53   22   50 1     
   54   22   51 1     
   55   22   52 1     
   56   23   24 ar    
   57   23   53 1     
   58   25   54 1     
   59   25   55 1     
   60    3   58 1     
   61    6   59 1     
   62    6   60 1     
   63   12   61 1     
   64   12   62 1     
@<TRIPOS>SUBSTRUCTURE
      1 S1             1
@<TRIPOS>SET
LONE_PAIRS      STATIC     ATOMS    <user>   **** ""
5 58 59 60 61 62
DONOR_HYDROGENS      STATIC     ATOMS    <user>   **** ""
4 38 56 42 57
ATOM$BLUE        STATIC     ATOMS    COLORGROUP SYSTEM
5 58 59 60 61 62
ATOM$RED        STATIC     ATOMS    COLORGROUP SYSTEM
4 38 56 42 57
