#       Name:                AV-unprocessed.smi:148
#       Creating user name   scv26
#       Creation time:       Thu Mar 26 18:41:26 2020


#       File generated by GOLD software.
#

@<TRIPOS>MOLECULE
AV-unprocessed.smi:148
    73    77     1
SMALL
NO_CHARGES


@<TRIPOS>ATOM
      1 ****        -2.3363  -3.2303   1.5955 O.3            1 S1                 0.0000
      2 ****        -1.0193  -2.7949   1.8619 C.3            1 S1                 0.0000
      3 ****        -0.9884  -1.7974   3.0458 C.3            1 S1                 0.0000
      4 ****         0.3993  -1.1206   3.2172 C.3            1 S1                 0.0000
      5 ****         0.8702  -0.4795   2.0030 N.pl3          1 S1                 0.0000
      6 ****         1.9078  -0.8964   1.1988 C.2            1 S1                 0.0000
      7 ****         2.1229  -0.1614   0.1419 N.2            1 S1                 0.0000
      8 ****         1.1678   0.8421   0.2342 C.ar           1 S1                 0.0000
      9 ****         0.8161   1.9456  -0.5850 C.ar           1 S1                 0.0000
     10 ****         1.4564   2.2007  -1.7458 N.3            1 S1                 0.0000
     11 ****         2.1833   3.4685  -1.6532 C.3            1 S1                 0.0000
     12 ****         3.1706   3.6307  -2.8128 C.3            1 S1                 0.0000
     13 ****         2.4322   3.4954  -4.1452 C.3            1 S1                 0.0000
     14 ****         1.6805   2.1588  -4.1925 C.3            1 S1                 0.0000
     15 ****         0.7035   1.9752  -2.9980 C.3            1 S1                 0.0000
     16 ****        -0.0051   0.5764  -3.0795 C.3            1 S1                 0.0000
     17 ****        -1.2562   0.3691  -2.1955 C.3            1 S1                 0.0000
     18 ****        -2.0858  -0.7492  -2.8429 C.3            1 S1                 0.0000
     19 ****        -1.4328  -1.0351  -4.1979 C.3            1 S1                 0.0000
     20 ****        -0.5323   0.1699  -4.4725 C.3            1 S1                 0.0000
     21 ****        -1.3220   1.1965  -5.0476 O.3            1 S1                 0.0000
     22 ****        -0.2028   2.7479  -0.1774 N.ar           1 S1                 0.0000
     23 ****        -0.8479   2.4743   0.9611 C.ar           1 S1                 0.0000
     24 ****        -0.6435   1.4694   1.8167 N.ar           1 S1                 0.0000
     25 ****         0.3825   0.6691   1.4065 C.ar           1 S1                 0.0000
     26 ****        -1.5246  -2.4320   4.3601 C.3            1 S1                 0.0000
     27 ****        -0.6827  -3.5827   4.9208 C.3            1 S1                 0.0000
     28 ****        -0.4901  -3.2217   6.3917 C.3            1 S1                 0.0000
     29 ****        -0.5559  -1.8060   6.3942 O.3            1 S1                 0.0000
     30 ****        -1.6301  -1.4515   5.5383 C.3            1 S1                 0.0000
     31 ****        -2.3160  -3.8186   0.8560 H              1 S1                 0.0000
     32 ****        -0.3856  -3.6596   2.0594 H              1 S1                 0.0000
     33 ****        -0.6491  -2.3338   0.9464 H              1 S1                 0.0000
     34 ****        -1.6867  -0.9992   2.7888 H              1 S1                 0.0000
     35 ****         0.3695  -0.3600   3.9971 H              1 S1                 0.0000
     36 ****         1.1531  -1.8436   3.5263 H              1 S1                 0.0000
     37 ****         2.4944  -1.7778   1.4140 H              1 S1                 0.0000
     38 ****         1.4733   4.2970  -1.6592 H              1 S1                 0.0000
     39 ****         2.7254   3.5210  -0.7074 H              1 S1                 0.0000
     40 ****         3.6662   4.5999  -2.7522 H              1 S1                 0.0000
     41 ****         3.9518   2.8728  -2.7423 H              1 S1                 0.0000
     42 ****         1.7283   4.3198  -4.2655 H              1 S1                 0.0000
     43 ****         3.1374   3.5605  -4.9742 H              1 S1                 0.0000
     44 ****         1.1550   2.1108  -5.1448 H              1 S1                 0.0000
     45 ****         2.4034   1.3415  -4.1996 H              1 S1                 0.0000
     46 ****        -0.0588   2.7525  -3.0677 H              1 S1                 0.0000
     47 ****         0.7271  -0.1811  -2.7935 H              1 S1                 0.0000
     48 ****        -1.0134   0.1000  -1.1697 H              1 S1                 0.0000
     49 ****        -1.8465   1.2857  -2.1623 H              1 S1                 0.0000
     50 ****        -2.0994  -1.6469  -2.2237 H              1 S1                 0.0000
     51 ****        -3.1190  -0.4246  -2.9705 H              1 S1                 0.0000
     52 ****        -0.8161  -1.9310  -4.1145 H              1 S1                 0.0000
     53 ****        -2.1613  -1.2170  -4.9892 H              1 S1                 0.0000
     54 ****         0.2719  -0.0921  -5.1607 H              1 S1                 0.0000
     55 ****        -0.7787   1.9597  -5.1712 H              1 S1                 0.0000
     56 ****        -1.6471   3.1531   1.2193 H              1 S1                 0.0000
     57 ****        -2.5329  -2.8017   4.1701 H              1 S1                 0.0000
     58 ****        -1.1726  -4.5497   4.8031 H              1 S1                 0.0000
     59 ****         0.2868  -3.6545   4.4305 H              1 S1                 0.0000
     60 ****        -1.2992  -3.6262   7.0019 H              1 S1                 0.0000
     61 ****         0.4571  -3.5823   6.7933 H              1 S1                 0.0000
     62 ****        -1.5854  -0.4026   5.2443 H              1 S1                 0.0000
     63 ****        -2.5690  -1.6006   6.0741 H              1 S1                 0.0000
     64 ****        -2.9150  -2.4428   1.3836 LP             1 S1                 0.0000
     65 ****        -2.7017  -3.7069   2.3951 LP             1 S1                 0.0000
     66 ****         2.8144  -0.2909  -0.5687 LP             1 S1                 0.0000
     67 ****         2.1332   1.4722  -1.8515 LP             1 S1                 0.0000
     68 ****        -2.0823   1.4190  -4.4373 LP             1 S1                 0.0000
     69 ****        -1.6810   0.8916  -5.9297 LP             1 S1                 0.0000
     70 ****        -0.4688   3.5397  -0.7271 LP             1 S1                 0.0000
     71 ****        -1.1745   1.3223   2.6512 LP             1 S1                 0.0000
     72 ****         0.3006  -1.4197   6.0519 LP             1 S1                 0.0000
     73 ****        -0.7266  -1.4697   7.3204 LP             1 S1                 0.0000
@<TRIPOS>BOND
    1    1    2 1     
    2    1   31 1     
    3    2    3 1     
    4    2   32 1     
    5    2   33 1     
    6    3    4 1     
    7    3   26 1     
    8    3   34 1     
    9    4    5 1     
   10    4   35 1     
   11    4   36 1     
   12    5   25 1     
   13    5    6 1     
   14    6    7 2     
   15    6   37 1     
   16    7    8 1     
   17    8   25 ar    
   18    8    9 ar    
   19    9   10 1     
   20    9   22 ar    
   21   10   15 1     
   22   10   11 1     
   23   11   12 1     
   24   11   38 1     
   25   11   39 1     
   26   12   13 1     
   27   12   40 1     
   28   12   41 1     
   29   13   14 1     
   30   13   42 1     
   31   13   43 1     
   32   14   15 1     
   33   14   44 1     
   34   14   45 1     
   35   15   16 1     
   36   15   46 1     
   37   16   20 1     
   38   16   17 1     
   39   16   47 1     
   40   17   18 1     
   41   17   48 1     
   42   17   49 1     
   43   18   19 1     
   44   18   50 1     
   45   18   51 1     
   46   19   20 1     
   47   19   52 1     
   48   19   53 1     
   49   20   21 1     
   50   20   54 1     
   51   21   55 1     
   52   22   23 ar    
   53   23   24 ar    
   54   23   56 1     
   55   24   25 ar    
   56   26   30 1     
   57   26   27 1     
   58   26   57 1     
   59   27   28 1     
   60   27   58 1     
   61   27   59 1     
   62   28   29 1     
   63   28   60 1     
   64   28   61 1     
   65   29   30 1     
   66   30   62 1     
   67   30   63 1     
   68    1   64 1     
   69    1   65 1     
   70    7   66 1     
   71   10   67 1     
   72   21   68 1     
   73   21   69 1     
   74   22   70 1     
   75   24   71 1     
   76   29   72 1     
   77   29   73 1     
@<TRIPOS>SUBSTRUCTURE
      1 S1             1
@<TRIPOS>SET
LONE_PAIRS      STATIC     ATOMS    <user>   **** ""
10 64 65 66 67 68 69 70 71 72 73
DONOR_HYDROGENS      STATIC     ATOMS    <user>   **** ""
2 31 55
ATOM$BLUE        STATIC     ATOMS    COLORGROUP SYSTEM
10 64 65 66 67 68 69 70 71 72 73
ATOM$RED        STATIC     ATOMS    COLORGROUP SYSTEM
2 31 55
