AV-unprocessed.smi:100|AV-procd|sdf|910|dock3
  -GOLD-   2262017403D 1   1.00000     0.00000
 Structure written by MMmdl.
 31 33  0  0  0  0  0  0  0  0  1 V2000
  152.7712  139.4524  158.3584 N   0  0  0  0  0  0  0  0  0  0  0  0
  152.2493  139.6129  157.1345 C   0  0  0  0  0  0  0  0  0  0  0  0
  152.8816  139.0376  156.0847 N   0  0  0  0  0  0  0  0  0  0  0  0
  152.3819  139.1840  154.8529 C   0  0  0  0  0  0  0  0  0  0  0  0
  151.2890  139.8492  154.4671 N   0  0  0  0  0  0  0  0  0  0  0  0
  150.6525  140.4236  155.5296 C   0  0  0  0  0  0  0  0  0  0  0  0
  151.0675  140.3558  156.8879 C   0  0  0  0  0  0  0  0  0  0  0  0
  150.1810  141.0640  157.6890 N   0  0  0  0  0  0  0  0  0  0  0  0
  149.2931  141.5210  156.8465 C   0  0  0  0  0  0  0  0  0  0  0  0
  149.5003  141.1779  155.5274 N   0  0  0  0  0  0  0  0  0  0  0  0
  148.6856  141.5400  154.3308 C   0  0  1  0  0  0  0  0  0  0  0  0
  148.5499  140.3867  153.5571 O   0  0  0  0  0  0  0  0  0  0  0  0
  147.2111  140.2868  153.0923 C   0  0  1  0  0  0  0  0  0  0  0  0
  146.8676  138.8390  152.7102 C   0  0  0  0  0  0  0  0  0  0  0  0
  145.5908  138.7880  152.1113 O   0  0  0  0  0  0  0  0  0  0  0  0
  146.4059  140.8365  154.2706 C   0  0  1  0  0  0  0  0  0  0  0  0
  146.2882  139.9162  155.2303 F   0  0  0  0  0  0  0  0  0  0  0  0
  147.2776  141.9767  154.7719 C   0  0  2  0  0  0  0  0  0  0  0  0
  146.8886  143.1980  154.1758 O   0  0  0  0  0  0  0  0  0  0  0  0
  152.3176  139.8717  159.1573 H   0  0  0  0  0  0  0  0  0  0  0  0
  153.6135  138.9091  158.4793 H   0  0  0  0  0  0  0  0  0  0  0  0
  152.9361  138.6976  154.0639 H   0  0  0  0  0  0  0  0  0  0  0  0
  148.4566  142.1254  157.1664 H   0  0  0  0  0  0  0  0  0  0  0  0
  149.2559  142.3060  153.8027 H   0  0  0  0  0  0  0  0  0  0  0  0
  147.0797  140.9530  152.2372 H   0  0  0  0  0  0  0  0  0  0  0  0
  147.6179  138.4160  152.0411 H   0  0  0  0  0  0  0  0  0  0  0  0
  146.8360  138.2126  153.6022 H   0  0  0  0  0  0  0  0  0  0  0  0
  145.1237  139.5793  152.3316 H   0  0  0  0  0  0  0  0  0  0  0  0
  145.3959  141.1433  153.9958 H   0  0  0  0  0  0  0  0  0  0  0  0
  147.2174  142.0900  155.8559 H   0  0  0  0  0  0  0  0  0  0  0  0
  147.5298  143.8564  154.3968 H   0  0  0  0  0  0  0  0  0  0  0  0
  1  2  1  0  0  0  0
  1 20  1  0  0  0  0
  1 21  1  0  0  0  0
  2  7  1  0  0  0  0
  2  3  2  0  0  0  0
  3  4  1  0  0  0  0
  4  5  2  0  0  0  0
  4 22  1  0  0  0  0
  5  6  1  0  0  0  0
  6 10  1  0  0  0  0
  6  7  2  0  0  0  0
  7  8  1  0  0  0  0
  8  9  2  0  0  0  0
  9 10  1  0  0  0  0
  9 23  1  0  0  0  0
 10 11  1  0  0  0  0
 11 18  1  0  0  0  0
 11 12  1  0  0  0  0
 11 24  1  0  0  0  0
 12 13  1  0  0  0  0
 13 14  1  0  0  0  0
 13 16  1  0  0  0  0
 13 25  1  0  0  0  0
 14 15  1  0  0  0  0
 14 26  1  0  0  0  0
 14 27  1  0  0  0  0
 15 28  1  0  0  0  0
 16 17  1  0  0  0  0
 16 18  1  0  0  0  0
 16 29  1  0  0  0  0
 18 19  1  0  0  0  0
 18 30  1  0  0  0  0
 19 31  1  0  0  0  0
M  END
> <s_m_source_file>
AV-unprocessed.smi

> <i_m_source_file_index>
100

> <i_lp_mmshare_version>
43012

> <i_f3d_flags>
0

> <s_epik_input>
bjFbY0hdbmMoW05IMl0pYyhjMTIpbltjSF1uMltDQEBIXTNPW0NAQEhdKFtDSDJdW09IXSlbQ0BIXShGKVtDQEhdM1tPSF0=

> <s_epik_cmdline>
J2VwaWtfcHl0aG9uJywgJy1waCcsICc3LjAnLCAnLXRuJywgJzgnLCAnLW1hJywgJzIwMCcsICctbWV0YWxfYmluZGluZycsICctaW1hZScsICc8aW5maWxlLm1hZT4nLCAnLW9tYWUnLCAnPG91dGZpbGUubWFlPic=

> <r_lp_tautomer_probability>
1

> <r_epik_Ionization_Penalty>
0.000750324

> <r_epik_Ionization_Penalty_Charging>
0

> <r_epik_Ionization_Penalty_Neutral>
0.000750324

> <r_epik_State_Penalty>
-0

> <r_epik_Charging_Adjusted_Penalty>
0

> <i_epik_Tot_Q>
0

> <i_epik_Tot_abs_Q>
0

> <r_epik_Metal_State_Penalty>
-0

> <b_epik_Metal_Only>
0

> <s_epik_Chemistry_Notes>
This compound contains an acetal/aminal-like group ( X-CH(R)-Y where X, Y are N, S, or O) that may be acid/base labile, releasing an aldehyde.

> <s_lp_Force_Field>
OPLS_2005

> <r_lp_Energy>
27.3407

> <b_lp_Chiralities_Consistent>
1

> <s_lp_Variant>
AV-unprocessed.smi:100-14

> <Gold.Version>
5.8.1

> <Gold.Id.Protein>
6NUR|6NUR_protein|mol2

> <Gold.PLP.Fitness>
41.6732

> <Gold.PLP.PLP>
-30.6960

> <Gold.PLP.part.hbond>
-5.9002

> <Gold.PLP.part.metal>
0.0000

> <Gold.PLP.part.buried>
-3.5558

> <Gold.PLP.part.nonpolar>
-23.6189

> <Gold.PLP.part.repulsive>
2.6297

> <Gold.PLP.ligand.clash>
0.0000

> <Gold.PLP.ligand.torsion>
0.4958

> <Gold.PLP.Chemscore.Hbond>
3.8784

> <Gold.PLP.Chemscore.CHOScore>
0.1058

> <Gold.PLP.Chemscore.Metal>
0.0000

> <Gold.Chemscore.Hbonds>
donor molecule, donor type, donor heavy atom, donor atom, acceptor molecule, acceptor atom, score
      L1  H    15    28       P1 10175  1.00
      L1  H    19    31       P1  8028  0.75
      P1  H  7989  7998       L1     5  0.78
      P1  H  7997  8010       L1     3  0.65

> <Gold.PLP.Chemscore.Internal.Correction>
0.0163

> <Gold.Rescore>
     Score         DG    S(hbond)    S(metal)    S(lipo)     H(rot)  DE(clash)    DE(int)     intcor
      5.00      -7.25       1.97        0.00      28.75       3.19       0.53       1.72       ----

> <Gold.Chemscore.Fitness>
5.0034

> <Gold.Chemscore.DG>
-7.2498

> <Gold.Chemscore.ZeroCoef>
-5.4800

> <Gold.Chemscore.Hbond>
1.9679

> <Gold.Chemscore.Metal>
0.0000

> <Gold.Chemscore.Lipo>
28.7486

> <Gold.Chemscore.Internal_Hbond>
0.0000

> <Gold.Chemscore.DEClash>
0.5297

> <Gold.Chemscore.DEInternal>
1.7168

> <Gold.Chemscore.Rot>
3.1901

> <Gold.Chemscore.Internal.Correction>
   9.000000E+99

> <Gold.Chemscore.Hbonds>
donor molecule, donor type, donor heavy atom, donor atom, acceptor molecule, acceptor atom, score
      L1  H    15    28       P1 10175  0.95
      L1  H    19    31       P1  8028  0.09
      P1  H  7989  7998       L1     5  0.44
      P1  H  7997  8010       L1     3  0.04

> <Gold.Chemscore.Hbond.Weighted>
-6.5729

> <Gold.Chemscore.Metal.Weighted>
-0.0000

> <Gold.Chemscore.Lipo.Weighted>
-3.3636

> <Gold.Chemscore.Internal_Hbond.Weighted>
0.0000

> <Gold.Chemscore.DEClash.Weighted>
0.5297

> <Gold.Chemscore.DEInternal.Weighted>
1.7168

> <Gold.Chemscore.Rot.Weighted>
8.1667

> <Gold.Chemscore.Internal.Correction.Weighted>
   9.000000E+99

> <Gold.Protein.RotatedTorsions>
[ 6907 6896 6895 6894 ] final  -52.90 input  -60.11 | X-H torsion
[ 7974 7965 7964 7962 ] final -169.16 input  175.53 | X-H torsion
[ 8008 7997 7996 7995 ] final   82.06 input   59.86 | X-H torsion
[ 10167 10162 10161 10158 ] final   95.32 input  -65.29 | X-H torsion
[ 10718 10713 10712 10709 ] final    8.91 input   66.30 | X-H torsion
[ 10763 10752 10751 10750 ] final  -26.42 input  -60.55 | X-H torsion
[ 11005 11000 10999 10996 ] final -109.87 input  -57.11 | X-H torsion

> <Gold.Protein.ActiveResidues>
 VAL166  LYS551  ARG553  GLY616  TRP617  ASP618  TYR619  PRO620  LYS621  CYS622 
 ASP623  PHE694  ASN695  SER759  ASP760  ASP761  ALA762  ILE779  LEU786  VAL792 
 PHE793  MET794  SER795  GLU796  ALA797  LYS798  CYS799  TRP800  GLU811  SER814 

> <Gold.Protein.RotatedAtoms>
  150.8476  134.7790  159.6982 H   0  0  0  0  0  0  0  0  0  0  0  0  # atno 6907 bound_to 6896
  152.4549  134.5311  159.9821 H   0  0  0  0  0  0  0  0  0  0  0  0  # atno 6908 bound_to 6896
  151.5438  133.3390  159.2976 H   0  0  0  0  0  0  0  0  0  0  0  0  # atno 6909 bound_to 6896
  144.7190  140.2263  143.6310 H   0  0  0  0  0  0  0  0  0  0  0  0  # atno 7974 bound_to 7965
  155.9055  140.3430  155.6059 H   0  0  0  0  0  0  0  0  0  0  0  0  # atno 8008 bound_to 7997
  155.7449  140.0812  157.2247 H   0  0  0  0  0  0  0  0  0  0  0  0  # atno 8009 bound_to 7997
  154.4049  140.1564  156.2645 H   0  0  0  0  0  0  0  0  0  0  0  0  # atno 8010 bound_to 7997
  139.8000  144.6818  150.9778 H   0  0  0  0  0  0  0  0  0  0  0  0  # atno 10167 bound_to 10162
  156.9585  130.5924  149.5661 H   0  0  0  0  0  0  0  0  0  0  0  0  # atno 10718 bound_to 10713
  153.7157  135.6948  153.5026 H   0  0  0  0  0  0  0  0  0  0  0  0  # atno 10763 bound_to 10752
  153.2240  135.4360  155.0520 H   0  0  0  0  0  0  0  0  0  0  0  0  # atno 10764 bound_to 10752
  154.8300  135.3467  154.6692 H   0  0  0  0  0  0  0  0  0  0  0  0  # atno 10765 bound_to 10752
  141.0823  133.9198  157.2261 H   0  0  0  0  0  0  0  0  0  0  0  0  # atno 11005 bound_to 11000
  145.8453  139.2149  143.1803 LP  0  0  0  0  0  0  0  0  0  0  0  0  # atno 17320 bound_to 7965
  146.0309  140.8258  142.9876 LP  0  0  0  0  0  0  0  0  0  0  0  0  # atno 17321 bound_to 7965
  140.7820  143.4292  151.0721 LP  0  0  0  0  0  0  0  0  0  0  0  0  # atno 17342 bound_to 10162
  139.7964  143.8145  152.3158 LP  0  0  0  0  0  0  0  0  0  0  0  0  # atno 17343 bound_to 10162
  156.0332  130.5422  150.8587 LP  0  0  0  0  0  0  0  0  0  0  0  0  # atno 17370 bound_to 10713
  157.5673  131.0946  150.9470 LP  0  0  0  0  0  0  0  0  0  0  0  0  # atno 17371 bound_to 10713
  139.9638  135.0147  156.9333 LP  0  0  0  0  0  0  0  0  0  0  0  0  # atno 17394 bound_to 11000
  140.5440  134.0692  155.7349 LP  0  0  0  0  0  0  0  0  0  0  0  0  # atno 17395 bound_to 11000

$$$$
