AV-unprocessed.smi:1867|AV-procd|sdf|7560|dock3
  -GOLD-   22720 9273D 1   1.00000     0.00000
 Structure written by MMmdl.
 52 55  0  0  0  0  0  0  0  0  2 V2000
  147.2366  136.1771  156.0557 O   0  0  0  0  0  0  0  0  0  0  0  0
  147.7025  136.1959  154.9188 C   0  0  0  0  0  0  0  0  0  0  0  0
  148.6096  137.0882  154.4755 N   0  0  0  0  0  0  0  0  0  0  0  0
  149.2732  138.1102  155.2056 C   0  0  0  0  0  0  0  0  0  0  0  0
  149.4280  138.1111  156.6110 C   0  0  0  0  0  0  0  0  0  0  0  0
  150.1293  139.1695  157.2193 C   0  0  0  0  0  0  0  0  0  0  0  0
  150.6672  140.1979  156.4095 C   0  0  0  0  0  0  0  0  0  0  0  0
  151.3699  141.2794  156.9774 N   0  0  0  0  0  0  0  0  0  0  0  0
  150.9758  142.6623  156.7633 C   0  0  0  0  0  0  0  0  0  0  0  0
  151.9168  143.4776  157.6501 C   0  0  0  0  0  0  0  0  0  0  0  0
  152.1985  142.5357  158.8207 C   0  0  0  0  0  0  0  0  0  0  0  0
  152.1670  141.1397  158.1894 C   0  0  0  0  0  0  0  0  0  0  0  0
  150.5234  140.1900  155.0627 N   0  0  0  0  0  0  0  0  0  0  0  0
  149.8526  139.1724  154.4841 C   0  0  0  0  0  0  0  0  0  0  0  0
  147.2921  135.3175  153.9871 N   0  0  0  0  0  0  0  0  0  0  0  0
  146.3242  134.2307  154.1388 C   0  0  2  0  0  0  0  0  0  0  0  0
  146.9042  132.9563  154.7835 C   0  0  0  0  0  0  0  0  0  0  0  0
  146.2530  131.7812  154.0266 C   0  0  0  0  0  0  0  0  0  0  0  0
  145.2879  132.4019  153.0992 N   0  3  2  0  0  0  0  0  0  0  0  0
  144.9159  131.6307  151.8930 C   0  0  0  0  0  0  0  0  0  0  0  0
  143.8436  132.4091  151.1038 C   0  0  0  0  0  0  0  0  0  0  0  0
  144.2927  133.8533  150.7981 C   0  0  0  0  0  0  0  0  0  0  0  0
  144.7588  134.5744  152.0779 C   0  0  0  0  0  0  0  0  0  0  0  0
  145.8338  133.7296  152.7808 C   0  0  1  0  0  0  0  0  0  0  0  0
  148.8202  137.0557  153.4890 H   0  0  0  0  0  0  0  0  0  0  0  0
  149.0392  137.3186  157.2312 H   0  0  0  0  0  0  0  0  0  0  0  0
  150.2449  139.1725  158.2926 H   0  0  0  0  0  0  0  0  0  0  0  0
  151.0646  142.9507  155.7155 H   0  0  0  0  0  0  0  0  0  0  0  0
  149.9393  142.7966  157.0751 H   0  0  0  0  0  0  0  0  0  0  0  0
  152.8441  143.6837  157.1136 H   0  0  0  0  0  0  0  0  0  0  0  0
  151.4872  144.4301  157.9610 H   0  0  0  0  0  0  0  0  0  0  0  0
  153.1409  142.7514  159.3246 H   0  0  0  0  0  0  0  0  0  0  0  0
  151.3976  142.6211  159.5565 H   0  0  0  0  0  0  0  0  0  0  0  0
  151.7507  140.4074  158.8823 H   0  0  0  0  0  0  0  0  0  0  0  0
  153.1714  140.8180  157.9125 H   0  0  0  0  0  0  0  0  0  0  0  0
  149.7730  139.2119  153.4075 H   0  0  0  0  0  0  0  0  0  0  0  0
  147.6595  135.4526  153.0562 H   0  0  0  0  0  0  0  0  0  0  0  0
  145.4616  134.5700  154.7162 H   0  0  0  0  0  0  0  0  0  0  0  0
  147.9888  132.9112  154.6717 H   0  0  0  0  0  0  0  0  0  0  0  0
  146.6843  132.9222  155.8513 H   0  0  0  0  0  0  0  0  0  0  0  0
  147.0112  131.2311  153.4671 H   0  0  0  0  0  0  0  0  0  0  0  0
  145.7511  131.0817  154.6956 H   0  0  0  0  0  0  0  0  0  0  0  0
  145.7976  131.4599  151.2735 H   0  0  0  0  0  0  0  0  0  0  0  0
  144.5320  130.6531  152.1866 H   0  0  0  0  0  0  0  0  0  0  0  0
  143.6083  131.8861  150.1765 H   0  0  0  0  0  0  0  0  0  0  0  0
  142.9198  132.4362  151.6833 H   0  0  0  0  0  0  0  0  0  0  0  0
  145.1094  133.8328  150.0755 H   0  0  0  0  0  0  0  0  0  0  0  0
  143.4794  134.4080  150.3289 H   0  0  0  0  0  0  0  0  0  0  0  0
  145.1534  135.5605  151.8310 H   0  0  0  0  0  0  0  0  0  0  0  0
  143.9093  134.7338  152.7436 H   0  0  0  0  0  0  0  0  0  0  0  0
  146.6900  133.6015  152.1139 H   0  0  0  0  0  0  0  0  0  0  0  0
  144.4418  132.5600  153.6277 H   0  0  0  0  0  0  0  0  0  0  0  0
  1  2  2  0  0  0  0
  2  3  1  0  0  0  0
  2 15  1  0  0  0  0
  3  4  1  0  0  0  0
  3 25  1  0  0  0  0
  4 14  1  0  0  0  0
  4  5  2  0  0  0  0
  5  6  1  0  0  0  0
  5 26  1  0  0  0  0
  6  7  2  0  0  0  0
  6 27  1  0  0  0  0
  7  8  1  0  0  0  0
  7 13  1  0  0  0  0
  8 12  1  0  0  0  0
  8  9  1  0  0  0  0
  9 10  1  0  0  0  0
  9 28  1  0  0  0  0
  9 29  1  0  0  0  0
 10 11  1  0  0  0  0
 10 30  1  0  0  0  0
 10 31  1  0  0  0  0
 11 12  1  0  0  0  0
 11 32  1  0  0  0  0
 11 33  1  0  0  0  0
 12 34  1  0  0  0  0
 12 35  1  0  0  0  0
 13 14  2  0  0  0  0
 14 36  1  0  0  0  0
 15 16  1  0  0  0  0
 15 37  1  0  0  0  0
 16 24  1  0  0  0  0
 16 17  1  0  0  0  0
 16 38  1  0  0  0  0
 17 18  1  0  0  0  0
 17 39  1  0  0  0  0
 17 40  1  0  0  0  0
 18 19  1  0  0  0  0
 18 41  1  0  0  0  0
 18 42  1  0  0  0  0
 19 24  1  0  0  0  0
 19 20  1  0  0  0  0
 19 52  1  0  0  0  0
 20 21  1  0  0  0  0
 20 43  1  0  0  0  0
 20 44  1  0  0  0  0
 21 22  1  0  0  0  0
 21 45  1  0  0  0  0
 21 46  1  0  0  0  0
 22 23  1  0  0  0  0
 22 47  1  0  0  0  0
 22 48  1  0  0  0  0
 23 24  1  0  0  0  0
 23 49  1  0  0  0  0
 23 50  1  0  0  0  0
 24 51  1  0  0  0  0
M  CHG  1  19   1
M  END
> <s_m_source_file>
AV-unprocessed.smi

> <i_m_source_file_index>
1867

> <i_lp_mmshare_version>
43012

> <i_f3d_flags>
0

> <s_epik_input>
W0NIMl0xW0NIMl1bQ0gyXVtDSDJdW0NASF0oTjEyKVtDQEBIXShbQ0gyXVtDSDJdMilbTkhdQyg9TylbTkhdYzNbY0hdW2NIXWMobltjSF0zKU40W0NIMl1bQ0gyXVtDSDJdW0NIMl00

> <s_epik_cmdline>
J2VwaWtfcHl0aG9uJywgJy1waCcsICc3LjAnLCAnLXRuJywgJzgnLCAnLW1hJywgJzIwMCcsICctbWV0YWxfYmluZGluZycsICctaW1hZScsICc8aW5maWxlLm1hZT4nLCAnLW9tYWUnLCAnPG91dGZpbGUubWFlPic=

> <r_lp_tautomer_probability>
1

> <r_epik_Ionization_Penalty>
0.0751123

> <r_epik_Ionization_Penalty_Charging>
0.000974069

> <r_epik_Ionization_Penalty_Neutral>
0.0741382

> <r_epik_State_Penalty>
0.0647261

> <r_epik_Charging_Adjusted_Penalty>
0.0657002

> <i_epik_Tot_Q>
1

> <i_epik_Tot_abs_Q>
1

> <r_epik_Metal_State_Penalty>
0.0580571

> <b_epik_Metal_Only>
0

> <s_lp_Force_Field>
OPLS_2005

> <r_lp_Energy>
71.0604

> <b_lp_Chiralities_Consistent>
1

> <s_lp_Variant>
AV-unprocessed.smi:1867-1

> <Gold.Version>
5.8.1

> <Gold.Id.Protein>
6NUR|6NUR_protein|mol2

> <Gold.PLP.Fitness>
44.7811

> <Gold.PLP.PLP>
-32.1942

> <Gold.PLP.part.hbond>
-3.5329

> <Gold.PLP.part.metal>
0.0000

> <Gold.PLP.part.buried>
-5.7503

> <Gold.PLP.part.nonpolar>
-23.6685

> <Gold.PLP.part.repulsive>
0.0775

> <Gold.PLP.ligand.clash>
0.0000

> <Gold.PLP.ligand.torsion>
1.0764

> <Gold.PLP.Chemscore.Hbond>
3.8617

> <Gold.PLP.Chemscore.CHOScore>
1.0000

> <Gold.PLP.Chemscore.Metal>
0.0000

> <Gold.Chemscore.Hbonds>
donor molecule, donor type, donor heavy atom, donor atom, acceptor molecule, acceptor atom, score
      L1  H     3    25       P1  7948  1.00
      L1  H    15    37       P1  7948  1.00
      L1  H    19    52       P1 10957  0.90
      P1  H  7989  7998       L1    13  0.99
      L1  C    14    36       P1  7957  1.00

> <Gold.PLP.Chemscore.Internal.Correction>
0.1545

> <Gold.Rescore>
     Score         DG    S(hbond)    S(metal)    S(lipo)     H(rot)  DE(clash)    DE(int)     intcor
     20.17     -22.65       2.83        0.00      87.97       1.00       0.25       2.24       ----

> <Gold.Chemscore.Fitness>
20.1672

> <Gold.Chemscore.DG>
-22.6535

> <Gold.Chemscore.ZeroCoef>
-5.4800

> <Gold.Chemscore.Hbond>
2.8267

> <Gold.Chemscore.Metal>
0.0000

> <Gold.Chemscore.Lipo>
87.9697

> <Gold.Chemscore.Internal_Hbond>
0.0000

> <Gold.Chemscore.DEClash>
0.2467

> <Gold.Chemscore.DEInternal>
2.2396

> <Gold.Chemscore.Rot>
1.0000

> <Gold.Chemscore.Internal.Correction>
   9.000000E+99

> <Gold.Chemscore.Hbonds>
donor molecule, donor type, donor heavy atom, donor atom, acceptor molecule, acceptor atom, score
      L1  H     3    25       P1  7948  0.98
      L1  H    15    37       P1  7948  0.95
      L1  H    19    52       P1 10957  0.17
      P1  H  7989  7998       L1    13  0.28

> <Gold.Chemscore.Hbond.Weighted>
-9.4411

> <Gold.Chemscore.Metal.Weighted>
-0.0000

> <Gold.Chemscore.Lipo.Weighted>
-10.2925

> <Gold.Chemscore.Internal_Hbond.Weighted>
0.0000

> <Gold.Chemscore.DEClash.Weighted>
0.2467

> <Gold.Chemscore.DEInternal.Weighted>
2.2396

> <Gold.Chemscore.Rot.Weighted>
2.5600

> <Gold.Chemscore.Internal.Correction.Weighted>
   9.000000E+99

> <Gold.Protein.RotatedTorsions>
[ 6907 6896 6895 6894 ] final  -83.90 input  -60.11 | X-H torsion
[ 7974 7965 7964 7962 ] final  -11.94 input  175.53 | X-H torsion
[ 8008 7997 7996 7995 ] final   30.96 input   59.86 | X-H torsion
[ 10167 10162 10161 10158 ] final  -58.94 input  -65.29 | X-H torsion
[ 10718 10713 10712 10709 ] final  -13.02 input   66.30 | X-H torsion
[ 10763 10752 10751 10750 ] final  -27.63 input  -60.55 | X-H torsion
[ 11005 11000 10999 10996 ] final  142.29 input  -57.11 | X-H torsion

> <Gold.Protein.ActiveResidues>
 VAL166  LYS551  ARG553  GLY616  TRP617  ASP618  TYR619  PRO620  LYS621  CYS622 
 ASP623  PHE694  ASN695  SER759  ASP760  ASP761  ALA762  ILE779  LEU786  VAL792 
 PHE793  MET794  SER795  GLU796  ALA797  LYS798  CYS799  TRP800  GLU811  SER814 

> <Gold.Protein.RotatedAtoms>
  150.6881  134.3441  159.4880 H   0  0  0  0  0  0  0  0  0  0  0  0  # atno 6907 bound_to 6896
  152.1291  134.9146  160.0569 H   0  0  0  0  0  0  0  0  0  0  0  0  # atno 6908 bound_to 6896
  152.0323  133.3907  159.4339 H   0  0  0  0  0  0  0  0  0  0  0  0  # atno 6909 bound_to 6896
  146.2170  140.2985  142.8373 H   0  0  0  0  0  0  0  0  0  0  0  0  # atno 7974 bound_to 7965
  155.0987  140.3227  155.4553 H   0  0  0  0  0  0  0  0  0  0  0  0  # atno 8008 bound_to 7997
  156.2723  140.2065  156.6061 H   0  0  0  0  0  0  0  0  0  0  0  0  # atno 8009 bound_to 7997
  154.6846  140.0522  157.0288 H   0  0  0  0  0  0  0  0  0  0  0  0  # atno 8010 bound_to 7997
  140.6166  143.2404  151.5582 H   0  0  0  0  0  0  0  0  0  0  0  0  # atno 10167 bound_to 10162
  156.6363  130.4915  149.6111 H   0  0  0  0  0  0  0  0  0  0  0  0  # atno 10718 bound_to 10713
  153.7352  135.6936  153.4980 H   0  0  0  0  0  0  0  0  0  0  0  0  # atno 10763 bound_to 10752
  153.2108  135.4403  155.0376 H   0  0  0  0  0  0  0  0  0  0  0  0  # atno 10764 bound_to 10752
  154.8239  135.3436  154.6880 H   0  0  0  0  0  0  0  0  0  0  0  0  # atno 10765 bound_to 10752
  140.0465  134.9278  157.0940 H   0  0  0  0  0  0  0  0  0  0  0  0  # atno 11005 bound_to 11000
  144.9075  140.7717  143.5828 LP  0  0  0  0  0  0  0  0  0  0  0  0  # atno 17320 bound_to 7965
  145.2914  139.1882  143.4738 LP  0  0  0  0  0  0  0  0  0  0  0  0  # atno 17321 bound_to 7965
  139.5404  144.2664  152.1338 LP  0  0  0  0  0  0  0  0  0  0  0  0  # atno 17342 bound_to 10162
  140.1875  144.4784  150.6496 LP  0  0  0  0  0  0  0  0  0  0  0  0  # atno 17343 bound_to 10162
  156.2195  130.6728  151.1353 LP  0  0  0  0  0  0  0  0  0  0  0  0  # atno 17370 bound_to 10713
  157.7185  131.0696  150.6233 LP  0  0  0  0  0  0  0  0  0  0  0  0  # atno 17371 bound_to 10713
  140.3985  134.2108  155.7164 LP  0  0  0  0  0  0  0  0  0  0  0  0  # atno 17394 bound_to 11000
  141.1910  133.8205  157.0898 LP  0  0  0  0  0  0  0  0  0  0  0  0  # atno 17395 bound_to 11000

$$$$
