AV-unprocessed.smi:221|AV-procd|sdf|1692|dock5
  -GOLD-   2262020133D 1   1.00000     0.00000
 Structure written by MMmdl.
 50 53  0  0  0  0  0  0  0  0  1 V2000
  144.9747  133.1137  160.8463 N   0  0  0  0  0  0  0  0  0  0  0  0
  146.3112  133.0986  160.8503 C   0  0  0  0  0  0  0  0  0  0  0  0
  146.9492  132.2622  160.2139 O   0  0  0  0  0  0  0  0  0  0  0  0
  147.0373  134.1786  161.6797 C   0  0  2  0  0  0  0  0  0  0  0  0
  146.1229  135.1329  162.4594 C   0  0  0  0  0  0  0  0  0  0  0  0
  147.0666  136.2728  162.8492 C   0  0  2  0  0  0  0  0  0  0  0  0
  146.4590  137.4543  162.7410 F   0  0  0  0  0  0  0  0  0  0  0  0
  148.2658  136.1560  161.8924 C   0  0  0  0  0  0  0  0  0  0  0  0
  147.9791  135.0573  160.9720 N   0  0  0  0  0  0  0  0  0  0  0  0
  147.6682  135.4927  159.7238 C   0  0  0  0  0  0  0  0  0  0  0  0
  146.4110  135.3492  159.2257 N   0  0  0  0  0  0  0  0  0  0  0  0
  146.1242  135.7867  157.9959 C   0  0  0  0  0  0  0  0  0  0  0  0
  146.9272  136.3896  157.1157 N   0  0  0  0  0  0  0  0  0  0  0  0
  148.1866  136.5385  157.6174 C   0  0  0  0  0  0  0  0  0  0  0  0
  148.6372  136.1226  158.9007 C   0  0  0  0  0  0  0  0  0  0  0  0
  149.9805  136.4369  159.0618 N   0  0  0  0  0  0  0  0  0  0  0  0
  150.3065  137.0112  157.9356 C   0  0  0  0  0  0  0  0  0  0  0  0
  149.2881  137.1178  157.0147 N   0  0  0  0  0  0  0  0  0  0  0  0
  149.3686  137.7102  155.6914 C   0  0  0  0  0  0  0  0  0  0  0  0
  150.6760  138.5063  155.4528 C   0  0  1  0  0  0  0  0  0  0  0  0
  151.3456  138.1694  154.0986 C   0  0  0  0  0  0  0  0  0  0  0  0
  151.5644  136.7803  153.9616 O   0  0  0  0  0  0  0  0  0  0  0  0
  150.4503  140.0278  155.6405 C   0  0  2  0  0  0  0  0  0  0  0  0
  149.9252  140.4387  157.0047 C   0  0  0  0  0  0  0  0  0  0  0  0
  149.3770  141.8342  156.7296 C   0  0  0  0  0  0  0  0  0  0  0  0
  148.8959  141.7986  155.3912 O   0  0  0  0  0  0  0  0  0  0  0  0
  149.3682  140.6261  154.7349 C   0  0  0  0  0  0  0  0  0  0  0  0
  147.6372  133.6272  162.4057 H   0  0  0  0  0  0  0  0  0  0  0  0
  147.3947  136.1734  163.8843 H   0  0  0  0  0  0  0  0  0  0  0  0
  144.4674  132.4206  160.3155 H   0  0  0  0  0  0  0  0  0  0  0  0
  144.4773  133.8160  161.3745 H   0  0  0  0  0  0  0  0  0  0  0  0
  145.3161  135.5051  161.8262 H   0  0  0  0  0  0  0  0  0  0  0  0
  145.6673  134.6590  163.3294 H   0  0  0  0  0  0  0  0  0  0  0  0
  148.4645  137.1008  161.3812 H   0  0  0  0  0  0  0  0  0  0  0  0
  149.1695  135.9074  162.4500 H   0  0  0  0  0  0  0  0  0  0  0  0
  145.1058  135.6324  157.6712 H   0  0  0  0  0  0  0  0  0  0  0  0
  151.3035  137.3825  157.7464 H   0  0  0  0  0  0  0  0  0  0  0  0
  149.2734  136.9137  154.9521 H   0  0  0  0  0  0  0  0  0  0  0  0
  148.4980  138.3538  155.5634 H   0  0  0  0  0  0  0  0  0  0  0  0
  151.3816  138.1916  156.2233 H   0  0  0  0  0  0  0  0  0  0  0  0
  150.7319  138.5110  153.2656 H   0  0  0  0  0  0  0  0  0  0  0  0
  152.2997  138.6865  153.9944 H   0  0  0  0  0  0  0  0  0  0  0  0
  151.2411  136.5079  153.1163 H   0  0  0  0  0  0  0  0  0  0  0  0
  151.3851  140.5609  155.4584 H   0  0  0  0  0  0  0  0  0  0  0  0
  149.1189  139.7751  157.3206 H   0  0  0  0  0  0  0  0  0  0  0  0
  150.6921  140.4401  157.7798 H   0  0  0  0  0  0  0  0  0  0  0  0
  148.5922  142.1208  157.4298 H   0  0  0  0  0  0  0  0  0  0  0  0
  150.1752  142.5749  156.7921 H   0  0  0  0  0  0  0  0  0  0  0  0
  149.7421  140.8604  153.7381 H   0  0  0  0  0  0  0  0  0  0  0  0
  148.5291  139.9373  154.6261 H   0  0  0  0  0  0  0  0  0  0  0  0
  1  2  1  0  0  0  0
  1 30  1  0  0  0  0
  1 31  1  0  0  0  0
  2  3  2  0  0  0  0
  2  4  1  0  0  0  0
  4 28  1  0  0  0  0
  4  9  1  0  0  0  0
  4  5  1  0  0  0  0
  5  6  1  0  0  0  0
  5 32  1  0  0  0  0
  5 33  1  0  0  0  0
  6 29  1  0  0  0  0
  6  7  1  0  0  0  0
  6  8  1  0  0  0  0
  8  9  1  0  0  0  0
  8 34  1  0  0  0  0
  8 35  1  0  0  0  0
  9 10  1  0  0  0  0
 10 15  1  0  0  0  0
 10 11  2  0  0  0  0
 11 12  1  0  0  0  0
 12 13  2  0  0  0  0
 12 36  1  0  0  0  0
 13 14  1  0  0  0  0
 14 18  1  0  0  0  0
 14 15  2  0  0  0  0
 15 16  1  0  0  0  0
 16 17  2  0  0  0  0
 17 18  1  0  0  0  0
 17 37  1  0  0  0  0
 18 19  1  0  0  0  0
 19 20  1  0  0  0  0
 19 38  1  0  0  0  0
 19 39  1  0  0  0  0
 20 21  1  0  0  0  0
 20 23  1  0  0  0  0
 20 40  1  0  0  0  0
 21 22  1  0  0  0  0
 21 41  1  0  0  0  0
 21 42  1  0  0  0  0
 22 43  1  0  0  0  0
 23 27  1  0  0  0  0
 23 24  1  0  0  0  0
 23 44  1  0  0  0  0
 24 25  1  0  0  0  0
 24 45  1  0  0  0  0
 24 46  1  0  0  0  0
 25 26  1  0  0  0  0
 25 47  1  0  0  0  0
 25 48  1  0  0  0  0
 26 27  1  0  0  0  0
 27 49  1  0  0  0  0
 27 50  1  0  0  0  0
M  END
> <s_m_source_file>
AV-unprocessed.smi

> <i_m_source_file_index>
221

> <i_lp_mmshare_version>
43012

> <i_f3d_flags>
0

> <s_epik_input>
W05IMl1DKD1PKVtDQEBIXTFbQ0gyXVtDQEBIXShGKVtDSDJdTjFjKG5bY0hdbjIpYyhjMjMpbltjSF1uM1tDSDJdW0NASF0oW0NIMl1bT0hdKVtDQEBIXTRbQ0gyXVtDSDJdT1tDSDJdNA==

> <s_epik_cmdline>
J2VwaWtfcHl0aG9uJywgJy1waCcsICc3LjAnLCAnLXRuJywgJzgnLCAnLW1hJywgJzIwMCcsICctbWV0YWxfYmluZGluZycsICctaW1hZScsICc8aW5maWxlLm1hZT4nLCAnLW9tYWUnLCAnPG91dGZpbGUubWFlPic=

> <r_lp_tautomer_probability>
1

> <r_epik_Ionization_Penalty>
0.000818822

> <r_epik_Ionization_Penalty_Charging>
0

> <r_epik_Ionization_Penalty_Neutral>
0.000818822

> <r_epik_State_Penalty>
0.000440551

> <r_epik_Charging_Adjusted_Penalty>
0.000440551

> <i_epik_Tot_Q>
0

> <i_epik_Tot_abs_Q>
0

> <r_epik_Metal_State_Penalty>
-0

> <b_epik_Metal_Only>
0

> <s_lp_Force_Field>
OPLS_2005

> <r_lp_Energy>
53.4739

> <b_lp_Chiralities_Consistent>
1

> <s_lp_Variant>
AV-unprocessed.smi:221-7

> <Gold.Version>
5.8.1

> <Gold.Id.Protein>
6NUR|6NUR_protein|mol2

> <Gold.PLP.Fitness>
41.2346

> <Gold.PLP.PLP>
-34.0348

> <Gold.PLP.part.hbond>
-3.0000

> <Gold.PLP.part.metal>
0.0000

> <Gold.PLP.part.buried>
-4.3883

> <Gold.PLP.part.nonpolar>
-26.8847

> <Gold.PLP.part.repulsive>
0.8687

> <Gold.PLP.ligand.clash>
0.0000

> <Gold.PLP.ligand.torsion>
0.9849

> <Gold.PLP.Chemscore.Hbond>
3.0000

> <Gold.PLP.Chemscore.CHOScore>
0.0000

> <Gold.PLP.Chemscore.Metal>
0.0000

> <Gold.Chemscore.Hbonds>
donor molecule, donor type, donor heavy atom, donor atom, acceptor molecule, acceptor atom, score
      L1  H    22    43       P1  7949  1.00
      P1  H  6896  6909       L1    16  1.00
      P1  H 10752 10764       L1    22  1.00

> <Gold.PLP.Chemscore.Internal.Correction>
0.1696

> <Gold.Rescore>
     Score         DG    S(hbond)    S(metal)    S(lipo)     H(rot)  DE(clash)    DE(int)     intcor
      9.89     -13.52       2.66        0.00      74.06       3.72       0.04       3.59       ----

> <Gold.Chemscore.Fitness>
9.8947

> <Gold.Chemscore.DG>
-13.5193

> <Gold.Chemscore.ZeroCoef>
-5.4800

> <Gold.Chemscore.Hbond>
2.6639

> <Gold.Chemscore.Metal>
0.0000

> <Gold.Chemscore.Lipo>
74.0646

> <Gold.Chemscore.Internal_Hbond>
0.0000

> <Gold.Chemscore.DEClash>
0.0378

> <Gold.Chemscore.DEInternal>
3.5867

> <Gold.Chemscore.Rot>
3.7202

> <Gold.Chemscore.Internal.Correction>
   9.000000E+99

> <Gold.Chemscore.Hbonds>
donor molecule, donor type, donor heavy atom, donor atom, acceptor molecule, acceptor atom, score
      L1  H    22    43       P1  7949  0.60
      P1  H  6896  6909       L1    16  0.55
      P1  H 10752 10764       L1    22  0.55

> <Gold.Chemscore.Hbond.Weighted>
-8.8975

> <Gold.Chemscore.Metal.Weighted>
-0.0000

> <Gold.Chemscore.Lipo.Weighted>
-8.6656

> <Gold.Chemscore.Internal_Hbond.Weighted>
0.0000

> <Gold.Chemscore.DEClash.Weighted>
0.0378

> <Gold.Chemscore.DEInternal.Weighted>
3.5867

> <Gold.Chemscore.Rot.Weighted>
9.5237

> <Gold.Chemscore.Internal.Correction.Weighted>
   9.000000E+99

> <Gold.Protein.RotatedTorsions>
[ 6907 6896 6895 6894 ] final   67.27 input  -60.11 | X-H torsion
[ 7974 7965 7964 7962 ] final  -26.48 input  175.53 | X-H torsion
[ 8008 7997 7996 7995 ] final   66.67 input   59.86 | X-H torsion
[ 10167 10162 10161 10158 ] final  -15.96 input  -65.29 | X-H torsion
[ 10718 10713 10712 10709 ] final -132.25 input   66.30 | X-H torsion
[ 10763 10752 10751 10750 ] final  -71.37 input  -60.55 | X-H torsion
[ 11005 11000 10999 10996 ] final -129.68 input  -57.11 | X-H torsion

> <Gold.Protein.ActiveResidues>
 VAL166  LYS551  ARG553  GLY616  TRP617  ASP618  TYR619  PRO620  LYS621  CYS622 
 ASP623  PHE694  ASN695  SER759  ASP760  ASP761  ALA762  ILE779  LEU786  VAL792 
 PHE793  MET794  SER795  GLU796  ALA797  LYS798  CYS799  TRP800  GLU811  SER814 

> <Gold.Protein.RotatedAtoms>
  152.4540  134.5331  159.9816 H   0  0  0  0  0  0  0  0  0  0  0  0  # atno 6907 bound_to 6896
  151.5397  133.3429  159.2941 H   0  0  0  0  0  0  0  0  0  0  0  0  # atno 6908 bound_to 6896
  150.8478  134.7824  159.7048 H   0  0  0  0  0  0  0  0  0  0  0  0  # atno 6909 bound_to 6896
  146.1422  140.5026  142.8647 H   0  0  0  0  0  0  0  0  0  0  0  0  # atno 7974 bound_to 7965
  155.6810  140.3496  155.4855 H   0  0  0  0  0  0  0  0  0  0  0  0  # atno 8008 bound_to 7997
  155.9607  140.1136  157.0921 H   0  0  0  0  0  0  0  0  0  0  0  0  # atno 8009 bound_to 7997
  154.4142  140.1176  156.5161 H   0  0  0  0  0  0  0  0  0  0  0  0  # atno 8010 bound_to 7997
  140.7226  143.5165  150.9686 H   0  0  0  0  0  0  0  0  0  0  0  0  # atno 10167 bound_to 10162
  156.2327  130.7047  151.0875 H   0  0  0  0  0  0  0  0  0  0  0  0  # atno 10718 bound_to 10713
  154.4307  135.5964  153.6067 H   0  0  0  0  0  0  0  0  0  0  0  0  # atno 10763 bound_to 10752
  152.9799  135.5974  154.3842 H   0  0  0  0  0  0  0  0  0  0  0  0  # atno 10764 bound_to 10752
  154.3680  135.2841  155.2261 H   0  0  0  0  0  0  0  0  0  0  0  0  # atno 10765 bound_to 10752
  140.9410  134.1193  157.4150 H   0  0  0  0  0  0  0  0  0  0  0  0  # atno 11005 bound_to 11000
  144.7805  140.5831  143.6608 LP  0  0  0  0  0  0  0  0  0  0  0  0  # atno 17320 bound_to 7965
  145.5020  139.1483  143.3652 LP  0  0  0  0  0  0  0  0  0  0  0  0  # atno 17321 bound_to 7965
  139.8880  143.6988  152.3149 LP  0  0  0  0  0  0  0  0  0  0  0  0  # atno 17342 bound_to 10162
  139.7294  144.7585  151.0826 LP  0  0  0  0  0  0  0  0  0  0  0  0  # atno 17343 bound_to 10162
  157.7140  131.0719  150.6395 LP  0  0  0  0  0  0  0  0  0  0  0  0  # atno 17370 bound_to 10713
  156.6464  130.4473  149.5734 LP  0  0  0  0  0  0  0  0  0  0  0  0  # atno 17371 bound_to 10713
  139.8820  135.0036  156.6200 LP  0  0  0  0  0  0  0  0  0  0  0  0  # atno 17394 bound_to 11000
  140.7733  133.8720  155.8509 LP  0  0  0  0  0  0  0  0  0  0  0  0  # atno 17395 bound_to 11000

$$$$
