AV-unprocessed.smi:2003|AV-procd|sdf|8119|dock6
  -GOLD-   2272010353D 1   1.00000     0.00000
 Structure written by MMmdl.
 44 45  0  0  0  0  0  0  0  0  2 V2000
  145.3094  129.8851  151.7716 C   0  0  0  0  0  0  0  0  0  0  0  0
  145.9097  131.2534  151.9068 C   0  0  0  0  0  0  0  0  0  0  0  0
  146.9986  131.6570  152.7332 C   0  0  0  0  0  0  0  0  0  0  0  0
  147.1086  132.9921  152.4554 C   0  0  0  0  0  0  0  0  0  0  0  0
  147.9813  133.9026  152.9631 N   0  0  0  0  0  0  0  0  0  0  0  0
  148.6702  133.8531  154.1164 C   0  0  0  0  0  0  0  0  0  0  0  0
  148.6467  132.9246  154.9238 O   0  0  0  0  0  0  0  0  0  0  0  0
  149.4019  134.9631  154.2892 N   0  0  0  0  0  0  0  0  0  0  0  0
  150.2699  135.2386  155.4336 C   0  0  0  0  0  0  0  0  0  0  0  0
  149.6863  136.2922  156.4137 C   0  0  2  0  0  0  0  0  0  0  0  0
  148.1698  136.0615  156.5933 C   0  0  0  0  0  0  0  0  0  0  0  0
  150.0143  137.6980  156.0083 N   0  3  0  0  0  0  0  0  0  0  0  0
  151.4712  137.9824  155.8963 C   0  0  0  0  0  0  0  0  0  0  0  0
  151.7222  139.4480  155.5017 C   0  0  0  0  0  0  0  0  0  0  0  0
  151.0527  139.7418  154.2849 O   0  0  0  0  0  0  0  0  0  0  0  0
  149.6481  139.5826  154.4132 C   0  0  0  0  0  0  0  0  0  0  0  0
  149.3254  138.1196  154.7580 C   0  0  0  0  0  0  0  0  0  0  0  0
  146.1469  133.3353  151.5316 N   0  0  0  0  0  0  0  0  0  0  0  0
  145.8625  134.6247  150.9329 C   0  0  0  0  0  0  0  0  0  0  0  0
  145.4066  132.2568  151.1964 N   0  0  0  0  0  0  0  0  0  0  0  0
  145.8567  129.1539  152.3671 H   0  0  0  0  0  0  0  0  0  0  0  0
  145.3279  129.5479  150.7349 H   0  0  0  0  0  0  0  0  0  0  0  0
  144.2724  129.8770  152.1077 H   0  0  0  0  0  0  0  0  0  0  0  0
  147.5840  131.0517  153.4087 H   0  0  0  0  0  0  0  0  0  0  0  0
  148.1209  134.7246  152.3943 H   0  0  0  0  0  0  0  0  0  0  0  0
  149.3710  135.6656  153.5649 H   0  0  0  0  0  0  0  0  0  0  0  0
  150.5145  134.3146  155.9606 H   0  0  0  0  0  0  0  0  0  0  0  0
  151.2231  135.5892  155.0385 H   0  0  0  0  0  0  0  0  0  0  0  0
  150.1436  136.1157  157.3888 H   0  0  0  0  0  0  0  0  0  0  0  0
  147.9484  135.0056  156.7524 H   0  0  0  0  0  0  0  0  0  0  0  0
  147.6055  136.3881  155.7196 H   0  0  0  0  0  0  0  0  0  0  0  0
  147.7782  136.5873  157.4638 H   0  0  0  0  0  0  0  0  0  0  0  0
  151.9777  137.8080  156.8445 H   0  0  0  0  0  0  0  0  0  0  0  0
  151.9192  137.3134  155.1599 H   0  0  0  0  0  0  0  0  0  0  0  0
  151.3881  140.1261  156.2888 H   0  0  0  0  0  0  0  0  0  0  0  0
  152.7900  139.6216  155.3666 H   0  0  0  0  0  0  0  0  0  0  0  0
  149.2576  140.2593  155.1753 H   0  0  0  0  0  0  0  0  0  0  0  0
  149.1754  139.8586  153.4705 H   0  0  0  0  0  0  0  0  0  0  0  0
  149.6292  137.4689  153.9364 H   0  0  0  0  0  0  0  0  0  0  0  0
  148.2450  138.0257  154.8562 H   0  0  0  0  0  0  0  0  0  0  0  0
  146.7816  135.0576  150.5370 H   0  0  0  0  0  0  0  0  0  0  0  0
  145.4487  135.2940  151.6874 H   0  0  0  0  0  0  0  0  0  0  0  0
  145.1444  134.5202  150.1182 H   0  0  0  0  0  0  0  0  0  0  0  0
  149.6675  138.2934  156.7467 H   0  0  0  0  0  0  0  0  0  0  0  0
  1  2  1  0  0  0  0
  1 21  1  0  0  0  0
  1 22  1  0  0  0  0
  1 23  1  0  0  0  0
  2 20  2  0  0  0  0
  2  3  1  0  0  0  0
  3  4  2  0  0  0  0
  3 24  1  0  0  0  0
  4  5  1  0  0  0  0
  4 18  1  0  0  0  0
  5  6  1  0  0  0  0
  5 25  1  0  0  0  0
  6  7  2  0  0  0  0
  6  8  1  0  0  0  0
  8  9  1  0  0  0  0
  8 26  1  0  0  0  0
  9 10  1  0  0  0  0
  9 27  1  0  0  0  0
  9 28  1  0  0  0  0
 10 11  1  0  0  0  0
 10 12  1  0  0  0  0
 10 29  1  0  0  0  0
 11 30  1  0  0  0  0
 11 31  1  0  0  0  0
 11 32  1  0  0  0  0
 12 17  1  0  0  0  0
 12 13  1  0  0  0  0
 12 44  1  0  0  0  0
 13 14  1  0  0  0  0
 13 33  1  0  0  0  0
 13 34  1  0  0  0  0
 14 15  1  0  0  0  0
 14 35  1  0  0  0  0
 14 36  1  0  0  0  0
 15 16  1  0  0  0  0
 16 17  1  0  0  0  0
 16 37  1  0  0  0  0
 16 38  1  0  0  0  0
 17 39  1  0  0  0  0
 17 40  1  0  0  0  0
 18 19  1  0  0  0  0
 18 20  1  0  0  0  0
 19 41  1  0  0  0  0
 19 42  1  0  0  0  0
 19 43  1  0  0  0  0
M  CHG  1  12   1
M  END
> <s_m_source_file>
AV-unprocessed.smi

> <i_m_source_file_index>
2003

> <i_lp_mmshare_version>
43012

> <i_f3d_flags>
0

> <s_epik_input>
W0NIM11jMVtjSF1jKG4objEpW0NIM10pW05IXUMoPU8pW05IXVtDSDJdW0NASF0oW0NIM10pTjJbQ0gyXVtDSDJdT1tDSDJdW0NIMl0y

> <s_epik_cmdline>
J2VwaWtfcHl0aG9uJywgJy1waCcsICc3LjAnLCAnLXRuJywgJzgnLCAnLW1hJywgJzIwMCcsICctbWV0YWxfYmluZGluZycsICctaW1hZScsICc8aW5maWxlLm1hZT4nLCAnLW9tYWUnLCAnPG91dGZpbGUubWFlPic=

> <r_lp_tautomer_probability>
1

> <r_epik_Ionization_Penalty>
0.663903

> <r_epik_Ionization_Penalty_Charging>
0.663826

> <r_epik_Ionization_Penalty_Neutral>
7.78239e-05

> <r_epik_State_Penalty>
0.683414

> <r_epik_Charging_Adjusted_Penalty>
1.34724

> <i_epik_Tot_Q>
1

> <i_epik_Tot_abs_Q>
1

> <r_epik_Metal_State_Penalty>
0.683419

> <b_epik_Metal_Only>
0

> <s_lp_Force_Field>
OPLS_2005

> <r_lp_Energy>
28.7948

> <b_lp_Chiralities_Consistent>
1

> <s_lp_Variant>
AV-unprocessed.smi:2003-3

> <Gold.Version>
5.8.1

> <Gold.Id.Protein>
6NUR|6NUR_protein|mol2

> <Gold.PLP.Fitness>
37.8823

> <Gold.PLP.PLP>
-29.7377

> <Gold.PLP.part.hbond>
-3.0000

> <Gold.PLP.part.metal>
0.0000

> <Gold.PLP.part.buried>
-3.2477

> <Gold.PLP.part.nonpolar>
-22.7414

> <Gold.PLP.part.repulsive>
0.2943

> <Gold.PLP.ligand.clash>
0.0000

> <Gold.PLP.ligand.torsion>
0.4562

> <Gold.PLP.Chemscore.Hbond>
3.0000

> <Gold.PLP.Chemscore.CHOScore>
0.0000

> <Gold.PLP.Chemscore.Metal>
0.0000

> <Gold.Chemscore.Hbonds>
donor molecule, donor type, donor heavy atom, donor atom, acceptor molecule, acceptor atom, score
      L1  H     5    25       P1  7948  1.00
      L1  H     8    26       P1  7948  1.00
      P1  H  7989  7998       L1    15  0.89

> <Gold.PLP.Chemscore.Internal.Correction>
0.0569

> <Gold.Rescore>
     Score         DG    S(hbond)    S(metal)    S(lipo)     H(rot)  DE(clash)    DE(int)     intcor
     16.09     -16.66       2.55        0.00      56.35       1.54       0.00       0.57       ----

> <Gold.Chemscore.Fitness>
16.0861

> <Gold.Chemscore.DG>
-16.6584

> <Gold.Chemscore.ZeroCoef>
-5.4800

> <Gold.Chemscore.Hbond>
2.5529

> <Gold.Chemscore.Metal>
0.0000

> <Gold.Chemscore.Lipo>
56.3548

> <Gold.Chemscore.Internal_Hbond>
0.0000

> <Gold.Chemscore.DEClash>
0.0015

> <Gold.Chemscore.DEInternal>
0.5708

> <Gold.Chemscore.Rot>
1.5398

> <Gold.Chemscore.Internal.Correction>
   9.000000E+99

> <Gold.Chemscore.Hbonds>
donor molecule, donor type, donor heavy atom, donor atom, acceptor molecule, acceptor atom, score
      L1  H     5    25       P1  7948  0.44
      L1  H     8    26       P1  7948  0.38
      P1  H  7989  7998       L1    15  0.78

> <Gold.Chemscore.Hbond.Weighted>
-8.5268

> <Gold.Chemscore.Metal.Weighted>
-0.0000

> <Gold.Chemscore.Lipo.Weighted>
-6.5935

> <Gold.Chemscore.Internal_Hbond.Weighted>
0.0000

> <Gold.Chemscore.DEClash.Weighted>
0.0015

> <Gold.Chemscore.DEInternal.Weighted>
0.5708

> <Gold.Chemscore.Rot.Weighted>
3.9420

> <Gold.Chemscore.Internal.Correction.Weighted>
   9.000000E+99

> <Gold.Protein.RotatedTorsions>
[ 6907 6896 6895 6894 ] final   74.38 input  -60.11 | X-H torsion
[ 7974 7965 7964 7962 ] final   51.86 input  175.53 | X-H torsion
[ 8008 7997 7996 7995 ] final   39.59 input   59.86 | X-H torsion
[ 10167 10162 10161 10158 ] final   -4.86 input  -65.29 | X-H torsion
[ 10718 10713 10712 10709 ] final  -57.84 input   66.30 | X-H torsion
[ 10763 10752 10751 10750 ] final   11.91 input  -60.55 | X-H torsion
[ 11005 11000 10999 10996 ] final   59.09 input  -57.11 | X-H torsion

> <Gold.Protein.ActiveResidues>
 VAL166  LYS551  ARG553  GLY616  TRP617  ASP618  TYR619  PRO620  LYS621  CYS622 
 ASP623  PHE694  ASN695  SER759  ASP760  ASP761  ALA762  ILE779  LEU786  VAL792 
 PHE793  MET794  SER795  GLU796  ALA797  LYS798  CYS799  TRP800  GLU811  SER814 

> <Gold.Protein.RotatedAtoms>
  152.4973  134.4280  159.9502 H   0  0  0  0  0  0  0  0  0  0  0  0  # atno 6907 bound_to 6896
  151.4256  133.3679  159.2769 H   0  0  0  0  0  0  0  0  0  0  0  0  # atno 6908 bound_to 6896
  150.9191  134.8631  159.7536 H   0  0  0  0  0  0  0  0  0  0  0  0  # atno 6909 bound_to 6896
  145.9872  139.4301  143.0096 H   0  0  0  0  0  0  0  0  0  0  0  0  # atno 7974 bound_to 7965
  155.2392  140.3344  155.4294 H   0  0  0  0  0  0  0  0  0  0  0  0  # atno 8008 bound_to 7997
  156.2263  140.1830  156.7400 H   0  0  0  0  0  0  0  0  0  0  0  0  # atno 8009 bound_to 7997
  154.5904  140.0639  156.9215 H   0  0  0  0  0  0  0  0  0  0  0  0  # atno 8010 bound_to 7997
  140.6943  143.6374  150.8466 H   0  0  0  0  0  0  0  0  0  0  0  0  # atno 10167 bound_to 10162
  156.1180  130.4168  150.0495 H   0  0  0  0  0  0  0  0  0  0  0  0  # atno 10718 bound_to 10713
  153.1876  135.6837  153.8394 H   0  0  0  0  0  0  0  0  0  0  0  0  # atno 10763 bound_to 10752
  153.7704  135.3197  155.3352 H   0  0  0  0  0  0  0  0  0  0  0  0  # atno 10764 bound_to 10752
  154.8098  135.4725  154.0584 H   0  0  0  0  0  0  0  0  0  0  0  0  # atno 10765 bound_to 10752
  140.0329  134.5986  155.9483 H   0  0  0  0  0  0  0  0  0  0  0  0  # atno 11005 bound_to 11000
  145.7684  140.9907  143.1163 LP  0  0  0  0  0  0  0  0  0  0  0  0  # atno 17320 bound_to 7965
  144.6878  139.9416  143.7475 LP  0  0  0  0  0  0  0  0  0  0  0  0  # atno 17321 bound_to 7965
  140.0091  143.5662  152.2846 LP  0  0  0  0  0  0  0  0  0  0  0  0  # atno 17342 bound_to 10162
  139.6379  144.7652  151.2399 LP  0  0  0  0  0  0  0  0  0  0  0  0  # atno 17343 bound_to 10162
  156.8441  130.9436  151.3630 LP  0  0  0  0  0  0  0  0  0  0  0  0  # atno 17370 bound_to 10713
  157.6364  130.8770  149.9366 LP  0  0  0  0  0  0  0  0  0  0  0  0  # atno 17371 bound_to 10713
  141.1841  133.6552  156.5143 LP  0  0  0  0  0  0  0  0  0  0  0  0  # atno 17394 bound_to 11000
  140.4196  134.7199  157.4882 LP  0  0  0  0  0  0  0  0  0  0  0  0  # atno 17395 bound_to 11000

$$$$
