AV-unprocessed.smi:2579|AV-procd|sdf|10125|dock1
  -GOLD-   2272014143D 1   1.00000     0.00000
 Structure written by MMmdl.
 38 40  0  0  0  0  0  0  0  0  1 V2000
  152.7867  135.8304  157.0891 O   0  0  0  0  0  0  0  0  0  0  0  0
  153.3249  136.7295  158.0351 C   0  0  0  0  0  0  0  0  0  0  0  0
  152.2031  137.5597  158.6718 C   0  0  0  0  0  0  0  0  0  0  0  0
  151.9179  138.7558  157.9025 N   0  0  0  0  0  0  0  0  0  0  0  0
  151.9482  140.1045  158.2326 C   0  0  0  0  0  0  0  0  0  0  0  0
  152.2770  140.5688  159.4367 N   0  0  0  0  0  0  0  0  0  0  0  0
  152.1512  141.9352  159.2673 C   0  0  0  0  0  0  0  0  0  0  0  0
  152.3569  142.9954  160.1790 C   0  0  0  0  0  0  0  0  0  0  0  0
  152.1613  144.3326  159.7752 C   0  0  0  0  0  0  0  0  0  0  0  0
  151.7569  144.6290  158.4574 C   0  0  0  0  0  0  0  0  0  0  0  0
  151.5466  143.5885  157.5323 C   0  0  0  0  0  0  0  0  0  0  0  0
  151.7450  142.2554  157.9388 C   0  0  0  0  0  0  0  0  0  0  0  0
  151.6272  141.0270  157.2954 N   0  0  0  0  0  0  0  0  0  0  0  0
  151.2297  140.8060  155.9127 C   0  0  0  0  0  0  0  0  0  0  0  0
  149.9901  141.6332  155.5375 C   0  0  2  0  0  0  0  0  0  0  0  0
  148.7562  141.3175  156.3830 C   0  0  0  0  0  0  0  0  0  0  0  0
  147.6328  141.6612  155.4318 C   0  0  0  0  0  0  0  0  0  0  0  0
  148.1987  141.1674  154.1053 C   0  0  0  0  0  0  0  0  0  0  0  0
  149.6030  141.3890  154.1854 O   0  0  0  0  0  0  0  0  0  0  0  0
  151.9071  135.6071  157.3526 H   0  0  0  0  0  0  0  0  0  0  0  0
  153.8238  136.1388  158.8038 H   0  0  0  0  0  0  0  0  0  0  0  0
  154.0838  137.3623  157.5731 H   0  0  0  0  0  0  0  0  0  0  0  0
  151.2957  136.9683  158.7982 H   0  0  0  0  0  0  0  0  0  0  0  0
  152.5123  137.8794  159.6674 H   0  0  0  0  0  0  0  0  0  0  0  0
  151.6179  138.5625  156.9581 H   0  0  0  0  0  0  0  0  0  0  0  0
  152.6646  142.7790  161.1912 H   0  0  0  0  0  0  0  0  0  0  0  0
  152.3206  145.1348  160.4808 H   0  0  0  0  0  0  0  0  0  0  0  0
  151.6068  145.6559  158.1573 H   0  0  0  0  0  0  0  0  0  0  0  0
  151.2333  143.8122  156.5232 H   0  0  0  0  0  0  0  0  0  0  0  0
  152.0683  141.0680  155.2670 H   0  0  0  0  0  0  0  0  0  0  0  0
  151.0438  139.7429  155.7562 H   0  0  0  0  0  0  0  0  0  0  0  0
  150.2138  142.6978  155.6221 H   0  0  0  0  0  0  0  0  0  0  0  0
  148.7178  140.2557  156.6307 H   0  0  0  0  0  0  0  0  0  0  0  0
  148.7205  141.8861  157.3125 H   0  0  0  0  0  0  0  0  0  0  0  0
  146.6857  141.1891  155.6944 H   0  0  0  0  0  0  0  0  0  0  0  0
  147.4831  142.7412  155.3993 H   0  0  0  0  0  0  0  0  0  0  0  0
  148.0231  140.0968  153.9926 H   0  0  0  0  0  0  0  0  0  0  0  0
  147.7615  141.6763  153.2461 H   0  0  0  0  0  0  0  0  0  0  0  0
  1  2  1  0  0  0  0
  1 20  1  0  0  0  0
  2  3  1  0  0  0  0
  2 21  1  0  0  0  0
  2 22  1  0  0  0  0
  3  4  1  0  0  0  0
  3 23  1  0  0  0  0
  3 24  1  0  0  0  0
  4  5  1  0  0  0  0
  4 25  1  0  0  0  0
  5 13  1  0  0  0  0
  5  6  2  0  0  0  0
  6  7  1  0  0  0  0
  7 12  2  0  0  0  0
  7  8  1  0  0  0  0
  8  9  2  0  0  0  0
  8 26  1  0  0  0  0
  9 10  1  0  0  0  0
  9 27  1  0  0  0  0
 10 11  2  0  0  0  0
 10 28  1  0  0  0  0
 11 12  1  0  0  0  0
 11 29  1  0  0  0  0
 12 13  1  0  0  0  0
 13 14  1  0  0  0  0
 14 15  1  0  0  0  0
 14 30  1  0  0  0  0
 14 31  1  0  0  0  0
 15 19  1  0  0  0  0
 15 16  1  0  0  0  0
 15 32  1  0  0  0  0
 16 17  1  0  0  0  0
 16 33  1  0  0  0  0
 16 34  1  0  0  0  0
 17 18  1  0  0  0  0
 17 35  1  0  0  0  0
 17 36  1  0  0  0  0
 18 19  1  0  0  0  0
 18 37  1  0  0  0  0
 18 38  1  0  0  0  0
M  END
> <s_m_source_file>
AV-unprocessed.smi

> <i_m_source_file_index>
2579

> <i_lp_mmshare_version>
43012

> <i_f3d_flags>
0

> <s_epik_input>
W09IXVtDSDJdW0NIMl1bTkhdYyhuMSluKGMoYzEyKVtjSF1bY0hdW2NIXVtjSF0yKVtDSDJdW0NAQEhdM1tDSDJdW0NIMl1bQ0gyXU8z

> <s_epik_cmdline>
J2VwaWtfcHl0aG9uJywgJy1waCcsICc3LjAnLCAnLXRuJywgJzgnLCAnLW1hJywgJzIwMCcsICctbWV0YWxfYmluZGluZycsICctaW1hZScsICc8aW5maWxlLm1hZT4nLCAnLW9tYWUnLCAnPG91dGZpbGUubWFlPic=

> <r_epik_Ionization_Penalty>
1.27244

> <r_epik_Ionization_Penalty_Charging>
0

> <r_epik_Ionization_Penalty_Neutral>
1.27244

> <r_epik_State_Penalty>
1.34401

> <r_epik_Charging_Adjusted_Penalty>
1.34401

> <i_epik_Tot_Q>
0

> <i_epik_Tot_abs_Q>
0

> <r_epik_Metal_State_Penalty>
0.00511131

> <b_epik_Metal_Only>
0

> <s_lp_Force_Field>
OPLS_2005

> <r_lp_Energy>
20.4938

> <b_lp_Chiralities_Consistent>
1

> <s_lp_Variant>
AV-unprocessed.smi:2579-3

> <Gold.Version>
5.8.1

> <Gold.Id.Protein>
6NUR|6NUR_protein|mol2

> <Gold.PLP.Fitness>
44.4292

> <Gold.PLP.PLP>
-40.1361

> <Gold.PLP.part.hbond>
-3.0000

> <Gold.PLP.part.metal>
0.0000

> <Gold.PLP.part.buried>
-3.7998

> <Gold.PLP.part.nonpolar>
-32.4486

> <Gold.PLP.part.repulsive>
0.2507

> <Gold.PLP.ligand.clash>
0.0000

> <Gold.PLP.ligand.torsion>
0.3206

> <Gold.PLP.Chemscore.Hbond>
1.6368

> <Gold.PLP.Chemscore.CHOScore>
0.0000

> <Gold.PLP.Chemscore.Metal>
0.0000

> <Gold.Chemscore.Hbonds>
donor molecule, donor type, donor heavy atom, donor atom, acceptor molecule, acceptor atom, score
      P1  H  7989  7998       L1    19  0.17
      P1  H  8011  8017       L1    19  0.43
      P1  H 10752 10763       L1     1  1.00

> <Gold.PLP.Chemscore.Internal.Correction>
0.0239

> <Gold.Rescore>
     Score         DG    S(hbond)    S(metal)    S(lipo)     H(rot)  DE(clash)    DE(int)     intcor
     16.05     -16.45       1.27        0.00     104.82       2.17       0.05       0.34       ----

> <Gold.Chemscore.Fitness>
16.0538

> <Gold.Chemscore.DG>
-16.4497

> <Gold.Chemscore.ZeroCoef>
-5.4800

> <Gold.Chemscore.Hbond>
1.2750

> <Gold.Chemscore.Metal>
0.0000

> <Gold.Chemscore.Lipo>
104.8164

> <Gold.Chemscore.Internal_Hbond>
0.0000

> <Gold.Chemscore.DEClash>
0.0530

> <Gold.Chemscore.DEInternal>
0.3430

> <Gold.Chemscore.Rot>
2.1688

> <Gold.Chemscore.Internal.Correction>
   9.000000E+99

> <Gold.Chemscore.Hbonds>
donor molecule, donor type, donor heavy atom, donor atom, acceptor molecule, acceptor atom, score
      P1  H  7989  7998       L1    19  0.02
      P1  H  8011  8017       L1    19  0.07
      P1  H 10752 10763       L1     1  0.97

> <Gold.Chemscore.Hbond.Weighted>
-4.2584

> <Gold.Chemscore.Metal.Weighted>
-0.0000

> <Gold.Chemscore.Lipo.Weighted>
-12.2635

> <Gold.Chemscore.Internal_Hbond.Weighted>
0.0000

> <Gold.Chemscore.DEClash.Weighted>
0.0530

> <Gold.Chemscore.DEInternal.Weighted>
0.3430

> <Gold.Chemscore.Rot.Weighted>
5.5522

> <Gold.Chemscore.Internal.Correction.Weighted>
   9.000000E+99

> <Gold.Protein.RotatedTorsions>
[ 6907 6896 6895 6894 ] final   27.48 input  -60.11 | X-H torsion
[ 7974 7965 7964 7962 ] final  -96.80 input  175.53 | X-H torsion
[ 8008 7997 7996 7995 ] final  143.05 input   59.86 | X-H torsion
[ 10167 10162 10161 10158 ] final   88.68 input  -65.29 | X-H torsion
[ 10718 10713 10712 10709 ] final   63.76 input   66.30 | X-H torsion
[ 10763 10752 10751 10750 ] final  127.03 input  -60.55 | X-H torsion
[ 11005 11000 10999 10996 ] final   56.61 input  -57.11 | X-H torsion

> <Gold.Protein.ActiveResidues>
 VAL166  LYS551  ARG553  GLY616  TRP617  ASP618  TYR619  PRO620  LYS621  CYS622 
 ASP623  PHE694  ASN695  SER759  ASP760  ASP761  ALA762  ILE779  LEU786  VAL792 
 PHE793  MET794  SER795  GLU796  ALA797  LYS798  CYS799  TRP800  GLU811  SER814 

> <Gold.Protein.RotatedAtoms>
  152.0028  134.9919  160.0565 H   0  0  0  0  0  0  0  0  0  0  0  0  # atno 6907 bound_to 6896
  152.1503  133.4513  159.4818 H   0  0  0  0  0  0  0  0  0  0  0  0  # atno 6908 bound_to 6896
  150.6875  134.2115  159.4404 H   0  0  0  0  0  0  0  0  0  0  0  0  # atno 6909 bound_to 6896
  145.3421  140.9461  143.2602 H   0  0  0  0  0  0  0  0  0  0  0  0  # atno 7974 bound_to 7965
  156.2938  140.2273  156.4827 H   0  0  0  0  0  0  0  0  0  0  0  0  # atno 8008 bound_to 7997
  154.7839  140.0458  157.1170 H   0  0  0  0  0  0  0  0  0  0  0  0  # atno 8009 bound_to 7997
  154.9726  140.3068  155.4985 H   0  0  0  0  0  0  0  0  0  0  0  0  # atno 8010 bound_to 7997
  139.8649  144.6524  150.9016 H   0  0  0  0  0  0  0  0  0  0  0  0  # atno 10167 bound_to 10162
  157.5993  130.9123  149.9757 H   0  0  0  0  0  0  0  0  0  0  0  0  # atno 10718 bound_to 10713
  153.7029  135.3280  155.3229 H   0  0  0  0  0  0  0  0  0  0  0  0  # atno 10763 bound_to 10752
  154.8408  135.4458  154.1393 H   0  0  0  0  0  0  0  0  0  0  0  0  # atno 10764 bound_to 10752
  153.2465  135.6976  153.7804 H   0  0  0  0  0  0  0  0  0  0  0  0  # atno 10765 bound_to 10752
  140.0516  134.5729  155.9257 H   0  0  0  0  0  0  0  0  0  0  0  0  # atno 11005 bound_to 11000
  144.8782  139.4941  143.6735 LP  0  0  0  0  0  0  0  0  0  0  0  0  # atno 17320 bound_to 7965
  146.3003  139.7406  142.9096 LP  0  0  0  0  0  0  0  0  0  0  0  0  # atno 17321 bound_to 7965
  140.7769  143.3713  151.1644 LP  0  0  0  0  0  0  0  0  0  0  0  0  # atno 17342 bound_to 10162
  139.7339  143.9030  152.3028 LP  0  0  0  0  0  0  0  0  0  0  0  0  # atno 17343 bound_to 10162
  156.1063  130.3652  150.0128 LP  0  0  0  0  0  0  0  0  0  0  0  0  # atno 17370 bound_to 10713
  156.8235  130.9367  151.3640 LP  0  0  0  0  0  0  0  0  0  0  0  0  # atno 17371 bound_to 10713
  141.1933  133.6578  156.5540 LP  0  0  0  0  0  0  0  0  0  0  0  0  # atno 17394 bound_to 11000
  140.3909  134.7441  157.4721 LP  0  0  0  0  0  0  0  0  0  0  0  0  # atno 17395 bound_to 11000

$$$$
