AV-unprocessed.smi:1756|AV-procd|sdf|7071|dock3
  -GOLD-   22720 8293D 1   1.00000     0.00000
 Structure written by MMmdl.
 38 39  0  0  0  0  0  0  0  0  1 V2000
  146.5911  138.0040  154.3414 O   0  0  0  0  0  0  0  0  0  0  0  0
  146.8840  138.3416  153.1948 C   0  0  0  0  0  0  0  0  0  0  0  0
  146.2281  137.9059  152.1097 N   0  0  0  0  0  0  0  0  0  0  0  0
  145.1053  136.9726  152.1145 C   0  0  0  0  0  0  0  0  0  0  0  0
  145.4402  135.6532  151.3947 C   0  0  2  0  0  0  0  0  0  0  0  0
  144.2141  134.7400  151.1776 C   0  0  0  0  0  0  0  0  0  0  0  0
  144.6360  133.4018  150.5605 C   0  0  0  0  0  0  0  0  0  0  0  0
  145.7499  132.7712  151.4016 C   0  0  0  0  0  0  0  0  0  0  0  0
  146.8969  133.7738  151.5989 C   0  0  0  0  0  0  0  0  0  0  0  0
  146.3985  134.9663  152.1972 O   0  0  0  0  0  0  0  0  0  0  0  0
  147.8667  139.1938  152.8493 N   0  0  0  0  0  0  0  0  0  0  0  0
  148.7950  139.8663  153.6630 C   0  0  0  0  0  0  0  0  0  0  0  0
  149.9579  139.3352  154.1242 C   0  0  0  0  0  0  0  0  0  0  0  0
  150.8749  140.0931  154.9595 C   0  0  0  0  0  0  0  0  0  0  0  0
  152.2000  139.5076  155.4228 C   0  0  0  0  0  0  0  0  0  0  0  0
  152.7484  140.2519  156.3840 F   0  0  0  0  0  0  0  0  0  0  0  0
  152.0082  138.2810  155.9061 F   0  0  0  0  0  0  0  0  0  0  0  0
  153.0661  139.4248  154.4126 F   0  0  0  0  0  0  0  0  0  0  0  0
  150.5275  141.3643  155.2320 C   0  0  0  0  0  0  0  0  0  0  0  0
  149.3338  141.9175  154.7638 N   0  0  0  0  0  0  0  0  0  0  0  0
  148.4409  141.2571  153.9929 C   0  0  0  0  0  0  0  0  0  0  0  0
  147.4133  141.8186  153.6143 O   0  0  0  0  0  0  0  0  0  0  0  0
  149.1397  142.8746  155.0207 H   0  0  0  0  0  0  0  0  0  0  0  0
  146.5304  138.2421  151.2070 H   0  0  0  0  0  0  0  0  0  0  0  0
  144.8655  136.7621  153.1571 H   0  0  0  0  0  0  0  0  0  0  0  0
  144.2101  137.4258  151.6853 H   0  0  0  0  0  0  0  0  0  0  0  0
  145.8970  135.8872  150.4311 H   0  0  0  0  0  0  0  0  0  0  0  0
  143.7164  134.5613  152.1316 H   0  0  0  0  0  0  0  0  0  0  0  0
  143.4833  135.2233  150.5295 H   0  0  0  0  0  0  0  0  0  0  0  0
  143.7819  132.7276  150.4921 H   0  0  0  0  0  0  0  0  0  0  0  0
  144.9915  133.5633  149.5420 H   0  0  0  0  0  0  0  0  0  0  0  0
  145.3537  132.4754  152.3737 H   0  0  0  0  0  0  0  0  0  0  0  0
  146.1182  131.8635  150.9231 H   0  0  0  0  0  0  0  0  0  0  0  0
  147.6604  133.3459  152.2486 H   0  0  0  0  0  0  0  0  0  0  0  0
  147.3807  134.0046  150.6488 H   0  0  0  0  0  0  0  0  0  0  0  0
  147.9393  139.4139  151.8664 H   0  0  0  0  0  0  0  0  0  0  0  0
  150.2476  138.3281  153.8751 H   0  0  0  0  0  0  0  0  0  0  0  0
  151.1274  142.0472  155.8154 H   0  0  0  0  0  0  0  0  0  0  0  0
  1  2  2  0  0  0  0
  2  3  1  0  0  0  0
  2 11  1  0  0  0  0
  3  4  1  0  0  0  0
  3 24  1  0  0  0  0
  4  5  1  0  0  0  0
  4 25  1  0  0  0  0
  4 26  1  0  0  0  0
  5 10  1  0  0  0  0
  5  6  1  0  0  0  0
  5 27  1  0  0  0  0
  6  7  1  0  0  0  0
  6 28  1  0  0  0  0
  6 29  1  0  0  0  0
  7  8  1  0  0  0  0
  7 30  1  0  0  0  0
  7 31  1  0  0  0  0
  8  9  1  0  0  0  0
  8 32  1  0  0  0  0
  8 33  1  0  0  0  0
  9 10  1  0  0  0  0
  9 34  1  0  0  0  0
  9 35  1  0  0  0  0
 11 12  1  0  0  0  0
 11 36  1  0  0  0  0
 12 21  1  0  0  0  0
 12 13  2  0  0  0  0
 13 14  1  0  0  0  0
 13 37  1  0  0  0  0
 14 15  1  0  0  0  0
 14 19  2  0  0  0  0
 15 16  1  0  0  0  0
 15 17  1  0  0  0  0
 15 18  1  0  0  0  0
 19 20  1  0  0  0  0
 19 38  1  0  0  0  0
 20 23  1  0  0  0  0
 20 21  1  0  0  0  0
 21 22  2  0  0  0  0
M  END
> <s_m_source_file>
AV-unprocessed.smi

> <i_m_source_file_index>
1756

> <i_lp_mmshare_version>
43012

> <i_f3d_flags>
0

> <s_epik_input>
Tz1jMVtuSF1bY0hdYyhDKEYpKEYpRilbY0hdYzFbTkhdQyg9TylbTkhdW0NIMl1bQ0BASF0yW0NIMl1bQ0gyXVtDSDJdW0NIMl1PMg==

> <s_epik_cmdline>
J2VwaWtfcHl0aG9uJywgJy1waCcsICc3LjAnLCAnLXRuJywgJzgnLCAnLW1hJywgJzIwMCcsICctbWV0YWxfYmluZGluZycsICctaW1hZScsICc8aW5maWxlLm1hZT4nLCAnLW9tYWUnLCAnPG91dGZpbGUubWFlPic=

> <r_lp_tautomer_probability>
1

> <r_epik_Ionization_Penalty>
0.00380944

> <r_epik_Ionization_Penalty_Charging>
0.00379057

> <r_epik_Ionization_Penalty_Neutral>
1.88732e-05

> <r_epik_State_Penalty>
-0

> <r_epik_Charging_Adjusted_Penalty>
0.00379057

> <i_epik_Tot_Q>
0

> <i_epik_Tot_abs_Q>
0

> <r_epik_Metal_State_Penalty>
0.371099

> <b_epik_Metal_Only>
0

> <s_lp_Force_Field>
OPLS_2005

> <r_lp_Energy>
19.4174

> <b_lp_Chiralities_Consistent>
1

> <s_lp_Variant>
AV-unprocessed.smi:1756-1

> <Gold.Version>
5.8.1

> <Gold.Id.Protein>
6NUR|6NUR_protein|mol2

> <Gold.PLP.Fitness>
37.9874

> <Gold.PLP.PLP>
-36.2176

> <Gold.PLP.part.hbond>
-2.7125

> <Gold.PLP.part.metal>
0.0000

> <Gold.PLP.part.buried>
0.1243

> <Gold.PLP.part.nonpolar>
-34.7640

> <Gold.PLP.part.repulsive>
1.3872

> <Gold.PLP.ligand.clash>
0.4322

> <Gold.PLP.ligand.torsion>
1.3107

> <Gold.PLP.Chemscore.Hbond>
1.5920

> <Gold.PLP.Chemscore.CHOScore>
0.0000

> <Gold.PLP.Chemscore.Metal>
0.0000

> <Gold.Chemscore.Hbonds>
donor molecule, donor type, donor heavy atom, donor atom, acceptor molecule, acceptor atom, score
      L1  H    11    36       P1  7957  0.42
      L1  H    20    23       P1  8028  1.00

> <Gold.PLP.Chemscore.Internal.Correction>
0.0474

> <Gold.Rescore>
     Score         DG    S(hbond)    S(metal)    S(lipo)     H(rot)  DE(clash)    DE(int)     intcor
     12.44     -15.16       1.60        0.00      66.32       1.33       1.47       1.26       ----

> <Gold.Chemscore.Fitness>
12.4391

> <Gold.Chemscore.DG>
-15.1646

> <Gold.Chemscore.ZeroCoef>
-5.4800

> <Gold.Chemscore.Hbond>
1.5990

> <Gold.Chemscore.Metal>
0.0000

> <Gold.Chemscore.Lipo>
66.3240

> <Gold.Chemscore.Internal_Hbond>
0.0000

> <Gold.Chemscore.DEClash>
1.4663

> <Gold.Chemscore.DEInternal>
1.2592

> <Gold.Chemscore.Rot>
1.3344

> <Gold.Chemscore.Internal.Correction>
   9.000000E+99

> <Gold.Chemscore.Hbonds>
donor molecule, donor type, donor heavy atom, donor atom, acceptor molecule, acceptor atom, score
      L1  H    11    36       P1  7957  0.42
      L1  H    20    23       P1  8028  0.99

> <Gold.Chemscore.Hbond.Weighted>
-5.3407

> <Gold.Chemscore.Metal.Weighted>
-0.0000

> <Gold.Chemscore.Lipo.Weighted>
-7.7599

> <Gold.Chemscore.Internal_Hbond.Weighted>
0.0000

> <Gold.Chemscore.DEClash.Weighted>
1.4663

> <Gold.Chemscore.DEInternal.Weighted>
1.2592

> <Gold.Chemscore.Rot.Weighted>
3.4160

> <Gold.Chemscore.Internal.Correction.Weighted>
   9.000000E+99

> <Gold.Protein.RotatedTorsions>
[ 6907 6896 6895 6894 ] final -172.38 input  -60.11 | X-H torsion
[ 7974 7965 7964 7962 ] final  119.99 input  175.53 | X-H torsion
[ 8008 7997 7996 7995 ] final -161.67 input   59.86 | X-H torsion
[ 10167 10162 10161 10158 ] final -146.35 input  -65.29 | X-H torsion
[ 10718 10713 10712 10709 ] final   86.59 input   66.30 | X-H torsion
[ 10763 10752 10751 10750 ] final  -65.12 input  -60.55 | X-H torsion
[ 11005 11000 10999 10996 ] final   38.90 input  -57.11 | X-H torsion

> <Gold.Protein.ActiveResidues>
 VAL166  LYS551  ARG553  GLY616  TRP617  ASP618  TYR619  PRO620  LYS621  CYS622 
 ASP623  PHE694  ASN695  SER759  ASP760  ASP761  ALA762  ILE779  LEU786  VAL792 
 PHE793  MET794  SER795  GLU796  ALA797  LYS798  CYS799  TRP800  GLU811  SER814 

> <Gold.Protein.RotatedAtoms>
  151.5390  133.3436  159.2931 H   0  0  0  0  0  0  0  0  0  0  0  0  # atno 6907 bound_to 6896
  150.8547  134.7885  159.7047 H   0  0  0  0  0  0  0  0  0  0  0  0  # atno 6908 bound_to 6896
  152.4584  134.5249  159.9845 H   0  0  0  0  0  0  0  0  0  0  0  0  # atno 6909 bound_to 6896
  145.1365  139.3294  143.4638 H   0  0  0  0  0  0  0  0  0  0  0  0  # atno 7974 bound_to 7965
  155.7956  140.0884  157.1985 H   0  0  0  0  0  0  0  0  0  0  0  0  # atno 8008 bound_to 7997
  154.3983  140.1482  156.3273 H   0  0  0  0  0  0  0  0  0  0  0  0  # atno 8009 bound_to 7997
  155.8514  140.3434  155.5698 H   0  0  0  0  0  0  0  0  0  0  0  0  # atno 8010 bound_to 7997
  139.7722  143.8222  152.2626 H   0  0  0  0  0  0  0  0  0  0  0  0  # atno 10167 bound_to 10162
  157.6930  131.0221  150.2996 H   0  0  0  0  0  0  0  0  0  0  0  0  # atno 10718 bound_to 10713
  154.3403  135.6158  153.5593 H   0  0  0  0  0  0  0  0  0  0  0  0  # atno 10763 bound_to 10752
  152.9805  135.5768  154.4861 H   0  0  0  0  0  0  0  0  0  0  0  0  # atno 10764 bound_to 10752
  154.4563  135.2854  155.1722 H   0  0  0  0  0  0  0  0  0  0  0  0  # atno 10765 bound_to 10752
  140.2080  134.3789  155.8063 H   0  0  0  0  0  0  0  0  0  0  0  0  # atno 11005 bound_to 11000
  146.3509  140.1385  142.8595 LP  0  0  0  0  0  0  0  0  0  0  0  0  # atno 17320 bound_to 7965
  145.0578  140.9066  143.4956 LP  0  0  0  0  0  0  0  0  0  0  0  0  # atno 17321 bound_to 7965
  139.8259  144.7275  150.9512 LP  0  0  0  0  0  0  0  0  0  0  0  0  # atno 17342 bound_to 10162
  140.7814  143.4115  151.0986 LP  0  0  0  0  0  0  0  0  0  0  0  0  # atno 17343 bound_to 10162
  156.3514  130.3831  149.7326 LP  0  0  0  0  0  0  0  0  0  0  0  0  # atno 17370 bound_to 10713
  156.4803  130.8038  151.3052 LP  0  0  0  0  0  0  0  0  0  0  0  0  # atno 17371 bound_to 10713
  141.2226  133.7128  156.8371 LP  0  0  0  0  0  0  0  0  0  0  0  0  # atno 17394 bound_to 11000
  140.1981  134.8917  157.3138 LP  0  0  0  0  0  0  0  0  0  0  0  0  # atno 17395 bound_to 11000

$$$$
