AV-unprocessed.smi:3153|AV-procd|sdf|12020|dock1
  -GOLD-   2272017433D 1   1.00000     0.00000
 Structure written by MMmdl.
 37 38  0  0  0  0  0  0  0  0  1 V2000
  150.4889  138.6006  158.1403 O   0  0  0  0  0  0  0  0  0  0  0  0
  151.5700  139.4163  157.7243 C   0  0  0  0  0  0  0  0  0  0  0  0
  152.1689  140.0622  158.9948 C   0  0  0  0  0  0  0  0  0  0  0  0
  153.3789  140.8353  158.7190 N   0  0  0  0  0  0  0  0  0  0  0  0
  153.9218  141.5018  159.8991 C   0  0  0  0  0  0  0  0  0  0  0  0
  152.8366  142.2913  160.6490 C   0  0  0  0  0  0  0  0  0  0  0  0
  152.2205  143.3116  159.8196 N   0  0  0  0  0  0  0  0  0  0  0  0
  152.0558  144.6535  160.0917 C   0  0  0  0  0  0  0  0  0  0  0  0
  151.4265  145.2118  159.0160 C   0  0  0  0  0  0  0  0  0  0  0  0
  151.2419  144.1165  158.1264 C   0  0  0  0  0  0  0  0  0  0  0  0
  151.7164  142.9802  158.6110 N   0  0  0  0  0  0  0  0  0  0  0  0
  152.6264  138.4927  157.0717 C   0  0  0  0  0  0  0  0  0  0  0  0
  152.1530  137.8759  155.7432 C   0  0  0  0  0  0  0  0  0  0  0  0
  151.7025  138.9596  154.7543 C   0  0  0  0  0  0  0  0  0  0  0  0
  150.6094  139.8422  155.3723 C   0  0  0  0  0  0  0  0  0  0  0  0
  151.0741  140.4684  156.6995 C   0  0  0  0  0  0  0  0  0  0  0  0
  150.5595  138.4639  159.0724 H   0  0  0  0  0  0  0  0  0  0  0  0
  151.4203  140.7006  159.4667 H   0  0  0  0  0  0  0  0  0  0  0  0
  152.4016  139.2803  159.7189 H   0  0  0  0  0  0  0  0  0  0  0  0
  153.1812  141.5276  158.0036 H   0  0  0  0  0  0  0  0  0  0  0  0
  154.3733  140.7704  160.5707 H   0  0  0  0  0  0  0  0  0  0  0  0
  154.7202  142.1824  159.6016 H   0  0  0  0  0  0  0  0  0  0  0  0
  152.0548  141.6129  160.9932 H   0  0  0  0  0  0  0  0  0  0  0  0
  153.2538  142.7634  161.5396 H   0  0  0  0  0  0  0  0  0  0  0  0
  152.3989  145.0946  161.0160 H   0  0  0  0  0  0  0  0  0  0  0  0
  151.1412  146.2450  158.8846 H   0  0  0  0  0  0  0  0  0  0  0  0
  150.7801  144.1133  157.1499 H   0  0  0  0  0  0  0  0  0  0  0  0
  153.5352  139.0655  156.8812 H   0  0  0  0  0  0  0  0  0  0  0  0
  152.9127  137.6983  157.7625 H   0  0  0  0  0  0  0  0  0  0  0  0
  152.9566  137.2849  155.3031 H   0  0  0  0  0  0  0  0  0  0  0  0
  151.3303  137.1842  155.9285 H   0  0  0  0  0  0  0  0  0  0  0  0
  152.5558  139.5764  154.4700 H   0  0  0  0  0  0  0  0  0  0  0  0
  151.3345  138.4975  153.8378 H   0  0  0  0  0  0  0  0  0  0  0  0
  150.3292  140.6285  154.6712 H   0  0  0  0  0  0  0  0  0  0  0  0
  149.7106  139.2475  155.5400 H   0  0  0  0  0  0  0  0  0  0  0  0
  150.2589  141.0602  157.1174 H   0  0  0  0  0  0  0  0  0  0  0  0
  151.8815  141.1715  156.4910 H   0  0  0  0  0  0  0  0  0  0  0  0
  1  2  1  0  0  0  0
  1 17  1  0  0  0  0
  2 16  1  0  0  0  0
  2  3  1  0  0  0  0
  2 12  1  0  0  0  0
  3  4  1  0  0  0  0
  3 18  1  0  0  0  0
  3 19  1  0  0  0  0
  4  5  1  0  0  0  0
  4 20  1  0  0  0  0
  5  6  1  0  0  0  0
  5 21  1  0  0  0  0
  5 22  1  0  0  0  0
  6  7  1  0  0  0  0
  6 23  1  0  0  0  0
  6 24  1  0  0  0  0
  7 11  1  0  0  0  0
  7  8  1  0  0  0  0
  8  9  2  0  0  0  0
  8 25  1  0  0  0  0
  9 10  1  0  0  0  0
  9 26  1  0  0  0  0
 10 11  2  0  0  0  0
 10 27  1  0  0  0  0
 12 13  1  0  0  0  0
 12 28  1  0  0  0  0
 12 29  1  0  0  0  0
 13 14  1  0  0  0  0
 13 30  1  0  0  0  0
 13 31  1  0  0  0  0
 14 15  1  0  0  0  0
 14 32  1  0  0  0  0
 14 33  1  0  0  0  0
 15 16  1  0  0  0  0
 15 34  1  0  0  0  0
 15 35  1  0  0  0  0
 16 36  1  0  0  0  0
 16 37  1  0  0  0  0
M  END
> <s_m_source_file>
AV-unprocessed.smi

> <i_m_source_file_index>
3153

> <i_lp_mmshare_version>
43012

> <i_f3d_flags>
0

> <s_epik_input>
W0NIMl0xW0NIMl1bQ0gyXVtDSDJdW0NIMl1DMShbT0hdKVtDSDJdW05IXVtDSDJdW0NIMl1uMltjSF1bY0hdW2NIXW4y

> <s_epik_cmdline>
J2VwaWtfcHl0aG9uJywgJy1waCcsICc3LjAnLCAnLXRuJywgJzgnLCAnLW1hJywgJzIwMCcsICctbWV0YWxfYmluZGluZycsICctaW1hZScsICc8aW5maWxlLm1hZT4nLCAnLW9tYWUnLCAnPG91dGZpbGUubWFlPic=

> <r_lp_tautomer_probability>
1

> <r_epik_Ionization_Penalty>
1.91265

> <r_epik_Ionization_Penalty_Charging>
0

> <r_epik_Ionization_Penalty_Neutral>
1.91265

> <r_epik_State_Penalty>
2.0334

> <r_epik_Charging_Adjusted_Penalty>
2.0334

> <i_epik_Tot_Q>
0

> <i_epik_Tot_abs_Q>
0

> <r_epik_Metal_State_Penalty>
2.03214

> <b_epik_Metal_Only>
0

> <s_lp_Force_Field>
OPLS_2005

> <r_lp_Energy>
22.2281

> <b_lp_Chiralities_Consistent>
1

> <s_lp_Variant>
AV-unprocessed.smi:3153-2

> <Gold.Version>
5.8.1

> <Gold.Id.Protein>
6NUR|6NUR_protein|mol2

> <Gold.PLP.Fitness>
40.6688

> <Gold.PLP.PLP>
-37.7123

> <Gold.PLP.part.hbond>
-1.0000

> <Gold.PLP.part.metal>
0.0000

> <Gold.PLP.part.buried>
-1.2856

> <Gold.PLP.part.nonpolar>
-34.5219

> <Gold.PLP.part.repulsive>
0.0288

> <Gold.PLP.ligand.clash>
0.0000

> <Gold.PLP.ligand.torsion>
0.0977

> <Gold.PLP.Chemscore.Hbond>
0.0291

> <Gold.PLP.Chemscore.CHOScore>
1.0000

> <Gold.PLP.Chemscore.Metal>
0.0000

> <Gold.Chemscore.Hbonds>
donor molecule, donor type, donor heavy atom, donor atom, acceptor molecule, acceptor atom, score
      P1  H  7997  8009       L1     4  0.04
      L1  C    10    27       P1  8028  1.00

> <Gold.PLP.Chemscore.Internal.Correction>
0.0646

> <Gold.Rescore>
     Score         DG    S(hbond)    S(metal)    S(lipo)     H(rot)  DE(clash)    DE(int)     intcor
     10.60     -12.11       0.00        0.00     104.28       2.18       0.03       1.49       ----

> <Gold.Chemscore.Fitness>
10.5989

> <Gold.Chemscore.DG>
-12.1107

> <Gold.Chemscore.ZeroCoef>
-5.4800

> <Gold.Chemscore.Hbond>
0.0000

> <Gold.Chemscore.Metal>
0.0000

> <Gold.Chemscore.Lipo>
104.2762

> <Gold.Chemscore.Internal_Hbond>
0.0000

> <Gold.Chemscore.DEClash>
0.0260

> <Gold.Chemscore.DEInternal>
1.4858

> <Gold.Chemscore.Rot>
2.1756

> <Gold.Chemscore.Internal.Correction>
   9.000000E+99

> <Gold.Chemscore.Hbond.Weighted>
-0.0000

> <Gold.Chemscore.Metal.Weighted>
-0.0000

> <Gold.Chemscore.Lipo.Weighted>
-12.2003

> <Gold.Chemscore.Internal_Hbond.Weighted>
0.0000

> <Gold.Chemscore.DEClash.Weighted>
0.0260

> <Gold.Chemscore.DEInternal.Weighted>
1.4858

> <Gold.Chemscore.Rot.Weighted>
5.5696

> <Gold.Chemscore.Internal.Correction.Weighted>
   9.000000E+99

> <Gold.Protein.RotatedTorsions>
[ 6907 6896 6895 6894 ] final   46.36 input  -60.11 | X-H torsion
[ 7974 7965 7964 7962 ] final  -60.87 input  175.53 | X-H torsion
[ 8008 7997 7996 7995 ] final  123.74 input   59.86 | X-H torsion
[ 10167 10162 10161 10158 ] final  147.54 input  -65.29 | X-H torsion
[ 10718 10713 10712 10709 ] final   22.43 input   66.30 | X-H torsion
[ 10763 10752 10751 10750 ] final  -78.34 input  -60.55 | X-H torsion
[ 11005 11000 10999 10996 ] final -121.18 input  -57.11 | X-H torsion

> <Gold.Protein.ActiveResidues>
 VAL166  LYS551  ARG553  GLY616  TRP617  ASP618  TYR619  PRO620  LYS621  CYS622 
 ASP623  PHE694  ASN695  SER759  ASP760  ASP761  ALA762  ILE779  LEU786  VAL792 
 PHE793  MET794  SER795  GLU796  ALA797  LYS798  CYS799  TRP800  GLU811  SER814 

> <Gold.Protein.RotatedAtoms>
  152.2555  134.8089  160.0438 H   0  0  0  0  0  0  0  0  0  0  0  0  # atno 6907 bound_to 6896
  151.8754  133.3479  159.3757 H   0  0  0  0  0  0  0  0  0  0  0  0  # atno 6908 bound_to 6896
  150.7098  134.4998  159.5600 H   0  0  0  0  0  0  0  0  0  0  0  0  # atno 6909 bound_to 6896
  145.8103  140.8602  143.0185 H   0  0  0  0  0  0  0  0  0  0  0  0  # atno 7974 bound_to 7965
  156.2777  140.2756  156.1676 H   0  0  0  0  0  0  0  0  0  0  0  0  # atno 8008 bound_to 7997
  155.0688  140.0387  157.2619 H   0  0  0  0  0  0  0  0  0  0  0  0  # atno 8009 bound_to 7997
  154.7057  140.2658  155.6682 H   0  0  0  0  0  0  0  0  0  0  0  0  # atno 8010 bound_to 7997
  139.4888  144.5748  151.6987 H   0  0  0  0  0  0  0  0  0  0  0  0  # atno 10167 bound_to 10162
  157.1522  130.6680  149.6016 H   0  0  0  0  0  0  0  0  0  0  0  0  # atno 10718 bound_to 10713
  154.5246  135.5733  153.6709 H   0  0  0  0  0  0  0  0  0  0  0  0  # atno 10763 bound_to 10752
  152.9925  135.6190  154.2709 H   0  0  0  0  0  0  0  0  0  0  0  0  # atno 10764 bound_to 10752
  154.2632  135.2855  155.2749 H   0  0  0  0  0  0  0  0  0  0  0  0  # atno 10765 bound_to 10752
  141.0089  134.0294  157.3440 H   0  0  0  0  0  0  0  0  0  0  0  0  # atno 11005 bound_to 11000
  144.6758  140.0386  143.7481 LP  0  0  0  0  0  0  0  0  0  0  0  0  # atno 17320 bound_to 7965
  145.9784  139.2922  143.1057 LP  0  0  0  0  0  0  0  0  0  0  0  0  # atno 17321 bound_to 7965
  140.5342  144.0683  150.6064 LP  0  0  0  0  0  0  0  0  0  0  0  0  # atno 17342 bound_to 10162
  140.3683  143.2869  152.0307 LP  0  0  0  0  0  0  0  0  0  0  0  0  # atno 17343 bound_to 10162
  155.9768  130.4740  150.6554 LP  0  0  0  0  0  0  0  0  0  0  0  0  # atno 17370 bound_to 10713
  157.4209  131.0836  151.1131 LP  0  0  0  0  0  0  0  0  0  0  0  0  # atno 17371 bound_to 10713
  139.9078  135.0184  156.7564 LP  0  0  0  0  0  0  0  0  0  0  0  0  # atno 17394 bound_to 11000
  140.6767  133.9511  155.7887 LP  0  0  0  0  0  0  0  0  0  0  0  0  # atno 17395 bound_to 11000

$$$$
