AV-unprocessed.smi:2061|AV-procd|sdf|8385|dock4
  -GOLD-   2272011 63D 1   1.00000     0.00000
 Structure written by MMmdl.
 45 46  0  0  0  0  0  0  0  0  3 V2000
  144.2531  134.6803  162.6584 C   0  0  0  0  0  0  0  0  0  0  0  0
  145.3304  135.2453  161.7968 C   0  0  0  0  0  0  0  0  0  0  0  0
  146.0696  136.3916  161.8691 C   0  0  0  0  0  0  0  0  0  0  0  0
  146.9229  136.3001  160.7357 C   0  0  0  0  0  0  0  0  0  0  0  0
  147.8412  137.2056  160.3645 N   0  5  0  0  0  0  0  0  0  0  0  0
  148.7817  136.8836  159.4479 C   0  0  0  0  0  0  0  0  0  0  0  0
  149.1549  135.7464  159.1512 O   0  0  0  0  0  0  0  0  0  0  0  0
  149.3327  137.9488  158.8474 N   0  0  0  0  0  0  0  0  0  0  0  0
  150.3734  137.9236  157.8224 C   0  0  0  0  0  0  0  0  0  0  0  0
  151.6887  138.6090  158.2770 C   0  0  1  0  0  0  0  0  0  0  0  0
  152.8593  138.2428  157.3313 C   0  0  0  0  0  0  0  0  0  0  0  0
  151.4693  140.0869  158.4113 N   0  3  1  0  0  0  0  0  0  0  0  0
  152.5325  140.7518  159.2102 C   0  0  0  0  0  0  0  0  0  0  0  0
  152.1829  142.2259  159.4725 C   0  0  1  0  0  0  0  0  0  0  0  0
  153.2915  142.9510  160.2433 C   0  0  0  0  0  0  0  0  0  0  0  0
  152.0080  142.8935  158.2281 O   0  0  0  0  0  0  0  0  0  0  0  0
  150.9972  142.3326  157.3939 C   0  0  2  0  0  0  0  0  0  0  0  0
  149.5805  142.6178  157.9249 C   0  0  0  0  0  0  0  0  0  0  0  0
  151.2696  140.8358  157.1399 C   0  0  0  0  0  0  0  0  0  0  0  0
  146.7066  135.2049  160.0270 N   0  0  0  0  0  0  0  0  0  0  0  0
  145.6911  134.5194  160.7045 O   0  0  0  0  0  0  0  0  0  0  0  0
  143.3693  135.3177  162.6365 H   0  0  0  0  0  0  0  0  0  0  0  0
  144.5888  134.6018  163.6924 H   0  0  0  0  0  0  0  0  0  0  0  0
  143.9609  133.6851  162.3224 H   0  0  0  0  0  0  0  0  0  0  0  0
  146.0144  137.1689  162.6164 H   0  0  0  0  0  0  0  0  0  0  0  0
  148.9923  138.8572  159.1273 H   0  0  0  0  0  0  0  0  0  0  0  0
  150.5786  136.9032  157.4947 H   0  0  0  0  0  0  0  0  0  0  0  0
  149.9449  138.4281  156.9588 H   0  0  0  0  0  0  0  0  0  0  0  0
  151.9561  138.2228  159.2622 H   0  0  0  0  0  0  0  0  0  0  0  0
  152.9981  137.1647  157.2586 H   0  0  0  0  0  0  0  0  0  0  0  0
  153.8136  138.6296  157.6880 H   0  0  0  0  0  0  0  0  0  0  0  0
  152.6892  138.6189  156.3219 H   0  0  0  0  0  0  0  0  0  0  0  0
  152.6732  140.2548  160.1681 H   0  0  0  0  0  0  0  0  0  0  0  0
  153.4829  140.6801  158.6786 H   0  0  0  0  0  0  0  0  0  0  0  0
  151.2678  142.2880  160.0618 H   0  0  0  0  0  0  0  0  0  0  0  0
  153.4625  142.4868  161.2150 H   0  0  0  0  0  0  0  0  0  0  0  0
  153.0268  143.9944  160.4168 H   0  0  0  0  0  0  0  0  0  0  0  0
  154.2328  142.9336  159.6933 H   0  0  0  0  0  0  0  0  0  0  0  0
  151.0800  142.8488  156.4369 H   0  0  0  0  0  0  0  0  0  0  0  0
  148.8272  142.3048  157.2018 H   0  0  0  0  0  0  0  0  0  0  0  0
  149.4399  143.6840  158.1044 H   0  0  0  0  0  0  0  0  0  0  0  0
  149.3721  142.0905  158.8555 H   0  0  0  0  0  0  0  0  0  0  0  0
  152.1595  140.7229  156.5185 H   0  0  0  0  0  0  0  0  0  0  0  0
  150.4277  140.4390  156.5733 H   0  0  0  0  0  0  0  0  0  0  0  0
  150.6062  140.1901  158.9261 H   0  0  0  0  0  0  0  0  0  0  0  0
  1  2  1  0  0  0  0
  1 22  1  0  0  0  0
  1 23  1  0  0  0  0
  1 24  1  0  0  0  0
  2 21  1  0  0  0  0
  2  3  2  0  0  0  0
  3  4  1  0  0  0  0
  3 25  1  0  0  0  0
  4  5  1  0  0  0  0
  4 20  2  0  0  0  0
  5  6  1  0  0  0  0
  6  7  2  0  0  0  0
  6  8  1  0  0  0  0
  8  9  1  0  0  0  0
  8 26  1  0  0  0  0
  9 10  1  0  0  0  0
  9 27  1  0  0  0  0
  9 28  1  0  0  0  0
 10 11  1  0  0  0  0
 10 12  1  0  0  0  0
 10 29  1  0  0  0  0
 11 30  1  0  0  0  0
 11 31  1  0  0  0  0
 11 32  1  0  0  0  0
 12 19  1  0  0  0  0
 12 13  1  0  0  0  0
 12 45  1  0  0  0  0
 13 14  1  0  0  0  0
 13 33  1  0  0  0  0
 13 34  1  0  0  0  0
 14 15  1  0  0  0  0
 14 16  1  0  0  0  0
 14 35  1  0  0  0  0
 15 36  1  0  0  0  0
 15 37  1  0  0  0  0
 15 38  1  0  0  0  0
 16 17  1  0  0  0  0
 17 18  1  0  0  0  0
 17 19  1  0  0  0  0
 17 39  1  0  0  0  0
 18 40  1  0  0  0  0
 18 41  1  0  0  0  0
 18 42  1  0  0  0  0
 19 43  1  0  0  0  0
 19 44  1  0  0  0  0
 20 21  1  0  0  0  0
M  CHG  1   5  -1
M  CHG  1  12   1
M  END
> <s_m_source_file>
AV-unprocessed.smi

> <i_m_source_file_index>
2061

> <i_lp_mmshare_version>
43012

> <i_f3d_flags>
0

> <s_epik_input>
W0NIM11jMVtjSF1jKG5vMSlbTkhdQyg9TylbTkhdW0NIMl1bQ0BIXShbQ0gzXSlOMltDSDJdW0NAQEhdKFtDSDNdKU9bQ0BASF0oW0NIM10pW0NIMl0y

> <s_epik_cmdline>
J2VwaWtfcHl0aG9uJywgJy1waCcsICc3LjAnLCAnLXRuJywgJzgnLCAnLW1hJywgJzIwMCcsICctbWV0YWxfYmluZGluZycsICctaW1hZScsICc8aW5maWxlLm1hZT4nLCAnLW9tYWUnLCAnPG91dGZpbGUubWFlPic=

> <r_epik_Ionization_Penalty>
6.73511

> <r_epik_Ionization_Penalty_Charging>
6.73502

> <r_epik_Ionization_Penalty_Neutral>
9.50841e-05

> <r_epik_State_Penalty>
6.93549

> <r_epik_Charging_Adjusted_Penalty>
13.6705

> <i_epik_Tot_Q>
0

> <i_epik_Tot_abs_Q>
2

> <r_epik_Metal_State_Penalty>
2.87211

> <b_epik_Metal_Only>
1

> <s_lp_Force_Field>
OPLS_2005

> <r_lp_Energy>
11.2627

> <b_lp_Chiralities_Consistent>
1

> <s_lp_Variant>
AV-unprocessed.smi:2061-26

> <Gold.Version>
5.8.1

> <Gold.Id.Protein>
6NUR|6NUR_protein|mol2

> <Gold.PLP.Fitness>
42.7278

> <Gold.PLP.PLP>
-30.9910

> <Gold.PLP.part.hbond>
-3.0000

> <Gold.PLP.part.metal>
0.0000

> <Gold.PLP.part.buried>
-5.3503

> <Gold.PLP.part.nonpolar>
-23.3223

> <Gold.PLP.part.repulsive>
0.3842

> <Gold.PLP.ligand.clash>
0.0000

> <Gold.PLP.ligand.torsion>
0.3626

> <Gold.PLP.Chemscore.Hbond>
4.1223

> <Gold.PLP.Chemscore.CHOScore>
0.0000

> <Gold.PLP.Chemscore.Metal>
0.0000

> <Gold.Chemscore.Hbonds>
donor molecule, donor type, donor heavy atom, donor atom, acceptor molecule, acceptor atom, score
      P1  H  6896  6907       L1     7  1.00
      P1  H  6931  6943       L1     5  0.80
      P1  H  6934  6947       L1     5  1.66

> <Gold.PLP.Chemscore.Internal.Correction>
0.0952

> <Gold.Rescore>
     Score         DG    S(hbond)    S(metal)    S(lipo)     H(rot)  DE(clash)    DE(int)     intcor
     15.59     -17.55       1.91        0.00      82.69       1.56       0.03       1.93       ----

> <Gold.Chemscore.Fitness>
15.5896

> <Gold.Chemscore.DG>
-17.5546

> <Gold.Chemscore.ZeroCoef>
-5.4800

> <Gold.Chemscore.Hbond>
1.9103

> <Gold.Chemscore.Metal>
0.0000

> <Gold.Chemscore.Lipo>
82.6928

> <Gold.Chemscore.Internal_Hbond>
0.0000

> <Gold.Chemscore.DEClash>
0.0335

> <Gold.Chemscore.DEInternal>
1.9315

> <Gold.Chemscore.Rot>
1.5550

> <Gold.Chemscore.Internal.Correction>
   9.000000E+99

> <Gold.Chemscore.Hbonds>
donor molecule, donor type, donor heavy atom, donor atom, acceptor molecule, acceptor atom, score
      P1  H  6896  6907       L1     7  0.97
      P1  H  6931  6943       L1     5  0.14
      P1  H  6934  6947       L1     5  0.55

> <Gold.Chemscore.Hbond.Weighted>
-6.3804

> <Gold.Chemscore.Metal.Weighted>
-0.0000

> <Gold.Chemscore.Lipo.Weighted>
-9.6751

> <Gold.Chemscore.Internal_Hbond.Weighted>
0.0000

> <Gold.Chemscore.DEClash.Weighted>
0.0335

> <Gold.Chemscore.DEInternal.Weighted>
1.9315

> <Gold.Chemscore.Rot.Weighted>
3.9809

> <Gold.Chemscore.Internal.Correction.Weighted>
   9.000000E+99

> <Gold.Protein.RotatedTorsions>
[ 6907 6896 6895 6894 ] final  -75.85 input  -60.11 | X-H torsion
[ 7974 7965 7964 7962 ] final  102.52 input  175.53 | X-H torsion
[ 8008 7997 7996 7995 ] final   32.50 input   59.86 | X-H torsion
[ 10167 10162 10161 10158 ] final  151.28 input  -65.29 | X-H torsion
[ 10718 10713 10712 10709 ] final  -76.18 input   66.30 | X-H torsion
[ 10763 10752 10751 10750 ] final  -35.42 input  -60.55 | X-H torsion
[ 11005 11000 10999 10996 ] final  -84.16 input  -57.11 | X-H torsion

> <Gold.Protein.ActiveResidues>
 VAL166  LYS551  ARG553  GLY616  TRP617  ASP618  TYR619  PRO620  LYS621  CYS622 
 ASP623  PHE694  ASN695  SER759  ASP760  ASP761  ALA762  ILE779  LEU786  VAL792 
 PHE793  MET794  SER795  GLU796  ALA797  LYS798  CYS799  TRP800  GLU811  SER814 

> <Gold.Protein.RotatedAtoms>
  150.7045  134.4659  159.5402 H   0  0  0  0  0  0  0  0  0  0  0  0  # atno 6907 bound_to 6896
  152.2325  134.8305  160.0481 H   0  0  0  0  0  0  0  0  0  0  0  0  # atno 6908 bound_to 6896
  151.9116  133.3527  159.3902 H   0  0  0  0  0  0  0  0  0  0  0  0  # atno 6909 bound_to 6896
  145.3580  139.2424  143.3522 H   0  0  0  0  0  0  0  0  0  0  0  0  # atno 7974 bound_to 7965
  155.1235  140.3250  155.4491 H   0  0  0  0  0  0  0  0  0  0  0  0  # atno 8008 bound_to 7997
  156.2656  140.2023  156.6305 H   0  0  0  0  0  0  0  0  0  0  0  0  # atno 8009 bound_to 7997
  154.6666  140.0541  157.0107 H   0  0  0  0  0  0  0  0  0  0  0  0  # atno 8010 bound_to 7997
  139.4842  144.5454  151.7493 H   0  0  0  0  0  0  0  0  0  0  0  0  # atno 10167 bound_to 10162
  156.0183  130.4459  150.3155 H   0  0  0  0  0  0  0  0  0  0  0  0  # atno 10718 bound_to 10713
  153.8630  135.6838  153.4781 H   0  0  0  0  0  0  0  0  0  0  0  0  # atno 10763 bound_to 10752
  153.1331  135.4689  154.9378 H   0  0  0  0  0  0  0  0  0  0  0  0  # atno 10764 bound_to 10752
  154.7750  135.3250  154.8061 H   0  0  0  0  0  0  0  0  0  0  0  0  # atno 10765 bound_to 10752
  141.1652  133.7332  156.8827 H   0  0  0  0  0  0  0  0  0  0  0  0  # atno 11005 bound_to 11000
  146.2939  140.4209  142.8729 LP  0  0  0  0  0  0  0  0  0  0  0  0  # atno 17320 bound_to 7965
  144.8667  140.7216  143.6073 LP  0  0  0  0  0  0  0  0  0  0  0  0  # atno 17321 bound_to 7965
  140.5000  144.1184  150.5969 LP  0  0  0  0  0  0  0  0  0  0  0  0  # atno 17342 bound_to 10162
  140.4073  143.2674  151.9875 LP  0  0  0  0  0  0  0  0  0  0  0  0  # atno 17343 bound_to 10162
  157.1256  131.0258  151.2991 LP  0  0  0  0  0  0  0  0  0  0  0  0  # atno 17370 bound_to 10713
  157.4593  130.7644  149.7221 LP  0  0  0  0  0  0  0  0  0  0  0  0  # atno 17371 bound_to 10713
  140.1703  134.9104  157.2825 LP  0  0  0  0  0  0  0  0  0  0  0  0  # atno 17394 bound_to 11000
  140.2509  134.3684  155.7442 LP  0  0  0  0  0  0  0  0  0  0  0  0  # atno 17395 bound_to 11000

$$$$
