#       Name:                AV-unprocessed.smi:535
#       Creating user name   scv26
#       Creation time:       Thu Mar 26 23:35:15 2020


#       File generated by GOLD software.
#

@<TRIPOS>MOLECULE
AV-unprocessed.smi:535
    53    55     1
SMALL
NO_CHARGES


@<TRIPOS>ATOM
      1 ****        -4.2824   1.4541  -0.6326 C.3            1 S1                 0.0000
      2 ****        -3.5767   0.2352  -0.7834 O.3            1 S1                 0.0000
      3 ****        -2.1918   0.4374  -1.0066 C.3            1 S1                 0.0000
      4 ****        -1.5046  -0.9261  -1.1391 C.3            1 S1                 0.0000
      5 ****        -0.0579  -0.7811  -1.2852 N.pl3          1 S1                 0.0000
      6 ****         0.8800  -0.6522  -0.3059 C.2            1 S1                 0.0000
      7 ****         0.5556  -0.6615   1.0530 N.pl3          1 S1                 0.0000
      8 ****        -0.1189  -1.7371   1.7793 C.3            1 S1                 0.0000
      9 ****        -1.3098  -1.2052   2.5955 C.3            1 S1                 0.0000
     10 ****        -0.8415  -0.1288   3.5839 C.3            1 S1                 0.0000
     11 ****        -0.0322   0.9548   2.8498 C.3            1 S1                 0.0000
     12 ****         0.5290   1.9967   3.8266 C.3            1 S1                 0.0000
     13 ****         1.0890   0.3034   2.0137 C.3            1 S1                 0.0000
     14 ****         2.1235  -0.4608  -0.7504 N.2            1 S1                 0.0000
     15 ****         1.9717  -0.4862  -2.1275 C.2            1 S1                 0.0000
     16 ****         0.6685  -0.6610  -2.4759 C.2            1 S1                 0.0000
     17 ****         0.1895  -0.6746  -3.8772 C.2            1 S1                 0.0000
     18 ****        -1.0046  -0.7959  -4.1417 O.2            1 S1                 0.0000
     19 ****         1.2141  -0.5302  -4.7761 N.pl3          1 S1                -1.0000
     20 ****         2.5464  -0.3621  -4.4665 C.2            1 S1                 0.0000
     21 ****         3.4058  -0.2354  -5.3397 O.2            1 S1                 0.0000
     22 ****         2.9416  -0.3316  -3.1552 N.am           1 S1                 0.0000
     23 ****         4.3502  -0.1442  -2.7957 C.3            1 S1                 0.0000
     24 ****        -5.3386   1.2473  -0.4607 H              1 S1                 0.0000
     25 ****        -4.2010   2.0703  -1.5291 H              1 S1                 0.0000
     26 ****        -3.9081   2.0234   0.2192 H              1 S1                 0.0000
     27 ****        -2.0370   1.0266  -1.9120 H              1 S1                 0.0000
     28 ****        -1.7605   0.9933  -0.1723 H              1 S1                 0.0000
     29 ****        -1.7334  -1.5413  -0.2758 H              1 S1                 0.0000
     30 ****        -1.9095  -1.4831  -1.9812 H              1 S1                 0.0000
     31 ****        -0.4355  -2.5215   1.0928 H              1 S1                 0.0000
     32 ****         0.6010  -2.2106   2.4482 H              1 S1                 0.0000
     33 ****        -2.0639  -0.7861   1.9287 H              1 S1                 0.0000
     34 ****        -1.7903  -2.0223   3.1337 H              1 S1                 0.0000
     35 ****        -1.6996   0.3129   4.0914 H              1 S1                 0.0000
     36 ****        -0.2246  -0.5906   4.3559 H              1 S1                 0.0000
     37 ****        -0.7045   1.4733   2.1643 H              1 S1                 0.0000
     38 ****         1.2191   1.5417   4.5378 H              1 S1                 0.0000
     39 ****        -0.2702   2.4724   4.3957 H              1 S1                 0.0000
     40 ****         1.0679   2.7816   3.2955 H              1 S1                 0.0000
     41 ****         1.8113  -0.1941   2.6626 H              1 S1                 0.0000
     42 ****         1.6379   1.0784   1.4771 H              1 S1                 0.0000
     43 ****         4.9659  -0.9291  -3.2369 H              1 S1                 0.0000
     44 ****         4.5173  -0.1687  -1.7192 H              1 S1                 0.0000
     45 ****         4.7111   0.8185  -3.1605 H              1 S1                 0.0000
     46 ****        -3.9583  -0.2627  -1.5621 LP             1 S1                 0.0000
     47 ****        -3.6921  -0.3078   0.0484 LP             1 S1                 0.0000
     48 ****         2.9608  -0.3307  -0.2192 LP             1 S1                 0.0000
     49 ****        -1.6733  -0.8878  -3.4039 LP             1 S1                 0.0000
     50 ****        -1.3074  -0.8027  -5.0947 LP             1 S1                 0.0000
     51 ****         0.9725  -0.5485  -5.7463 LP             1 S1                 0.0000
     52 ****         3.1444  -0.2530  -6.3047 LP             1 S1                 0.0000
     53 ****         4.3649  -0.1150  -5.0835 LP             1 S1                 0.0000
@<TRIPOS>BOND
    1    1    2 1     
    2    1   24 1     
    3    1   25 1     
    4    1   26 1     
    5    2    3 1     
    6    3    4 1     
    7    3   27 1     
    8    3   28 1     
    9    4    5 1     
   10    4   29 1     
   11    4   30 1     
   12    5   16 1     
   13    5    6 1     
   14    6    7 1     
   15    6   14 2     
   16    7   13 1     
   17    7    8 1     
   18    8    9 1     
   19    8   31 1     
   20    8   32 1     
   21    9   10 1     
   22    9   33 1     
   23    9   34 1     
   24   10   11 1     
   25   10   35 1     
   26   10   36 1     
   27   11   12 1     
   28   11   13 1     
   29   11   37 1     
   30   12   38 1     
   31   12   39 1     
   32   12   40 1     
   33   13   41 1     
   34   13   42 1     
   35   14   15 1     
   36   15   22 1     
   37   15   16 2     
   38   16   17 1     
   39   17   18 2     
   40   17   19 1     
   41   19   20 1     
   42   20   21 2     
   43   20   22 am    
   44   22   23 1     
   45   23   43 1     
   46   23   44 1     
   47   23   45 1     
   48    2   46 1     
   49    2   47 1     
   50   14   48 1     
   51   18   49 1     
   52   18   50 1     
   53   19   51 1     
   54   21   52 1     
   55   21   53 1     
@<TRIPOS>SUBSTRUCTURE
      1 S1             1
@<TRIPOS>SET
LONE_PAIRS      STATIC     ATOMS    <user>   **** ""
8 46 47 48 49 50 51 52 53
ATOM$BLUE        STATIC     ATOMS    COLORGROUP SYSTEM
8 46 47 48 49 50 51 52 53
