AV-unprocessed.smi:861|AV-procd|sdf|3974|dock3
  -GOLD-   22720 1453D 1   1.00000     0.00000
 Structure written by MMmdl.
 45 46  0  0  0  0  0  0  0  0  3 V2000
  147.4385  134.6063  154.4005 C   0  0  0  0  0  0  0  0  0  0  0  0
  148.4514  135.5883  155.0137 C   0  0  0  0  0  0  0  0  0  0  0  0
  149.4156  134.8416  155.9489 C   0  0  0  0  0  0  0  0  0  0  0  0
  147.7709  136.7588  155.7536 C   0  0  0  0  0  0  0  0  0  0  0  0
  147.0648  137.7659  154.8242 C   0  0  0  0  0  0  0  0  0  0  0  0
  147.9674  138.2731  153.7558 N   0  3  1  0  0  0  0  0  0  0  0  0
  147.3361  139.2319  152.8131 C   0  0  0  0  0  0  0  0  0  0  0  0
  147.2284  140.6402  153.4279 C   0  0  0  0  0  0  0  0  0  0  0  0
  148.5119  141.0742  153.8614 O   0  0  0  0  0  0  0  0  0  0  0  0
  149.0646  140.2297  154.8665 C   0  0  2  0  0  0  0  0  0  0  0  0
  150.4045  140.8330  155.3140 C   0  0  0  0  0  0  0  0  0  0  0  0
  150.2204  142.0927  156.0191 N   0  0  0  0  0  0  0  0  0  0  0  0
  150.8844  142.3371  157.2287 C   0  0  0  0  0  0  0  0  0  0  0  0
  151.7603  141.4183  157.8522 C   0  0  0  0  0  0  0  0  0  0  0  0
  152.3613  141.7900  159.0668 C   0  0  0  0  0  0  0  0  0  0  0  0
  152.0516  143.0597  159.5856 C   0  0  0  0  0  0  0  0  0  0  0  0
  151.2116  143.9240  158.9740 N   0  0  0  0  0  0  0  0  0  0  0  0
  150.6516  143.5389  157.8137 N   0  3  0  0  0  0  0  0  0  0  0  0
  149.2497  138.8196  154.2660 C   0  0  0  0  0  0  0  0  0  0  0  0
  146.7790  134.1894  155.1623 H   0  0  0  0  0  0  0  0  0  0  0  0
  147.9480  133.7739  153.9143 H   0  0  0  0  0  0  0  0  0  0  0  0
  146.8171  135.0836  153.6434 H   0  0  0  0  0  0  0  0  0  0  0  0
  149.0500  136.0034  154.2017 H   0  0  0  0  0  0  0  0  0  0  0  0
  148.8854  134.3941  156.7904 H   0  0  0  0  0  0  0  0  0  0  0  0
  150.1747  135.5124  156.3523 H   0  0  0  0  0  0  0  0  0  0  0  0
  149.9361  134.0418  155.4211 H   0  0  0  0  0  0  0  0  0  0  0  0
  147.0570  136.3665  156.4793 H   0  0  0  0  0  0  0  0  0  0  0  0
  148.5320  137.2793  156.3339 H   0  0  0  0  0  0  0  0  0  0  0  0
  146.1654  137.3263  154.3930 H   0  0  0  0  0  0  0  0  0  0  0  0
  146.7325  138.6116  155.4256 H   0  0  0  0  0  0  0  0  0  0  0  0
  147.9557  139.2824  151.9168 H   0  0  0  0  0  0  0  0  0  0  0  0
  146.3582  138.8828  152.4841 H   0  0  0  0  0  0  0  0  0  0  0  0
  146.8551  141.3430  152.6830 H   0  0  0  0  0  0  0  0  0  0  0  0
  146.5223  140.6617  154.2587 H   0  0  0  0  0  0  0  0  0  0  0  0
  148.3907  140.1819  155.7240 H   0  0  0  0  0  0  0  0  0  0  0  0
  150.9091  140.1357  155.9838 H   0  0  0  0  0  0  0  0  0  0  0  0
  151.0556  140.9836  154.4518 H   0  0  0  0  0  0  0  0  0  0  0  0
  149.7233  142.8416  155.5580 H   0  0  0  0  0  0  0  0  0  0  0  0
  151.9741  140.4505  157.4236 H   0  0  0  0  0  0  0  0  0  0  0  0
  153.0369  141.1255  159.5850 H   0  0  0  0  0  0  0  0  0  0  0  0
  152.4881  143.3921  160.5160 H   0  0  0  0  0  0  0  0  0  0  0  0
  149.6909  138.1389  154.9952 H   0  0  0  0  0  0  0  0  0  0  0  0
  149.9535  138.8687  153.4337 H   0  0  0  0  0  0  0  0  0  0  0  0
  148.2144  137.4566  153.2142 H   0  0  0  0  0  0  0  0  0  0  0  0
  150.0165  144.1871  157.3475 H   0  0  0  0  0  0  0  0  0  0  0  0
  1  2  1  0  0  0  0
  1 20  1  0  0  0  0
  1 21  1  0  0  0  0
  1 22  1  0  0  0  0
  2  3  1  0  0  0  0
  2  4  1  0  0  0  0
  2 23  1  0  0  0  0
  3 24  1  0  0  0  0
  3 25  1  0  0  0  0
  3 26  1  0  0  0  0
  4  5  1  0  0  0  0
  4 27  1  0  0  0  0
  4 28  1  0  0  0  0
  5  6  1  0  0  0  0
  5 29  1  0  0  0  0
  5 30  1  0  0  0  0
  6 19  1  0  0  0  0
  6  7  1  0  0  0  0
  6 44  1  0  0  0  0
  7  8  1  0  0  0  0
  7 31  1  0  0  0  0
  7 32  1  0  0  0  0
  8  9  1  0  0  0  0
  8 33  1  0  0  0  0
  8 34  1  0  0  0  0
  9 10  1  0  0  0  0
 10 11  1  0  0  0  0
 10 19  1  0  0  0  0
 10 35  1  0  0  0  0
 11 12  1  0  0  0  0
 11 36  1  0  0  0  0
 11 37  1  0  0  0  0
 12 13  1  0  0  0  0
 12 38  1  0  0  0  0
 13 18  1  0  0  0  0
 13 14  2  0  0  0  0
 14 15  1  0  0  0  0
 14 39  1  0  0  0  0
 15 16  2  0  0  0  0
 15 40  1  0  0  0  0
 16 17  1  0  0  0  0
 16 41  1  0  0  0  0
 17 18  2  0  0  0  0
 18 45  1  0  0  0  0
 19 42  1  0  0  0  0
 19 43  1  0  0  0  0
M  CHG  1   6   1
M  CHG  1  18   1
M  END
> <s_m_source_file>
AV-unprocessed.smi

> <i_m_source_file_index>
861

> <i_lp_mmshare_version>
43012

> <i_f3d_flags>
0

> <s_epik_input>
W0NIM11bQ0hdKFtDSDNdKVtDSDJdW0NIMl1OMVtDSDJdW0NIMl1PW0NASF0oW0NIMl0xKVtDSDJdW05IXWMyW2NIXVtjSF1bY0hdbm4y

> <s_epik_cmdline>
J2VwaWtfcHl0aG9uJywgJy1waCcsICc3LjAnLCAnLXRuJywgJzgnLCAnLW1hJywgJzIwMCcsICctbWV0YWxfYmluZGluZycsICctaW1hZScsICc8aW5maWxlLm1hZT4nLCAnLW9tYWUnLCAnPG91dGZpbGUubWFlPic=

> <r_lp_tautomer_probability>
0.966961

> <r_epik_Ionization_Penalty>
2.478

> <r_epik_Ionization_Penalty_Charging>
2.47799

> <r_epik_Ionization_Penalty_Neutral>
3.15286e-06

> <r_epik_State_Penalty>
2.10794

> <r_epik_Charging_Adjusted_Penalty>
4.58594

> <i_epik_Tot_Q>
2

> <i_epik_Tot_abs_Q>
2

> <r_epik_Metal_State_Penalty>
2.11378

> <b_epik_Metal_Only>
0

> <s_lp_Force_Field>
OPLS_2005

> <r_lp_Energy>
35.7333

> <b_lp_Chiralities_Consistent>
1

> <s_lp_Variant>
AV-unprocessed.smi:861-9

> <Gold.Version>
5.8.1

> <Gold.Id.Protein>
6NUR|6NUR_protein|mol2

> <Gold.PLP.Fitness>
45.5629

> <Gold.PLP.PLP>
-27.9181

> <Gold.PLP.part.hbond>
-3.2036

> <Gold.PLP.part.metal>
0.0000

> <Gold.PLP.part.buried>
-1.4845

> <Gold.PLP.part.nonpolar>
-22.9282

> <Gold.PLP.part.repulsive>
0.5488

> <Gold.PLP.ligand.clash>
0.0000

> <Gold.PLP.ligand.torsion>
0.2025

> <Gold.PLP.Chemscore.Hbond>
5.9933

> <Gold.PLP.Chemscore.CHOScore>
0.0000

> <Gold.PLP.Chemscore.Metal>
0.0000

> <Gold.Chemscore.Hbonds>
donor molecule, donor type, donor heavy atom, donor atom, acceptor molecule, acceptor atom, score
      L1  H     6    44       P1  7948  2.00
      L1  H    12    38       P1  8028  1.84
      L1  H    18    45       P1  8028  1.79
      P1  H  8011  8017       L1     9  0.06

> <Gold.PLP.Chemscore.Internal.Correction>
0.0697

> <Gold.Rescore>
     Score         DG    S(hbond)    S(metal)    S(lipo)     H(rot)  DE(clash)    DE(int)     intcor
     16.71     -18.24       2.54        0.00      75.33       1.78       1.41       0.12       ----

> <Gold.Chemscore.Fitness>
16.7077

> <Gold.Chemscore.DG>
-18.2389

> <Gold.Chemscore.ZeroCoef>
-5.4800

> <Gold.Chemscore.Hbond>
2.5424

> <Gold.Chemscore.Metal>
0.0000

> <Gold.Chemscore.Lipo>
75.3279

> <Gold.Chemscore.Internal_Hbond>
0.0000

> <Gold.Chemscore.DEClash>
1.4125

> <Gold.Chemscore.DEInternal>
0.1186

> <Gold.Chemscore.Rot>
1.7759

> <Gold.Chemscore.Internal.Correction>
   9.000000E+99

> <Gold.Chemscore.Hbonds>
donor molecule, donor type, donor heavy atom, donor atom, acceptor molecule, acceptor atom, score
      L1  H     6    44       P1  7948  0.98
      L1  H    12    38       P1  8028  0.84
      L1  H    18    45       P1  8028  0.50
      P1  H  8011  8017       L1     9  0.09

> <Gold.Chemscore.Hbond.Weighted>
-8.4917

> <Gold.Chemscore.Metal.Weighted>
-0.0000

> <Gold.Chemscore.Lipo.Weighted>
-8.8134

> <Gold.Chemscore.Internal_Hbond.Weighted>
0.0000

> <Gold.Chemscore.DEClash.Weighted>
1.4125

> <Gold.Chemscore.DEInternal.Weighted>
0.1186

> <Gold.Chemscore.Rot.Weighted>
4.5462

> <Gold.Chemscore.Internal.Correction.Weighted>
   9.000000E+99

> <Gold.Protein.RotatedTorsions>
[ 6907 6896 6895 6894 ] final  -64.03 input  -60.11 | X-H torsion
[ 7974 7965 7964 7962 ] final   -2.07 input  175.53 | X-H torsion
[ 8008 7997 7996 7995 ] final    5.25 input   59.86 | X-H torsion
[ 10167 10162 10161 10158 ] final   19.97 input  -65.29 | X-H torsion
[ 10718 10713 10712 10709 ] final  161.72 input   66.30 | X-H torsion
[ 10763 10752 10751 10750 ] final -164.29 input  -60.55 | X-H torsion
[ 11005 11000 10999 10996 ] final  -18.57 input  -57.11 | X-H torsion

> <Gold.Protein.ActiveResidues>
 VAL166  LYS551  ARG553  GLY616  TRP617  ASP618  TYR619  PRO620  LYS621  CYS622 
 ASP623  PHE694  ASN695  SER759  ASP760  ASP761  ALA762  ILE779  LEU786  VAL792 
 PHE793  MET794  SER795  GLU796  ALA797  LYS798  CYS799  TRP800  GLU811  SER814 

> <Gold.Protein.RotatedAtoms>
  150.7611  134.6355  159.6208 H   0  0  0  0  0  0  0  0  0  0  0  0  # atno 6907 bound_to 6896
  152.3619  134.6856  160.0213 H   0  0  0  0  0  0  0  0  0  0  0  0  # atno 6908 bound_to 6896
  151.7244  133.3279  159.3360 H   0  0  0  0  0  0  0  0  0  0  0  0  # atno 6909 bound_to 6896
  146.2409  140.1515  142.8334 H   0  0  0  0  0  0  0  0  0  0  0  0  # atno 7974 bound_to 7965
  154.7260  140.2721  155.6498 H   0  0  0  0  0  0  0  0  0  0  0  0  # atno 8008 bound_to 7997
  156.2837  140.2725  156.1872 H   0  0  0  0  0  0  0  0  0  0  0  0  # atno 8009 bound_to 7997
  155.0443  140.0371  157.2511 H   0  0  0  0  0  0  0  0  0  0  0  0  # atno 8010 bound_to 7997
  140.5539  143.9459  150.6596 H   0  0  0  0  0  0  0  0  0  0  0  0  # atno 10167 bound_to 10162
  157.1325  131.0520  151.2365 H   0  0  0  0  0  0  0  0  0  0  0  0  # atno 10718 bound_to 10713
  154.7042  135.2993  154.9295 H   0  0  0  0  0  0  0  0  0  0  0  0  # atno 10763 bound_to 10752
  154.0218  135.6681  153.4777 H   0  0  0  0  0  0  0  0  0  0  0  0  # atno 10764 bound_to 10752
  153.0704  135.5064  154.8203 H   0  0  0  0  0  0  0  0  0  0  0  0  # atno 10765 bound_to 10752
  140.8281  133.8017  155.9729 H   0  0  0  0  0  0  0  0  0  0  0  0  # atno 11005 bound_to 11000
  145.0163  140.8757  143.5193 LP  0  0  0  0  0  0  0  0  0  0  0  0  # atno 17320 bound_to 7965
  145.1557  139.2488  143.5418 LP  0  0  0  0  0  0  0  0  0  0  0  0  # atno 17321 bound_to 7965
  140.2892  143.3336  152.1078 LP  0  0  0  0  0  0  0  0  0  0  0  0  # atno 17342 bound_to 10162
  139.5039  144.6765  151.6115 LP  0  0  0  0  0  0  0  0  0  0  0  0  # atno 17343 bound_to 10162
  157.4379  130.7527  149.7045 LP  0  0  0  0  0  0  0  0  0  0  0  0  # atno 17370 bound_to 10713
  155.9805  130.4029  150.3526 LP  0  0  0  0  0  0  0  0  0  0  0  0  # atno 17371 bound_to 10713
  140.9027  134.2358  157.5032 LP  0  0  0  0  0  0  0  0  0  0  0  0  # atno 17394 bound_to 11000
  139.8706  134.9714  156.4736 LP  0  0  0  0  0  0  0  0  0  0  0  0  # atno 17395 bound_to 11000

$$$$
