AV-unprocessed.smi:755|AV-procd|sdf|3611|dock7
  -GOLD-   22720 1 03D 1   1.00000     0.00000
 Structure written by MMmdl.
 33 34  0  0  0  0  0  0  0  0  1 V2000
  152.2113  139.3107  155.3440 O   0  0  0  0  0  0  0  0  0  0  0  0
  151.1093  139.8422  155.4770 C   0  0  0  0  0  0  0  0  0  0  0  0
  150.0301  139.6402  154.4111 C   0  0  0  0  0  0  0  0  0  0  0  0
  148.8975  140.5246  154.6241 N   0  0  0  0  0  0  0  0  0  0  0  0
  148.3522  141.4400  153.7438 C   0  0  0  0  0  0  0  0  0  0  0  0
  147.3162  142.0151  154.4142 C   0  0  0  0  0  0  0  0  0  0  0  0
  146.2563  143.2400  153.8222 Cl  0  0  0  0  0  0  0  0  0  0  0  0
  147.2812  141.4083  155.6952 C   0  0  0  0  0  0  0  0  0  0  0  0
  148.2439  140.5056  155.8149 N   0  0  0  0  0  0  0  0  0  0  0  0
  150.7777  140.6030  156.5325 N   0  0  0  0  0  0  0  0  0  0  0  0
  151.6468  140.8960  157.6699 C   0  0  0  0  0  0  0  0  0  0  0  0
  151.5122  142.3431  158.1777 C   0  0  0  0  0  0  0  0  0  0  0  0
  151.0239  143.2082  157.4482 O   0  0  0  0  0  0  0  0  0  0  0  0
  151.9548  142.6239  159.4209 N   0  0  0  0  0  0  0  0  0  0  0  0
  151.9131  143.9354  160.0672 C   0  0  0  0  0  0  0  0  0  0  0  0
  152.2991  143.6904  161.5263 C   0  0  0  0  0  0  0  0  0  0  0  0
  153.1331  142.4174  161.4833 C   0  0  0  0  0  0  0  0  0  0  0  0
  152.5484  141.6286  160.3115 C   0  0  0  0  0  0  0  0  0  0  0  0
  150.4423  139.8355  153.4201 H   0  0  0  0  0  0  0  0  0  0  0  0
  149.6932  138.6024  154.4201 H   0  0  0  0  0  0  0  0  0  0  0  0
  148.7401  141.5965  152.7480 H   0  0  0  0  0  0  0  0  0  0  0  0
  146.6084  141.5869  156.5210 H   0  0  0  0  0  0  0  0  0  0  0  0
  149.8469  140.9939  156.5582 H   0  0  0  0  0  0  0  0  0  0  0  0
  151.4481  140.1932  158.4807 H   0  0  0  0  0  0  0  0  0  0  0  0
  152.6772  140.7306  157.3550 H   0  0  0  0  0  0  0  0  0  0  0  0
  152.6404  144.5921  159.5876 H   0  0  0  0  0  0  0  0  0  0  0  0
  150.9303  144.4035  159.9956 H   0  0  0  0  0  0  0  0  0  0  0  0
  152.8327  144.5316  161.9696 H   0  0  0  0  0  0  0  0  0  0  0  0
  151.3997  143.5158  162.1184 H   0  0  0  0  0  0  0  0  0  0  0  0
  154.1729  142.6705  161.2714 H   0  0  0  0  0  0  0  0  0  0  0  0
  153.1086  141.8624  162.4215 H   0  0  0  0  0  0  0  0  0  0  0  0
  151.7651  140.9528  160.6580 H   0  0  0  0  0  0  0  0  0  0  0  0
  153.3143  141.0327  159.8124 H   0  0  0  0  0  0  0  0  0  0  0  0
  1  2  2  0  0  0  0
  2  3  1  0  0  0  0
  2 10  1  0  0  0  0
  3  4  1  0  0  0  0
  3 19  1  0  0  0  0
  3 20  1  0  0  0  0
  4  9  1  0  0  0  0
  4  5  1  0  0  0  0
  5  6  2  0  0  0  0
  5 21  1  0  0  0  0
  6  7  1  0  0  0  0
  6  8  1  0  0  0  0
  8  9  2  0  0  0  0
  8 22  1  0  0  0  0
 10 11  1  0  0  0  0
 10 23  1  0  0  0  0
 11 12  1  0  0  0  0
 11 24  1  0  0  0  0
 11 25  1  0  0  0  0
 12 13  2  0  0  0  0
 12 14  1  0  0  0  0
 14 18  1  0  0  0  0
 14 15  1  0  0  0  0
 15 16  1  0  0  0  0
 15 26  1  0  0  0  0
 15 27  1  0  0  0  0
 16 17  1  0  0  0  0
 16 28  1  0  0  0  0
 16 29  1  0  0  0  0
 17 18  1  0  0  0  0
 17 30  1  0  0  0  0
 17 31  1  0  0  0  0
 18 32  1  0  0  0  0
 18 33  1  0  0  0  0
M  END
> <s_m_source_file>
AV-unprocessed.smi

> <i_m_source_file_index>
755

> <i_lp_mmshare_version>
43012

> <i_f3d_flags>
0

> <s_epik_input>
bjFbY0hdYyhDbClbY0hdbjFbQ0gyXUMoPU8pW05IXVtDSDJdQyg9TylOMltDSDJdW0NIMl1bQ0gyXVtDSDJdMg==

> <s_epik_cmdline>
J2VwaWtfcHl0aG9uJywgJy1waCcsICc3LjAnLCAnLXRuJywgJzgnLCAnLW1hJywgJzIwMCcsICctbWV0YWxfYmluZGluZycsICctaW1hZScsICc8aW5maWxlLm1hZT4nLCAnLW9tYWUnLCAnPG91dGZpbGUubWFlPic=

> <r_lp_tautomer_probability>
1

> <r_epik_Ionization_Penalty>
4.35059e-07

> <r_epik_Ionization_Penalty_Charging>
0

> <r_epik_Ionization_Penalty_Neutral>
4.35059e-07

> <r_epik_State_Penalty>
-0

> <r_epik_Charging_Adjusted_Penalty>
0

> <i_epik_Tot_Q>
0

> <i_epik_Tot_abs_Q>
0

> <r_epik_Metal_State_Penalty>
-0

> <b_epik_Metal_Only>
0

> <s_lp_Force_Field>
OPLS_2005

> <r_lp_Energy>
27.1331

> <b_lp_Chiralities_Consistent>
1

> <s_lp_Variant>
AV-unprocessed.smi:755-1

> <Gold.Version>
5.8.1

> <Gold.Id.Protein>
6NUR|6NUR_protein|mol2

> <Gold.PLP.Fitness>
43.8814

> <Gold.PLP.PLP>
-41.9376

> <Gold.PLP.part.hbond>
-0.3589

> <Gold.PLP.part.metal>
0.0000

> <Gold.PLP.part.buried>
-3.2319

> <Gold.PLP.part.nonpolar>
-36.8271

> <Gold.PLP.part.repulsive>
0.2642

> <Gold.PLP.ligand.clash>
0.0000

> <Gold.PLP.ligand.torsion>
0.5295

> <Gold.PLP.Chemscore.Hbond>
0.0000

> <Gold.PLP.Chemscore.CHOScore>
1.0000

> <Gold.PLP.Chemscore.Metal>
0.0000

> <Gold.Chemscore.Hbonds>
donor molecule, donor type, donor heavy atom, donor atom, acceptor molecule, acceptor atom, score
      L1  C     5    21       P1  7957  1.00

> <Gold.PLP.Chemscore.Internal.Correction>
0.0027

> <Gold.Rescore>
     Score         DG    S(hbond)    S(metal)    S(lipo)     H(rot)  DE(clash)    DE(int)     intcor
     10.21     -10.83       0.00        0.00      85.12       1.80       0.05       0.58       ----

> <Gold.Chemscore.Fitness>
10.2078

> <Gold.Chemscore.DG>
-10.8339

> <Gold.Chemscore.ZeroCoef>
-5.4800

> <Gold.Chemscore.Hbond>
0.0000

> <Gold.Chemscore.Metal>
0.0000

> <Gold.Chemscore.Lipo>
85.1169

> <Gold.Chemscore.Internal_Hbond>
0.0000

> <Gold.Chemscore.DEClash>
0.0509

> <Gold.Chemscore.DEInternal>
0.5752

> <Gold.Chemscore.Rot>
1.7988

> <Gold.Chemscore.Internal.Correction>
   9.000000E+99

> <Gold.Chemscore.Hbond.Weighted>
-0.0000

> <Gold.Chemscore.Metal.Weighted>
-0.0000

> <Gold.Chemscore.Lipo.Weighted>
-9.9587

> <Gold.Chemscore.Internal_Hbond.Weighted>
0.0000

> <Gold.Chemscore.DEClash.Weighted>
0.0509

> <Gold.Chemscore.DEInternal.Weighted>
0.5752

> <Gold.Chemscore.Rot.Weighted>
4.6048

> <Gold.Chemscore.Internal.Correction.Weighted>
   9.000000E+99

> <Gold.Protein.RotatedTorsions>
[ 6907 6896 6895 6894 ] final  -71.83 input  -60.11 | X-H torsion
[ 7974 7965 7964 7962 ] final   42.57 input  175.53 | X-H torsion
[ 8008 7997 7996 7995 ] final  -67.06 input   59.86 | X-H torsion
[ 10167 10162 10161 10158 ] final -102.12 input  -65.29 | X-H torsion
[ 10718 10713 10712 10709 ] final  113.83 input   66.30 | X-H torsion
[ 10763 10752 10751 10750 ] final  146.61 input  -60.55 | X-H torsion
[ 11005 11000 10999 10996 ] final -155.32 input  -57.11 | X-H torsion

> <Gold.Protein.ActiveResidues>
 VAL166  LYS551  ARG553  GLY616  TRP617  ASP618  TYR619  PRO620  LYS621  CYS622 
 ASP623  PHE694  ASN695  SER759  ASP760  ASP761  ALA762  ILE779  LEU786  VAL792 
 PHE793  MET794  SER795  GLU796  ALA797  LYS798  CYS799  TRP800  GLU811  SER814 

> <Gold.Protein.RotatedAtoms>
  150.7195  134.5252  159.5672 H   0  0  0  0  0  0  0  0  0  0  0  0  # atno 6907 bound_to 6896
  152.2798  134.7838  160.0408 H   0  0  0  0  0  0  0  0  0  0  0  0  # atno 6908 bound_to 6896
  151.8489  133.3401  159.3703 H   0  0  0  0  0  0  0  0  0  0  0  0  # atno 6909 bound_to 6896
  146.0729  139.5285  142.9586 H   0  0  0  0  0  0  0  0  0  0  0  0  # atno 7974 bound_to 7965
  154.4775  140.0900  156.7296 H   0  0  0  0  0  0  0  0  0  0  0  0  # atno 8008 bound_to 7997
  155.4559  140.3459  155.4288 H   0  0  0  0  0  0  0  0  0  0  0  0  # atno 8009 bound_to 7997
  156.1139  140.1455  156.9289 H   0  0  0  0  0  0  0  0  0  0  0  0  # atno 8010 bound_to 7997
  140.2340  143.3586  152.0861 H   0  0  0  0  0  0  0  0  0  0  0  0  # atno 10167 bound_to 10162
  157.6316  131.0989  150.7098 H   0  0  0  0  0  0  0  0  0  0  0  0  # atno 10718 bound_to 10713
  154.0248  135.2903  155.3376 H   0  0  0  0  0  0  0  0  0  0  0  0  # atno 10763 bound_to 10752
  154.7024  135.5183  153.8549 H   0  0  0  0  0  0  0  0  0  0  0  0  # atno 10764 bound_to 10752
  153.0665  135.6633  154.0466 H   0  0  0  0  0  0  0  0  0  0  0  0  # atno 10765 bound_to 10752
  140.6877  134.4075  157.5222 H   0  0  0  0  0  0  0  0  0  0  0  0  # atno 11005 bound_to 11000
  145.6359  141.0294  143.1838 LP  0  0  0  0  0  0  0  0  0  0  0  0  # atno 17320 bound_to 7965
  144.7243  139.7927  143.7371 LP  0  0  0  0  0  0  0  0  0  0  0  0  # atno 17321 bound_to 7965
  139.5100  144.6877  151.5844 LP  0  0  0  0  0  0  0  0  0  0  0  0  # atno 17342 bound_to 10162
  140.6164  143.9341  150.6491 LP  0  0  0  0  0  0  0  0  0  0  0  0  # atno 17343 bound_to 10162
  156.7437  130.4747  149.5472 LP  0  0  0  0  0  0  0  0  0  0  0  0  # atno 17370 bound_to 10713
  156.1523  130.6318  151.0612 LP  0  0  0  0  0  0  0  0  0  0  0  0  # atno 17371 bound_to 10713
  139.8932  134.8735  156.2232 LP  0  0  0  0  0  0  0  0  0  0  0  0  # atno 17394 bound_to 11000
  141.0266  133.7011  156.1359 LP  0  0  0  0  0  0  0  0  0  0  0  0  # atno 17395 bound_to 11000

$$$$
