AV-unprocessed.smi:1642|AV-procd|sdf|6571|dock4
  -GOLD-   22720 7253D 1   1.00000     0.00000
 Structure written by MMmdl.
 34 35  0  0  0  0  0  0  0  0  3 V2000
  148.9433  140.5863  154.7062 C   0  0  0  0  0  0  0  0  0  0  0  0
  149.8889  139.4388  154.8051 C   0  0  0  0  0  0  0  0  0  0  0  0
  151.2143  139.5907  154.7540 N   0  0  0  0  0  0  0  0  0  0  0  0
  151.8837  138.3806  154.8624 N   0  0  0  0  0  0  0  0  0  0  0  0
  151.0581  137.3317  154.9831 C   0  0  0  0  0  0  0  0  0  0  0  0
  151.5081  136.0712  155.0971 N   0  5  0  0  0  0  0  0  0  0  0  0
  150.6471  135.0729  155.3931 C   0  0  0  0  0  0  0  0  0  0  0  0
  150.6504  134.3812  156.4137 O   0  0  0  0  0  0  0  0  0  0  0  0
  149.7342  134.8501  154.4376 N   0  0  0  0  0  0  0  0  0  0  0  0
  148.7189  133.8000  154.4533 C   0  0  0  0  0  0  0  0  0  0  0  0
  147.3069  134.3334  154.1339 C   0  0  0  0  0  0  0  0  0  0  0  0
  147.0395  134.4036  152.6775 N   0  3  0  0  0  0  0  0  0  0  0  0
  147.0869  133.1034  151.9854 C   0  0  0  0  0  0  0  0  0  0  0  0
  146.3518  133.3174  150.6593 C   0  0  0  0  0  0  0  0  0  0  0  0
  145.4779  134.5605  150.8693 C   0  0  0  0  0  0  0  0  0  0  0  0
  145.7500  135.0161  152.3057 C   0  0  0  0  0  0  0  0  0  0  0  0
  149.3520  137.7782  154.9963 S   0  0  0  0  0  0  0  0  0  0  0  0
  148.9610  140.9979  153.6970 H   0  0  0  0  0  0  0  0  0  0  0  0
  149.2264  141.3687  155.4106 H   0  0  0  0  0  0  0  0  0  0  0  0
  147.9277  140.2622  154.9345 H   0  0  0  0  0  0  0  0  0  0  0  0
  149.7564  135.4542  153.6288 H   0  0  0  0  0  0  0  0  0  0  0  0
  148.9918  133.0046  153.7580 H   0  0  0  0  0  0  0  0  0  0  0  0
  148.7266  133.3521  155.4471 H   0  0  0  0  0  0  0  0  0  0  0  0
  146.5694  133.6654  154.5808 H   0  0  0  0  0  0  0  0  0  0  0  0
  147.1541  135.3093  154.5965 H   0  0  0  0  0  0  0  0  0  0  0  0
  148.1129  132.7616  151.8452 H   0  0  0  0  0  0  0  0  0  0  0  0
  146.5599  132.3555  152.5802 H   0  0  0  0  0  0  0  0  0  0  0  0
  147.0667  133.5003  149.8562 H   0  0  0  0  0  0  0  0  0  0  0  0
  145.7630  132.4423  150.3825 H   0  0  0  0  0  0  0  0  0  0  0  0
  145.7684  135.3400  150.1637 H   0  0  0  0  0  0  0  0  0  0  0  0
  144.4195  134.3516  150.7099 H   0  0  0  0  0  0  0  0  0  0  0  0
  144.9643  134.6400  152.9630 H   0  0  0  0  0  0  0  0  0  0  0  0
  145.7763  136.1022  152.3993 H   0  0  0  0  0  0  0  0  0  0  0  0
  147.7656  134.9730  152.2650 H   0  0  0  0  0  0  0  0  0  0  0  0
  1  2  1  0  0  0  0
  1 18  1  0  0  0  0
  1 19  1  0  0  0  0
  1 20  1  0  0  0  0
  2 17  1  0  0  0  0
  2  3  2  0  0  0  0
  3  4  1  0  0  0  0
  4  5  2  0  0  0  0
  5  6  1  0  0  0  0
  5 17  1  0  0  0  0
  6  7  1  0  0  0  0
  7  8  2  0  0  0  0
  7  9  1  0  0  0  0
  9 10  1  0  0  0  0
  9 21  1  0  0  0  0
 10 11  1  0  0  0  0
 10 22  1  0  0  0  0
 10 23  1  0  0  0  0
 11 12  1  0  0  0  0
 11 24  1  0  0  0  0
 11 25  1  0  0  0  0
 12 16  1  0  0  0  0
 12 13  1  0  0  0  0
 12 34  1  0  0  0  0
 13 14  1  0  0  0  0
 13 26  1  0  0  0  0
 13 27  1  0  0  0  0
 14 15  1  0  0  0  0
 14 28  1  0  0  0  0
 14 29  1  0  0  0  0
 15 16  1  0  0  0  0
 15 30  1  0  0  0  0
 15 31  1  0  0  0  0
 16 32  1  0  0  0  0
 16 33  1  0  0  0  0
M  CHG  1   6  -1
M  CHG  1  12   1
M  END
> <s_m_source_file>
AV-unprocessed.smi

> <i_m_source_file_index>
1642

> <i_lp_mmshare_version>
43012

> <i_f3d_flags>
0

> <s_epik_input>
W0NIM11jMW5uYyhzMSlbTkhdQyg9TylbTkhdW0NIMl1bQ0gyXU4yW0NIMl1bQ0gyXVtDSDJdW0NIMl0y

> <s_epik_cmdline>
J2VwaWtfcHl0aG9uJywgJy1waCcsICc3LjAnLCAnLXRuJywgJzgnLCAnLW1hJywgJzIwMCcsICctbWV0YWxfYmluZGluZycsICctaW1hZScsICc8aW5maWxlLm1hZT4nLCAnLW9tYWUnLCAnPG91dGZpbGUubWFlPic=

> <r_lp_tautomer_probability>
1

> <r_epik_Ionization_Penalty>
3.03741

> <r_epik_Ionization_Penalty_Charging>
2.9298

> <r_epik_Ionization_Penalty_Neutral>
0.107609

> <r_epik_State_Penalty>
2.92509

> <r_epik_Charging_Adjusted_Penalty>
5.85489

> <i_epik_Tot_Q>
0

> <i_epik_Tot_abs_Q>
2

> <r_epik_Metal_State_Penalty>
0.448209

> <b_epik_Metal_Only>
1

> <s_lp_Force_Field>
OPLS_2005

> <r_lp_Energy>
24.3805

> <b_lp_Chiralities_Consistent>
1

> <s_lp_Variant>
AV-unprocessed.smi:1642-2

> <Gold.Version>
5.8.1

> <Gold.Id.Protein>
6NUR|6NUR_protein|mol2

> <Gold.PLP.Fitness>
44.6047

> <Gold.PLP.PLP>
-29.1357

> <Gold.PLP.part.hbond>
-4.0000

> <Gold.PLP.part.metal>
0.0000

> <Gold.PLP.part.buried>
-4.8928

> <Gold.PLP.part.nonpolar>
-20.7380

> <Gold.PLP.part.repulsive>
0.3528

> <Gold.PLP.ligand.clash>
0.0000

> <Gold.PLP.ligand.torsion>
0.8338

> <Gold.PLP.Chemscore.Hbond>
5.7000

> <Gold.PLP.Chemscore.CHOScore>
0.0000

> <Gold.PLP.Chemscore.Metal>
0.0000

> <Gold.Chemscore.Hbonds>
donor molecule, donor type, donor heavy atom, donor atom, acceptor molecule, acceptor atom, score
      L1  H     9    21       P1  7948  0.58
      L1  H    12    34       P1  7948  2.00
      P1  H  7989  7998       L1     3  1.00
      P1  H 10752 10765       L1     6  2.00

> <Gold.PLP.Chemscore.Internal.Correction>
0.0366

> <Gold.Rescore>
     Score         DG    S(hbond)    S(metal)    S(lipo)     H(rot)  DE(clash)    DE(int)     intcor
     16.42     -17.31       3.22        0.00      44.18       1.60       0.00       0.88       ----

> <Gold.Chemscore.Fitness>
16.4225

> <Gold.Chemscore.DG>
-17.3103

> <Gold.Chemscore.ZeroCoef>
-5.4800

> <Gold.Chemscore.Hbond>
3.2213

> <Gold.Chemscore.Metal>
0.0000

> <Gold.Chemscore.Lipo>
44.1817

> <Gold.Chemscore.Internal_Hbond>
0.0000

> <Gold.Chemscore.DEClash>
0.0043

> <Gold.Chemscore.DEInternal>
0.8836

> <Gold.Chemscore.Rot>
1.6008

> <Gold.Chemscore.Internal.Correction>
   9.000000E+99

> <Gold.Chemscore.Hbonds>
donor molecule, donor type, donor heavy atom, donor atom, acceptor molecule, acceptor atom, score
      L1  H     9    21       P1  7948  0.04
      L1  H    12    34       P1  7948  0.88
      P1  H  7989  7998       L1     3  0.74
      P1  H 10752 10765       L1     6  0.89

> <Gold.Chemscore.Hbond.Weighted>
-10.7592

> <Gold.Chemscore.Metal.Weighted>
-0.0000

> <Gold.Chemscore.Lipo.Weighted>
-5.1693

> <Gold.Chemscore.Internal_Hbond.Weighted>
0.0000

> <Gold.Chemscore.DEClash.Weighted>
0.0043

> <Gold.Chemscore.DEInternal.Weighted>
0.8836

> <Gold.Chemscore.Rot.Weighted>
4.0982

> <Gold.Chemscore.Internal.Correction.Weighted>
   9.000000E+99

> <Gold.Protein.RotatedTorsions>
[ 6907 6896 6895 6894 ] final   96.03 input  -60.11 | X-H torsion
[ 7974 7965 7964 7962 ] final    8.15 input  175.53 | X-H torsion
[ 8008 7997 7996 7995 ] final  161.56 input   59.86 | X-H torsion
[ 10167 10162 10161 10158 ] final   88.43 input  -65.29 | X-H torsion
[ 10718 10713 10712 10709 ] final  -18.07 input   66.30 | X-H torsion
[ 10763 10752 10751 10750 ] final  174.32 input  -60.55 | X-H torsion
[ 11005 11000 10999 10996 ] final  -23.31 input  -57.11 | X-H torsion

> <Gold.Protein.ActiveResidues>
 VAL166  LYS551  ARG553  GLY616  TRP617  ASP618  TYR619  PRO620  LYS621  CYS622 
 ASP623  PHE694  ASN695  SER759  ASP760  ASP761  ALA762  ILE779  LEU786  VAL792 
 PHE793  MET794  SER795  GLU796  ALA797  LYS798  CYS799  TRP800  GLU811  SER814 

> <Gold.Protein.RotatedAtoms>
  152.5439  134.0949  159.8292 H   0  0  0  0  0  0  0  0  0  0  0  0  # atno 6907 bound_to 6896
  151.1034  133.5219  159.2616 H   0  0  0  0  0  0  0  0  0  0  0  0  # atno 6908 bound_to 6896
  151.1966  135.0434  159.8909 H   0  0  0  0  0  0  0  0  0  0  0  0  # atno 6909 bound_to 6896
  146.2419  139.9976  142.8419 H   0  0  0  0  0  0  0  0  0  0  0  0  # atno 7974 bound_to 7965
  156.2094  140.1774  156.7728 H   0  0  0  0  0  0  0  0  0  0  0  0  # atno 8008 bound_to 7997
  154.5701  140.0684  156.8981 H   0  0  0  0  0  0  0  0  0  0  0  0  # atno 8009 bound_to 7997
  155.2689  140.3341  155.4269 H   0  0  0  0  0  0  0  0  0  0  0  0  # atno 8010 bound_to 7997
  139.8673  144.6511  150.8989 H   0  0  0  0  0  0  0  0  0  0  0  0  # atno 10167 bound_to 10162
  156.5646  130.4734  149.6391 H   0  0  0  0  0  0  0  0  0  0  0  0  # atno 10718 bound_to 10713
  154.4523  135.2765  155.1772 H   0  0  0  0  0  0  0  0  0  0  0  0  # atno 10763 bound_to 10752
  154.3594  135.6132  153.5687 H   0  0  0  0  0  0  0  0  0  0  0  0  # atno 10764 bound_to 10752
  152.9848  135.5831  154.4869 H   0  0  0  0  0  0  0  0  0  0  0  0  # atno 10765 bound_to 10752
  140.8740  133.7700  156.0221 H   0  0  0  0  0  0  0  0  0  0  0  0  # atno 11005 bound_to 11000
  145.1445  140.9589  143.4469 LP  0  0  0  0  0  0  0  0  0  0  0  0  # atno 17320 bound_to 7965
  145.0264  139.3379  143.6046 LP  0  0  0  0  0  0  0  0  0  0  0  0  # atno 17321 bound_to 7965
  140.7766  143.3693  151.1680 LP  0  0  0  0  0  0  0  0  0  0  0  0  # atno 17342 bound_to 10162
  139.7316  143.9063  152.3021 LP  0  0  0  0  0  0  0  0  0  0  0  0  # atno 17343 bound_to 10162
  156.2768  130.7048  151.1861 LP  0  0  0  0  0  0  0  0  0  0  0  0  # atno 17370 bound_to 10713
  157.7361  131.0565  150.5432 LP  0  0  0  0  0  0  0  0  0  0  0  0  # atno 17371 bound_to 10713
  140.8540  134.2920  157.5263 LP  0  0  0  0  0  0  0  0  0  0  0  0  # atno 17394 bound_to 11000
  139.8714  134.9483  156.3992 LP  0  0  0  0  0  0  0  0  0  0  0  0  # atno 17395 bound_to 11000

$$$$
