#       Name:                AV-unprocessed.smi:2769
#       Creating user name   scv26
#       Creation time:       Fri Mar 27 15:10:42 2020


#       File generated by GOLD software.
#

@<TRIPOS>MOLECULE
AV-unprocessed.smi:2769
    24    25     1
SMALL
NO_CHARGES


@<TRIPOS>ATOM
      1 ****        -3.3496   1.2293   0.2754 C.3            1 S1                 0.0000
      2 ****        -1.8750   1.1533   0.4794 C.2            1 S1                 0.0000
      3 ****        -1.2056   2.1490   1.0462 N.2            1 S1                 0.0000
      4 ****         0.1199   1.6915   1.0398 O.3            1 S1                 0.0000
      5 ****         0.0807   0.4469   0.5053 C.2            1 S1                 0.0000
      6 ****         1.3661  -0.2768   0.2748 C.3            1 S1                 0.0000
      7 ****         2.0546  -0.2748  -1.0867 C.3            1 S1                 0.0000
      8 ****         2.5615  -1.5894  -0.7180 N.3            1 S1                 0.0000
      9 ****         1.4411  -1.7994   0.1886 C.3            1 S1                 0.0000
     10 ****        -1.1328   0.0773   0.1004 N.2            1 S1                 0.0000
     11 ****        -3.6776   2.2672   0.2080 H              1 S1                 0.0000
     12 ****        -3.8687   0.7547   1.1083 H              1 S1                 0.0000
     13 ****        -3.6334   0.7201  -0.6459 H              1 S1                 0.0000
     14 ****         2.0683   0.0729   1.0367 H              1 S1                 0.0000
     15 ****         1.3743  -0.3144  -1.9389 H              1 S1                 0.0000
     16 ****         2.8263   0.4873  -1.1980 H              1 S1                 0.0000
     17 ****         2.5517  -2.2351  -1.4949 H              1 S1                 0.0000
     18 ****         1.7093  -2.2893   1.1249 H              1 S1                 0.0000
     19 ****         0.5895  -2.2705  -0.3051 H              1 S1                 0.0000
     20 ****        -1.5609   3.0166   1.3941 LP             1 S1                 0.0000
     21 ****         0.4810   1.6586   1.9717 LP             1 S1                 0.0000
     22 ****         0.6924   2.2919   0.4815 LP             1 S1                 0.0000
     23 ****         3.4993  -1.6887  -0.3854 LP             1 S1                 0.0000
     24 ****        -1.4209  -0.7634  -0.3581 LP             1 S1                 0.0000
@<TRIPOS>BOND
    1    1    2 1     
    2    1   11 1     
    3    1   12 1     
    4    1   13 1     
    5    2   10 1     
    6    2    3 2     
    7    3    4 1     
    8    4    5 1     
    9    5    6 1     
   10    5   10 2     
   11    6    9 1     
   12    6    7 1     
   13    6   14 1     
   14    7    8 1     
   15    7   15 1     
   16    7   16 1     
   17    8    9 1     
   18    8   17 1     
   19    9   18 1     
   20    9   19 1     
   21    3   20 1     
   22    4   21 1     
   23    4   22 1     
   24    8   23 1     
   25   10   24 1     
@<TRIPOS>SUBSTRUCTURE
      1 S1             1
@<TRIPOS>SET
LONE_PAIRS      STATIC     ATOMS    <user>   **** ""
5 20 21 22 23 24
DONOR_HYDROGENS      STATIC     ATOMS    <user>   **** ""
1 17
ATOM$BLUE        STATIC     ATOMS    COLORGROUP SYSTEM
5 20 21 22 23 24
ATOM$RED        STATIC     ATOMS    COLORGROUP SYSTEM
1 17
