AV-unprocessed.smi:1700|AV-procd|sdf|6819|dock7
  -GOLD-   22720 7593D 1   1.00000     0.00000
 Structure written by MMmdl.
 34 35  0  0  0  0  0  0  0  0  1 V2000
  147.7083  133.0974  152.4460 C   0  0  0  0  0  0  0  0  0  0  0  0
  146.3600  133.0048  151.7500 C   0  0  0  0  0  0  0  0  0  0  0  0
  145.7648  131.7389  151.5639 C   0  0  0  0  0  0  0  0  0  0  0  0
  144.5187  131.6547  150.9196 C   0  0  0  0  0  0  0  0  0  0  0  0
  143.9164  132.8480  150.4861 C   0  0  0  0  0  0  0  0  0  0  0  0
  144.4780  134.0618  150.6597 N   0  0  0  0  0  0  0  0  0  0  0  0
  145.6809  134.1610  151.2796 C   0  0  0  0  0  0  0  0  0  0  0  0
  146.3346  135.4078  151.4927 N   0  0  0  0  0  0  0  0  0  0  0  0
  145.7837  136.6176  151.6971 C   0  0  0  0  0  0  0  0  0  0  0  0
  144.5764  136.8504  151.7658 O   0  0  0  0  0  0  0  0  0  0  0  0
  146.7252  137.5638  151.8229 N   0  0  0  0  0  0  0  0  0  0  0  0
  146.4607  138.9793  152.0550 C   0  0  0  0  0  0  0  0  0  0  0  0
  146.9985  139.4389  153.4199 C   0  0  2  0  0  0  0  0  0  0  0  0
  147.2915  140.9359  153.4912 C   0  0  0  0  0  0  0  0  0  0  0  0
  148.3097  140.9918  154.6068 C   0  0  0  0  0  0  0  0  0  0  0  0
  149.1295  139.7316  154.3442 C   0  0  0  0  0  0  0  0  0  0  0  0
  148.2467  138.8114  153.7062 O   0  0  0  0  0  0  0  0  0  0  0  0
  148.0779  132.1111  152.7286 H   0  0  0  0  0  0  0  0  0  0  0  0
  147.6294  133.6981  153.3526 H   0  0  0  0  0  0  0  0  0  0  0  0
  148.4472  133.5560  151.7883 H   0  0  0  0  0  0  0  0  0  0  0  0
  146.2552  130.8405  151.9094 H   0  0  0  0  0  0  0  0  0  0  0  0
  144.0374  130.7008  150.7616 H   0  0  0  0  0  0  0  0  0  0  0  0
  142.9593  132.8284  149.9863 H   0  0  0  0  0  0  0  0  0  0  0  0
  147.3428  135.3745  151.4740 H   0  0  0  0  0  0  0  0  0  0  0  0
  147.6941  137.2870  151.7616 H   0  0  0  0  0  0  0  0  0  0  0  0
  146.9278  139.5536  151.2548 H   0  0  0  0  0  0  0  0  0  0  0  0
  145.3884  139.1714  151.9874 H   0  0  0  0  0  0  0  0  0  0  0  0
  146.2994  139.1791  154.2167 H   0  0  0  0  0  0  0  0  0  0  0  0
  147.7382  141.2879  152.5601 H   0  0  0  0  0  0  0  0  0  0  0  0
  146.4020  141.5337  153.6924 H   0  0  0  0  0  0  0  0  0  0  0  0
  148.9097  141.9023  154.5976 H   0  0  0  0  0  0  0  0  0  0  0  0
  147.8089  140.9207  155.5733 H   0  0  0  0  0  0  0  0  0  0  0  0
  149.9533  139.9480  153.6631 H   0  0  0  0  0  0  0  0  0  0  0  0
  149.5485  139.3123  155.2592 H   0  0  0  0  0  0  0  0  0  0  0  0
  1  2  1  0  0  0  0
  1 18  1  0  0  0  0
  1 19  1  0  0  0  0
  1 20  1  0  0  0  0
  2  7  1  0  0  0  0
  2  3  2  0  0  0  0
  3  4  1  0  0  0  0
  3 21  1  0  0  0  0
  4  5  2  0  0  0  0
  4 22  1  0  0  0  0
  5  6  1  0  0  0  0
  5 23  1  0  0  0  0
  6  7  2  0  0  0  0
  7  8  1  0  0  0  0
  8  9  1  0  0  0  0
  8 24  1  0  0  0  0
  9 10  2  0  0  0  0
  9 11  1  0  0  0  0
 11 12  1  0  0  0  0
 11 25  1  0  0  0  0
 12 13  1  0  0  0  0
 12 26  1  0  0  0  0
 12 27  1  0  0  0  0
 13 17  1  0  0  0  0
 13 14  1  0  0  0  0
 13 28  1  0  0  0  0
 14 15  1  0  0  0  0
 14 29  1  0  0  0  0
 14 30  1  0  0  0  0
 15 16  1  0  0  0  0
 15 31  1  0  0  0  0
 15 32  1  0  0  0  0
 16 17  1  0  0  0  0
 16 33  1  0  0  0  0
 16 34  1  0  0  0  0
M  END
> <s_m_source_file>
AV-unprocessed.smi

> <i_m_source_file_index>
1700

> <i_lp_mmshare_version>
43012

> <i_f3d_flags>
0

> <s_epik_input>
W0NIM11jMVtjSF1bY0hdW2NIXW5jMVtOSF1DKD1PKVtOSF1bQ0gyXVtDQEBIXTJbQ0gyXVtDSDJdW0NIMl1PMg==

> <s_epik_cmdline>
J2VwaWtfcHl0aG9uJywgJy1waCcsICc3LjAnLCAnLXRuJywgJzgnLCAnLW1hJywgJzIwMCcsICctbWV0YWxfYmluZGluZycsICctaW1hZScsICc8aW5maWxlLm1hZT4nLCAnLW9tYWUnLCAnPG91dGZpbGUubWFlPic=

> <r_lp_tautomer_probability>
1

> <r_epik_Ionization_Penalty>
5.57253e-05

> <r_epik_Ionization_Penalty_Charging>
0

> <r_epik_Ionization_Penalty_Neutral>
5.57253e-05

> <r_epik_State_Penalty>
-0

> <r_epik_Charging_Adjusted_Penalty>
0

> <i_epik_Tot_Q>
0

> <i_epik_Tot_abs_Q>
0

> <r_epik_Metal_State_Penalty>
-0

> <b_epik_Metal_Only>
0

> <s_lp_Force_Field>
OPLS_2005

> <r_lp_Energy>
19.3296

> <b_lp_Chiralities_Consistent>
1

> <s_lp_Variant>
AV-unprocessed.smi:1700-1

> <Gold.Version>
5.8.1

> <Gold.Id.Protein>
6NUR|6NUR_protein|mol2

> <Gold.PLP.Fitness>
39.2918

> <Gold.PLP.PLP>
-31.3653

> <Gold.PLP.part.hbond>
-1.9529

> <Gold.PLP.part.metal>
0.0000

> <Gold.PLP.part.buried>
-5.0280

> <Gold.PLP.part.nonpolar>
-28.9388

> <Gold.PLP.part.repulsive>
3.4100

> <Gold.PLP.ligand.clash>
0.0000

> <Gold.PLP.ligand.torsion>
0.4536

> <Gold.PLP.Chemscore.Hbond>
1.9440

> <Gold.PLP.Chemscore.CHOScore>
1.0000

> <Gold.PLP.Chemscore.Metal>
0.0000

> <Gold.Chemscore.Hbonds>
donor molecule, donor type, donor heavy atom, donor atom, acceptor molecule, acceptor atom, score
      L1  H     8    24       P1  7948  0.98
      L1  H    11    25       P1  7948  1.00
      L1  C     5    23       P1 10186  0.94

> <Gold.PLP.Chemscore.Internal.Correction>
0.0016

> <Gold.Rescore>
     Score         DG    S(hbond)    S(metal)    S(lipo)     H(rot)  DE(clash)    DE(int)     intcor
     14.23     -16.91       1.91        0.00      70.11       1.23       1.33       1.34       ----

> <Gold.Chemscore.Fitness>
14.2332

> <Gold.Chemscore.DG>
-16.9108

> <Gold.Chemscore.ZeroCoef>
-5.4800

> <Gold.Chemscore.Hbond>
1.9121

> <Gold.Chemscore.Metal>
0.0000

> <Gold.Chemscore.Lipo>
70.1074

> <Gold.Chemscore.Internal_Hbond>
0.0000

> <Gold.Chemscore.DEClash>
1.3345

> <Gold.Chemscore.DEInternal>
1.3431

> <Gold.Chemscore.Rot>
1.2337

> <Gold.Chemscore.Internal.Correction>
   9.000000E+99

> <Gold.Chemscore.Hbonds>
donor molecule, donor type, donor heavy atom, donor atom, acceptor molecule, acceptor atom, score
      L1  H     8    24       P1  7948  0.85
      L1  H    11    25       P1  7948  0.98

> <Gold.Chemscore.Hbond.Weighted>
-6.3865

> <Gold.Chemscore.Metal.Weighted>
-0.0000

> <Gold.Chemscore.Lipo.Weighted>
-8.2026

> <Gold.Chemscore.Internal_Hbond.Weighted>
0.0000

> <Gold.Chemscore.DEClash.Weighted>
1.3345

> <Gold.Chemscore.DEInternal.Weighted>
1.3431

> <Gold.Chemscore.Rot.Weighted>
3.1582

> <Gold.Chemscore.Internal.Correction.Weighted>
   9.000000E+99

> <Gold.Protein.RotatedTorsions>
[ 6907 6896 6895 6894 ] final -160.63 input  -60.11 | X-H torsion
[ 7974 7965 7964 7962 ] final  144.53 input  175.53 | X-H torsion
[ 8008 7997 7996 7995 ] final  -42.79 input   59.86 | X-H torsion
[ 10167 10162 10161 10158 ] final  166.35 input  -65.29 | X-H torsion
[ 10718 10713 10712 10709 ] final  144.69 input   66.30 | X-H torsion
[ 10763 10752 10751 10750 ] final   28.93 input  -60.55 | X-H torsion
[ 11005 11000 10999 10996 ] final  -66.73 input  -57.11 | X-H torsion

> <Gold.Protein.ActiveResidues>
 VAL166  LYS551  ARG553  GLY616  TRP617  ASP618  TYR619  PRO620  LYS621  CYS622 
 ASP623  PHE694  ASN695  SER759  ASP760  ASP761  ALA762  ILE779  LEU786  VAL792 
 PHE793  MET794  SER795  GLU796  ALA797  LYS798  CYS799  TRP800  GLU811  SER814 

> <Gold.Protein.RotatedAtoms>
  151.3521  133.3921  159.2680 H   0  0  0  0  0  0  0  0  0  0  0  0  # atno 6907 bound_to 6896
  150.9793  134.9152  159.7845 H   0  0  0  0  0  0  0  0  0  0  0  0  # atno 6908 bound_to 6896
  152.5211  134.3484  159.9294 H   0  0  0  0  0  0  0  0  0  0  0  0  # atno 6909 bound_to 6896
  144.8828  139.5674  143.5835 H   0  0  0  0  0  0  0  0  0  0  0  0  # atno 7974 bound_to 7965
  154.3998  140.1464  156.3413 H   0  0  0  0  0  0  0  0  0  0  0  0  # atno 8008 bound_to 7997
  155.8354  140.3464  155.5577 H   0  0  0  0  0  0  0  0  0  0  0  0  # atno 8009 bound_to 7997
  155.8144  140.0888  157.1876 H   0  0  0  0  0  0  0  0  0  0  0  0  # atno 8010 bound_to 7997
  139.4923  144.4037  151.9380 H   0  0  0  0  0  0  0  0  0  0  0  0  # atno 10167 bound_to 10162
  157.3542  131.0955  151.0973 H   0  0  0  0  0  0  0  0  0  0  0  0  # atno 10718 bound_to 10713
  153.0461  135.6501  154.0813 H   0  0  0  0  0  0  0  0  0  0  0  0  # atno 10763 bound_to 10752
  154.0511  135.2895  155.3342 H   0  0  0  0  0  0  0  0  0  0  0  0  # atno 10764 bound_to 10752
  154.6719  135.5353  153.8216 H   0  0  0  0  0  0  0  0  0  0  0  0  # atno 10765 bound_to 10752
  141.1490  133.6705  156.6184 H   0  0  0  0  0  0  0  0  0  0  0  0  # atno 11005 bound_to 11000
  146.3005  139.7412  142.9095 LP  0  0  0  0  0  0  0  0  0  0  0  0  # atno 17320 bound_to 7965
  145.3924  141.0374  143.3117 LP  0  0  0  0  0  0  0  0  0  0  0  0  # atno 17321 bound_to 7965
  140.3476  144.3127  150.5955 LP  0  0  0  0  0  0  0  0  0  0  0  0  # atno 17342 bound_to 10162
  140.5512  143.2206  151.7923 LP  0  0  0  0  0  0  0  0  0  0  0  0  # atno 17343 bound_to 10162
  157.2137  130.6450  149.5784 LP  0  0  0  0  0  0  0  0  0  0  0  0  # atno 17370 bound_to 10713
  155.9726  130.4651  150.6243 LP  0  0  0  0  0  0  0  0  0  0  0  0  # atno 17371 bound_to 10713
  140.3560  134.7728  157.4500 LP  0  0  0  0  0  0  0  0  0  0  0  0  # atno 17394 bound_to 11000
  140.0823  134.5714  155.8528 LP  0  0  0  0  0  0  0  0  0  0  0  0  # atno 17395 bound_to 11000

$$$$
