AV-unprocessed.smi:2675|AV-procd|sdf|10361|dock10
  -GOLD-   2272014383D 1   1.00000     0.00000
 Structure written by MMmdl.
 37 38  0  0  0  0  0  0  0  0  2 V2000
  153.0681  142.9499  162.8474 C   0  0  0  0  0  0  0  0  0  0  0  0
  152.4375  143.4169  161.5782 C   0  0  0  0  0  0  0  0  0  0  0  0
  151.3657  144.2698  161.5787 N   0  3  0  0  0  0  0  0  0  0  0  0
  150.9792  144.5398  160.3316 C   0  0  0  0  0  0  0  0  0  0  0  0
  151.7988  143.8645  159.5180 N   0  0  0  0  0  0  0  0  0  0  0  0
  151.6544  143.9223  158.0564 C   0  0  0  0  0  0  0  0  0  0  0  0
  151.2232  142.5693  157.4901 C   0  0  0  0  0  0  0  0  0  0  0  0
  151.7852  141.5437  157.8695 O   0  0  0  0  0  0  0  0  0  0  0  0
  150.2241  142.5920  156.5905 N   0  0  0  0  0  0  0  0  0  0  0  0
  149.5737  141.4581  155.9201 C   0  0  2  0  0  0  0  0  0  0  0  0
  148.7959  140.7084  157.0146 C   0  0  0  0  0  0  0  0  0  0  0  0
  150.5620  140.5194  155.3530 C   0  0  0  0  0  0  0  0  0  0  0  0
  151.3377  139.7854  154.9070 N   0  0  0  0  0  0  0  0  0  0  0  0
  148.5972  141.8332  154.8035 C   0  0  0  0  0  0  0  0  0  0  0  0
  147.1065  142.0019  154.9995 C   0  0  0  0  0  0  0  0  0  0  0  0
  147.6372  140.8326  154.2001 C   0  0  0  0  0  0  0  0  0  0  0  0
  152.7203  143.1539  160.2564 C   0  0  0  0  0  0  0  0  0  0  0  0
  153.7740  142.2953  159.6335 C   0  0  0  0  0  0  0  0  0  0  0  0
  153.8859  142.2593  162.6444 H   0  0  0  0  0  0  0  0  0  0  0  0
  152.3314  142.4386  163.4675 H   0  0  0  0  0  0  0  0  0  0  0  0
  153.4642  143.7988  163.4054 H   0  0  0  0  0  0  0  0  0  0  0  0
  150.1623  145.1757  160.0404 H   0  0  0  0  0  0  0  0  0  0  0  0
  150.9259  144.6947  157.8041 H   0  0  0  0  0  0  0  0  0  0  0  0
  152.6064  144.2280  157.6213 H   0  0  0  0  0  0  0  0  0  0  0  0
  149.8557  143.5002  156.3494 H   0  0  0  0  0  0  0  0  0  0  0  0
  148.3040  139.8213  156.6138 H   0  0  0  0  0  0  0  0  0  0  0  0
  148.0244  141.3392  157.4580 H   0  0  0  0  0  0  0  0  0  0  0  0
  149.4570  140.3782  157.8172 H   0  0  0  0  0  0  0  0  0  0  0  0
  149.0334  142.5355  154.0947 H   0  0  0  0  0  0  0  0  0  0  0  0
  146.6692  141.7811  155.9689 H   0  0  0  0  0  0  0  0  0  0  0  0
  146.6193  142.8039  154.4484 H   0  0  0  0  0  0  0  0  0  0  0  0
  147.5017  140.8579  153.1208 H   0  0  0  0  0  0  0  0  0  0  0  0
  147.5664  139.8457  154.6527 H   0  0  0  0  0  0  0  0  0  0  0  0
  154.4043  141.8406  160.3970 H   0  0  0  0  0  0  0  0  0  0  0  0
  154.4093  142.8900  158.9768 H   0  0  0  0  0  0  0  0  0  0  0  0
  153.3164  141.4963  159.0503 H   0  0  0  0  0  0  0  0  0  0  0  0
  150.9250  144.6438  162.4099 H   0  0  0  0  0  0  0  0  0  0  0  0
  1  2  1  0  0  0  0
  1 19  1  0  0  0  0
  1 20  1  0  0  0  0
  1 21  1  0  0  0  0
  2 17  2  0  0  0  0
  2  3  1  0  0  0  0
  3  4  2  0  0  0  0
  3 37  1  0  0  0  0
  4  5  1  0  0  0  0
  4 22  1  0  0  0  0
  5  6  1  0  0  0  0
  5 17  1  0  0  0  0
  6  7  1  0  0  0  0
  6 23  1  0  0  0  0
  6 24  1  0  0  0  0
  7  8  2  0  0  0  0
  7  9  1  0  0  0  0
  9 10  1  0  0  0  0
  9 25  1  0  0  0  0
 10 11  1  0  0  0  0
 10 12  1  0  0  0  0
 10 14  1  0  0  0  0
 11 26  1  0  0  0  0
 11 27  1  0  0  0  0
 11 28  1  0  0  0  0
 12 13  3  0  0  0  0
 14 16  1  0  0  0  0
 14 15  1  0  0  0  0
 14 29  1  0  0  0  0
 15 16  1  0  0  0  0
 15 30  1  0  0  0  0
 15 31  1  0  0  0  0
 16 32  1  0  0  0  0
 16 33  1  0  0  0  0
 17 18  1  0  0  0  0
 18 34  1  0  0  0  0
 18 35  1  0  0  0  0
 18 36  1  0  0  0  0
M  CHG  1   3   1
M  END
> <s_m_source_file>
AV-unprocessed.smi

> <i_m_source_file_index>
2675

> <i_lp_mmshare_version>
43012

> <i_f3d_flags>
0

> <s_epik_input>
W0NIM11jMW5bY0hdbihjMVtDSDNdKVtDSDJdQyg9TylbTkhdW0NAQF0oW0NIM10pKEMjTilbQ0hdMltDSDJdW0NIMl0y

> <s_epik_cmdline>
J2VwaWtfcHl0aG9uJywgJy1waCcsICc3LjAnLCAnLXRuJywgJzgnLCAnLW1hJywgJzIwMCcsICctbWV0YWxfYmluZGluZycsICctaW1hZScsICc8aW5maWxlLm1hZT4nLCAnLW9tYWUnLCAnPG91dGZpbGUubWFlPic=

> <r_lp_tautomer_probability>
1

> <r_epik_Ionization_Penalty>
0.153253

> <r_epik_Ionization_Penalty_Charging>
0

> <r_epik_Ionization_Penalty_Neutral>
0.153253

> <r_epik_State_Penalty>
0.14254

> <r_epik_Charging_Adjusted_Penalty>
0.14254

> <i_epik_Tot_Q>
1

> <i_epik_Tot_abs_Q>
1

> <r_epik_Metal_State_Penalty>
0.466899

> <b_epik_Metal_Only>
0

> <s_lp_Force_Field>
OPLS_2005

> <r_lp_Energy>
18.2942

> <b_lp_Chiralities_Consistent>
1

> <s_lp_Variant>
AV-unprocessed.smi:2675-2

> <Gold.Version>
5.8.1

> <Gold.Id.Protein>
6NUR|6NUR_protein|mol2

> <Gold.PLP.Fitness>
50.1737

> <Gold.PLP.PLP>
-46.0508

> <Gold.PLP.part.hbond>
-3.4853

> <Gold.PLP.part.metal>
0.0000

> <Gold.PLP.part.buried>
-4.6408

> <Gold.PLP.part.nonpolar>
-37.8675

> <Gold.PLP.part.repulsive>
0.2059

> <Gold.PLP.ligand.clash>
0.0000

> <Gold.PLP.ligand.torsion>
1.1616

> <Gold.PLP.Chemscore.Hbond>
1.6500

> <Gold.PLP.Chemscore.CHOScore>
0.0000

> <Gold.PLP.Chemscore.Metal>
0.0000

> <Gold.Chemscore.Hbonds>
donor molecule, donor type, donor heavy atom, donor atom, acceptor molecule, acceptor atom, score
      L1  H     9    25       P1  8028  1.00
      P1  H  7989  7998       L1    13  0.60

> <Gold.PLP.Chemscore.Internal.Correction>
1.4962

> <Gold.Rescore>
     Score         DG    S(hbond)    S(metal)    S(lipo)     H(rot)  DE(clash)    DE(int)     intcor
     10.09     -14.79       1.00        0.00      90.22       1.80       1.13       3.57       ----

> <Gold.Chemscore.Fitness>
10.0873

> <Gold.Chemscore.DG>
-14.7853

> <Gold.Chemscore.ZeroCoef>
-5.4800

> <Gold.Chemscore.Hbond>
1.0018

> <Gold.Chemscore.Metal>
0.0000

> <Gold.Chemscore.Lipo>
90.2198

> <Gold.Chemscore.Internal_Hbond>
0.0000

> <Gold.Chemscore.DEClash>
1.1278

> <Gold.Chemscore.DEInternal>
3.5702

> <Gold.Chemscore.Rot>
1.7955

> <Gold.Chemscore.Internal.Correction>
   9.000000E+99

> <Gold.Chemscore.Hbonds>
donor molecule, donor type, donor heavy atom, donor atom, acceptor molecule, acceptor atom, score
      L1  H     9    25       P1  8028  1.00
      P1  H  7989  7998       L1    13  0.04

> <Gold.Chemscore.Hbond.Weighted>
-3.3461

> <Gold.Chemscore.Metal.Weighted>
-0.0000

> <Gold.Chemscore.Lipo.Weighted>
-10.5557

> <Gold.Chemscore.Internal_Hbond.Weighted>
0.0000

> <Gold.Chemscore.DEClash.Weighted>
1.1278

> <Gold.Chemscore.DEInternal.Weighted>
3.5702

> <Gold.Chemscore.Rot.Weighted>
4.5965

> <Gold.Chemscore.Internal.Correction.Weighted>
   9.000000E+99

> <Gold.Protein.RotatedTorsions>
[ 6907 6896 6895 6894 ] final   31.48 input  -60.11 | X-H torsion
[ 7974 7965 7964 7962 ] final  -56.20 input  175.53 | X-H torsion
[ 8008 7997 7996 7995 ] final  -96.23 input   59.86 | X-H torsion
[ 10167 10162 10161 10158 ] final  -34.44 input  -65.29 | X-H torsion
[ 10718 10713 10712 10709 ] final  117.20 input   66.30 | X-H torsion
[ 10763 10752 10751 10750 ] final  139.89 input  -60.55 | X-H torsion
[ 11005 11000 10999 10996 ] final  153.96 input  -57.11 | X-H torsion

> <Gold.Protein.ActiveResidues>
 VAL166  LYS551  ARG553  GLY616  TRP617  ASP618  TYR619  PRO620  LYS621  CYS622 
 ASP623  PHE694  ASN695  SER759  ASP760  ASP761  ALA762  ILE779  LEU786  VAL792 
 PHE793  MET794  SER795  GLU796  ALA797  LYS798  CYS799  TRP800  GLU811  SER814 

> <Gold.Protein.RotatedAtoms>
  152.0609  134.9595  160.0574 H   0  0  0  0  0  0  0  0  0  0  0  0  # atno 6907 bound_to 6896
  152.0959  133.4219  159.4573 H   0  0  0  0  0  0  0  0  0  0  0  0  # atno 6908 bound_to 6896
  150.6838  134.2737  159.4642 H   0  0  0  0  0  0  0  0  0  0  0  0  # atno 6909 bound_to 6896
  145.8654  140.8255  142.9915 H   0  0  0  0  0  0  0  0  0  0  0  0  # atno 7974 bound_to 7965
  154.7717  140.0473  157.1056 H   0  0  0  0  0  0  0  0  0  0  0  0  # atno 8008 bound_to 7997
  154.9812  140.3102  155.4926 H   0  0  0  0  0  0  0  0  0  0  0  0  # atno 8009 bound_to 7997
  156.2922  140.2235  156.4912 H   0  0  0  0  0  0  0  0  0  0  0  0  # atno 8010 bound_to 7997
  140.7185  143.3548  151.2083 H   0  0  0  0  0  0  0  0  0  0  0  0  # atno 10167 bound_to 10162
  157.6112  131.1034  150.7581 H   0  0  0  0  0  0  0  0  0  0  0  0  # atno 10718 bound_to 10713
  153.9135  135.3008  155.3448 H   0  0  0  0  0  0  0  0  0  0  0  0  # atno 10763 bound_to 10752
  154.7611  135.4933  153.9469 H   0  0  0  0  0  0  0  0  0  0  0  0  # atno 10764 bound_to 10752
  153.1180  135.6775  153.9487 H   0  0  0  0  0  0  0  0  0  0  0  0  # atno 10765 bound_to 10752
  140.1445  134.8716  157.2374 H   0  0  0  0  0  0  0  0  0  0  0  0  # atno 11005 bound_to 11000
  144.6726  140.1158  143.7453 LP  0  0  0  0  0  0  0  0  0  0  0  0  # atno 17320 bound_to 7965
  145.9199  139.2539  143.1387 LP  0  0  0  0  0  0  0  0  0  0  0  0  # atno 17321 bound_to 7965
  139.7086  143.9413  152.2938 LP  0  0  0  0  0  0  0  0  0  0  0  0  # atno 17342 bound_to 10162
  139.9131  144.6845  150.8541 LP  0  0  0  0  0  0  0  0  0  0  0  0  # atno 17343 bound_to 10162
  156.7958  130.4905  149.5377 LP  0  0  0  0  0  0  0  0  0  0  0  0  # atno 17370 bound_to 10713
  156.1215  130.6113  151.0201 LP  0  0  0  0  0  0  0  0  0  0  0  0  # atno 17371 bound_to 10713
  140.2681  134.3493  155.7383 LP  0  0  0  0  0  0  0  0  0  0  0  0  # atno 17394 bound_to 11000
  141.2191  133.7407  156.9181 LP  0  0  0  0  0  0  0  0  0  0  0  0  # atno 17395 bound_to 11000

$$$$
