AV-unprocessed.smi:3019|AV-procd|sdf|11489|dock8
  -GOLD-   2272016433D 1   1.00000     0.00000
 Structure written by MMmdl.
 30 31  0  0  0  0  0  0  0  0  1 V2000
  152.2134  144.3601  159.8208 C   0  0  0  0  0  0  0  0  0  0  0  0
  152.1307  142.9184  160.3436 C   0  0  0  0  0  0  0  0  0  0  0  0
  153.0718  142.6827  161.5341 C   0  0  0  0  0  0  0  0  0  0  0  0
  152.3628  141.9197  159.2515 C   0  0  0  0  0  0  0  0  0  0  0  0
  153.3143  140.9864  159.3276 N   0  0  0  0  0  0  0  0  0  0  0  0
  153.3020  140.2404  158.2028 N   0  0  0  0  0  0  0  0  0  0  0  0
  152.2997  140.7881  157.5163 C   0  0  0  0  0  0  0  0  0  0  0  0
  151.9447  140.2946  156.1482 C   0  0  2  0  0  0  0  0  0  0  0  0
  150.5518  140.7807  155.7010 C   0  0  0  0  0  0  0  0  0  0  0  0
  150.2003  140.1927  154.4093 N   0  0  0  0  0  0  0  0  0  0  0  0
  150.2866  138.7337  154.4543 C   0  0  0  0  0  0  0  0  0  0  0  0
  151.6821  138.2940  154.9331 C   0  0  0  0  0  0  0  0  0  0  0  0
  151.9536  138.8697  156.2063 O   0  0  0  0  0  0  0  0  0  0  0  0
  151.6833  141.8556  158.1108 N   0  0  0  0  0  0  0  0  0  0  0  0
  151.4942  144.5285  159.0185 H   0  0  0  0  0  0  0  0  0  0  0  0
  153.2065  144.5839  159.4293 H   0  0  0  0  0  0  0  0  0  0  0  0
  151.9992  145.0784  160.6125 H   0  0  0  0  0  0  0  0  0  0  0  0
  151.1128  142.7697  160.7074 H   0  0  0  0  0  0  0  0  0  0  0  0
  152.9573  141.6733  161.9302 H   0  0  0  0  0  0  0  0  0  0  0  0
  152.8628  143.3814  162.3444 H   0  0  0  0  0  0  0  0  0  0  0  0
  154.1159  142.8107  161.2458 H   0  0  0  0  0  0  0  0  0  0  0  0
  152.7074  140.6331  155.4436 H   0  0  0  0  0  0  0  0  0  0  0  0
  149.8069  140.5009  156.4472 H   0  0  0  0  0  0  0  0  0  0  0  0
  150.5358  141.8688  155.6344 H   0  0  0  0  0  0  0  0  0  0  0  0
  149.5268  138.3379  155.1293 H   0  0  0  0  0  0  0  0  0  0  0  0
  150.0792  138.3158  153.4692 H   0  0  0  0  0  0  0  0  0  0  0  0
  151.7233  137.2084  155.0221 H   0  0  0  0  0  0  0  0  0  0  0  0
  152.4514  138.5838  154.2155 H   0  0  0  0  0  0  0  0  0  0  0  0
  149.2573  140.4695  154.1552 H   0  0  0  0  0  0  0  0  0  0  0  0
  153.9669  140.8343  160.0832 H   0  0  0  0  0  0  0  0  0  0  0  0
  1  2  1  0  0  0  0
  1 15  1  0  0  0  0
  1 16  1  0  0  0  0
  1 17  1  0  0  0  0
  2  3  1  0  0  0  0
  2  4  1  0  0  0  0
  2 18  1  0  0  0  0
  3 19  1  0  0  0  0
  3 20  1  0  0  0  0
  3 21  1  0  0  0  0
  4 14  2  0  0  0  0
  4  5  1  0  0  0  0
  5  6  1  0  0  0  0
  5 30  1  0  0  0  0
  6  7  2  0  0  0  0
  7  8  1  0  0  0  0
  7 14  1  0  0  0  0
  8 13  1  0  0  0  0
  8  9  1  0  0  0  0
  8 22  1  0  0  0  0
  9 10  1  0  0  0  0
  9 23  1  0  0  0  0
  9 24  1  0  0  0  0
 10 11  1  0  0  0  0
 10 29  1  0  0  0  0
 11 12  1  0  0  0  0
 11 25  1  0  0  0  0
 11 26  1  0  0  0  0
 12 13  1  0  0  0  0
 12 27  1  0  0  0  0
 12 28  1  0  0  0  0
M  END
> <s_m_source_file>
AV-unprocessed.smi

> <i_m_source_file_index>
3019

> <i_lp_mmshare_version>
43012

> <i_f3d_flags>
0

> <s_epik_input>
W0NIM11bQ0hdKFtDSDNdKWMxbltuSF1jKG4xKVtDQEBIXTJbQ0gyXVtOSF1bQ0gyXVtDSDJdTzI=

> <s_epik_cmdline>
J2VwaWtfcHl0aG9uJywgJy1waCcsICc3LjAnLCAnLXRuJywgJzgnLCAnLW1hJywgJzIwMCcsICctbWV0YWxfYmluZGluZycsICctaW1hZScsICc8aW5maWxlLm1hZT4nLCAnLW9tYWUnLCAnPG91dGZpbGUubWFlPic=

> <r_lp_tautomer_probability>
0.948284

> <r_epik_Ionization_Penalty>
1.10045

> <r_epik_Ionization_Penalty_Charging>
0

> <r_epik_Ionization_Penalty_Neutral>
1.10045

> <r_epik_State_Penalty>
1.2625

> <r_epik_Charging_Adjusted_Penalty>
1.2625

> <i_epik_Tot_Q>
0

> <i_epik_Tot_abs_Q>
0

> <r_epik_Metal_State_Penalty>
1.57133

> <b_epik_Metal_Only>
0

> <s_lp_Force_Field>
OPLS_2005

> <r_lp_Energy>
11.1222

> <b_lp_Chiralities_Consistent>
1

> <s_lp_Variant>
AV-unprocessed.smi:3019-5

> <Gold.Version>
5.8.1

> <Gold.Id.Protein>
6NUR|6NUR_protein|mol2

> <Gold.PLP.Fitness>
34.5849

> <Gold.PLP.PLP>
-29.7581

> <Gold.PLP.part.hbond>
-2.2943

> <Gold.PLP.part.metal>
0.0000

> <Gold.PLP.part.buried>
-3.6742

> <Gold.PLP.part.nonpolar>
-22.6823

> <Gold.PLP.part.repulsive>
0.1144

> <Gold.PLP.ligand.clash>
0.0000

> <Gold.PLP.ligand.torsion>
0.4923

> <Gold.PLP.Chemscore.Hbond>
1.9192

> <Gold.PLP.Chemscore.CHOScore>
0.0000

> <Gold.PLP.Chemscore.Metal>
0.0000

> <Gold.Chemscore.Hbonds>
donor molecule, donor type, donor heavy atom, donor atom, acceptor molecule, acceptor atom, score
      P1  H  7989  7998       L1    10  0.80
      P1  H  7997  8010       L1     6  0.93

> <Gold.PLP.Chemscore.Internal.Correction>
0.0539

> <Gold.Rescore>
     Score         DG    S(hbond)    S(metal)    S(lipo)     H(rot)  DE(clash)    DE(int)     intcor
     11.83     -12.19       0.77        0.00      62.86       1.26       0.05       0.31       ----

> <Gold.Chemscore.Fitness>
11.8325

> <Gold.Chemscore.DG>
-12.1912

> <Gold.Chemscore.ZeroCoef>
-5.4800

> <Gold.Chemscore.Hbond>
0.7730

> <Gold.Chemscore.Metal>
0.0000

> <Gold.Chemscore.Lipo>
62.8603

> <Gold.Chemscore.Internal_Hbond>
0.0000

> <Gold.Chemscore.DEClash>
0.0456

> <Gold.Chemscore.DEInternal>
0.3131

> <Gold.Chemscore.Rot>
1.2598

> <Gold.Chemscore.Internal.Correction>
   9.000000E+99

> <Gold.Chemscore.Hbonds>
donor molecule, donor type, donor heavy atom, donor atom, acceptor molecule, acceptor atom, score
      P1  H  7989  7998       L1    10  0.08
      P1  H  7997  8010       L1     6  0.40

> <Gold.Chemscore.Hbond.Weighted>
-2.5817

> <Gold.Chemscore.Metal.Weighted>
-0.0000

> <Gold.Chemscore.Lipo.Weighted>
-7.3547

> <Gold.Chemscore.Internal_Hbond.Weighted>
0.0000

> <Gold.Chemscore.DEClash.Weighted>
0.0456

> <Gold.Chemscore.DEInternal.Weighted>
0.3131

> <Gold.Chemscore.Rot.Weighted>
3.2251

> <Gold.Chemscore.Internal.Correction.Weighted>
   9.000000E+99

> <Gold.Protein.RotatedTorsions>
[ 6907 6896 6895 6894 ] final  147.31 input  -60.11 | X-H torsion
[ 7974 7965 7964 7962 ] final   34.81 input  175.53 | X-H torsion
[ 8008 7997 7996 7995 ] final   35.44 input   59.86 | X-H torsion
[ 10167 10162 10161 10158 ] final   94.08 input  -65.29 | X-H torsion
[ 10718 10713 10712 10709 ] final   71.88 input   66.30 | X-H torsion
[ 10763 10752 10751 10750 ] final    3.39 input  -60.55 | X-H torsion
[ 11005 11000 10999 10996 ] final -131.17 input  -57.11 | X-H torsion

> <Gold.Protein.ActiveResidues>
 VAL166  LYS551  ARG553  GLY616  TRP617  ASP618  TYR619  PRO620  LYS621  CYS622 
 ASP623  PHE694  ASN695  SER759  ASP760  ASP761  ALA762  ILE779  LEU786  VAL792 
 PHE793  MET794  SER795  GLU796  ALA797  LYS798  CYS799  TRP800  GLU811  SER814 

> <Gold.Protein.RotatedAtoms>
  152.1565  133.4554  159.4838 H   0  0  0  0  0  0  0  0  0  0  0  0  # atno 6907 bound_to 6896
  150.6901  134.2125  159.4374 H   0  0  0  0  0  0  0  0  0  0  0  0  # atno 6908 bound_to 6896
  152.0025  134.9920  160.0616 H   0  0  0  0  0  0  0  0  0  0  0  0  # atno 6909 bound_to 6896
  146.1327  139.6222  142.9216 H   0  0  0  0  0  0  0  0  0  0  0  0  # atno 7974 bound_to 7965
  155.1711  140.3292  155.4392 H   0  0  0  0  0  0  0  0  0  0  0  0  # atno 8008 bound_to 7997
  156.2510  140.1943  156.6764 H   0  0  0  0  0  0  0  0  0  0  0  0  # atno 8009 bound_to 7997
  154.6337  140.0579  156.9749 H   0  0  0  0  0  0  0  0  0  0  0  0  # atno 8010 bound_to 7997
  139.8118  144.6770  150.9631 H   0  0  0  0  0  0  0  0  0  0  0  0  # atno 10167 bound_to 10162
  157.6474  130.9550  150.0851 H   0  0  0  0  0  0  0  0  0  0  0  0  # atno 10718 bound_to 10713
  153.2839  135.6943  153.7358 H   0  0  0  0  0  0  0  0  0  0  0  0  # atno 10763 bound_to 10752
  153.6335  135.3406  155.3050 H   0  0  0  0  0  0  0  0  0  0  0  0  # atno 10764 bound_to 10752
  154.8504  135.4414  154.1901 H   0  0  0  0  0  0  0  0  0  0  0  0  # atno 10765 bound_to 10752
  140.9282  134.1354  157.4257 H   0  0  0  0  0  0  0  0  0  0  0  0  # atno 11005 bound_to 11000
  145.5225  141.0431  143.2428 LP  0  0  0  0  0  0  0  0  0  0  0  0  # atno 17320 bound_to 7965
  144.7707  139.6741  143.7196 LP  0  0  0  0  0  0  0  0  0  0  0  0  # atno 17321 bound_to 7965
  140.7817  143.4178  151.0890 LP  0  0  0  0  0  0  0  0  0  0  0  0  # atno 17342 bound_to 10162
  139.7844  143.8309  152.3142 LP  0  0  0  0  0  0  0  0  0  0  0  0  # atno 17343 bound_to 10162
  156.1816  130.3650  149.9028 LP  0  0  0  0  0  0  0  0  0  0  0  0  # atno 17370 bound_to 10713
  156.6979  130.8921  151.3596 LP  0  0  0  0  0  0  0  0  0  0  0  0  # atno 17371 bound_to 10713
  139.8790  134.9996  156.5962 LP  0  0  0  0  0  0  0  0  0  0  0  0  # atno 17394 bound_to 11000
  140.7898  133.8592  155.8636 LP  0  0  0  0  0  0  0  0  0  0  0  0  # atno 17395 bound_to 11000

$$$$
