AV-unprocessed.smi:99|AV-procd|sdf|876|dock1
  -GOLD-   2262017343D 1   1.00000     0.00000
 Structure written by MMmdl.
 53 56  0  0  0  0  0  0  0  0  1 V2000
  143.7297  135.0348  154.0018 O   0  0  0  0  0  0  0  0  0  0  0  0
  144.6694  134.8809  153.2187 C   0  0  0  0  0  0  0  0  0  0  0  0
  145.8441  135.5322  153.3279 O   0  0  0  0  0  0  0  0  0  0  0  0
  146.1338  136.2769  154.4992 C   0  0  0  0  0  0  0  0  0  0  0  0
  146.6763  135.3333  155.5841 C   0  0  1  0  0  0  0  0  0  0  0  0
  147.4050  134.2793  154.9664 O   0  0  0  0  0  0  0  0  0  0  0  0
  148.7427  134.6412  154.8248 C   0  0  2  0  0  0  0  0  0  0  0  0
  149.5708  133.4004  155.0957 N   0  0  0  0  0  0  0  0  0  0  0  0
  150.3575  133.2959  156.2374 C   0  0  0  0  0  0  0  0  0  0  0  0
  151.0460  132.1784  156.5691 C   0  0  0  0  0  0  0  0  0  0  0  0
  150.9693  130.9874  155.7314 C   0  0  0  0  0  0  0  0  0  0  0  0
  151.5668  129.9335  155.9394 O   0  0  0  0  0  0  0  0  0  0  0  0
  150.1256  131.1133  154.6248 N   0  0  0  0  0  0  0  0  0  0  0  0
  149.4002  132.2558  154.2816 C   0  0  0  0  0  0  0  0  0  0  0  0
  148.6581  132.2302  153.3004 O   0  0  0  0  0  0  0  0  0  0  0  0
  149.0391  135.8034  155.7940 C   0  0  1  0  0  0  0  0  0  0  0  0
  149.4073  136.9881  155.1156 O   0  0  0  0  0  0  0  0  0  0  0  0
  147.6989  136.0201  156.4954 C   0  0  2  0  0  0  0  0  0  0  0  0
  147.6743  135.3911  157.7708 O   0  0  0  0  0  0  0  0  0  0  0  0
  148.4378  135.8465  158.7868 C   0  0  0  0  0  0  0  0  0  0  0  0
  149.4970  136.4556  158.6263 O   0  0  0  0  0  0  0  0  0  0  0  0
  147.8668  135.5239  160.1257 C   0  0  0  0  0  0  0  0  0  0  0  0
  147.9294  136.4893  161.1575 C   0  0  0  0  0  0  0  0  0  0  0  0
  147.4011  136.2105  162.4330 C   0  0  0  0  0  0  0  0  0  0  0  0
  146.8047  134.9628  162.6927 C   0  0  0  0  0  0  0  0  0  0  0  0
  146.7378  133.9934  161.6751 C   0  0  0  0  0  0  0  0  0  0  0  0
  147.2651  134.2702  160.3987 C   0  0  0  0  0  0  0  0  0  0  0  0
  144.6243  133.9536  152.0516 C   0  0  0  0  0  0  0  0  0  0  0  0
  145.8117  133.6919  151.3287 C   0  0  0  0  0  0  0  0  0  0  0  0
  145.8007  132.8210  150.2217 C   0  0  0  0  0  0  0  0  0  0  0  0
  144.6018  132.2014  149.8238 C   0  0  0  0  0  0  0  0  0  0  0  0
  143.4140  132.4528  150.5349 C   0  0  0  0  0  0  0  0  0  0  0  0
  143.4232  133.3233  151.6423 C   0  0  0  0  0  0  0  0  0  0  0  0
  150.0214  130.3042  154.0297 H   0  0  0  0  0  0  0  0  0  0  0  0
  146.8481  137.0716  154.2802 H   0  0  0  0  0  0  0  0  0  0  0  0
  145.2150  136.7498  154.8484 H   0  0  0  0  0  0  0  0  0  0  0  0
  145.8424  134.9330  156.1628 H   0  0  0  0  0  0  0  0  0  0  0  0
  148.9255  134.9405  153.7917 H   0  0  0  0  0  0  0  0  0  0  0  0
  150.4316  134.1318  156.9138 H   0  0  0  0  0  0  0  0  0  0  0  0
  151.6500  132.1630  157.4651 H   0  0  0  0  0  0  0  0  0  0  0  0
  149.8473  135.5640  156.4850 H   0  0  0  0  0  0  0  0  0  0  0  0
  149.7580  136.7557  154.2695 H   0  0  0  0  0  0  0  0  0  0  0  0
  147.4581  137.0783  156.6128 H   0  0  0  0  0  0  0  0  0  0  0  0
  148.3825  137.4545  160.9818 H   0  0  0  0  0  0  0  0  0  0  0  0
  147.4535  136.9558  163.2130 H   0  0  0  0  0  0  0  0  0  0  0  0
  146.3994  134.7495  163.6709 H   0  0  0  0  0  0  0  0  0  0  0  0
  146.2813  133.0347  161.8735 H   0  0  0  0  0  0  0  0  0  0  0  0
  147.1985  133.5025  159.6414 H   0  0  0  0  0  0  0  0  0  0  0  0
  146.7441  134.1567  151.6150 H   0  0  0  0  0  0  0  0  0  0  0  0
  146.7135  132.6291  149.6773 H   0  0  0  0  0  0  0  0  0  0  0  0
  144.5936  131.5345  148.9741 H   0  0  0  0  0  0  0  0  0  0  0  0
  142.4931  131.9775  150.2305 H   0  0  0  0  0  0  0  0  0  0  0  0
  142.4938  133.4946  152.1658 H   0  0  0  0  0  0  0  0  0  0  0  0
  1  2  2  0  0  0  0
  2  3  1  0  0  0  0
  2 28  1  0  0  0  0
  3  4  1  0  0  0  0
  4  5  1  0  0  0  0
  4 35  1  0  0  0  0
  4 36  1  0  0  0  0
  5 18  1  0  0  0  0
  5  6  1  0  0  0  0
  5 37  1  0  0  0  0
  6  7  1  0  0  0  0
  7  8  1  0  0  0  0
  7 16  1  0  0  0  0
  7 38  1  0  0  0  0
  8 14  1  0  0  0  0
  8  9  1  0  0  0  0
  9 10  2  0  0  0  0
  9 39  1  0  0  0  0
 10 11  1  0  0  0  0
 10 40  1  0  0  0  0
 11 12  2  0  0  0  0
 11 13  1  0  0  0  0
 13 34  1  0  0  0  0
 13 14  1  0  0  0  0
 14 15  2  0  0  0  0
 16 17  1  0  0  0  0
 16 18  1  0  0  0  0
 16 41  1  0  0  0  0
 17 42  1  0  0  0  0
 18 19  1  0  0  0  0
 18 43  1  0  0  0  0
 19 20  1  0  0  0  0
 20 21  2  0  0  0  0
 20 22  1  0  0  0  0
 22 27  1  0  0  0  0
 22 23  2  0  0  0  0
 23 24  1  0  0  0  0
 23 44  1  0  0  0  0
 24 25  2  0  0  0  0
 24 45  1  0  0  0  0
 25 26  1  0  0  0  0
 25 46  1  0  0  0  0
 26 27  2  0  0  0  0
 26 47  1  0  0  0  0
 27 48  1  0  0  0  0
 28 33  1  0  0  0  0
 28 29  2  0  0  0  0
 29 30  1  0  0  0  0
 29 49  1  0  0  0  0
 30 31  2  0  0  0  0
 30 50  1  0  0  0  0
 31 32  1  0  0  0  0
 31 51  1  0  0  0  0
 32 33  2  0  0  0  0
 32 52  1  0  0  0  0
 33 53  1  0  0  0  0
M  END
> <s_m_source_file>
AV-unprocessed.smi

> <i_m_source_file_index>
99

> <i_lp_mmshare_version>
43012

> <i_f3d_flags>
0

> <s_epik_input>
W2NIXTFbY0hdW2NIXVtjSF1bY0hdYzFDKD1PKU9bQ0gyXVtDQEBIXTJPW0NAQEhdKG4zW2NIXVtjSF1jKD1PKVtuSF1jMz1PKVtDQEBIXShbT0hdKVtDQEhdMk9DKD1PKWM0W2NIXVtjSF1bY0hdW2NIXVtjSF00

> <s_epik_cmdline>
J2VwaWtfcHl0aG9uJywgJy1waCcsICc3LjAnLCAnLXRuJywgJzgnLCAnLW1hJywgJzIwMCcsICctbWV0YWxfYmluZGluZycsICctaW1hZScsICc8aW5maWxlLm1hZT4nLCAnLW9tYWUnLCAnPG91dGZpbGUubWFlPic=

> <r_lp_tautomer_probability>
1

> <r_epik_Ionization_Penalty>
0.00454555

> <r_epik_Ionization_Penalty_Charging>
0.0045191

> <r_epik_Ionization_Penalty_Neutral>
2.64449e-05

> <r_epik_State_Penalty>
-0

> <r_epik_Charging_Adjusted_Penalty>
0.0045191

> <i_epik_Tot_Q>
0

> <i_epik_Tot_abs_Q>
0

> <r_epik_Metal_State_Penalty>
1.27877

> <b_epik_Metal_Only>
0

> <s_epik_Chemistry_Notes>
This compound has an ester and may undergo hydrolysis at high or low pH. This compound contains an acetal/aminal-like group ( X-CH(R)-Y where X, Y are N, S, or O) that may be acid/base labile, releasing an aldehyde.

> <s_lp_Force_Field>
OPLS_2005

> <r_lp_Energy>
32.4523

> <b_lp_Chiralities_Consistent>
1

> <s_lp_Variant>
AV-unprocessed.smi:99-12

> <Gold.Version>
5.8.1

> <Gold.Id.Protein>
6NUR|6NUR_protein|mol2

> <Gold.PLP.Fitness>
50.7723

> <Gold.PLP.PLP>
-50.2558

> <Gold.PLP.part.hbond>
-1.0000

> <Gold.PLP.part.metal>
0.0000

> <Gold.PLP.part.buried>
-8.2234

> <Gold.PLP.part.nonpolar>
-42.1616

> <Gold.PLP.part.repulsive>
0.3703

> <Gold.PLP.ligand.clash>
0.0000

> <Gold.PLP.ligand.torsion>
1.7320

> <Gold.PLP.Chemscore.Hbond>
1.0000

> <Gold.PLP.Chemscore.CHOScore>
0.0000

> <Gold.PLP.Chemscore.Metal>
0.0000

> <Gold.Chemscore.Hbonds>
donor molecule, donor type, donor heavy atom, donor atom, acceptor molecule, acceptor atom, score
      P1  H  6896  6908       L1    21  0.16

> <Gold.PLP.Chemscore.Internal.Correction>
0.9805

> <Gold.Rescore>
     Score         DG    S(hbond)    S(metal)    S(lipo)     H(rot)  DE(clash)    DE(int)     intcor
      9.25     -13.04       0.95        0.00     107.37       3.19       0.00       3.78       ----

> <Gold.Chemscore.Fitness>
9.2505

> <Gold.Chemscore.DG>
-13.0394

> <Gold.Chemscore.ZeroCoef>
-5.4800

> <Gold.Chemscore.Hbond>
0.9472

> <Gold.Chemscore.Metal>
0.0000

> <Gold.Chemscore.Lipo>
107.3734

> <Gold.Chemscore.Internal_Hbond>
0.0000

> <Gold.Chemscore.DEClash>
0.0048

> <Gold.Chemscore.DEInternal>
3.7841

> <Gold.Chemscore.Rot>
3.1903

> <Gold.Chemscore.Internal.Correction>
   9.000000E+99

> <Gold.Chemscore.Hbonds>
donor molecule, donor type, donor heavy atom, donor atom, acceptor molecule, acceptor atom, score
      P1  H  6896  6908       L1    21  0.03

> <Gold.Chemscore.Hbond.Weighted>
-3.1638

> <Gold.Chemscore.Metal.Weighted>
-0.0000

> <Gold.Chemscore.Lipo.Weighted>
-12.5627

> <Gold.Chemscore.Internal_Hbond.Weighted>
0.0000

> <Gold.Chemscore.DEClash.Weighted>
0.0048

> <Gold.Chemscore.DEInternal.Weighted>
3.7841

> <Gold.Chemscore.Rot.Weighted>
8.1671

> <Gold.Chemscore.Internal.Correction.Weighted>
   9.000000E+99

> <Gold.Protein.RotatedTorsions>
[ 6907 6896 6895 6894 ] final -160.93 input  -60.11 | X-H torsion
[ 7974 7965 7964 7962 ] final    9.52 input  175.53 | X-H torsion
[ 8008 7997 7996 7995 ] final  -86.23 input   59.86 | X-H torsion
[ 10167 10162 10161 10158 ] final   58.34 input  -65.29 | X-H torsion
[ 10718 10713 10712 10709 ] final  161.23 input   66.30 | X-H torsion
[ 10763 10752 10751 10750 ] final   99.35 input  -60.55 | X-H torsion
[ 11005 11000 10999 10996 ] final    5.51 input  -57.11 | X-H torsion

> <Gold.Protein.ActiveResidues>
 VAL166  LYS551  ARG553  GLY616  TRP617  ASP618  TYR619  PRO620  LYS621  CYS622 
 ASP623  PHE694  ASN695  SER759  ASP760  ASP761  ALA762  ILE779  LEU786  VAL792 
 PHE793  MET794  SER795  GLU796  ALA797  LYS798  CYS799  TRP800  GLU811  SER814 

> <Gold.Protein.RotatedAtoms>
  151.3567  133.3905  159.2685 H   0  0  0  0  0  0  0  0  0  0  0  0  # atno 6907 bound_to 6896
  150.9758  134.9124  159.7825 H   0  0  0  0  0  0  0  0  0  0  0  0  # atno 6908 bound_to 6896
  152.5200  134.3530  159.9310 H   0  0  0  0  0  0  0  0  0  0  0  0  # atno 6909 bound_to 6896
  146.2402  139.9772  142.8440 H   0  0  0  0  0  0  0  0  0  0  0  0  # atno 7974 bound_to 7965
  154.6496  140.0581  156.9940 H   0  0  0  0  0  0  0  0  0  0  0  0  # atno 8008 bound_to 7997
  155.1392  140.3264  155.4437 H   0  0  0  0  0  0  0  0  0  0  0  0  # atno 8009 bound_to 7997
  156.2570  140.1967  156.6508 H   0  0  0  0  0  0  0  0  0  0  0  0  # atno 8010 bound_to 7997
  140.1882  144.4112  150.6583 H   0  0  0  0  0  0  0  0  0  0  0  0  # atno 10167 bound_to 10162
  157.1393  131.0536  151.2334 H   0  0  0  0  0  0  0  0  0  0  0  0  # atno 10718 bound_to 10713
  153.3003  135.4116  155.1246 H   0  0  0  0  0  0  0  0  0  0  0  0  # atno 10763 bound_to 10752
  154.8547  135.3539  154.5861 H   0  0  0  0  0  0  0  0  0  0  0  0  # atno 10764 bound_to 10752
  153.6286  135.7061  153.5342 H   0  0  0  0  0  0  0  0  0  0  0  0  # atno 10765 bound_to 10752
  140.5699  134.0113  155.8004 H   0  0  0  0  0  0  0  0  0  0  0  0  # atno 11005 bound_to 11000
  145.1626  140.9680  143.4368 LP  0  0  0  0  0  0  0  0  0  0  0  0  # atno 17320 bound_to 7965
  145.0102  139.3517  143.6124 LP  0  0  0  0  0  0  0  0  0  0  0  0  # atno 17321 bound_to 7965
  140.6474  143.2216  151.6156 LP  0  0  0  0  0  0  0  0  0  0  0  0  # atno 17342 bound_to 10162
  139.5267  144.3038  152.1051 LP  0  0  0  0  0  0  0  0  0  0  0  0  # atno 17343 bound_to 10162
  157.4321  130.7496  149.6999 LP  0  0  0  0  0  0  0  0  0  0  0  0  # atno 17370 bound_to 10713
  155.9792  130.4043  150.3604 LP  0  0  0  0  0  0  0  0  0  0  0  0  # atno 17371 bound_to 10713
  141.1063  133.9689  157.2991 LP  0  0  0  0  0  0  0  0  0  0  0  0  # atno 17394 bound_to 11000
  139.9367  135.0195  156.8578 LP  0  0  0  0  0  0  0  0  0  0  0  0  # atno 17395 bound_to 11000

$$$$
