#       Name:                AV-unprocessed.smi:1247
#       Creating user name   scv26
#       Creation time:       Fri Mar 27 04:35:55 2020


#       File generated by GOLD software.
#

@<TRIPOS>MOLECULE
AV-unprocessed.smi:1247
    52    53     1
SMALL
NO_CHARGES


@<TRIPOS>ATOM
      1 ****        -6.1336   3.8017   1.2950 C.3            1 S1                 0.0000
      2 ****        -5.5388   2.4365   1.1121 C.2            1 S1                 0.0000
      3 ****        -4.1601   2.0762   1.0909 C.2            1 S1                 0.0000
      4 ****        -4.2052   0.7227   0.8959 C.2            1 S1                 0.0000
      5 ****        -3.1765  -0.1603   0.7895 N.am           1 S1                 0.0000
      6 ****        -1.8548   0.0810   0.8449 C.2            1 S1                 0.0000
      7 ****        -1.3352   1.1858   1.0043 O.2            1 S1                 0.0000
      8 ****        -1.1459  -1.0483   0.7021 N.am           1 S1                 0.0000
      9 ****         0.3103  -1.1214   0.7370 C.3            1 S1                 0.0000
     10 ****         0.9340  -0.6604  -0.5944 C.3            1 S1                 0.0000
     11 ****         2.4161  -0.7330  -0.5744 N.4            1 S1                 1.0000
     12 ****         2.9992  -0.8276  -1.9326 C.3            1 S1                 0.0000
     13 ****         4.5261  -1.0047  -1.8512 C.3            1 S1                 0.0000
     14 ****         5.1781  -1.0210  -3.2381 C.3            1 S1                 0.0000
     15 ****         5.0901   0.0773  -1.1149 O.3            1 S1                 0.0000
     16 ****         4.5819   0.2311   0.2101 C.3            1 S1                 0.0000
     17 ****         5.0734  -0.8786   1.1566 C.3            1 S1                 0.0000
     18 ****         3.0479   0.3787   0.1789 C.3            1 S1                 0.0000
     19 ****        -5.5228   0.3289   0.8137 N.pl3          1 S1                 0.0000
     20 ****        -6.0802  -0.9944   0.6114 C.3            1 S1                 0.0000
     21 ****        -6.3439   1.3933   0.9448 N.2            1 S1                 0.0000
     22 ****        -5.3572   4.5533   1.4399 H              1 S1                 0.0000
     23 ****        -6.7895   3.8312   2.1653 H              1 S1                 0.0000
     24 ****        -6.7197   4.0946   0.4238 H              1 S1                 0.0000
     25 ****        -3.3007   2.7198   1.2024 H              1 S1                 0.0000
     26 ****        -3.4497  -1.1225   0.6533 H              1 S1                 0.0000
     27 ****        -1.6466  -1.9160   0.5748 H              1 S1                 0.0000
     28 ****         0.6765  -0.5308   1.5772 H              1 S1                 0.0000
     29 ****         0.5930  -2.1547   0.9401 H              1 S1                 0.0000
     30 ****         0.5520  -1.3062  -1.3865 H              1 S1                 0.0000
     31 ****         0.6217   0.3537  -0.8488 H              1 S1                 0.0000
     32 ****         2.5629  -1.6747  -2.4636 H              1 S1                 0.0000
     33 ****         2.7489   0.0703  -2.5005 H              1 S1                 0.0000
     34 ****         4.7603  -1.9482  -1.3574 H              1 S1                 0.0000
     35 ****         4.7908  -1.8397  -3.8450 H              1 S1                 0.0000
     36 ****         6.2579  -1.1490  -3.1594 H              1 S1                 0.0000
     37 ****         4.9921  -0.0894  -3.7736 H              1 S1                 0.0000
     38 ****         4.9969   1.1677   0.5837 H              1 S1                 0.0000
     39 ****         4.7919  -0.6598   2.1870 H              1 S1                 0.0000
     40 ****         6.1599  -0.9630   1.1242 H              1 S1                 0.0000
     41 ****         4.6540  -1.8529   0.9073 H              1 S1                 0.0000
     42 ****         2.7845   1.3245  -0.2975 H              1 S1                 0.0000
     43 ****         2.6646   0.4262   1.1977 H              1 S1                 0.0000
     44 ****        -5.5751  -1.7112   1.2595 H              1 S1                 0.0000
     45 ****        -5.9427  -1.2930  -0.4282 H              1 S1                 0.0000
     46 ****        -7.1457  -1.0009   0.8455 H              1 S1                 0.0000
     47 ****         2.6586  -1.5918  -0.1013 H              1 S1                 0.0000
     48 ****        -1.9092   1.9984   1.1052 LP             1 S1                 0.0000
     49 ****        -0.3392   1.2705   1.0328 LP             1 S1                 0.0000
     50 ****         4.9092   0.9228  -1.6173 LP             1 S1                 0.0000
     51 ****         6.0774  -0.0695  -1.0540 LP             1 S1                 0.0000
     52 ****        -7.3436   1.3955   0.9210 LP             1 S1                 0.0000
@<TRIPOS>BOND
    1    1    2 1     
    2    1   22 1     
    3    1   23 1     
    4    1   24 1     
    5    2   21 2     
    6    2    3 1     
    7    3    4 2     
    8    3   25 1     
    9    4    5 1     
   10    4   19 1     
   11    5    6 am    
   12    5   26 1     
   13    6    7 2     
   14    6    8 am    
   15    8    9 1     
   16    8   27 1     
   17    9   10 1     
   18    9   28 1     
   19    9   29 1     
   20   10   11 1     
   21   10   30 1     
   22   10   31 1     
   23   11   18 1     
   24   11   12 1     
   25   11   47 1     
   26   12   13 1     
   27   12   32 1     
   28   12   33 1     
   29   13   14 1     
   30   13   15 1     
   31   13   34 1     
   32   14   35 1     
   33   14   36 1     
   34   14   37 1     
   35   15   16 1     
   36   16   17 1     
   37   16   18 1     
   38   16   38 1     
   39   17   39 1     
   40   17   40 1     
   41   17   41 1     
   42   18   42 1     
   43   18   43 1     
   44   19   20 1     
   45   19   21 1     
   46   20   44 1     
   47   20   45 1     
   48   20   46 1     
   49    7   48 1     
   50    7   49 1     
   51   15   50 1     
   52   15   51 1     
   53   21   52 1     
@<TRIPOS>SUBSTRUCTURE
      1 S1             1
@<TRIPOS>SET
LONE_PAIRS      STATIC     ATOMS    <user>   **** ""
5 48 49 50 51 52
DONOR_HYDROGENS      STATIC     ATOMS    <user>   **** ""
3 26 27 47
ATOM$BLUE        STATIC     ATOMS    COLORGROUP SYSTEM
5 48 49 50 51 52
ATOM$RED        STATIC     ATOMS    COLORGROUP SYSTEM
3 26 27 47
