AV-unprocessed.smi:2214|AV-procd|sdf|8958|dock5
  -GOLD-   2272012173D 1   1.00000     0.00000
 Structure written by MMmdl.
 41 42  0  0  0  0  0  0  0  0  1 V2000
  151.7703  144.9500  159.1477 C   0  0  0  0  0  0  0  0  0  0  0  0
  152.2662  143.5459  159.4262 C   0  0  0  0  0  0  0  0  0  0  0  0
  152.7922  143.2153  160.6904 C   0  0  0  0  0  0  0  0  0  0  0  0
  153.2512  141.9093  160.9398 C   0  0  0  0  0  0  0  0  0  0  0  0
  153.1864  140.9308  159.9290 C   0  0  0  0  0  0  0  0  0  0  0  0
  153.7582  139.3347  160.2610 Cl  0  0  0  0  0  0  0  0  0  0  0  0
  152.6626  141.2467  158.6557 C   0  0  0  0  0  0  0  0  0  0  0  0
  152.6312  140.2372  157.7173 O   0  0  0  0  0  0  0  0  0  0  0  0
  151.6512  140.2937  156.6882 C   0  0  0  0  0  0  0  0  0  0  0  0
  151.7203  139.0168  155.8334 C   0  0  2  0  0  0  0  0  0  0  0  0
  153.0789  138.7753  155.5268 O   0  0  0  0  0  0  0  0  0  0  0  0
  150.8827  139.1118  154.5382 C   0  0  0  0  0  0  0  0  0  0  0  0
  149.4664  139.4079  154.8103 N   0  0  0  0  0  0  0  0  0  0  0  0
  148.7536  138.4331  155.5270 C   0  0  0  0  0  0  0  0  0  0  0  0
  147.5044  138.5861  155.8228 N   0  0  0  0  0  0  0  0  0  0  0  0
  146.8304  139.7443  155.4252 C   0  0  0  0  0  0  0  0  0  0  0  0
  145.3659  139.8197  155.8198 C   0  0  0  0  0  0  0  0  0  0  0  0
  147.4647  140.7285  154.7313 C   0  0  0  0  0  0  0  0  0  0  0  0
  146.7821  142.0103  154.2707 C   0  0  0  0  0  0  0  0  0  0  0  0
  148.8893  140.5726  154.3956 C   0  0  0  0  0  0  0  0  0  0  0  0
  149.5301  141.4301  153.7847 O   0  0  0  0  0  0  0  0  0  0  0  0
  152.2032  142.5665  158.4139 C   0  0  0  0  0  0  0  0  0  0  0  0
  151.6832  145.5301  160.0669 H   0  0  0  0  0  0  0  0  0  0  0  0
  150.7894  144.9201  158.6721 H   0  0  0  0  0  0  0  0  0  0  0  0
  152.4599  145.4672  158.4802 H   0  0  0  0  0  0  0  0  0  0  0  0
  152.8463  143.9593  161.4717 H   0  0  0  0  0  0  0  0  0  0  0  0
  153.6543  141.6581  161.9097 H   0  0  0  0  0  0  0  0  0  0  0  0
  150.6496  140.4237  157.1021 H   0  0  0  0  0  0  0  0  0  0  0  0
  151.8593  141.1528  156.0481 H   0  0  0  0  0  0  0  0  0  0  0  0
  151.3748  138.1862  156.4501 H   0  0  0  0  0  0  0  0  0  0  0  0
  153.6079  139.0633  156.2548 H   0  0  0  0  0  0  0  0  0  0  0  0
  151.2842  139.9077  153.9080 H   0  0  0  0  0  0  0  0  0  0  0  0
  151.0058  138.2085  153.9365 H   0  0  0  0  0  0  0  0  0  0  0  0
  149.3258  137.5498  155.8160 H   0  0  0  0  0  0  0  0  0  0  0  0
  144.7342  139.8838  154.9336 H   0  0  0  0  0  0  0  0  0  0  0  0
  145.1829  140.6948  156.4436 H   0  0  0  0  0  0  0  0  0  0  0  0
  145.0608  138.9379  156.3847 H   0  0  0  0  0  0  0  0  0  0  0  0
  147.2580  142.8766  154.7313 H   0  0  0  0  0  0  0  0  0  0  0  0
  145.7229  142.0461  154.5187 H   0  0  0  0  0  0  0  0  0  0  0  0
  146.8670  142.1133  153.1886 H   0  0  0  0  0  0  0  0  0  0  0  0
  151.7963  142.8521  157.4560 H   0  0  0  0  0  0  0  0  0  0  0  0
  1  2  1  0  0  0  0
  1 23  1  0  0  0  0
  1 24  1  0  0  0  0
  1 25  1  0  0  0  0
  2 22  1  0  0  0  0
  2  3  2  0  0  0  0
  3  4  1  0  0  0  0
  3 26  1  0  0  0  0
  4  5  2  0  0  0  0
  4 27  1  0  0  0  0
  5  6  1  0  0  0  0
  5  7  1  0  0  0  0
  7  8  1  0  0  0  0
  7 22  2  0  0  0  0
  8  9  1  0  0  0  0
  9 10  1  0  0  0  0
  9 28  1  0  0  0  0
  9 29  1  0  0  0  0
 10 11  1  0  0  0  0
 10 12  1  0  0  0  0
 10 30  1  0  0  0  0
 11 31  1  0  0  0  0
 12 13  1  0  0  0  0
 12 32  1  0  0  0  0
 12 33  1  0  0  0  0
 13 20  1  0  0  0  0
 13 14  1  0  0  0  0
 14 15  2  0  0  0  0
 14 34  1  0  0  0  0
 15 16  1  0  0  0  0
 16 17  1  0  0  0  0
 16 18  2  0  0  0  0
 17 35  1  0  0  0  0
 17 36  1  0  0  0  0
 17 37  1  0  0  0  0
 18 19  1  0  0  0  0
 18 20  1  0  0  0  0
 19 38  1  0  0  0  0
 19 39  1  0  0  0  0
 19 40  1  0  0  0  0
 20 21  2  0  0  0  0
 22 41  1  0  0  0  0
M  END
> <s_m_source_file>
AV-unprocessed.smi

> <i_m_source_file_index>
2214

> <i_lp_mmshare_version>
43012

> <i_f3d_flags>
0

> <s_epik_input>
W0NIM11jMVtjSF1bY0hdYyhDbCljKFtjSF0xKU9bQ0gyXVtDQEhdKFtPSF0pW0NIMl1uMltjSF1uYyhbQ0gzXSljKFtDSDNdKWMyPU8=

> <s_epik_cmdline>
J2VwaWtfcHl0aG9uJywgJy1waCcsICc3LjAnLCAnLXRuJywgJzgnLCAnLW1hJywgJzIwMCcsICctbWV0YWxfYmluZGluZycsICctaW1hZScsICc8aW5maWxlLm1hZT4nLCAnLW9tYWUnLCAnPG91dGZpbGUubWFlPic=

> <r_lp_tautomer_probability>
1

> <r_epik_Ionization_Penalty>
3.50205e-05

> <r_epik_Ionization_Penalty_Charging>
7.87908e-08

> <r_epik_Ionization_Penalty_Neutral>
3.49418e-05

> <r_epik_State_Penalty>
-0

> <r_epik_Charging_Adjusted_Penalty>
7.87908e-08

> <i_epik_Tot_Q>
0

> <i_epik_Tot_abs_Q>
0

> <r_epik_Metal_State_Penalty>
-0

> <b_epik_Metal_Only>
0

> <s_lp_Force_Field>
OPLS_2005

> <r_lp_Energy>
24.1684

> <b_lp_Chiralities_Consistent>
1

> <s_lp_Variant>
AV-unprocessed.smi:2214-1

> <Gold.Version>
5.8.1

> <Gold.Id.Protein>
6NUR|6NUR_protein|mol2

> <Gold.PLP.Fitness>
48.9182

> <Gold.PLP.PLP>
-44.1173

> <Gold.PLP.part.hbond>
-4.0000

> <Gold.PLP.part.metal>
0.0000

> <Gold.PLP.part.buried>
-3.7084

> <Gold.PLP.part.nonpolar>
-37.1754

> <Gold.PLP.part.repulsive>
1.2484

> <Gold.PLP.ligand.clash>
0.0000

> <Gold.PLP.ligand.torsion>
0.4667

> <Gold.PLP.Chemscore.Hbond>
1.9070

> <Gold.PLP.Chemscore.CHOScore>
0.0000

> <Gold.PLP.Chemscore.Metal>
0.0000

> <Gold.Chemscore.Hbonds>
donor molecule, donor type, donor heavy atom, donor atom, acceptor molecule, acceptor atom, score
      P1  H  7989  7998       L1    21  0.13
      P1  H  7997  8008       L1     8  0.99
      P1  H  8011  8017       L1    21  0.77

> <Gold.PLP.Chemscore.Internal.Correction>
0.0132

> <Gold.Rescore>
     Score         DG    S(hbond)    S(metal)    S(lipo)     H(rot)  DE(clash)    DE(int)     intcor
     17.03     -18.68       1.69        0.00     116.08       2.35       1.17       0.48       ----

> <Gold.Chemscore.Fitness>
17.0336

> <Gold.Chemscore.DG>
-18.6799

> <Gold.Chemscore.ZeroCoef>
-5.4800

> <Gold.Chemscore.Hbond>
1.6862

> <Gold.Chemscore.Metal>
0.0000

> <Gold.Chemscore.Lipo>
116.0822

> <Gold.Chemscore.Internal_Hbond>
0.0000

> <Gold.Chemscore.DEClash>
1.1694

> <Gold.Chemscore.DEInternal>
0.4769

> <Gold.Chemscore.Rot>
2.3490

> <Gold.Chemscore.Internal.Correction>
   9.000000E+99

> <Gold.Chemscore.Hbonds>
donor molecule, donor type, donor heavy atom, donor atom, acceptor molecule, acceptor atom, score
      P1  H  7989  7998       L1    21  0.11
      P1  H  7997  8008       L1     8  0.34
      P1  H  8011  8017       L1    21  0.78

> <Gold.Chemscore.Hbond.Weighted>
-5.6319

> <Gold.Chemscore.Metal.Weighted>
-0.0000

> <Gold.Chemscore.Lipo.Weighted>
-13.5816

> <Gold.Chemscore.Internal_Hbond.Weighted>
0.0000

> <Gold.Chemscore.DEClash.Weighted>
1.1694

> <Gold.Chemscore.DEInternal.Weighted>
0.4769

> <Gold.Chemscore.Rot.Weighted>
6.0136

> <Gold.Chemscore.Internal.Correction.Weighted>
   9.000000E+99

> <Gold.Protein.RotatedTorsions>
[ 6907 6896 6895 6894 ] final  -93.19 input  -60.11 | X-H torsion
[ 7974 7965 7964 7962 ] final  142.87 input  175.53 | X-H torsion
[ 8008 7997 7996 7995 ] final  -66.32 input   59.86 | X-H torsion
[ 10167 10162 10161 10158 ] final  -15.29 input  -65.29 | X-H torsion
[ 10718 10713 10712 10709 ] final  109.59 input   66.30 | X-H torsion
[ 10763 10752 10751 10750 ] final -169.55 input  -60.55 | X-H torsion
[ 11005 11000 10999 10996 ] final  -54.59 input  -57.11 | X-H torsion

> <Gold.Protein.ActiveResidues>
 VAL166  LYS551  ARG553  GLY616  TRP617  ASP618  TYR619  PRO620  LYS621  CYS622 
 ASP623  PHE694  ASN695  SER759  ASP760  ASP761  ALA762  ILE779  LEU786  VAL792 
 PHE793  MET794  SER795  GLU796  ALA797  LYS798  CYS799  TRP800  GLU811  SER814 

> <Gold.Protein.RotatedAtoms>
  150.6918  134.2005  159.4319 H   0  0  0  0  0  0  0  0  0  0  0  0  # atno 6907 bound_to 6896
  151.9971  134.9946  160.0573 H   0  0  0  0  0  0  0  0  0  0  0  0  # atno 6908 bound_to 6896
  152.1613  133.4549  159.4899 H   0  0  0  0  0  0  0  0  0  0  0  0  # atno 6909 bound_to 6896
  144.8970  139.5476  143.5771 H   0  0  0  0  0  0  0  0  0  0  0  0  # atno 7974 bound_to 7965
  154.4727  140.0915  156.7185 H   0  0  0  0  0  0  0  0  0  0  0  0  # atno 8008 bound_to 7997
  155.4680  140.3463  155.4303 H   0  0  0  0  0  0  0  0  0  0  0  0  # atno 8009 bound_to 7997
  156.1066  140.1436  156.9384 H   0  0  0  0  0  0  0  0  0  0  0  0  # atno 8010 bound_to 7997
  140.7216  143.5233  150.9607 H   0  0  0  0  0  0  0  0  0  0  0  0  # atno 10167 bound_to 10162
  157.6534  131.0916  150.6477 H   0  0  0  0  0  0  0  0  0  0  0  0  # atno 10718 bound_to 10713
  154.6511  135.2911  154.9985 H   0  0  0  0  0  0  0  0  0  0  0  0  # atno 10763 bound_to 10752
  154.1078  135.6567  153.4883 H   0  0  0  0  0  0  0  0  0  0  0  0  # atno 10764 bound_to 10752
  153.0377  135.5258  154.7420 H   0  0  0  0  0  0  0  0  0  0  0  0  # atno 10765 bound_to 10752
  141.1033  133.6615  156.4343 H   0  0  0  0  0  0  0  0  0  0  0  0  # atno 11005 bound_to 11000
  146.3087  139.7669  142.9036 LP  0  0  0  0  0  0  0  0  0  0  0  0  # atno 17320 bound_to 7965
  145.3682  141.0338  143.3246 LP  0  0  0  0  0  0  0  0  0  0  0  0  # atno 17321 bound_to 7965
  139.8951  143.6904  152.3139 LP  0  0  0  0  0  0  0  0  0  0  0  0  # atno 17342 bound_to 10162
  139.7234  144.7598  151.0918 LP  0  0  0  0  0  0  0  0  0  0  0  0  # atno 17343 bound_to 10162
  156.6786  130.4560  149.5635 LP  0  0  0  0  0  0  0  0  0  0  0  0  # atno 17370 bound_to 10713
  156.1946  130.6581  151.1099 LP  0  0  0  0  0  0  0  0  0  0  0  0  # atno 17371 bound_to 10713
  140.4966  134.6525  157.5232 LP  0  0  0  0  0  0  0  0  0  0  0  0  # atno 17394 bound_to 11000
  139.9893  134.7011  155.9718 LP  0  0  0  0  0  0  0  0  0  0  0  0  # atno 17395 bound_to 11000

$$$$
