AV-unprocessed.smi:249|AV-procd|sdf|1898|dock9
  -GOLD-   2262020573D 1   1.00000     0.00000
 Structure written by MMmdl.
 64 67  0  0  0  0  0  0  0  0  2 V2000
  152.3117  144.8342  158.2142 C   0  0  0  0  0  0  0  0  0  0  0  0
  152.1139  143.8088  159.3426 C   0  0  0  0  0  0  0  0  0  0  0  0
  152.3908  142.4036  158.9251 N   0  3  2  0  0  0  0  0  0  0  0  0
  151.3003  141.8545  158.0685 C   0  0  0  0  0  0  0  0  0  0  0  0
  151.6376  140.4600  157.5245 C   0  0  0  0  0  0  0  0  0  0  0  0
  151.9171  139.4824  158.6773 C   0  0  1  0  0  0  0  0  0  0  0  0
  152.1650  138.1055  158.2282 N   0  0  0  0  0  0  0  0  0  0  0  0
  153.3677  137.4467  158.7255 C   0  0  0  0  0  0  0  0  0  0  0  0
  151.0964  137.2798  158.1242 C   0  0  0  0  0  0  0  0  0  0  0  0
  150.2602  137.1184  159.1833 N   0  0  0  0  0  0  0  0  0  0  0  0
  149.2003  136.3104  159.0810 C   0  0  0  0  0  0  0  0  0  0  0  0
  148.8024  135.5844  158.0342 N   0  0  0  0  0  0  0  0  0  0  0  0
  149.6462  135.7379  156.9736 C   0  0  0  0  0  0  0  0  0  0  0  0
  150.8082  136.5576  156.9353 C   0  0  0  0  0  0  0  0  0  0  0  0
  151.4202  136.4607  155.6919 N   0  0  0  0  0  0  0  0  0  0  0  0
  150.6605  135.6312  155.0295 C   0  0  0  0  0  0  0  0  0  0  0  0
  149.5688  135.1559  155.7206 N   0  0  0  0  0  0  0  0  0  0  0  0
  148.5663  134.2299  155.2234 C   0  0  0  0  0  0  0  0  0  0  0  0
  149.1719  132.9312  154.6356 C   0  0  2  0  0  0  0  0  0  0  0  0
  148.1526  132.1161  153.8021 C   0  0  0  0  0  0  0  0  0  0  0  0
  147.7852  132.7993  152.6213 O   0  0  0  0  0  0  0  0  0  0  0  0
  149.8516  132.0725  155.7320 C   0  0  2  0  0  0  0  0  0  0  0  0
  148.9372  131.6436  156.8661 C   0  0  0  0  0  0  0  0  0  0  0  0
  149.9361  131.2589  157.9509 C   0  0  0  0  0  0  0  0  0  0  0  0
  151.0325  132.1502  157.7880 O   0  0  0  0  0  0  0  0  0  0  0  0
  150.9546  132.7910  156.5181 C   0  0  0  0  0  0  0  0  0  0  0  0
  153.0450  140.0668  159.5468 C   0  0  0  0  0  0  0  0  0  0  0  0
  152.7083  141.4814  160.0647 C   0  0  1  0  0  0  0  0  0  0  0  0
  153.8797  141.9729  160.9407 C   0  0  0  0  0  0  0  0  0  0  0  0
  152.2627  145.8486  158.6109 H   0  0  0  0  0  0  0  0  0  0  0  0
  151.5426  144.7616  157.4458 H   0  0  0  0  0  0  0  0  0  0  0  0
  153.2850  144.7153  157.7372 H   0  0  0  0  0  0  0  0  0  0  0  0
  152.7954  144.1101  160.1348 H   0  0  0  0  0  0  0  0  0  0  0  0
  151.1063  143.8843  159.7538 H   0  0  0  0  0  0  0  0  0  0  0  0
  150.3711  141.8183  158.6399 H   0  0  0  0  0  0  0  0  0  0  0  0
  151.1172  142.5024  157.2132 H   0  0  0  0  0  0  0  0  0  0  0  0
  150.8072  140.1047  156.9143 H   0  0  0  0  0  0  0  0  0  0  0  0
  152.5024  140.5318  156.8640 H   0  0  0  0  0  0  0  0  0  0  0  0
  151.0215  139.4359  159.2983 H   0  0  0  0  0  0  0  0  0  0  0  0
  153.5633  136.5304  158.1671 H   0  0  0  0  0  0  0  0  0  0  0  0
  153.2754  137.1906  159.7813 H   0  0  0  0  0  0  0  0  0  0  0  0
  154.2335  138.0988  158.6086 H   0  0  0  0  0  0  0  0  0  0  0  0
  148.5830  136.2338  159.9639 H   0  0  0  0  0  0  0  0  0  0  0  0
  150.8734  135.3438  154.0098 H   0  0  0  0  0  0  0  0  0  0  0  0
  147.8954  133.9996  156.0512 H   0  0  0  0  0  0  0  0  0  0  0  0
  147.9616  134.7386  154.4716 H   0  0  0  0  0  0  0  0  0  0  0  0
  149.9549  133.2385  153.9405 H   0  0  0  0  0  0  0  0  0  0  0  0
  148.5564  131.1405  153.5315 H   0  0  0  0  0  0  0  0  0  0  0  0
  147.2515  131.9152  154.3814 H   0  0  0  0  0  0  0  0  0  0  0  0
  147.9475  132.2335  151.8819 H   0  0  0  0  0  0  0  0  0  0  0  0
  150.2765  131.1741  155.2809 H   0  0  0  0  0  0  0  0  0  0  0  0
  148.3233  132.4811  157.2012 H   0  0  0  0  0  0  0  0  0  0  0  0
  148.2753  130.8189  156.5994 H   0  0  0  0  0  0  0  0  0  0  0  0
  149.5124  131.3234  158.9533 H   0  0  0  0  0  0  0  0  0  0  0  0
  150.2909  130.2390  157.7965 H   0  0  0  0  0  0  0  0  0  0  0  0
  151.9162  132.7599  156.0054 H   0  0  0  0  0  0  0  0  0  0  0  0
  150.6948  133.8376  156.6827 H   0  0  0  0  0  0  0  0  0  0  0  0
  153.2259  139.4031  160.3932 H   0  0  0  0  0  0  0  0  0  0  0  0
  153.9767  140.1116  158.9805 H   0  0  0  0  0  0  0  0  0  0  0  0
  151.8210  141.4105  160.6964 H   0  0  0  0  0  0  0  0  0  0  0  0
  154.1827  141.2037  161.6520 H   0  0  0  0  0  0  0  0  0  0  0  0
  153.6156  142.8445  161.5386 H   0  0  0  0  0  0  0  0  0  0  0  0
  154.7532  142.2207  160.3367 H   0  0  0  0  0  0  0  0  0  0  0  0
  153.2207  142.4370  158.3504 H   0  0  0  0  0  0  0  0  0  0  0  0
  1  2  1  0  0  0  0
  1 30  1  0  0  0  0
  1 31  1  0  0  0  0
  1 32  1  0  0  0  0
  2  3  1  0  0  0  0
  2 33  1  0  0  0  0
  2 34  1  0  0  0  0
  3 28  1  0  0  0  0
  3  4  1  0  0  0  0
  3 64  1  0  0  0  0
  4  5  1  0  0  0  0
  4 35  1  0  0  0  0
  4 36  1  0  0  0  0
  5  6  1  0  0  0  0
  5 37  1  0  0  0  0
  5 38  1  0  0  0  0
  6  7  1  0  0  0  0
  6 27  1  0  0  0  0
  6 39  1  0  0  0  0
  7  8  1  0  0  0  0
  7  9  1  0  0  0  0
  8 40  1  0  0  0  0
  8 41  1  0  0  0  0
  8 42  1  0  0  0  0
  9 14  1  0  0  0  0
  9 10  2  0  0  0  0
 10 11  1  0  0  0  0
 11 12  2  0  0  0  0
 11 43  1  0  0  0  0
 12 13  1  0  0  0  0
 13 17  1  0  0  0  0
 13 14  2  0  0  0  0
 14 15  1  0  0  0  0
 15 16  2  0  0  0  0
 16 17  1  0  0  0  0
 16 44  1  0  0  0  0
 17 18  1  0  0  0  0
 18 19  1  0  0  0  0
 18 45  1  0  0  0  0
 18 46  1  0  0  0  0
 19 20  1  0  0  0  0
 19 22  1  0  0  0  0
 19 47  1  0  0  0  0
 20 21  1  0  0  0  0
 20 48  1  0  0  0  0
 20 49  1  0  0  0  0
 21 50  1  0  0  0  0
 22 26  1  0  0  0  0
 22 23  1  0  0  0  0
 22 51  1  0  0  0  0
 23 24  1  0  0  0  0
 23 52  1  0  0  0  0
 23 53  1  0  0  0  0
 24 25  1  0  0  0  0
 24 54  1  0  0  0  0
 24 55  1  0  0  0  0
 25 26  1  0  0  0  0
 26 56  1  0  0  0  0
 26 57  1  0  0  0  0
 27 28  1  0  0  0  0
 27 58  1  0  0  0  0
 27 59  1  0  0  0  0
 28 29  1  0  0  0  0
 28 60  1  0  0  0  0
 29 61  1  0  0  0  0
 29 62  1  0  0  0  0
 29 63  1  0  0  0  0
M  CHG  1   3   1
M  END
> <s_m_source_file>
AV-unprocessed.smi

> <i_m_source_file_index>
249

> <i_lp_mmshare_version>
43012

> <i_f3d_flags>
0

> <s_epik_input>
W0NIM11bQ0gyXU4xW0NIMl1bQ0gyXVtDQEhdKFtDSDJdW0NASF0xW0NIM10pTihbQ0gzXSljKG5bY0hdbjIpYyhjMjMpbltjSF1uM1tDSDJdW0NASF0oW0NIMl1bT0hdKVtDQEBIXTRbQ0gyXVtDSDJdT1tDSDJdNA==

> <s_epik_cmdline>
J2VwaWtfcHl0aG9uJywgJy1waCcsICc3LjAnLCAnLXRuJywgJzgnLCAnLW1hJywgJzIwMCcsICctbWV0YWxfYmluZGluZycsICctaW1hZScsICc8aW5maWxlLm1hZT4nLCAnLW9tYWUnLCAnPG91dGZpbGUubWFlPic=

> <r_lp_tautomer_probability>
1

> <r_epik_Ionization_Penalty>
0.00294688

> <r_epik_Ionization_Penalty_Charging>
0.00169971

> <r_epik_Ionization_Penalty_Neutral>
0.00124717

> <r_epik_State_Penalty>
-0

> <r_epik_Charging_Adjusted_Penalty>
0.00169971

> <i_epik_Tot_Q>
1

> <i_epik_Tot_abs_Q>
1

> <r_epik_Metal_State_Penalty>
-0

> <b_epik_Metal_Only>
0

> <s_lp_Force_Field>
OPLS_2005

> <r_lp_Energy>
53.6814

> <b_lp_Chiralities_Consistent>
1

> <s_lp_Variant>
AV-unprocessed.smi:249-1

> <Gold.Version>
5.8.1

> <Gold.Id.Protein>
6NUR|6NUR_protein|mol2

> <Gold.PLP.Fitness>
53.2942

> <Gold.PLP.PLP>
-45.9362

> <Gold.PLP.part.hbond>
-3.0000

> <Gold.PLP.part.metal>
0.0000

> <Gold.PLP.part.buried>
-6.0875

> <Gold.PLP.part.nonpolar>
-37.5390

> <Gold.PLP.part.repulsive>
0.1306

> <Gold.PLP.ligand.clash>
0.0000

> <Gold.PLP.ligand.torsion>
1.9282

> <Gold.PLP.Chemscore.Hbond>
2.4560

> <Gold.PLP.Chemscore.CHOScore>
1.0000

> <Gold.PLP.Chemscore.Metal>
0.0000

> <Gold.Chemscore.Hbonds>
donor molecule, donor type, donor heavy atom, donor atom, acceptor molecule, acceptor atom, score
      L1  H    21    50       P1 10747  0.21
      P1  H  6896  6908       L1    25  1.00
      P1  H 10752 10765       L1    15  0.44
      L1  C    16    44       P1  7949  0.57

> <Gold.PLP.Chemscore.Internal.Correction>
0.8464

> <Gold.Rescore>
     Score         DG    S(hbond)    S(metal)    S(lipo)     H(rot)  DE(clash)    DE(int)     intcor
     14.15     -17.49       1.92        0.00     111.39       2.90       0.11       3.23       ----

> <Gold.Chemscore.Fitness>
14.1457

> <Gold.Chemscore.DG>
-17.4867

> <Gold.Chemscore.ZeroCoef>
-5.4800

> <Gold.Chemscore.Hbond>
1.9162

> <Gold.Chemscore.Metal>
0.0000

> <Gold.Chemscore.Lipo>
111.3881

> <Gold.Chemscore.Internal_Hbond>
0.0000

> <Gold.Chemscore.DEClash>
0.1075

> <Gold.Chemscore.DEInternal>
3.2335

> <Gold.Chemscore.Rot>
2.9006

> <Gold.Chemscore.Internal.Correction>
   9.000000E+99

> <Gold.Chemscore.Hbonds>
donor molecule, donor type, donor heavy atom, donor atom, acceptor molecule, acceptor atom, score
      L1  H    21    50       P1 10747  0.21
      P1  H  6896  6908       L1    25  0.87
      P1  H 10752 10765       L1    15  0.04

> <Gold.Chemscore.Hbond.Weighted>
-6.4000

> <Gold.Chemscore.Metal.Weighted>
-0.0000

> <Gold.Chemscore.Lipo.Weighted>
-13.0324

> <Gold.Chemscore.Internal_Hbond.Weighted>
0.0000

> <Gold.Chemscore.DEClash.Weighted>
0.1075

> <Gold.Chemscore.DEInternal.Weighted>
3.2335

> <Gold.Chemscore.Rot.Weighted>
7.4256

> <Gold.Chemscore.Internal.Correction.Weighted>
   9.000000E+99

> <Gold.Protein.RotatedTorsions>
[ 6907 6896 6895 6894 ] final   68.83 input  -60.11 | X-H torsion
[ 7974 7965 7964 7962 ] final   -9.60 input  175.53 | X-H torsion
[ 8008 7997 7996 7995 ] final   97.88 input   59.86 | X-H torsion
[ 10167 10162 10161 10158 ] final   12.10 input  -65.29 | X-H torsion
[ 10718 10713 10712 10709 ] final   53.78 input   66.30 | X-H torsion
[ 10763 10752 10751 10750 ] final -142.26 input  -60.55 | X-H torsion
[ 11005 11000 10999 10996 ] final -179.66 input  -57.11 | X-H torsion

> <Gold.Protein.ActiveResidues>
 VAL166  LYS551  ARG553  GLY616  TRP617  ASP618  TYR619  PRO620  LYS621  CYS622 
 ASP623  PHE694  ASN695  SER759  ASP760  ASP761  ALA762  ILE779  LEU786  VAL792 
 PHE793  MET794  SER795  GLU796  ALA797  LYS798  CYS799  TRP800  GLU811  SER814 

> <Gold.Protein.RotatedAtoms>
  152.4647  134.5104  159.9751 H   0  0  0  0  0  0  0  0  0  0  0  0  # atno 6907 bound_to 6896
  151.5145  133.3472  159.2898 H   0  0  0  0  0  0  0  0  0  0  0  0  # atno 6908 bound_to 6896
  150.8625  134.8009  159.7156 H   0  0  0  0  0  0  0  0  0  0  0  0  # atno 6909 bound_to 6896
  146.2246  140.2641  142.8353 H   0  0  0  0  0  0  0  0  0  0  0  0  # atno 7974 bound_to 7965
  156.0947  140.3252  155.7862 H   0  0  0  0  0  0  0  0  0  0  0  0  # atno 8008 bound_to 7997
  155.4937  140.0563  157.2967 H   0  0  0  0  0  0  0  0  0  0  0  0  # atno 8009 bound_to 7997
  154.4659  140.1989  156.0135 H   0  0  0  0  0  0  0  0  0  0  0  0  # atno 8010 bound_to 7997
  140.6089  143.8449  150.7044 H   0  0  0  0  0  0  0  0  0  0  0  0  # atno 10167 bound_to 10162
  157.5198  130.8557  149.8543 H   0  0  0  0  0  0  0  0  0  0  0  0  # atno 10718 bound_to 10713
  154.8515  135.3501  154.6000 H   0  0  0  0  0  0  0  0  0  0  0  0  # atno 10763 bound_to 10752
  153.6609  135.6989  153.5182 H   0  0  0  0  0  0  0  0  0  0  0  0  # atno 10764 bound_to 10752
  153.2818  135.4261  155.1043 H   0  0  0  0  0  0  0  0  0  0  0  0  # atno 10765 bound_to 10752
  140.4161  134.6647  157.4640 H   0  0  0  0  0  0  0  0  0  0  0  0  # atno 11005 bound_to 11000
  144.9317  140.7982  143.5685 LP  0  0  0  0  0  0  0  0  0  0  0  0  # atno 17320 bound_to 7965
  145.2585  139.2002  143.4904 LP  0  0  0  0  0  0  0  0  0  0  0  0  # atno 17321 bound_to 7965
  140.2012  143.3957  152.1790 LP  0  0  0  0  0  0  0  0  0  0  0  0  # atno 17342 bound_to 10162
  139.5346  144.7196  151.4937 LP  0  0  0  0  0  0  0  0  0  0  0  0  # atno 17343 bound_to 10162
  156.0345  130.3755  150.1597 LP  0  0  0  0  0  0  0  0  0  0  0  0  # atno 17370 bound_to 10713
  156.9785  130.9857  151.3443 LP  0  0  0  0  0  0  0  0  0  0  0  0  # atno 17371 bound_to 10713
  140.0233  134.6515  155.9209 LP  0  0  0  0  0  0  0  0  0  0  0  0  # atno 17394 bound_to 11000
  141.1802  133.6545  156.4989 LP  0  0  0  0  0  0  0  0  0  0  0  0  # atno 17395 bound_to 11000

$$$$
