AV-unprocessed.smi:1929|AV-procd|sdf|7800|dock3
  -GOLD-   22720 9543D 1   1.00000     0.00000
 Structure written by MMmdl.
 43 44  0  0  0  0  0  0  0  0  2 V2000
  149.8794  142.8647  158.1610 C   0  0  0  0  0  0  0  0  0  0  0  0
  148.9476  142.7497  157.0494 N   0  0  0  0  0  0  0  0  0  0  0  0
  147.9029  141.9104  157.0260 C   0  0  0  0  0  0  0  0  0  0  0  0
  147.6239  141.1545  157.9573 O   0  0  0  0  0  0  0  0  0  0  0  0
  147.0339  141.9446  155.7645 C   0  0  0  0  0  0  0  0  0  0  0  0
  147.1476  140.7099  154.9464 N   0  3  2  0  0  0  0  0  0  0  0  0
  146.8449  140.9332  153.5071 C   0  0  0  0  0  0  0  0  0  0  0  0
  147.1160  139.6645  152.6821 C   0  0  0  0  0  0  0  0  0  0  0  0
  146.3055  138.4740  153.2184 C   0  0  1  0  0  0  0  0  0  0  0  0
  146.6382  137.2659  152.4688 N   0  0  0  0  0  0  0  0  0  0  0  0
  145.7647  136.3072  152.1275 C   0  0  0  0  0  0  0  0  0  0  0  0
  144.5696  136.3473  152.4192 O   0  0  0  0  0  0  0  0  0  0  0  0
  146.3714  135.3107  151.4595 N   0  0  0  0  0  0  0  0  0  0  0  0
  145.7967  134.1285  150.9191 C   0  0  0  0  0  0  0  0  0  0  0  0
  144.3903  134.0533  150.8503 C   0  0  0  0  0  0  0  0  0  0  0  0
  143.7974  132.8833  150.3348 C   0  0  0  0  0  0  0  0  0  0  0  0
  144.5075  131.8174  149.9093 N   0  0  0  0  0  0  0  0  0  0  0  0
  145.8532  131.8853  149.9901 C   0  0  0  0  0  0  0  0  0  0  0  0
  146.5458  133.0074  150.4875 C   0  0  0  0  0  0  0  0  0  0  0  0
  146.5978  138.2866  154.7187 C   0  0  0  0  0  0  0  0  0  0  0  0
  146.3511  139.5865  155.5027 C   0  0  0  0  0  0  0  0  0  0  0  0
  150.6440  143.6068  157.9306 H   0  0  0  0  0  0  0  0  0  0  0  0
  150.3760  141.9124  158.3523 H   0  0  0  0  0  0  0  0  0  0  0  0
  149.3641  143.1781  159.0700 H   0  0  0  0  0  0  0  0  0  0  0  0
  149.1080  143.3462  156.2503 H   0  0  0  0  0  0  0  0  0  0  0  0
  146.0039  142.0685  156.1011 H   0  0  0  0  0  0  0  0  0  0  0  0
  147.2726  142.8192  155.1569 H   0  0  0  0  0  0  0  0  0  0  0  0
  145.8026  141.2365  153.3956 H   0  0  0  0  0  0  0  0  0  0  0  0
  147.4527  141.7493  153.1155 H   0  0  0  0  0  0  0  0  0  0  0  0
  146.8672  139.8461  151.6357 H   0  0  0  0  0  0  0  0  0  0  0  0
  148.1823  139.4347  152.7117 H   0  0  0  0  0  0  0  0  0  0  0  0
  145.2445  138.6961  153.0855 H   0  0  0  0  0  0  0  0  0  0  0  0
  147.6022  137.1512  152.1911 H   0  0  0  0  0  0  0  0  0  0  0  0
  147.3748  135.3794  151.3736 H   0  0  0  0  0  0  0  0  0  0  0  0
  143.7719  134.8757  151.1798 H   0  0  0  0  0  0  0  0  0  0  0  0
  142.7228  132.8009  150.2653 H   0  0  0  0  0  0  0  0  0  0  0  0
  146.3968  131.0144  149.6551 H   0  0  0  0  0  0  0  0  0  0  0  0
  147.6232  132.9787  150.5394 H   0  0  0  0  0  0  0  0  0  0  0  0
  145.9747  137.4904  155.1283 H   0  0  0  0  0  0  0  0  0  0  0  0
  147.6329  137.9706  154.8585 H   0  0  0  0  0  0  0  0  0  0  0  0
  146.6183  139.4271  156.5482 H   0  0  0  0  0  0  0  0  0  0  0  0
  145.2909  139.8446  155.4817 H   0  0  0  0  0  0  0  0  0  0  0  0
  148.1159  140.4269  155.0027 H   0  0  0  0  0  0  0  0  0  0  0  0
  1  2  1  0  0  0  0
  1 22  1  0  0  0  0
  1 23  1  0  0  0  0
  1 24  1  0  0  0  0
  2  3  1  0  0  0  0
  2 25  1  0  0  0  0
  3  4  2  0  0  0  0
  3  5  1  0  0  0  0
  5  6  1  0  0  0  0
  5 26  1  0  0  0  0
  5 27  1  0  0  0  0
  6 21  1  0  0  0  0
  6  7  1  0  0  0  0
  6 43  1  0  0  0  0
  7  8  1  0  0  0  0
  7 28  1  0  0  0  0
  7 29  1  0  0  0  0
  8  9  1  0  0  0  0
  8 30  1  0  0  0  0
  8 31  1  0  0  0  0
  9 10  1  0  0  0  0
  9 20  1  0  0  0  0
  9 32  1  0  0  0  0
 10 11  1  0  0  0  0
 10 33  1  0  0  0  0
 11 12  2  0  0  0  0
 11 13  1  0  0  0  0
 13 14  1  0  0  0  0
 13 34  1  0  0  0  0
 14 19  1  0  0  0  0
 14 15  2  0  0  0  0
 15 16  1  0  0  0  0
 15 35  1  0  0  0  0
 16 17  2  0  0  0  0
 16 36  1  0  0  0  0
 17 18  1  0  0  0  0
 18 19  2  0  0  0  0
 18 37  1  0  0  0  0
 19 38  1  0  0  0  0
 20 21  1  0  0  0  0
 20 39  1  0  0  0  0
 20 40  1  0  0  0  0
 21 41  1  0  0  0  0
 21 42  1  0  0  0  0
M  CHG  1   6   1
M  END
> <s_m_source_file>
AV-unprocessed.smi

> <i_m_source_file_index>
1929

> <i_lp_mmshare_version>
43012

> <i_f3d_flags>
0

> <s_epik_input>
W0NIM11bTkhdQyg9TylbQ0gyXU4xW0NIMl1bQ0gyXVtDSF0oW0NIMl1bQ0gyXTEpW05IXUMoPU8pW05IXWMyW2NIXVtjSF1uW2NIXVtjSF0y

> <s_epik_cmdline>
J2VwaWtfcHl0aG9uJywgJy1waCcsICc3LjAnLCAnLXRuJywgJzgnLCAnLW1hJywgJzIwMCcsICctbWV0YWxfYmluZGluZycsICctaW1hZScsICc8aW5maWxlLm1hZT4nLCAnLW9tYWUnLCAnPG91dGZpbGUubWFlPic=

> <r_epik_Ionization_Penalty>
0.938295

> <r_epik_Ionization_Penalty_Charging>
0.838844

> <r_epik_Ionization_Penalty_Neutral>
0.0994513

> <r_epik_State_Penalty>
0.957722

> <r_epik_Charging_Adjusted_Penalty>
1.79657

> <i_epik_Tot_Q>
1

> <i_epik_Tot_abs_Q>
1

> <r_epik_Metal_State_Penalty>
0.961727

> <b_epik_Metal_Only>
0

> <s_lp_Force_Field>
OPLS_2005

> <r_lp_Energy>
19.1228

> <b_lp_Chiralities_Consistent>
1

> <s_lp_Variant>
AV-unprocessed.smi:1929-2

> <Gold.Version>
5.8.1

> <Gold.Id.Protein>
6NUR|6NUR_protein|mol2

> <Gold.PLP.Fitness>
42.8948

> <Gold.PLP.PLP>
-30.4539

> <Gold.PLP.part.hbond>
-4.7407

> <Gold.PLP.part.metal>
0.0000

> <Gold.PLP.part.buried>
-3.9846

> <Gold.PLP.part.nonpolar>
-22.8020

> <Gold.PLP.part.repulsive>
0.4556

> <Gold.PLP.ligand.clash>
0.0000

> <Gold.PLP.ligand.torsion>
0.6805

> <Gold.PLP.Chemscore.Hbond>
3.0619

> <Gold.PLP.Chemscore.CHOScore>
1.5317

> <Gold.PLP.Chemscore.Metal>
0.0000

> <Gold.Chemscore.Hbonds>
donor molecule, donor type, donor heavy atom, donor atom, acceptor molecule, acceptor atom, score
      L1  H     2    25       P1  8028  0.84
      L1  H    10    33       P1  7948  1.00
      L1  H    13    34       P1  7948  1.00
      P1  H 10785 10796       L1    17  0.02
      L1  C    16    36       P1 10186  1.00
      L1  C    18    37       P1 10747  0.57

> <Gold.PLP.Chemscore.Internal.Correction>
0.0213

> <Gold.Rescore>
     Score         DG    S(hbond)    S(metal)    S(lipo)     H(rot)  DE(clash)    DE(int)     intcor
     17.69     -19.90       3.06        0.00      72.82       1.69       0.16       2.05       ----

> <Gold.Chemscore.Fitness>
17.6915

> <Gold.Chemscore.DG>
-19.9029

> <Gold.Chemscore.ZeroCoef>
-5.4800

> <Gold.Chemscore.Hbond>
3.0606

> <Gold.Chemscore.Metal>
0.0000

> <Gold.Chemscore.Lipo>
72.8183

> <Gold.Chemscore.Internal_Hbond>
0.0000

> <Gold.Chemscore.DEClash>
0.1643

> <Gold.Chemscore.DEInternal>
2.0471

> <Gold.Chemscore.Rot>
1.6873

> <Gold.Chemscore.Internal.Correction>
   9.000000E+99

> <Gold.Chemscore.Hbonds>
donor molecule, donor type, donor heavy atom, donor atom, acceptor molecule, acceptor atom, score
      L1  H     2    25       P1  8028  0.79
      L1  H    10    33       P1  7948  0.97
      L1  H    13    34       P1  7948  0.81
      P1  H 10785 10796       L1    17  0.04

> <Gold.Chemscore.Hbond.Weighted>
-10.2225

> <Gold.Chemscore.Metal.Weighted>
-0.0000

> <Gold.Chemscore.Lipo.Weighted>
-8.5197

> <Gold.Chemscore.Internal_Hbond.Weighted>
0.0000

> <Gold.Chemscore.DEClash.Weighted>
0.1643

> <Gold.Chemscore.DEInternal.Weighted>
2.0471

> <Gold.Chemscore.Rot.Weighted>
4.3194

> <Gold.Chemscore.Internal.Correction.Weighted>
   9.000000E+99

> <Gold.Protein.RotatedTorsions>
[ 6907 6896 6895 6894 ] final  -86.34 input  -60.11 | X-H torsion
[ 7974 7965 7964 7962 ] final  141.88 input  175.53 | X-H torsion
[ 8008 7997 7996 7995 ] final -135.50 input   59.86 | X-H torsion
[ 10167 10162 10161 10158 ] final   19.32 input  -65.29 | X-H torsion
[ 10718 10713 10712 10709 ] final  -58.65 input   66.30 | X-H torsion
[ 10763 10752 10751 10750 ] final   -4.42 input  -60.55 | X-H torsion
[ 11005 11000 10999 10996 ] final   86.21 input  -57.11 | X-H torsion

> <Gold.Protein.ActiveResidues>
 VAL166  LYS551  ARG553  GLY616  TRP617  ASP618  TYR619  PRO620  LYS621  CYS622 
 ASP623  PHE694  ASN695  SER759  ASP760  ASP761  ALA762  ILE779  LEU786  VAL792 
 PHE793  MET794  SER795  GLU796  ALA797  LYS798  CYS799  TRP800  GLU811  SER814 

> <Gold.Protein.RotatedAtoms>
  150.6867  134.3065  159.4728 H   0  0  0  0  0  0  0  0  0  0  0  0  # atno 6907 bound_to 6896
  152.0956  134.9375  160.0580 H   0  0  0  0  0  0  0  0  0  0  0  0  # atno 6908 bound_to 6896
  152.0674  133.4056  159.4481 H   0  0  0  0  0  0  0  0  0  0  0  0  # atno 6909 bound_to 6896
  144.9057  139.5361  143.5732 H   0  0  0  0  0  0  0  0  0  0  0  0  # atno 7974 bound_to 7965
  155.3797  140.0493  157.3044 H   0  0  0  0  0  0  0  0  0  0  0  0  # atno 8008 bound_to 7997
  154.5089  140.2184  155.9158 H   0  0  0  0  0  0  0  0  0  0  0  0  # atno 8009 bound_to 7997
  156.1559  140.3126  155.8730 H   0  0  0  0  0  0  0  0  0  0  0  0  # atno 8010 bound_to 7997
  140.5588  143.9376  150.6628 H   0  0  0  0  0  0  0  0  0  0  0  0  # atno 10167 bound_to 10162
  156.1120  130.4174  150.0606 H   0  0  0  0  0  0  0  0  0  0  0  0  # atno 10718 bound_to 10713
  153.3846  135.6999  153.6540 H   0  0  0  0  0  0  0  0  0  0  0  0  # atno 10763 bound_to 10752
  153.5137  135.3626  155.2599 H   0  0  0  0  0  0  0  0  0  0  0  0  # atno 10764 bound_to 10752
  154.8696  135.4141  154.3150 H   0  0  0  0  0  0  0  0  0  0  0  0  # atno 10765 bound_to 10752
  139.8951  134.8339  156.2688 H   0  0  0  0  0  0  0  0  0  0  0  0  # atno 11005 bound_to 11000
  146.3132  139.7823  142.9003 LP  0  0  0  0  0  0  0  0  0  0  0  0  # atno 17320 bound_to 7965
  145.3540  141.0313  143.3323 LP  0  0  0  0  0  0  0  0  0  0  0  0  # atno 17321 bound_to 7965
  140.2821  143.3382  152.1141 LP  0  0  0  0  0  0  0  0  0  0  0  0  # atno 17342 bound_to 10162
  139.5060  144.6806  151.6019 LP  0  0  0  0  0  0  0  0  0  0  0  0  # atno 17343 bound_to 10162
  156.8567  130.9477  151.3621 LP  0  0  0  0  0  0  0  0  0  0  0  0  # atno 17370 bound_to 10713
  157.6301  130.8723  149.9259 LP  0  0  0  0  0  0  0  0  0  0  0  0  # atno 17371 bound_to 10713
  141.0114  133.7093  156.1118 LP  0  0  0  0  0  0  0  0  0  0  0  0  # atno 17394 bound_to 11000
  140.7362  134.4200  157.5560 LP  0  0  0  0  0  0  0  0  0  0  0  0  # atno 17395 bound_to 11000

$$$$
