AV-unprocessed.smi:2079|AV-procd|sdf|8481|dock6
  -GOLD-   2272011183D 1   1.00000     0.00000
 Structure written by MMmdl.
 41 42  0  0  0  0  0  0  0  0  3 V2000
  149.2678  140.7583  155.1551 C   0  0  0  0  0  0  0  0  0  0  0  0
  150.1704  139.5736  155.0995 C   0  0  0  0  0  0  0  0  0  0  0  0
  149.9440  138.2290  155.1836 C   0  0  0  0  0  0  0  0  0  0  0  0
  151.2452  137.6720  155.0514 C   0  0  0  0  0  0  0  0  0  0  0  0
  151.5515  136.3661  155.0848 N   0  5  0  0  0  0  0  0  0  0  0  0
  150.6322  135.4613  155.4903 C   0  0  0  0  0  0  0  0  0  0  0  0
  150.6533  134.8144  156.5401 O   0  0  0  0  0  0  0  0  0  0  0  0
  149.6260  135.2909  154.6212 N   0  0  0  0  0  0  0  0  0  0  0  0
  148.5013  134.3793  154.7894 C   0  0  0  0  0  0  0  0  0  0  0  0
  148.3414  133.4569  153.5658 C   0  0  0  0  0  0  0  0  0  0  0  0
  147.3235  133.9391  152.5940 N   0  3  2  0  0  0  0  0  0  0  0  0
  146.2060  134.6545  153.2675 C   0  0  0  0  0  0  0  0  0  0  0  0
  145.2814  135.3382  152.2476 C   0  0  0  0  0  0  0  0  0  0  0  0
  144.7474  134.3309  151.2236 C   0  0  0  0  0  0  0  0  0  0  0  0
  145.9181  133.5947  150.5579 C   0  0  0  0  0  0  0  0  0  0  0  0
  146.8537  132.9312  151.5910 C   0  0  2  0  0  0  0  0  0  0  0  0
  146.2223  131.6733  152.2256 C   0  0  0  0  0  0  0  0  0  0  0  0
  152.1799  138.5971  154.9143 N   0  0  0  0  0  0  0  0  0  0  0  0
  151.4982  139.8196  154.9386 O   0  0  0  0  0  0  0  0  0  0  0  0
  149.0007  140.9900  156.1861 H   0  0  0  0  0  0  0  0  0  0  0  0
  148.3486  140.5696  154.6005 H   0  0  0  0  0  0  0  0  0  0  0  0
  149.7474  141.6373  154.7238 H   0  0  0  0  0  0  0  0  0  0  0  0
  148.9995  137.7235  155.3161 H   0  0  0  0  0  0  0  0  0  0  0  0
  149.6459  135.8442  153.7766 H   0  0  0  0  0  0  0  0  0  0  0  0
  148.6235  133.7949  155.7028 H   0  0  0  0  0  0  0  0  0  0  0  0
  147.6165  134.9991  154.9276 H   0  0  0  0  0  0  0  0  0  0  0  0
  149.3005  133.3038  153.0708 H   0  0  0  0  0  0  0  0  0  0  0  0
  148.0290  132.4729  153.9181 H   0  0  0  0  0  0  0  0  0  0  0  0
  145.6402  133.9624  153.8921 H   0  0  0  0  0  0  0  0  0  0  0  0
  146.6097  135.4144  153.9376 H   0  0  0  0  0  0  0  0  0  0  0  0
  144.4505  135.8217  152.7625 H   0  0  0  0  0  0  0  0  0  0  0  0
  145.8276  136.1292  151.7320 H   0  0  0  0  0  0  0  0  0  0  0  0
  144.0829  133.6181  151.7130 H   0  0  0  0  0  0  0  0  0  0  0  0
  144.1495  134.8440  150.4699 H   0  0  0  0  0  0  0  0  0  0  0  0
  145.5409  132.8512  149.8550 H   0  0  0  0  0  0  0  0  0  0  0  0
  146.4908  134.3072  149.9627 H   0  0  0  0  0  0  0  0  0  0  0  0
  147.7219  132.5969  151.0242 H   0  0  0  0  0  0  0  0  0  0  0  0
  145.8801  130.9843  151.4529 H   0  0  0  0  0  0  0  0  0  0  0  0
  145.3620  131.9105  152.8508 H   0  0  0  0  0  0  0  0  0  0  0  0
  146.9383  131.1251  152.8373 H   0  0  0  0  0  0  0  0  0  0  0  0
  147.7976  134.6487  152.0536 H   0  0  0  0  0  0  0  0  0  0  0  0
  1  2  1  0  0  0  0
  1 20  1  0  0  0  0
  1 21  1  0  0  0  0
  1 22  1  0  0  0  0
  2 19  1  0  0  0  0
  2  3  2  0  0  0  0
  3  4  1  0  0  0  0
  3 23  1  0  0  0  0
  4  5  1  0  0  0  0
  4 18  2  0  0  0  0
  5  6  1  0  0  0  0
  6  7  2  0  0  0  0
  6  8  1  0  0  0  0
  8  9  1  0  0  0  0
  8 24  1  0  0  0  0
  9 10  1  0  0  0  0
  9 25  1  0  0  0  0
  9 26  1  0  0  0  0
 10 11  1  0  0  0  0
 10 27  1  0  0  0  0
 10 28  1  0  0  0  0
 11 16  1  0  0  0  0
 11 12  1  0  0  0  0
 11 41  1  0  0  0  0
 12 13  1  0  0  0  0
 12 29  1  0  0  0  0
 12 30  1  0  0  0  0
 13 14  1  0  0  0  0
 13 31  1  0  0  0  0
 13 32  1  0  0  0  0
 14 15  1  0  0  0  0
 14 33  1  0  0  0  0
 14 34  1  0  0  0  0
 15 16  1  0  0  0  0
 15 35  1  0  0  0  0
 15 36  1  0  0  0  0
 16 17  1  0  0  0  0
 16 37  1  0  0  0  0
 17 38  1  0  0  0  0
 17 39  1  0  0  0  0
 17 40  1  0  0  0  0
 18 19  1  0  0  0  0
M  CHG  1   5  -1
M  CHG  1  11   1
M  END
> <s_m_source_file>
AV-unprocessed.smi

> <i_m_source_file_index>
2079

> <i_lp_mmshare_version>
43012

> <i_f3d_flags>
0

> <s_epik_input>
W0NIM11jMVtjSF1jKG5vMSlbTkhdQyg9TylbTkhdW0NIMl1bQ0gyXU4yW0NIMl1bQ0gyXVtDSDJdW0NIMl1bQ0BIXTJbQ0gzXQ==

> <s_epik_cmdline>
J2VwaWtfcHl0aG9uJywgJy1waCcsICc3LjAnLCAnLXRuJywgJzgnLCAnLW1hJywgJzIwMCcsICctbWV0YWxfYmluZGluZycsICctaW1hZScsICc8aW5maWxlLm1hZT4nLCAnLW9tYWUnLCAnPG91dGZpbGUubWFlPic=

> <r_epik_Ionization_Penalty>
6.22371

> <r_epik_Ionization_Penalty_Charging>
6.22362

> <r_epik_Ionization_Penalty_Neutral>
9.40454e-05

> <r_epik_State_Penalty>
6.22363

> <r_epik_Charging_Adjusted_Penalty>
12.4472

> <i_epik_Tot_Q>
0

> <i_epik_Tot_abs_Q>
2

> <r_epik_Metal_State_Penalty>
2.16675

> <b_epik_Metal_Only>
1

> <s_lp_Force_Field>
OPLS_2005

> <r_lp_Energy>
7.26358

> <b_lp_Chiralities_Consistent>
1

> <s_lp_Variant>
AV-unprocessed.smi:2079-7

> <Gold.Version>
5.8.1

> <Gold.Id.Protein>
6NUR|6NUR_protein|mol2

> <Gold.PLP.Fitness>
47.5595

> <Gold.PLP.PLP>
-31.8675

> <Gold.PLP.part.hbond>
-4.0000

> <Gold.PLP.part.metal>
0.0000

> <Gold.PLP.part.buried>
-4.3285

> <Gold.PLP.part.nonpolar>
-24.2697

> <Gold.PLP.part.repulsive>
0.2853

> <Gold.PLP.ligand.clash>
0.0000

> <Gold.PLP.ligand.torsion>
1.2038

> <Gold.PLP.Chemscore.Hbond>
6.0000

> <Gold.PLP.Chemscore.CHOScore>
0.0000

> <Gold.PLP.Chemscore.Metal>
0.0000

> <Gold.Chemscore.Hbonds>
donor molecule, donor type, donor heavy atom, donor atom, acceptor molecule, acceptor atom, score
      L1  H     8    24       P1  7948  0.99
      L1  H    11    41       P1  7948  2.00
      P1  H  7989  7998       L1    19  1.00
      P1  H 10752 10765       L1     5  2.00

> <Gold.PLP.Chemscore.Internal.Correction>
0.0996

> <Gold.Rescore>
     Score         DG    S(hbond)    S(metal)    S(lipo)     H(rot)  DE(clash)    DE(int)     intcor
     16.79     -18.90       3.17        0.00      57.75       1.54       0.05       2.05       ----

> <Gold.Chemscore.Fitness>
16.7940

> <Gold.Chemscore.DG>
-18.8955

> <Gold.Chemscore.ZeroCoef>
-5.4800

> <Gold.Chemscore.Hbond>
3.1746

> <Gold.Chemscore.Metal>
0.0000

> <Gold.Chemscore.Lipo>
57.7507

> <Gold.Chemscore.Internal_Hbond>
0.0000

> <Gold.Chemscore.DEClash>
0.0516

> <Gold.Chemscore.DEInternal>
2.0499

> <Gold.Chemscore.Rot>
1.5409

> <Gold.Chemscore.Internal.Correction>
   9.000000E+99

> <Gold.Chemscore.Hbonds>
donor molecule, donor type, donor heavy atom, donor atom, acceptor molecule, acceptor atom, score
      L1  H     8    24       P1  7948  0.23
      L1  H    11    41       P1  7948  0.44
      P1  H  7989  7998       L1    19  0.57
      P1  H 10752 10765       L1     5  0.70

> <Gold.Chemscore.Hbond.Weighted>
-10.6032

> <Gold.Chemscore.Metal.Weighted>
-0.0000

> <Gold.Chemscore.Lipo.Weighted>
-6.7568

> <Gold.Chemscore.Internal_Hbond.Weighted>
0.0000

> <Gold.Chemscore.DEClash.Weighted>
0.0516

> <Gold.Chemscore.DEInternal.Weighted>
2.0499

> <Gold.Chemscore.Rot.Weighted>
3.9446

> <Gold.Chemscore.Internal.Correction.Weighted>
   9.000000E+99

> <Gold.Protein.RotatedTorsions>
[ 6907 6896 6895 6894 ] final  -29.24 input  -60.11 | X-H torsion
[ 7974 7965 7964 7962 ] final  -82.54 input  175.53 | X-H torsion
[ 8008 7997 7996 7995 ] final  -78.88 input   59.86 | X-H torsion
[ 10167 10162 10161 10158 ] final  109.12 input  -65.29 | X-H torsion
[ 10718 10713 10712 10709 ] final  -91.39 input   66.30 | X-H torsion
[ 10763 10752 10751 10750 ] final -174.69 input  -60.55 | X-H torsion
[ 11005 11000 10999 10996 ] final   38.15 input  -57.11 | X-H torsion

> <Gold.Protein.ActiveResidues>
 VAL166  LYS551  ARG553  GLY616  TRP617  ASP618  TYR619  PRO620  LYS621  CYS622 
 ASP623  PHE694  ASN695  SER759  ASP760  ASP761  ALA762  ILE779  LEU786  VAL792 
 PHE793  MET794  SER795  GLU796  ALA797  LYS798  CYS799  TRP800  GLU811  SER814 

> <Gold.Protein.RotatedAtoms>
  151.1219  135.0084  159.8542 H   0  0  0  0  0  0  0  0  0  0  0  0  # atno 6907 bound_to 6896
  152.5448  134.1712  159.8607 H   0  0  0  0  0  0  0  0  0  0  0  0  # atno 6908 bound_to 6896
  151.1771  133.4703  159.2627 H   0  0  0  0  0  0  0  0  0  0  0  0  # atno 6909 bound_to 6896
  145.5319  140.9520  143.1598 H   0  0  0  0  0  0  0  0  0  0  0  0  # atno 7974 bound_to 7965
  154.5731  140.0687  156.8994 H   0  0  0  0  0  0  0  0  0  0  0  0  # atno 8008 bound_to 7997
  155.2598  140.3357  155.4256 H   0  0  0  0  0  0  0  0  0  0  0  0  # atno 8009 bound_to 7997
  156.2133  140.1768  156.7630 H   0  0  0  0  0  0  0  0  0  0  0  0  # atno 8010 bound_to 7997
  139.6792  144.7119  151.1547 H   0  0  0  0  0  0  0  0  0  0  0  0  # atno 10167 bound_to 10162
  155.9993  130.4946  150.5467 H   0  0  0  0  0  0  0  0  0  0  0  0  # atno 10718 bound_to 10713
  154.5933  135.2847  155.0613 H   0  0  0  0  0  0  0  0  0  0  0  0  # atno 10763 bound_to 10752
  154.1905  135.6441  153.5062 H   0  0  0  0  0  0  0  0  0  0  0  0  # atno 10764 bound_to 10752
  153.0129  135.5445  154.6626 H   0  0  0  0  0  0  0  0  0  0  0  0  # atno 10765 bound_to 10752
  140.2155  134.3704  155.8029 H   0  0  0  0  0  0  0  0  0  0  0  0  # atno 11005 bound_to 11000
  144.7621  139.6931  143.7230 LP  0  0  0  0  0  0  0  0  0  0  0  0  # atno 17320 bound_to 7965
  146.2038  139.5350  142.9726 LP  0  0  0  0  0  0  0  0  0  0  0  0  # atno 17321 bound_to 7965
  140.7646  143.5725  150.8980 LP  0  0  0  0  0  0  0  0  0  0  0  0  # atno 17342 bound_to 10162
  139.9396  143.6397  152.3057 LP  0  0  0  0  0  0  0  0  0  0  0  0  # atno 17343 bound_to 10162
  157.3396  131.0714  151.1798 LP  0  0  0  0  0  0  0  0  0  0  0  0  # atno 17370 bound_to 10713
  157.2651  130.6678  149.5993 LP  0  0  0  0  0  0  0  0  0  0  0  0  # atno 17371 bound_to 10713
  141.2225  133.7165  156.8489 LP  0  0  0  0  0  0  0  0  0  0  0  0  # atno 17394 bound_to 11000
  140.1905  134.8969  157.3055 LP  0  0  0  0  0  0  0  0  0  0  0  0  # atno 17395 bound_to 11000

$$$$
