#       Name:                AV-unprocessed.smi:2061
#       Creating user name   scv26
#       Creation time:       Fri Mar 27 11:05:10 2020


#       File generated by GOLD software.
#

@<TRIPOS>MOLECULE
AV-unprocessed.smi:2061
    53    54     1
SMALL
NO_CHARGES


@<TRIPOS>ATOM
      1 ****        -4.3850   5.9480   3.5016 C.3            1 S1                 0.0000
      2 ****        -4.1641   4.9677   2.4009 C.2            1 S1                 0.0000
      3 ****        -3.0350   4.4423   1.8399 C.2            1 S1                 0.0000
      4 ****        -3.5453   3.5659   0.8434 C.2            1 S1                 0.0000
      5 ****        -2.8155   2.8182   0.0013 N.pl3          1 S1                -1.0000
      6 ****        -2.3351   1.6169   0.3977 C.2            1 S1                 0.0000
      7 ****        -2.4936   1.0968   1.5043 O.2            1 S1                 0.0000
      8 ****        -1.6199   0.9875  -0.5466 N.am           1 S1                 0.0000
      9 ****        -0.9691  -0.3161  -0.4244 C.3            1 S1                 0.0000
     10 ****         0.5834  -0.2257  -0.4602 C.3            1 S1                 0.0000
     11 ****         1.0630   0.7169   0.6733 C.3            1 S1                 0.0000
     12 ****         1.2482  -1.5507  -0.4217 N.3            1 S1                 0.0000
     13 ****         2.7105  -1.4486  -0.4826 C.3            1 S1                 0.0000
     14 ****         3.4109  -2.8206  -0.4629 C.3            1 S1                 0.0000
     15 ****         4.9317  -2.6968  -0.6051 C.3            1 S1                 0.0000
     16 ****         2.9262  -3.6073  -1.5435 O.3            1 S1                 0.0000
     17 ****         1.5193  -3.8052  -1.4877 C.3            1 S1                 0.0000
     18 ****         1.1108  -4.6834  -2.6752 C.3            1 S1                 0.0000
     19 ****         0.8128  -2.4361  -1.5073 C.3            1 S1                 0.0000
     20 ****        -4.8669   3.5724   0.7926 N.2            1 S1                 0.0000
     21 ****        -5.2718   4.4645   1.7926 O.3            1 S1                 0.0000
     22 ****        -4.0959   6.9509   3.1873 H              1 S1                 0.0000
     23 ****        -3.7927   5.6838   4.3777 H              1 S1                 0.0000
     24 ****        -5.4335   5.9755   3.7992 H              1 S1                 0.0000
     25 ****        -2.0078   4.6474   2.1016 H              1 S1                 0.0000
     26 ****        -1.5195   1.4590  -1.4333 H              1 S1                 0.0000
     27 ****        -1.2932  -0.8488   0.4709 H              1 S1                 0.0000
     28 ****        -1.3503  -0.8835  -1.2710 H              1 S1                 0.0000
     29 ****         0.8495   0.2546  -1.4033 H              1 S1                 0.0000
     30 ****         0.5547   1.6798   0.6550 H              1 S1                 0.0000
     31 ****         2.1211   0.9607   0.5937 H              1 S1                 0.0000
     32 ****         0.8894   0.2734   1.6542 H              1 S1                 0.0000
     33 ****         3.0041  -0.9014  -1.3800 H              1 S1                 0.0000
     34 ****         3.0898  -0.8868   0.3688 H              1 S1                 0.0000
     35 ****         3.1888  -3.3307   0.4761 H              1 S1                 0.0000
     36 ****         5.3555  -2.1086   0.2092 H              1 S1                 0.0000
     37 ****         5.2018  -2.2130  -1.5443 H              1 S1                 0.0000
     38 ****         5.4059  -3.6784  -0.5875 H              1 S1                 0.0000
     39 ****         1.2713  -4.3304  -0.5636 H              1 S1                 0.0000
     40 ****         0.0380  -4.8777  -2.6687 H              1 S1                 0.0000
     41 ****         1.6232  -5.6452  -2.6433 H              1 S1                 0.0000
     42 ****         1.3586  -4.2048  -3.6231 H              1 S1                 0.0000
     43 ****        -0.2547  -2.6339  -1.4349 H              1 S1                 0.0000
     44 ****         0.9823  -1.9493  -2.4692 H              1 S1                 0.0000
     45 ****        -2.6260   3.1501  -0.9228 LP             1 S1                 0.0000
     46 ****        -3.0211   1.5715   2.2089 LP             1 S1                 0.0000
     47 ****        -2.0948   0.2003   1.6971 LP             1 S1                 0.0000
     48 ****         0.9744  -1.9419   0.4569 LP             1 S1                 0.0000
     49 ****         3.3764  -4.4998  -1.5172 LP             1 S1                 0.0000
     50 ****         3.1509  -3.1458  -2.4017 LP             1 S1                 0.0000
     51 ****        -5.4524   3.0510   0.1718 LP             1 S1                 0.0000
     52 ****        -5.8002   5.2095   1.3854 LP             1 S1                 0.0000
     53 ****        -5.8359   3.9841   2.4641 LP             1 S1                 0.0000
@<TRIPOS>BOND
    1    1    2 1     
    2    1   22 1     
    3    1   23 1     
    4    1   24 1     
    5    2   21 1     
    6    2    3 2     
    7    3    4 1     
    8    3   25 1     
    9    4    5 1     
   10    4   20 2     
   11    5    6 1     
   12    6    7 2     
   13    6    8 am    
   14    8    9 1     
   15    8   26 1     
   16    9   10 1     
   17    9   27 1     
   18    9   28 1     
   19   10   11 1     
   20   10   12 1     
   21   10   29 1     
   22   11   30 1     
   23   11   31 1     
   24   11   32 1     
   25   12   19 1     
   26   12   13 1     
   27   13   14 1     
   28   13   33 1     
   29   13   34 1     
   30   14   15 1     
   31   14   16 1     
   32   14   35 1     
   33   15   36 1     
   34   15   37 1     
   35   15   38 1     
   36   16   17 1     
   37   17   18 1     
   38   17   19 1     
   39   17   39 1     
   40   18   40 1     
   41   18   41 1     
   42   18   42 1     
   43   19   43 1     
   44   19   44 1     
   45   20   21 1     
   46    5   45 1     
   47    7   46 1     
   48    7   47 1     
   49   12   48 1     
   50   16   49 1     
   51   16   50 1     
   52   20   51 1     
   53   21   52 1     
   54   21   53 1     
@<TRIPOS>SUBSTRUCTURE
      1 S1             1
@<TRIPOS>SET
LONE_PAIRS      STATIC     ATOMS    <user>   **** ""
9 45 46 47 48 49 50 51 52 53
DONOR_HYDROGENS      STATIC     ATOMS    <user>   **** ""
1 26
ATOM$BLUE        STATIC     ATOMS    COLORGROUP SYSTEM
9 45 46 47 48 49 50 51 52 53
ATOM$RED        STATIC     ATOMS    COLORGROUP SYSTEM
1 26
