AV-unprocessed.smi:1346|AV-procd|sdf|5514|dock4
  -GOLD-   22720 5 93D 1   1.00000     0.00000
 Structure written by MMmdl.
 47 48  0  0  0  0  0  0  0  0  1 V2000
  148.9627  139.3742  154.3599 C   0  0  0  0  0  0  0  0  0  0  0  0
  150.4161  139.3512  154.7379 C   0  0  0  0  0  0  0  0  0  0  0  0
  151.0728  140.4904  154.8783 N   0  0  0  0  0  0  0  0  0  0  0  0
  152.3806  140.1383  155.2251 O   0  0  0  0  0  0  0  0  0  0  0  0
  152.4611  138.7846  155.2801 C   0  0  0  0  0  0  0  0  0  0  0  0
  153.7902  138.2100  155.6368 C   0  0  0  0  0  0  0  0  0  0  0  0
  151.2504  138.2222  154.9798 C   0  0  0  0  0  0  0  0  0  0  0  0
  150.8764  136.7639  154.9151 C   0  0  0  0  0  0  0  0  0  0  0  0
  150.8261  136.1811  156.3273 C   0  0  0  0  0  0  0  0  0  0  0  0
  151.7325  135.4491  156.7240 O   0  0  0  0  0  0  0  0  0  0  0  0
  149.7632  136.5144  157.0750 N   0  0  0  0  0  0  0  0  0  0  0  0
  149.5273  136.0778  158.4466 C   0  0  0  0  0  0  0  0  0  0  0  0
  148.1434  136.5105  158.9505 C   0  0  0  0  0  0  0  0  0  0  0  0
  147.8342  135.7892  160.1335 O   0  0  0  0  0  0  0  0  0  0  0  0
  147.2612  136.5798  161.1693 C   0  0  2  0  0  0  0  0  0  0  0  0
  147.7583  136.0261  162.5178 C   0  0  0  0  0  0  0  0  0  0  0  0
  147.2158  134.6142  162.7974 C   0  0  0  0  0  0  0  0  0  0  0  0
  145.6828  134.5773  162.7094 C   0  0  0  0  0  0  0  0  0  0  0  0
  145.1900  135.1083  161.3539 C   0  0  0  0  0  0  0  0  0  0  0  0
  145.7174  136.5307  161.0798 C   0  0  2  0  0  0  0  0  0  0  0  0
  145.1828  137.0892  159.7522 C   0  0  0  0  0  0  0  0  0  0  0  0
  148.3889  138.6789  154.9723 H   0  0  0  0  0  0  0  0  0  0  0  0
  148.8281  139.0872  153.3169 H   0  0  0  0  0  0  0  0  0  0  0  0
  148.5260  140.3649  154.4912 H   0  0  0  0  0  0  0  0  0  0  0  0
  153.6799  137.2352  156.1113 H   0  0  0  0  0  0  0  0  0  0  0  0
  154.3226  138.8614  156.3300 H   0  0  0  0  0  0  0  0  0  0  0  0
  154.4073  138.0854  154.7470 H   0  0  0  0  0  0  0  0  0  0  0  0
  149.9018  136.6243  154.4462 H   0  0  0  0  0  0  0  0  0  0  0  0
  151.5845  136.1979  154.3082 H   0  0  0  0  0  0  0  0  0  0  0  0
  149.0710  137.1269  156.6683 H   0  0  0  0  0  0  0  0  0  0  0  0
  149.6130  134.9916  158.4829 H   0  0  0  0  0  0  0  0  0  0  0  0
  150.3067  136.4733  159.1000 H   0  0  0  0  0  0  0  0  0  0  0  0
  148.1451  137.5794  159.1681 H   0  0  0  0  0  0  0  0  0  0  0  0
  147.3882  136.3382  158.1824 H   0  0  0  0  0  0  0  0  0  0  0  0
  147.5904  137.6184  161.0931 H   0  0  0  0  0  0  0  0  0  0  0  0
  148.8486  136.0169  162.5377 H   0  0  0  0  0  0  0  0  0  0  0  0
  147.4438  136.6956  163.3193 H   0  0  0  0  0  0  0  0  0  0  0  0
  147.6397  133.9089  162.0813 H   0  0  0  0  0  0  0  0  0  0  0  0
  147.5389  134.2817  163.7843 H   0  0  0  0  0  0  0  0  0  0  0  0
  145.3261  133.5585  162.8623 H   0  0  0  0  0  0  0  0  0  0  0  0
  145.2559  135.1780  163.5135 H   0  0  0  0  0  0  0  0  0  0  0  0
  145.5104  134.4339  160.5584 H   0  0  0  0  0  0  0  0  0  0  0  0
  144.0996  135.1053  161.3380 H   0  0  0  0  0  0  0  0  0  0  0  0
  145.3299  137.1771  161.8686 H   0  0  0  0  0  0  0  0  0  0  0  0
  145.4863  136.4701  158.9082 H   0  0  0  0  0  0  0  0  0  0  0  0
  145.5493  138.1005  159.5743 H   0  0  0  0  0  0  0  0  0  0  0  0
  144.0934  137.1298  159.7550 H   0  0  0  0  0  0  0  0  0  0  0  0
  1  2  1  0  0  0  0
  1 22  1  0  0  0  0
  1 23  1  0  0  0  0
  1 24  1  0  0  0  0
  2  7  1  0  0  0  0
  2  3  2  0  0  0  0
  3  4  1  0  0  0  0
  4  5  1  0  0  0  0
  5  6  1  0  0  0  0
  5  7  2  0  0  0  0
  6 25  1  0  0  0  0
  6 26  1  0  0  0  0
  6 27  1  0  0  0  0
  7  8  1  0  0  0  0
  8  9  1  0  0  0  0
  8 28  1  0  0  0  0
  8 29  1  0  0  0  0
  9 10  2  0  0  0  0
  9 11  1  0  0  0  0
 11 12  1  0  0  0  0
 11 30  1  0  0  0  0
 12 13  1  0  0  0  0
 12 31  1  0  0  0  0
 12 32  1  0  0  0  0
 13 14  1  0  0  0  0
 13 33  1  0  0  0  0
 13 34  1  0  0  0  0
 14 15  1  0  0  0  0
 15 20  1  0  0  0  0
 15 16  1  0  0  0  0
 15 35  1  0  0  0  0
 16 17  1  0  0  0  0
 16 36  1  0  0  0  0
 16 37  1  0  0  0  0
 17 18  1  0  0  0  0
 17 38  1  0  0  0  0
 17 39  1  0  0  0  0
 18 19  1  0  0  0  0
 18 40  1  0  0  0  0
 18 41  1  0  0  0  0
 19 20  1  0  0  0  0
 19 42  1  0  0  0  0
 19 43  1  0  0  0  0
 20 21  1  0  0  0  0
 20 44  1  0  0  0  0
 21 45  1  0  0  0  0
 21 46  1  0  0  0  0
 21 47  1  0  0  0  0
M  END
> <s_m_source_file>
AV-unprocessed.smi

> <i_m_source_file_index>
1346

> <i_lp_mmshare_version>
43012

> <i_f3d_flags>
0

> <s_epik_input>
W0NIM11jMW5vYyhbQ0gzXSljMVtDSDJdQyg9TylbTkhdW0NIMl1bQ0gyXU9bQ0BASF0yW0NIMl1bQ0gyXVtDSDJdW0NIMl1bQ0BIXTJbQ0gzXQ==

> <s_epik_cmdline>
J2VwaWtfcHl0aG9uJywgJy1waCcsICc3LjAnLCAnLXRuJywgJzgnLCAnLW1hJywgJzIwMCcsICctbWV0YWxfYmluZGluZycsICctaW1hZScsICc8aW5maWxlLm1hZT4nLCAnLW9tYWUnLCAnPG91dGZpbGUubWFlPic=

> <r_lp_tautomer_probability>
1

> <r_epik_Ionization_Penalty>
3.26154e-08

> <r_epik_Ionization_Penalty_Charging>
0

> <r_epik_Ionization_Penalty_Neutral>
3.26154e-08

> <r_epik_State_Penalty>
-0

> <r_epik_Charging_Adjusted_Penalty>
0

> <i_epik_Tot_Q>
0

> <i_epik_Tot_abs_Q>
0

> <r_epik_Metal_State_Penalty>
-0

> <b_epik_Metal_Only>
0

> <s_lp_Force_Field>
OPLS_2005

> <r_lp_Energy>
6.35262

> <b_lp_Chiralities_Consistent>
1

> <s_lp_Variant>
AV-unprocessed.smi:1346-3

> <Gold.Version>
5.8.1

> <Gold.Id.Protein>
6NUR|6NUR_protein|mol2

> <Gold.PLP.Fitness>
37.7965

> <Gold.PLP.PLP>
-32.0152

> <Gold.PLP.part.hbond>
-3.4285

> <Gold.PLP.part.metal>
0.0000

> <Gold.PLP.part.buried>
2.2027

> <Gold.PLP.part.nonpolar>
-31.3055

> <Gold.PLP.part.repulsive>
0.1150

> <Gold.PLP.ligand.clash>
0.0000

> <Gold.PLP.ligand.torsion>
1.1459

> <Gold.PLP.Chemscore.Hbond>
2.6575

> <Gold.PLP.Chemscore.CHOScore>
0.0000

> <Gold.PLP.Chemscore.Metal>
0.0000

> <Gold.Chemscore.Hbonds>
donor molecule, donor type, donor heavy atom, donor atom, acceptor molecule, acceptor atom, score
      P1  H  7989  7998       L1     3  0.35
      P1  H  7997  8009       L1     4  0.19
      P1  H 10752 10765       L1    10  0.63

> <Gold.PLP.Chemscore.Internal.Correction>
0.1006

> <Gold.Rescore>
     Score         DG    S(hbond)    S(metal)    S(lipo)     H(rot)  DE(clash)    DE(int)     intcor
     14.13     -15.68       0.91        0.00      99.17       1.74       0.57       0.99       ----

> <Gold.Chemscore.Fitness>
14.1255

> <Gold.Chemscore.DG>
-15.6802

> <Gold.Chemscore.ZeroCoef>
-5.4800

> <Gold.Chemscore.Hbond>
0.9100

> <Gold.Chemscore.Metal>
0.0000

> <Gold.Chemscore.Lipo>
99.1694

> <Gold.Chemscore.Internal_Hbond>
0.0000

> <Gold.Chemscore.DEClash>
0.5691

> <Gold.Chemscore.DEInternal>
0.9856

> <Gold.Chemscore.Rot>
1.7352

> <Gold.Chemscore.Internal.Correction>
   9.000000E+99

> <Gold.Chemscore.Hbonds>
donor molecule, donor type, donor heavy atom, donor atom, acceptor molecule, acceptor atom, score
      P1  H  7997  8009       L1     4  0.01
      P1  H 10752 10765       L1    10  0.29

> <Gold.Chemscore.Hbond.Weighted>
-3.0394

> <Gold.Chemscore.Metal.Weighted>
-0.0000

> <Gold.Chemscore.Lipo.Weighted>
-11.6028

> <Gold.Chemscore.Internal_Hbond.Weighted>
0.0000

> <Gold.Chemscore.DEClash.Weighted>
0.5691

> <Gold.Chemscore.DEInternal.Weighted>
0.9856

> <Gold.Chemscore.Rot.Weighted>
4.4420

> <Gold.Chemscore.Internal.Correction.Weighted>
   9.000000E+99

> <Gold.Protein.RotatedTorsions>
[ 6907 6896 6895 6894 ] final  147.61 input  -60.11 | X-H torsion
[ 7974 7965 7964 7962 ] final  131.04 input  175.53 | X-H torsion
[ 8008 7997 7996 7995 ] final -121.73 input   59.86 | X-H torsion
[ 10167 10162 10161 10158 ] final   60.87 input  -65.29 | X-H torsion
[ 10718 10713 10712 10709 ] final   66.33 input   66.30 | X-H torsion
[ 10763 10752 10751 10750 ] final -147.52 input  -60.55 | X-H torsion
[ 11005 11000 10999 10996 ] final  162.06 input  -57.11 | X-H torsion

> <Gold.Protein.ActiveResidues>
 VAL166  LYS551  ARG553  GLY616  TRP617  ASP618  TYR619  PRO620  LYS621  CYS622 
 ASP623  PHE694  ASN695  SER759  ASP760  ASP761  ALA762  ILE779  LEU786  VAL792 
 PHE793  MET794  SER795  GLU796  ALA797  LYS798  CYS799  TRP800  GLU811  SER814 

> <Gold.Protein.RotatedAtoms>
  152.1525  133.4530  159.4820 H   0  0  0  0  0  0  0  0  0  0  0  0  # atno 6907 bound_to 6896
  150.6897  134.2172  159.4391 H   0  0  0  0  0  0  0  0  0  0  0  0  # atno 6908 bound_to 6896
  152.0069  134.9897  160.0617 H   0  0  0  0  0  0  0  0  0  0  0  0  # atno 6909 bound_to 6896
  145.0115  139.4216  143.5242 H   0  0  0  0  0  0  0  0  0  0  0  0  # atno 7974 bound_to 7965
  155.1528  140.0404  157.2825 H   0  0  0  0  0  0  0  0  0  0  0  0  # atno 8008 bound_to 7997
  154.6392  140.2543  155.7315 H   0  0  0  0  0  0  0  0  0  0  0  0  # atno 8009 bound_to 7997
  156.2524  140.2859  156.0778 H   0  0  0  0  0  0  0  0  0  0  0  0  # atno 8010 bound_to 7997
  140.1609  144.4371  150.6710 H   0  0  0  0  0  0  0  0  0  0  0  0  # atno 10167 bound_to 10162
  157.6162  130.9262  150.0094 H   0  0  0  0  0  0  0  0  0  0  0  0  # atno 10718 bound_to 10713
  154.8281  135.3358  154.6830 H   0  0  0  0  0  0  0  0  0  0  0  0  # atno 10763 bound_to 10752
  153.7454  135.6943  153.4962 H   0  0  0  0  0  0  0  0  0  0  0  0  # atno 10764 bound_to 10752
  153.2214  135.4447  155.0444 H   0  0  0  0  0  0  0  0  0  0  0  0  # atno 10765 bound_to 10752
  140.2220  134.8189  157.3230 H   0  0  0  0  0  0  0  0  0  0  0  0  # atno 11005 bound_to 11000
  146.3470  139.9561  142.8723 LP  0  0  0  0  0  0  0  0  0  0  0  0  # atno 17320 bound_to 7965
  145.2017  140.9857  143.4152 LP  0  0  0  0  0  0  0  0  0  0  0  0  # atno 17321 bound_to 7965
  140.6643  143.2262  151.5779 LP  0  0  0  0  0  0  0  0  0  0  0  0  # atno 17342 bound_to 10162
  139.5382  144.2722  152.1295 LP  0  0  0  0  0  0  0  0  0  0  0  0  # atno 17343 bound_to 10162
  156.1285  130.3644  149.9770 LP  0  0  0  0  0  0  0  0  0  0  0  0  # atno 17370 bound_to 10713
  156.7835  130.9230  151.3646 LP  0  0  0  0  0  0  0  0  0  0  0  0  # atno 17371 bound_to 10713
  140.1840  134.4454  155.7755 LP  0  0  0  0  0  0  0  0  0  0  0  0  # atno 17394 bound_to 11000
  141.2222  133.6996  156.7916 LP  0  0  0  0  0  0  0  0  0  0  0  0  # atno 17395 bound_to 11000

$$$$
