#       Name:                AV-unprocessed.smi:1570
#       Creating user name   scv26
#       Creation time:       Fri Mar 27 06:52:58 2020


#       File generated by GOLD software.
#

@<TRIPOS>MOLECULE
AV-unprocessed.smi:1570
    58    60     1
SMALL
NO_CHARGES


@<TRIPOS>ATOM
      1 ****        -1.6478   4.8061  -1.2544 C.3            1 S1                 0.0000
      2 ****        -2.8537   3.9034  -1.5452 C.3            1 S1                 0.0000
      3 ****        -2.8187   2.6953  -0.7248 N.am           1 S1                 0.0000
      4 ****        -2.2545   1.5110  -1.0574 C.2            1 S1                 0.0000
      5 ****        -1.6890   1.2495  -2.1193 O.2            1 S1                 0.0000
      6 ****        -2.4015   0.6651  -0.0101 N.am           1 S1                 0.0000
      7 ****        -1.9306  -0.7176   0.0583 C.3            1 S1                 0.0000
      8 ****        -0.4034  -0.7934   0.2594 C.3            1 S1                 0.0000
      9 ****        -0.1283  -0.6144   1.6352 O.3            1 S1                 0.0000
     10 ****         0.1597  -2.1674  -0.1552 C.3            1 S1                 0.0000
     11 ****         1.6441  -2.1871  -0.1552 N.4            1 S1                 1.0000
     12 ****         2.1991  -3.5418   0.0722 C.3            1 S1                 0.0000
     13 ****         3.7387  -3.5057   0.1425 C.3            1 S1                 0.0000
     14 ****         4.2794  -2.9019   1.4510 C.3            1 S1                 0.0000
     15 ****         4.2709  -2.8567  -1.0126 O.3            1 S1                 0.0000
     16 ****         3.7767  -1.5395  -1.2432 C.3            1 S1                 0.0000
     17 ****         4.4414  -1.0014  -2.5152 C.3            1 S1                 0.0000
     18 ****         2.2439  -1.5841  -1.3697 C.3            1 S1                 0.0000
     19 ****        -3.0680   1.3321   1.0284 C.ar           1 S1                 0.0000
     20 ****        -3.4421   0.9063   2.3153 C.ar           1 S1                 0.0000
     21 ****        -4.1080   1.8443   3.1389 C.ar           1 S1                 0.0000
     22 ****        -4.3788   3.1574   2.6742 C.ar           1 S1                 0.0000
     23 ****        -3.9884   3.5612   1.3760 C.ar           1 S1                 0.0000
     24 ****        -3.3303   2.6095   0.5777 C.ar           1 S1                 0.0000
     25 ****        -1.6786   5.7047  -1.8708 H              1 S1                 0.0000
     26 ****        -0.7097   4.2915  -1.4640 H              1 S1                 0.0000
     27 ****        -1.6324   5.1203  -0.2102 H              1 S1                 0.0000
     28 ****        -3.7811   4.4457  -1.3587 H              1 S1                 0.0000
     29 ****        -2.8683   3.6347  -2.6025 H              1 S1                 0.0000
     30 ****        -2.4599  -1.2812   0.8273 H              1 S1                 0.0000
     31 ****        -2.1989  -1.1932  -0.8865 H              1 S1                 0.0000
     32 ****         0.0871  -0.0022  -0.3064 H              1 S1                 0.0000
     33 ****        -0.6141  -1.2584   2.1282 H              1 S1                 0.0000
     34 ****        -0.2277  -2.9260   0.5273 H              1 S1                 0.0000
     35 ****        -0.1961  -2.4469  -1.1482 H              1 S1                 0.0000
     36 ****         1.7959  -3.9653   0.9932 H              1 S1                 0.0000
     37 ****         1.8827  -4.1963  -0.7416 H              1 S1                 0.0000
     38 ****         4.0961  -4.5352   0.1007 H              1 S1                 0.0000
     39 ****         3.9690  -3.4992   2.3088 H              1 S1                 0.0000
     40 ****         3.9222  -1.8861   1.6185 H              1 S1                 0.0000
     41 ****         5.3693  -2.8772   1.4458 H              1 S1                 0.0000
     42 ****         4.0578  -0.8891  -0.4144 H              1 S1                 0.0000
     43 ****         4.1079   0.0134  -2.7340 H              1 S1                 0.0000
     44 ****         4.2056  -1.6245  -3.3785 H              1 S1                 0.0000
     45 ****         5.5262  -0.9784  -2.4080 H              1 S1                 0.0000
     46 ****         1.9548  -2.1665  -2.2464 H              1 S1                 0.0000
     47 ****         1.8646  -0.5742  -1.5222 H              1 S1                 0.0000
     48 ****        -3.2311  -0.0918   2.6686 H              1 S1                 0.0000
     49 ****        -4.4125   1.5580   4.1347 H              1 S1                 0.0000
     50 ****        -4.8873   3.8578   3.3201 H              1 S1                 0.0000
     51 ****        -4.1881   4.5605   1.0183 H              1 S1                 0.0000
     52 ****         1.9349  -1.6255   0.6331 H              1 S1                 0.0000
     53 ****        -1.6161   1.9472  -2.8319 LP             1 S1                 0.0000
     54 ****        -1.3026   0.3394  -2.2691 LP             1 S1                 0.0000
     55 ****        -0.4055   0.3042   1.9170 LP             1 S1                 0.0000
     56 ****         0.8508  -0.7325   1.8007 LP             1 S1                 0.0000
     57 ****         4.0503  -3.4155  -1.8120 LP             1 S1                 0.0000
     58 ****         5.2639  -2.8019  -0.9080 LP             1 S1                 0.0000
@<TRIPOS>BOND
    1    1    2 1     
    2    1   25 1     
    3    1   26 1     
    4    1   27 1     
    5    2    3 1     
    6    2   28 1     
    7    2   29 1     
    8    3   24 1     
    9    3    4 am    
   10    4    5 2     
   11    4    6 am    
   12    6    7 1     
   13    6   19 1     
   14    7    8 1     
   15    7   30 1     
   16    7   31 1     
   17    8    9 1     
   18    8   10 1     
   19    8   32 1     
   20    9   33 1     
   21   10   11 1     
   22   10   34 1     
   23   10   35 1     
   24   11   18 1     
   25   11   12 1     
   26   11   52 1     
   27   12   13 1     
   28   12   36 1     
   29   12   37 1     
   30   13   14 1     
   31   13   15 1     
   32   13   38 1     
   33   14   39 1     
   34   14   40 1     
   35   14   41 1     
   36   15   16 1     
   37   16   17 1     
   38   16   18 1     
   39   16   42 1     
   40   17   43 1     
   41   17   44 1     
   42   17   45 1     
   43   18   46 1     
   44   18   47 1     
   45   19   24 ar    
   46   19   20 ar    
   47   20   21 ar    
   48   20   48 1     
   49   21   22 ar    
   50   21   49 1     
   51   22   23 ar    
   52   22   50 1     
   53   23   24 ar    
   54   23   51 1     
   55    5   53 1     
   56    5   54 1     
   57    9   55 1     
   58    9   56 1     
   59   15   57 1     
   60   15   58 1     
@<TRIPOS>SUBSTRUCTURE
      1 S1             1
@<TRIPOS>SET
LONE_PAIRS      STATIC     ATOMS    <user>   **** ""
6 53 54 55 56 57 58
DONOR_HYDROGENS      STATIC     ATOMS    <user>   **** ""
2 33 52
ATOM$BLUE        STATIC     ATOMS    COLORGROUP SYSTEM
6 53 54 55 56 57 58
ATOM$RED        STATIC     ATOMS    COLORGROUP SYSTEM
2 33 52
