AV-unprocessed.smi:1004|AV-procd|sdf|4361|dock9
  -GOLD-   22720 2263D 1   1.00000     0.00000
 Structure written by MMmdl.
 42 43  0  0  0  0  0  0  0  0  1 V2000
  152.2561  144.6211  160.0444 C   0  0  0  0  0  0  0  0  0  0  0  0
  151.9486  143.3549  159.2719 C   0  0  0  0  0  0  0  0  0  0  0  0
  150.7454  143.2483  158.4734 C   0  0  0  0  0  0  0  0  0  0  0  0
  150.5049  142.1114  157.8023 C   0  0  0  0  0  0  0  0  0  0  0  0
  151.3882  141.0177  157.8518 N   0  0  0  0  0  0  0  0  0  0  0  0
  151.0161  139.8179  157.0838 C   0  0  0  0  0  0  0  0  0  0  0  0
  149.9156  138.9830  157.7547 C   0  0  0  0  0  0  0  0  0  0  0  0
  148.8517  139.4977  158.1020 O   0  0  0  0  0  0  0  0  0  0  0  0
  150.1835  137.6799  157.9155 N   0  0  0  0  0  0  0  0  0  0  0  0
  149.2732  136.7217  158.5306 C   0  0  0  0  0  0  0  0  0  0  0  0
  148.9323  137.1150  159.9782 C   0  0  0  0  0  0  0  0  0  0  0  0
  148.1148  136.0689  160.7216 C   0  0  0  0  0  0  0  0  0  0  0  0
  147.7543  134.9044  160.1476 C   0  0  0  0  0  0  0  0  0  0  0  0
  146.9562  133.8189  160.8482 C   0  0  0  0  0  0  0  0  0  0  0  0
  146.8970  134.0257  162.3709 C   0  0  0  0  0  0  0  0  0  0  0  0
  146.6316  135.4951  162.7201 C   0  0  0  0  0  0  0  0  0  0  0  0
  147.7315  136.4128  162.1565 C   0  0  0  0  0  0  0  0  0  0  0  0
  152.5390  141.0521  158.5888 C   0  0  0  0  0  0  0  0  0  0  0  0
  153.3135  140.0959  158.6399 O   0  0  0  0  0  0  0  0  0  0  0  0
  152.7928  142.3007  159.3171 C   0  0  0  0  0  0  0  0  0  0  0  0
  151.4665  145.3625  159.9176 H   0  0  0  0  0  0  0  0  0  0  0  0
  153.1931  145.0585  159.6986 H   0  0  0  0  0  0  0  0  0  0  0  0
  152.3493  144.4028  161.1085 H   0  0  0  0  0  0  0  0  0  0  0  0
  150.0454  144.0692  158.4191 H   0  0  0  0  0  0  0  0  0  0  0  0
  149.6233  141.9644  157.1954 H   0  0  0  0  0  0  0  0  0  0  0  0
  150.6713  140.0957  156.0868 H   0  0  0  0  0  0  0  0  0  0  0  0
  151.8939  139.1908  156.9170 H   0  0  0  0  0  0  0  0  0  0  0  0
  151.0779  137.3304  157.6032 H   0  0  0  0  0  0  0  0  0  0  0  0
  148.3627  136.6577  157.9329 H   0  0  0  0  0  0  0  0  0  0  0  0
  149.7266  135.7293  158.5194 H   0  0  0  0  0  0  0  0  0  0  0  0
  149.8517  137.2979  160.5351 H   0  0  0  0  0  0  0  0  0  0  0  0
  148.3894  138.0613  159.9731 H   0  0  0  0  0  0  0  0  0  0  0  0
  148.0286  134.7029  159.1223 H   0  0  0  0  0  0  0  0  0  0  0  0
  145.9497  133.8179  160.4288 H   0  0  0  0  0  0  0  0  0  0  0  0
  147.3950  132.8466  160.6230 H   0  0  0  0  0  0  0  0  0  0  0  0
  146.1276  133.3863  162.8047 H   0  0  0  0  0  0  0  0  0  0  0  0
  147.8433  133.7175  162.8174 H   0  0  0  0  0  0  0  0  0  0  0  0
  145.6653  135.7913  162.3100 H   0  0  0  0  0  0  0  0  0  0  0  0
  146.5594  135.6217  163.8006 H   0  0  0  0  0  0  0  0  0  0  0  0
  148.6265  136.3358  162.7747 H   0  0  0  0  0  0  0  0  0  0  0  0
  147.4005  137.4505  162.2078 H   0  0  0  0  0  0  0  0  0  0  0  0
  153.6917  142.3735  159.9118 H   0  0  0  0  0  0  0  0  0  0  0  0
  1  2  1  0  0  0  0
  1 21  1  0  0  0  0
  1 22  1  0  0  0  0
  1 23  1  0  0  0  0
  2 20  2  0  0  0  0
  2  3  1  0  0  0  0
  3  4  2  0  0  0  0
  3 24  1  0  0  0  0
  4  5  1  0  0  0  0
  4 25  1  0  0  0  0
  5  6  1  0  0  0  0
  5 18  1  0  0  0  0
  6  7  1  0  0  0  0
  6 26  1  0  0  0  0
  6 27  1  0  0  0  0
  7  8  2  0  0  0  0
  7  9  1  0  0  0  0
  9 10  1  0  0  0  0
  9 28  1  0  0  0  0
 10 11  1  0  0  0  0
 10 29  1  0  0  0  0
 10 30  1  0  0  0  0
 11 12  1  0  0  0  0
 11 31  1  0  0  0  0
 11 32  1  0  0  0  0
 12 17  1  0  0  0  0
 12 13  2  0  0  0  0
 13 14  1  0  0  0  0
 13 33  1  0  0  0  0
 14 15  1  0  0  0  0
 14 34  1  0  0  0  0
 14 35  1  0  0  0  0
 15 16  1  0  0  0  0
 15 36  1  0  0  0  0
 15 37  1  0  0  0  0
 16 17  1  0  0  0  0
 16 38  1  0  0  0  0
 16 39  1  0  0  0  0
 17 40  1  0  0  0  0
 17 41  1  0  0  0  0
 18 19  2  0  0  0  0
 18 20  1  0  0  0  0
 20 42  1  0  0  0  0
M  END
> <s_m_source_file>
AV-unprocessed.smi

> <i_m_source_file_index>
1004

> <i_lp_mmshare_version>
43012

> <i_f3d_flags>
0

> <s_epik_input>
W0NIM11jMVtjSF1bY0hdbihjKD1PKVtjSF0xKVtDSDJdQyg9TylbTkhdW0NIMl1bQ0gyXUMyPVtDSF1bQ0gyXVtDSDJdW0NIMl1bQ0gyXTI=

> <s_epik_cmdline>
J2VwaWtfcHl0aG9uJywgJy1waCcsICc3LjAnLCAnLXRuJywgJzgnLCAnLW1hJywgJzIwMCcsICctbWV0YWxfYmluZGluZycsICctaW1hZScsICc8aW5maWxlLm1hZT4nLCAnLW9tYWUnLCAnPG91dGZpbGUubWFlPic=

> <r_lp_tautomer_probability>
1

> <r_epik_Ionization_Penalty>
5.31482e-07

> <r_epik_Ionization_Penalty_Charging>
5.13379e-07

> <r_epik_Ionization_Penalty_Neutral>
1.81035e-08

> <r_epik_State_Penalty>
-0

> <r_epik_Charging_Adjusted_Penalty>
5.13379e-07

> <i_epik_Tot_Q>
0

> <i_epik_Tot_abs_Q>
0

> <r_epik_Metal_State_Penalty>
-0

> <b_epik_Metal_Only>
0

> <s_lp_Force_Field>
OPLS_2005

> <r_lp_Energy>
18.1417

> <b_lp_Chiralities_Consistent>
1

> <s_lp_Variant>
AV-unprocessed.smi:1004-1

> <Gold.Version>
5.8.1

> <Gold.Id.Protein>
6NUR|6NUR_protein|mol2

> <Gold.PLP.Fitness>
43.5820

> <Gold.PLP.PLP>
-41.1645

> <Gold.PLP.part.hbond>
-1.3151

> <Gold.PLP.part.metal>
0.0000

> <Gold.PLP.part.buried>
-2.0790

> <Gold.PLP.part.nonpolar>
-36.9918

> <Gold.PLP.part.repulsive>
0.0797

> <Gold.PLP.ligand.clash>
0.0000

> <Gold.PLP.ligand.torsion>
0.2828

> <Gold.PLP.Chemscore.Hbond>
0.9920

> <Gold.PLP.Chemscore.CHOScore>
0.0000

> <Gold.PLP.Chemscore.Metal>
0.0000

> <Gold.Chemscore.Hbonds>
donor molecule, donor type, donor heavy atom, donor atom, acceptor molecule, acceptor atom, score
      P1  H  7997  8009       L1    19  0.98

> <Gold.PLP.Chemscore.Internal.Correction>
0.0071

> <Gold.Rescore>
     Score         DG    S(hbond)    S(metal)    S(lipo)     H(rot)  DE(clash)    DE(int)     intcor
     16.65     -17.20       0.93        0.00     109.22       1.63       0.23       0.32       ----

> <Gold.Chemscore.Fitness>
16.6514

> <Gold.Chemscore.DG>
-17.2033

> <Gold.Chemscore.ZeroCoef>
-5.4800

> <Gold.Chemscore.Hbond>
0.9342

> <Gold.Chemscore.Metal>
0.0000

> <Gold.Chemscore.Lipo>
109.2219

> <Gold.Chemscore.Internal_Hbond>
0.0000

> <Gold.Chemscore.DEClash>
0.2349

> <Gold.Chemscore.DEInternal>
0.3170

> <Gold.Chemscore.Rot>
1.6311

> <Gold.Chemscore.Internal.Correction>
   9.000000E+99

> <Gold.Chemscore.Hbonds>
donor molecule, donor type, donor heavy atom, donor atom, acceptor molecule, acceptor atom, score
      P1  H  7997  8009       L1    19  0.74

> <Gold.Chemscore.Hbond.Weighted>
-3.1201

> <Gold.Chemscore.Metal.Weighted>
-0.0000

> <Gold.Chemscore.Lipo.Weighted>
-12.7790

> <Gold.Chemscore.Internal_Hbond.Weighted>
0.0000

> <Gold.Chemscore.DEClash.Weighted>
0.2349

> <Gold.Chemscore.DEInternal.Weighted>
0.3170

> <Gold.Chemscore.Rot.Weighted>
4.1757

> <Gold.Chemscore.Internal.Correction.Weighted>
   9.000000E+99

> <Gold.Protein.RotatedTorsions>
[ 6907 6896 6895 6894 ] final   73.89 input  -60.11 | X-H torsion
[ 7974 7965 7964 7962 ] final -150.01 input  175.53 | X-H torsion
[ 8008 7997 7996 7995 ] final  150.96 input   59.86 | X-H torsion
[ 10167 10162 10161 10158 ] final  123.85 input  -65.29 | X-H torsion
[ 10718 10713 10712 10709 ] final   28.51 input   66.30 | X-H torsion
[ 10763 10752 10751 10750 ] final  -88.36 input  -60.55 | X-H torsion
[ 11005 11000 10999 10996 ] final   54.10 input  -57.11 | X-H torsion

> <Gold.Protein.ActiveResidues>
 VAL166  LYS551  ARG553  GLY616  TRP617  ASP618  TYR619  PRO620  LYS621  CYS622 
 ASP623  PHE694  ASN695  SER759  ASP760  ASP761  ALA762  ILE779  LEU786  VAL792 
 PHE793  MET794  SER795  GLU796  ALA797  LYS798  CYS799  TRP800  GLU811  SER814 

> <Gold.Protein.RotatedAtoms>
  152.4947  134.4353  159.9525 H   0  0  0  0  0  0  0  0  0  0  0  0  # atno 6907 bound_to 6896
  151.4334  133.3657  159.2779 H   0  0  0  0  0  0  0  0  0  0  0  0  # atno 6908 bound_to 6896
  150.9138  134.8579  159.7503 H   0  0  0  0  0  0  0  0  0  0  0  0  # atno 6909 bound_to 6896
  144.7933  140.4989  143.5757 H   0  0  0  0  0  0  0  0  0  0  0  0  # atno 7974 bound_to 7965
  156.2694  140.2061  156.6099 H   0  0  0  0  0  0  0  0  0  0  0  0  # atno 8008 bound_to 7997
  154.6839  140.0537  157.0318 H   0  0  0  0  0  0  0  0  0  0  0  0  # atno 8009 bound_to 7997
  155.0961  140.3201  155.4563 H   0  0  0  0  0  0  0  0  0  0  0  0  # atno 8010 bound_to 7997
  139.5776  144.6971  151.3613 H   0  0  0  0  0  0  0  0  0  0  0  0  # atno 10167 bound_to 10162
  157.2344  130.7039  149.6328 H   0  0  0  0  0  0  0  0  0  0  0  0  # atno 10718 bound_to 10713
  154.6437  135.5380  153.7819 H   0  0  0  0  0  0  0  0  0  0  0  0  # atno 10763 bound_to 10752
  153.0347  135.6465  154.1122 H   0  0  0  0  0  0  0  0  0  0  0  0  # atno 10764 bound_to 10752
  154.1044  135.2931  155.3224 H   0  0  0  0  0  0  0  0  0  0  0  0  # atno 10765 bound_to 10752
  140.0713  134.5466  155.9043 H   0  0  0  0  0  0  0  0  0  0  0  0  # atno 11005 bound_to 11000
  145.5738  139.1485  143.3273 LP  0  0  0  0  0  0  0  0  0  0  0  0  # atno 17320 bound_to 7965
  146.2193  140.5870  142.9024 LP  0  0  0  0  0  0  0  0  0  0  0  0  # atno 17321 bound_to 7965
  140.7057  143.7520  150.7478 LP  0  0  0  0  0  0  0  0  0  0  0  0  # atno 17342 bound_to 10162
  140.1044  143.4758  152.2407 LP  0  0  0  0  0  0  0  0  0  0  0  0  # atno 17343 bound_to 10162
  155.9673  130.4478  150.5596 LP  0  0  0  0  0  0  0  0  0  0  0  0  # atno 17370 bound_to 10713
  157.3445  131.0722  151.1762 LP  0  0  0  0  0  0  0  0  0  0  0  0  # atno 17371 bound_to 10713
  141.2013  133.6617  156.5942 LP  0  0  0  0  0  0  0  0  0  0  0  0  # atno 17394 bound_to 11000
  140.3623  134.7677  157.4542 LP  0  0  0  0  0  0  0  0  0  0  0  0  # atno 17395 bound_to 11000

$$$$
