AV-unprocessed.smi:1803|AV-procd|sdf|7285|dock2
  -GOLD-   22720 8543D 1   1.00000     0.00000
 Structure written by MMmdl.
 36 38  0  0  0  0  0  0  0  0  2 V2000
  145.5636  138.4896  153.3208 O   0  0  0  0  0  0  0  0  0  0  0  0
  146.4310  137.8595  152.7185 C   0  0  0  0  0  0  0  0  0  0  0  0
  147.7293  138.2247  152.7764 N   0  0  0  0  0  0  0  0  0  0  0  0
  148.3733  139.2987  153.4572 C   0  0  0  0  0  0  0  0  0  0  0  0
  149.5765  139.2088  154.0476 N   0  0  0  0  0  0  0  0  0  0  0  0
  149.9725  140.4125  154.6140 N   0  0  0  0  0  0  0  0  0  0  0  0
  149.0607  141.3689  154.4184 C   0  0  0  0  0  0  0  0  0  0  0  0
  147.6290  140.8903  153.5236 S   0  0  0  0  0  0  0  0  0  0  0  0
  146.1522  136.7774  151.9732 N   0  0  0  0  0  0  0  0  0  0  0  0
  144.8160  136.2412  151.7353 C   0  0  2  0  0  0  0  0  0  0  0  0
  144.1143  135.7870  153.0086 C   0  0  0  0  0  0  0  0  0  0  0  0
  143.0177  134.8545  152.4845 C   0  0  0  0  0  0  0  0  0  0  0  0
  143.4994  134.3079  151.1918 N   0  3  2  0  0  0  0  0  0  0  0  0
  143.5206  132.8215  151.1345 C   0  0  0  0  0  0  0  0  0  0  0  0
  144.3802  132.3280  149.9613 C   0  0  0  0  0  0  0  0  0  0  0  0
  145.8472  132.7745  150.1090 C   0  0  0  0  0  0  0  0  0  0  0  0
  145.9964  134.0258  150.9953 C   0  0  0  0  0  0  0  0  0  0  0  0
  144.7852  134.9804  150.8505 C   0  0  2  0  0  0  0  0  0  0  0  0
  148.3626  137.5913  152.3103 H   0  0  0  0  0  0  0  0  0  0  0  0
  149.2343  142.3639  154.8006 H   0  0  0  0  0  0  0  0  0  0  0  0
  146.9218  136.3114  151.5134 H   0  0  0  0  0  0  0  0  0  0  0  0
  144.1972  137.0130  151.2724 H   0  0  0  0  0  0  0  0  0  0  0  0
  144.8042  135.2268  153.6418 H   0  0  0  0  0  0  0  0  0  0  0  0
  143.7180  136.6166  153.5952 H   0  0  0  0  0  0  0  0  0  0  0  0
  142.7677  134.0816  153.2126 H   0  0  0  0  0  0  0  0  0  0  0  0
  142.1072  135.4219  152.2888 H   0  0  0  0  0  0  0  0  0  0  0  0
  143.9183  132.4136  152.0656 H   0  0  0  0  0  0  0  0  0  0  0  0
  142.4974  132.4560  151.0421 H   0  0  0  0  0  0  0  0  0  0  0  0
  144.3275  131.2420  149.8782 H   0  0  0  0  0  0  0  0  0  0  0  0
  143.9707  132.7246  149.0311 H   0  0  0  0  0  0  0  0  0  0  0  0
  146.4447  131.9671  150.5340 H   0  0  0  0  0  0  0  0  0  0  0  0
  146.2604  132.9668  149.1181 H   0  0  0  0  0  0  0  0  0  0  0  0
  146.0916  133.7203  152.0381 H   0  0  0  0  0  0  0  0  0  0  0  0
  146.9298  134.5288  150.7421 H   0  0  0  0  0  0  0  0  0  0  0  0
  144.7361  135.2883  149.8050 H   0  0  0  0  0  0  0  0  0  0  0  0
  142.8382  134.6136  150.4920 H   0  0  0  0  0  0  0  0  0  0  0  0
  1  2  2  0  0  0  0
  2  3  1  0  0  0  0
  2  9  1  0  0  0  0
  3  4  1  0  0  0  0
  3 19  1  0  0  0  0
  4  8  1  0  0  0  0
  4  5  2  0  0  0  0
  5  6  1  0  0  0  0
  6  7  2  0  0  0  0
  7  8  1  0  0  0  0
  7 20  1  0  0  0  0
  9 10  1  0  0  0  0
  9 21  1  0  0  0  0
 10 18  1  0  0  0  0
 10 11  1  0  0  0  0
 10 22  1  0  0  0  0
 11 12  1  0  0  0  0
 11 23  1  0  0  0  0
 11 24  1  0  0  0  0
 12 13  1  0  0  0  0
 12 25  1  0  0  0  0
 12 26  1  0  0  0  0
 13 18  1  0  0  0  0
 13 14  1  0  0  0  0
 13 36  1  0  0  0  0
 14 15  1  0  0  0  0
 14 27  1  0  0  0  0
 14 28  1  0  0  0  0
 15 16  1  0  0  0  0
 15 29  1  0  0  0  0
 15 30  1  0  0  0  0
 16 17  1  0  0  0  0
 16 31  1  0  0  0  0
 16 32  1  0  0  0  0
 17 18  1  0  0  0  0
 17 33  1  0  0  0  0
 17 34  1  0  0  0  0
 18 35  1  0  0  0  0
M  CHG  1  13   1
M  END
> <s_m_source_file>
AV-unprocessed.smi

> <i_m_source_file_index>
1803

> <i_lp_mmshare_version>
43012

> <i_f3d_flags>
0

> <s_epik_input>
czFbY0hdbm5jMVtOSF1DKD1PKVtOSF1bQ0BIXShbQ0gyXVtDSDJdMilbQ0BASF0oTjIzKVtDSDJdW0NIMl1bQ0gyXVtDSDJdMw==

> <s_epik_cmdline>
J2VwaWtfcHl0aG9uJywgJy1waCcsICc3LjAnLCAnLXRuJywgJzgnLCAnLW1hJywgJzIwMCcsICctbWV0YWxfYmluZGluZycsICctaW1hZScsICc8aW5maWxlLm1hZT4nLCAnLW9tYWUnLCAnPG91dGZpbGUubWFlPic=

> <r_lp_tautomer_probability>
1

> <r_epik_Ionization_Penalty>
0.00213286

> <r_epik_Ionization_Penalty_Charging>
0.00107044

> <r_epik_Ionization_Penalty_Neutral>
0.00106242

> <r_epik_State_Penalty>
-0

> <r_epik_Charging_Adjusted_Penalty>
0.00107044

> <i_epik_Tot_Q>
1

> <i_epik_Tot_abs_Q>
1

> <r_epik_Metal_State_Penalty>
0.292783

> <b_epik_Metal_Only>
0

> <s_lp_Force_Field>
OPLS_2005

> <r_lp_Energy>
41.7848

> <b_lp_Chiralities_Consistent>
1

> <s_lp_Variant>
AV-unprocessed.smi:1803-7

> <Gold.Version>
5.8.1

> <Gold.Id.Protein>
6NUR|6NUR_protein|mol2

> <Gold.PLP.Fitness>
47.3595

> <Gold.PLP.PLP>
-31.4987

> <Gold.PLP.part.hbond>
-4.8203

> <Gold.PLP.part.metal>
0.0000

> <Gold.PLP.part.buried>
-0.9324

> <Gold.PLP.part.nonpolar>
-28.2224

> <Gold.PLP.part.repulsive>
3.0964

> <Gold.PLP.ligand.clash>
0.0000

> <Gold.PLP.ligand.torsion>
0.2988

> <Gold.PLP.Chemscore.Hbond>
4.4851

> <Gold.PLP.Chemscore.CHOScore>
1.0000

> <Gold.PLP.Chemscore.Metal>
0.0000

> <Gold.Chemscore.Hbonds>
donor molecule, donor type, donor heavy atom, donor atom, acceptor molecule, acceptor atom, score
      L1  H     3    19       P1  7948  0.99
      L1  H     9    21       P1  7948  0.70
      L1  H    13    36       P1 10186  1.89
      P1  H  7989  7998       L1     6  0.90
      L1  C     7    20       P1  8028  1.00

> <Gold.PLP.Chemscore.Internal.Correction>
0.0032

> <Gold.Rescore>
     Score         DG    S(hbond)    S(metal)    S(lipo)     H(rot)  DE(clash)    DE(int)     intcor
     17.94     -18.70       2.36        0.00      67.51       1.00       0.53       0.23       ----

> <Gold.Chemscore.Fitness>
17.9398

> <Gold.Chemscore.DG>
-18.7035

> <Gold.Chemscore.ZeroCoef>
-5.4800

> <Gold.Chemscore.Hbond>
2.3607

> <Gold.Chemscore.Metal>
0.0000

> <Gold.Chemscore.Lipo>
67.5094

> <Gold.Chemscore.Internal_Hbond>
0.0000

> <Gold.Chemscore.DEClash>
0.5299

> <Gold.Chemscore.DEInternal>
0.2338

> <Gold.Chemscore.Rot>
1.0000

> <Gold.Chemscore.Internal.Correction>
   9.000000E+99

> <Gold.Chemscore.Hbonds>
donor molecule, donor type, donor heavy atom, donor atom, acceptor molecule, acceptor atom, score
      L1  H     3    19       P1  7948  0.92
      L1  H     9    21       P1  7948  0.65
      L1  H    13    36       P1 10186  0.34
      P1  H  7989  7998       L1     6  0.17

> <Gold.Chemscore.Hbond.Weighted>
-7.8849

> <Gold.Chemscore.Metal.Weighted>
-0.0000

> <Gold.Chemscore.Lipo.Weighted>
-7.8986

> <Gold.Chemscore.Internal_Hbond.Weighted>
0.0000

> <Gold.Chemscore.DEClash.Weighted>
0.5299

> <Gold.Chemscore.DEInternal.Weighted>
0.2338

> <Gold.Chemscore.Rot.Weighted>
2.5600

> <Gold.Chemscore.Internal.Correction.Weighted>
   9.000000E+99

> <Gold.Protein.RotatedTorsions>
[ 6907 6896 6895 6894 ] final   14.34 input  -60.11 | X-H torsion
[ 7974 7965 7964 7962 ] final   29.87 input  175.53 | X-H torsion
[ 8008 7997 7996 7995 ] final  -28.48 input   59.86 | X-H torsion
[ 10167 10162 10161 10158 ] final  145.22 input  -65.29 | X-H torsion
[ 10718 10713 10712 10709 ] final  -99.01 input   66.30 | X-H torsion
[ 10763 10752 10751 10750 ] final   51.97 input  -60.55 | X-H torsion
[ 11005 11000 10999 10996 ] final -101.10 input  -57.11 | X-H torsion

> <Gold.Protein.ActiveResidues>
 VAL166  LYS551  ARG553  GLY616  TRP617  ASP618  TYR619  PRO620  LYS621  CYS622 
 ASP623  PHE694  ASN695  SER759  ASP760  ASP761  ALA762  ILE779  LEU786  VAL792 
 PHE793  MET794  SER795  GLU796  ALA797  LYS798  CYS799  TRP800  GLU811  SER814 

> <Gold.Protein.RotatedAtoms>
  151.8007  135.0709  160.0399 H   0  0  0  0  0  0  0  0  0  0  0  0  # atno 6907 bound_to 6896
  152.3091  133.5729  159.5677 H   0  0  0  0  0  0  0  0  0  0  0  0  # atno 6908 bound_to 6896
  150.7311  134.0095  159.3707 H   0  0  0  0  0  0  0  0  0  0  0  0  # atno 6909 bound_to 6896
  146.1646  139.6864  142.9010 H   0  0  0  0  0  0  0  0  0  0  0  0  # atno 7974 bound_to 7965
  154.4330  140.1844  156.1097 H   0  0  0  0  0  0  0  0  0  0  0  0  # atno 8008 bound_to 7997
  156.0228  140.3339  155.7031 H   0  0  0  0  0  0  0  0  0  0  0  0  # atno 8009 bound_to 7997
  155.5952  140.0635  157.2738 H   0  0  0  0  0  0  0  0  0  0  0  0  # atno 8010 bound_to 7997
  139.4930  144.5917  151.6667 H   0  0  0  0  0  0  0  0  0  0  0  0  # atno 10167 bound_to 10162
  156.0122  130.5263  150.6607 H   0  0  0  0  0  0  0  0  0  0  0  0  # atno 10718 bound_to 10713
  152.9787  135.5828  154.4502 H   0  0  0  0  0  0  0  0  0  0  0  0  # atno 10763 bound_to 10752
  154.4092  135.2770  155.2049 H   0  0  0  0  0  0  0  0  0  0  0  0  # atno 10764 bound_to 10752
  154.3846  135.6139  153.5864 H   0  0  0  0  0  0  0  0  0  0  0  0  # atno 10765 bound_to 10752
  141.1244  133.8451  157.1188 H   0  0  0  0  0  0  0  0  0  0  0  0  # atno 11005 bound_to 11000
  145.4501  141.0428  143.2809 LP  0  0  0  0  0  0  0  0  0  0  0  0  # atno 17320 bound_to 7965
  144.8074  139.6025  143.7044 LP  0  0  0  0  0  0  0  0  0  0  0  0  # atno 17321 bound_to 7965
  140.5545  144.0370  150.6141 LP  0  0  0  0  0  0  0  0  0  0  0  0  # atno 17342 bound_to 10162
  140.3435  143.3005  152.0562 LP  0  0  0  0  0  0  0  0  0  0  0  0  # atno 17343 bound_to 10162
  157.4350  131.0854  151.1001 LP  0  0  0  0  0  0  0  0  0  0  0  0  # atno 17370 bound_to 10713
  157.1562  130.6206  149.5597 LP  0  0  0  0  0  0  0  0  0  0  0  0  # atno 17371 bound_to 10713
  140.0230  134.9937  157.0629 LP  0  0  0  0  0  0  0  0  0  0  0  0  # atno 17394 bound_to 11000
  140.4409  134.1682  155.7174 LP  0  0  0  0  0  0  0  0  0  0  0  0  # atno 17395 bound_to 11000

$$$$
