AV-unprocessed.smi:2305|AV-procd|sdf|9246|dock9
  -GOLD-   2272012463D 1   1.00000     0.00000
 Structure written by MMmdl.
 40 41  0  0  0  0  0  0  0  0  1 V2000
  151.9294  140.5897  159.4502 C   0  0  0  0  0  0  0  0  0  0  0  0
  151.1918  140.8193  158.1428 C   0  0  0  0  0  0  0  0  0  0  0  0
  150.2766  141.8758  158.1437 N   0  0  0  0  0  0  0  0  0  0  0  0
  149.6031  142.1466  157.0737 C   0  0  0  0  0  0  0  0  0  0  0  0
  149.7581  141.3983  155.8954 N   0  0  0  0  0  0  0  0  0  0  0  0
  148.9314  141.8085  154.7476 C   0  0  0  0  0  0  0  0  0  0  0  0
  147.7651  140.8280  154.4906 C   0  0  2  0  0  0  0  0  0  0  0  0
  148.3028  139.6108  154.0117 O   0  0  0  0  0  0  0  0  0  0  0  0
  146.7906  141.3635  153.4241 C   0  0  0  0  0  0  0  0  0  0  0  0
  145.8590  142.4337  153.9650 C   0  0  0  0  0  0  0  0  0  0  0  0
  145.5654  142.4841  155.3430 C   0  0  0  0  0  0  0  0  0  0  0  0
  144.6991  143.4735  155.8466 C   0  0  0  0  0  0  0  0  0  0  0  0
  144.1195  144.4241  154.9791 C   0  0  0  0  0  0  0  0  0  0  0  0
  143.1780  145.4829  155.5340 C   0  0  0  0  0  0  0  0  0  0  0  0
  142.8197  146.3576  154.5932 F   0  0  0  0  0  0  0  0  0  0  0  0
  142.0822  144.8915  156.0079 F   0  0  0  0  0  0  0  0  0  0  0  0
  143.7668  146.1537  156.5244 F   0  0  0  0  0  0  0  0  0  0  0  0
  144.4112  144.3674  153.5983 C   0  0  0  0  0  0  0  0  0  0  0  0
  145.2787  143.3788  153.0943 C   0  0  0  0  0  0  0  0  0  0  0  0
  150.6346  140.3561  155.8062 C   0  0  0  0  0  0  0  0  0  0  0  0
  150.7729  139.7154  154.7621 O   0  0  0  0  0  0  0  0  0  0  0  0
  151.3954  140.0610  157.0311 C   0  0  0  0  0  0  0  0  0  0  0  0
  152.3823  138.9019  156.9694 C   0  0  0  0  0  0  0  0  0  0  0  0
  151.7426  139.5824  159.8233 H   0  0  0  0  0  0  0  0  0  0  0  0
  151.6073  141.2949  160.2175 H   0  0  0  0  0  0  0  0  0  0  0  0
  153.0032  140.7168  159.3098 H   0  0  0  0  0  0  0  0  0  0  0  0
  148.8835  142.9655  157.0197 H   0  0  0  0  0  0  0  0  0  0  0  0
  148.5340  142.8030  154.9577 H   0  0  0  0  0  0  0  0  0  0  0  0
  149.5226  141.9461  153.8395 H   0  0  0  0  0  0  0  0  0  0  0  0
  147.2182  140.6458  155.4167 H   0  0  0  0  0  0  0  0  0  0  0  0
  148.9225  139.8076  153.3255 H   0  0  0  0  0  0  0  0  0  0  0  0
  147.3543  141.8131  152.6056 H   0  0  0  0  0  0  0  0  0  0  0  0
  146.2146  140.5502  152.9796 H   0  0  0  0  0  0  0  0  0  0  0  0
  146.0022  141.7617  156.0172 H   0  0  0  0  0  0  0  0  0  0  0  0
  144.4782  143.4996  156.9036 H   0  0  0  0  0  0  0  0  0  0  0  0
  143.9706  145.0795  152.9166 H   0  0  0  0  0  0  0  0  0  0  0  0
  145.4942  143.3465  152.0361 H   0  0  0  0  0  0  0  0  0  0  0  0
  153.1271  139.0835  156.1936 H   0  0  0  0  0  0  0  0  0  0  0  0
  151.8601  137.9759  156.7267 H   0  0  0  0  0  0  0  0  0  0  0  0
  152.9169  138.7426  157.9044 H   0  0  0  0  0  0  0  0  0  0  0  0
  1  2  1  0  0  0  0
  1 24  1  0  0  0  0
  1 25  1  0  0  0  0
  1 26  1  0  0  0  0
  2 22  2  0  0  0  0
  2  3  1  0  0  0  0
  3  4  2  0  0  0  0
  4  5  1  0  0  0  0
  4 27  1  0  0  0  0
  5  6  1  0  0  0  0
  5 20  1  0  0  0  0
  6  7  1  0  0  0  0
  6 28  1  0  0  0  0
  6 29  1  0  0  0  0
  7  8  1  0  0  0  0
  7  9  1  0  0  0  0
  7 30  1  0  0  0  0
  8 31  1  0  0  0  0
  9 10  1  0  0  0  0
  9 32  1  0  0  0  0
  9 33  1  0  0  0  0
 10 19  1  0  0  0  0
 10 11  2  0  0  0  0
 11 12  1  0  0  0  0
 11 34  1  0  0  0  0
 12 13  2  0  0  0  0
 12 35  1  0  0  0  0
 13 14  1  0  0  0  0
 13 18  1  0  0  0  0
 14 15  1  0  0  0  0
 14 16  1  0  0  0  0
 14 17  1  0  0  0  0
 18 19  2  0  0  0  0
 18 36  1  0  0  0  0
 19 37  1  0  0  0  0
 20 21  2  0  0  0  0
 20 22  1  0  0  0  0
 22 23  1  0  0  0  0
 23 38  1  0  0  0  0
 23 39  1  0  0  0  0
 23 40  1  0  0  0  0
M  END
> <s_m_source_file>
AV-unprocessed.smi

> <i_m_source_file_index>
2305

> <i_lp_mmshare_version>
43012

> <i_f3d_flags>
0

> <s_epik_input>
W0NIM11jMW5bY0hdbihjKD1PKWMxW0NIM10pW0NIMl1bQ0BIXShbT0hdKVtDSDJdYzJbY0hdW2NIXWMoQyhGKShGKUYpW2NIXVtjSF0y

> <s_epik_cmdline>
J2VwaWtfcHl0aG9uJywgJy1waCcsICc3LjAnLCAnLXRuJywgJzgnLCAnLW1hJywgJzIwMCcsICctbWV0YWxfYmluZGluZycsICctaW1hZScsICc8aW5maWxlLm1hZT4nLCAnLW9tYWUnLCAnPG91dGZpbGUubWFlPic=

> <r_lp_tautomer_probability>
1

> <r_epik_Ionization_Penalty>
8.92636e-05

> <r_epik_Ionization_Penalty_Charging>
8.63033e-08

> <r_epik_Ionization_Penalty_Neutral>
8.91773e-05

> <r_epik_State_Penalty>
-0

> <r_epik_Charging_Adjusted_Penalty>
8.63033e-08

> <i_epik_Tot_Q>
0

> <i_epik_Tot_abs_Q>
0

> <r_epik_Metal_State_Penalty>
-0

> <b_epik_Metal_Only>
0

> <s_lp_Force_Field>
OPLS_2005

> <r_lp_Energy>
20.2426

> <b_lp_Chiralities_Consistent>
1

> <s_lp_Variant>
AV-unprocessed.smi:2305-1

> <Gold.Version>
5.8.1

> <Gold.Id.Protein>
6NUR|6NUR_protein|mol2

> <Gold.PLP.Fitness>
51.8171

> <Gold.PLP.PLP>
-44.2597

> <Gold.PLP.part.hbond>
-2.0000

> <Gold.PLP.part.metal>
0.0000

> <Gold.PLP.part.buried>
-5.7875

> <Gold.PLP.part.nonpolar>
-36.2992

> <Gold.PLP.part.repulsive>
0.1499

> <Gold.PLP.ligand.clash>
0.5235

> <Gold.PLP.ligand.torsion>
0.7988

> <Gold.PLP.Chemscore.Hbond>
2.0000

> <Gold.PLP.Chemscore.CHOScore>
1.0000

> <Gold.PLP.Chemscore.Metal>
0.0000

> <Gold.Chemscore.Hbonds>
donor molecule, donor type, donor heavy atom, donor atom, acceptor molecule, acceptor atom, score
      L1  H     8    31       P1  7957  0.37
      P1  H  7989  7998       L1    21  1.00
      L1  C     4    27       P1  8028  0.99

> <Gold.PLP.Chemscore.Internal.Correction>
0.6785

> <Gold.Rescore>
     Score         DG    S(hbond)    S(metal)    S(lipo)     H(rot)  DE(clash)    DE(int)     intcor
     13.23     -15.35       1.90        0.00      81.84       2.37       0.34       1.77       ----

> <Gold.Chemscore.Fitness>
13.2328

> <Gold.Chemscore.DG>
-15.3454

> <Gold.Chemscore.ZeroCoef>
-5.4800

> <Gold.Chemscore.Hbond>
1.9019

> <Gold.Chemscore.Metal>
0.0000

> <Gold.Chemscore.Lipo>
81.8409

> <Gold.Chemscore.Internal_Hbond>
0.0000

> <Gold.Chemscore.DEClash>
0.3404

> <Gold.Chemscore.DEInternal>
1.7722

> <Gold.Chemscore.Rot>
2.3681

> <Gold.Chemscore.Internal.Correction>
   9.000000E+99

> <Gold.Chemscore.Hbonds>
donor molecule, donor type, donor heavy atom, donor atom, acceptor molecule, acceptor atom, score
      L1  H     8    31       P1  7957  0.36
      P1  H  7989  7998       L1    21  0.60

> <Gold.Chemscore.Hbond.Weighted>
-6.3524

> <Gold.Chemscore.Metal.Weighted>
-0.0000

> <Gold.Chemscore.Lipo.Weighted>
-9.5754

> <Gold.Chemscore.Internal_Hbond.Weighted>
0.0000

> <Gold.Chemscore.DEClash.Weighted>
0.3404

> <Gold.Chemscore.DEInternal.Weighted>
1.7722

> <Gold.Chemscore.Rot.Weighted>
6.0624

> <Gold.Chemscore.Internal.Correction.Weighted>
   9.000000E+99

> <Gold.Protein.RotatedTorsions>
[ 6907 6896 6895 6894 ] final -128.21 input  -60.11 | X-H torsion
[ 7974 7965 7964 7962 ] final  -36.04 input  175.53 | X-H torsion
[ 8008 7997 7996 7995 ] final  123.00 input   59.86 | X-H torsion
[ 10167 10162 10161 10158 ] final  -67.38 input  -65.29 | X-H torsion
[ 10718 10713 10712 10709 ] final  -39.44 input   66.30 | X-H torsion
[ 10763 10752 10751 10750 ] final  -22.74 input  -60.55 | X-H torsion
[ 11005 11000 10999 10996 ] final   75.54 input  -57.11 | X-H torsion

> <Gold.Protein.ActiveResidues>
 VAL166  LYS551  ARG553  GLY616  TRP617  ASP618  TYR619  PRO620  LYS621  CYS622 
 ASP623  PHE694  ASN695  SER759  ASP760  ASP761  ALA762  ILE779  LEU786  VAL792 
 PHE793  MET794  SER795  GLU796  ALA797  LYS798  CYS799  TRP800  GLU811  SER814 

> <Gold.Protein.RotatedAtoms>
  150.9155  133.6944  159.2844 H   0  0  0  0  0  0  0  0  0  0  0  0  # atno 6907 bound_to 6896
  151.4416  135.1019  159.9681 H   0  0  0  0  0  0  0  0  0  0  0  0  # atno 6908 bound_to 6896
  152.4952  133.8562  159.7282 H   0  0  0  0  0  0  0  0  0  0  0  0  # atno 6909 bound_to 6896
  146.0696  140.6231  142.8959 H   0  0  0  0  0  0  0  0  0  0  0  0  # atno 7974 bound_to 7965
  156.2749  140.2773  156.1557 H   0  0  0  0  0  0  0  0  0  0  0  0  # atno 8008 bound_to 7997
  155.0807  140.0388  157.2656 H   0  0  0  0  0  0  0  0  0  0  0  0  # atno 8009 bound_to 7997
  154.6967  140.2640  155.6765 H   0  0  0  0  0  0  0  0  0  0  0  0  # atno 8010 bound_to 7997
  140.5587  143.2312  151.6771 H   0  0  0  0  0  0  0  0  0  0  0  0  # atno 10167 bound_to 10162
  156.2924  130.4230  149.8225 H   0  0  0  0  0  0  0  0  0  0  0  0  # atno 10718 bound_to 10713
  153.6568  135.6978  153.5191 H   0  0  0  0  0  0  0  0  0  0  0  0  # atno 10763 bound_to 10752
  153.2663  135.4229  155.0943 H   0  0  0  0  0  0  0  0  0  0  0  0  # atno 10764 bound_to 10752
  154.8462  135.3567  154.6112 H   0  0  0  0  0  0  0  0  0  0  0  0  # atno 10765 bound_to 10752
  139.9339  134.7526  156.1284 H   0  0  0  0  0  0  0  0  0  0  0  0  # atno 11005 bound_to 11000
  144.7223  140.4414  143.6999 LP  0  0  0  0  0  0  0  0  0  0  0  0  # atno 17320 bound_to 7965
  145.6416  139.1551  143.2912 LP  0  0  0  0  0  0  0  0  0  0  0  0  # atno 17321 bound_to 7965
  139.5060  144.3698  152.0481 LP  0  0  0  0  0  0  0  0  0  0  0  0  # atno 17342 bound_to 10162
  140.2822  144.3847  150.6115 LP  0  0  0  0  0  0  0  0  0  0  0  0  # atno 17343 bound_to 10162
  156.5633  130.8393  151.3335 LP  0  0  0  0  0  0  0  0  0  0  0  0  # atno 17370 bound_to 10713
  157.7346  130.9749  150.2038 LP  0  0  0  0  0  0  0  0  0  0  0  0  # atno 17371 bound_to 10713
  141.0942  133.6702  156.2608 LP  0  0  0  0  0  0  0  0  0  0  0  0  # atno 17394 bound_to 11000
  140.6128  134.5441  157.5536 LP  0  0  0  0  0  0  0  0  0  0  0  0  # atno 17395 bound_to 11000

$$$$
