#       Name:                AV-unprocessed.smi:3303
#       Creating user name   scv26
#       Creation time:       Fri Mar 27 19:01:40 2020


#       File generated by GOLD software.
#

@<TRIPOS>MOLECULE
AV-unprocessed.smi:3303
    46    47     1
SMALL
NO_CHARGES


@<TRIPOS>ATOM
      1 ****        -0.7820  -0.6069   2.5053 C.3            1 S1                 0.0000
      2 ****        -1.1335  -1.3696   1.2163 C.3            1 S1                 0.0000
      3 ****        -2.6571  -1.5849   1.1272 C.3            1 S1                 0.0000
      4 ****        -3.0254  -2.3507  -0.0665 N.3            1 S1                 0.0000
      5 ****        -4.4639  -2.5944   0.0029 C.3            1 S1                 0.0000
      6 ****        -2.6486  -1.6108  -1.2831 C.3            1 S1                 0.0000
      7 ****        -3.0693  -2.3517  -2.5689 C.3            1 S1                 0.0000
      8 ****        -1.1200  -1.3990  -1.2896 C.3            1 S1                 0.0000
      9 ****        -0.6335  -0.6416  -0.0464 C.3            1 S1                 0.0000
     10 ****         0.8443  -0.5605  -0.0612 N.4            1 S1                 1.0000
     11 ****         1.3897   0.8116  -0.0629 C.3            1 S1                 0.0000
     12 ****         2.9236   0.7940  -0.0151 C.3            1 S1                 0.0000
     13 ****         3.5147   2.1908  -0.0168 C.ar           1 S1                 0.0000
     14 ****         3.9383   2.7960   1.1856 C.ar           1 S1                 0.0000
     15 ****         4.4740   4.0974   1.1288 C.ar           1 S1                 0.0000
     16 ****         4.5645   4.7396  -0.1211 C.ar           1 S1                 0.0000
     17 ****         4.1127   4.0496  -1.2637 C.ar           1 S1                 0.0000
     18 ****         3.5950   2.8025  -1.2198 N.ar           1 S1                 0.0000
     19 ****        -1.2122   0.3952   2.5032 H              1 S1                 0.0000
     20 ****         0.2961  -0.5064   2.6317 H              1 S1                 0.0000
     21 ****        -1.1624  -1.1284   3.3840 H              1 S1                 0.0000
     22 ****        -0.6577  -2.3507   1.2672 H              1 S1                 0.0000
     23 ****        -2.9890  -2.1249   2.0153 H              1 S1                 0.0000
     24 ****        -3.1767  -0.6249   1.1289 H              1 S1                 0.0000
     25 ****        -4.7920  -3.2709  -0.7856 H              1 S1                 0.0000
     26 ****        -5.0298  -1.6654  -0.0802 H              1 S1                 0.0000
     27 ****        -4.7286  -3.0696   0.9483 H              1 S1                 0.0000
     28 ****        -3.1399  -0.6361  -1.2709 H              1 S1                 0.0000
     29 ****        -2.6683  -1.8535  -3.4520 H              1 S1                 0.0000
     30 ****        -4.1515  -2.3765  -2.6952 H              1 S1                 0.0000
     31 ****        -2.7026  -3.3788  -2.5767 H              1 S1                 0.0000
     32 ****        -0.6194  -2.3670  -1.3523 H              1 S1                 0.0000
     33 ****        -0.8297  -0.8462  -2.1842 H              1 S1                 0.0000
     34 ****        -1.0618   0.3624  -0.0683 H              1 S1                 0.0000
     35 ****         1.1931  -1.0422   0.7551 H              1 S1                 0.0000
     36 ****         1.0454   1.3305  -0.9585 H              1 S1                 0.0000
     37 ****         0.9991   1.3556   0.7983 H              1 S1                 0.0000
     38 ****         3.2628   0.2642   0.8762 H              1 S1                 0.0000
     39 ****         3.3190   0.2424  -0.8694 H              1 S1                 0.0000
     40 ****         3.8558   2.2786   2.1302 H              1 S1                 0.0000
     41 ****         4.8087   4.5940   2.0276 H              1 S1                 0.0000
     42 ****         4.9706   5.7371  -0.2024 H              1 S1                 0.0000
     43 ****         4.1673   4.5119  -2.2383 H              1 S1                 0.0000
     44 ****         1.1818  -1.0402  -0.8836 H              1 S1                 0.0000
     45 ****        -2.5394  -3.2239  -0.1033 LP             1 S1                 0.0000
     46 ****         3.2807   2.3456  -2.0520 LP             1 S1                 0.0000
@<TRIPOS>BOND
    1    1    2 1     
    2    1   19 1     
    3    1   20 1     
    4    1   21 1     
    5    2    9 1     
    6    2    3 1     
    7    2   22 1     
    8    3    4 1     
    9    3   23 1     
   10    3   24 1     
   11    4    5 1     
   12    4    6 1     
   13    5   25 1     
   14    5   26 1     
   15    5   27 1     
   16    6    7 1     
   17    6    8 1     
   18    6   28 1     
   19    7   29 1     
   20    7   30 1     
   21    7   31 1     
   22    8    9 1     
   23    8   32 1     
   24    8   33 1     
   25    9   10 1     
   26    9   34 1     
   27   10   11 1     
   28   10   35 1     
   29   10   44 1     
   30   11   12 1     
   31   11   36 1     
   32   11   37 1     
   33   12   13 1     
   34   12   38 1     
   35   12   39 1     
   36   13   18 ar    
   37   13   14 ar    
   38   14   15 ar    
   39   14   40 1     
   40   15   16 ar    
   41   15   41 1     
   42   16   17 ar    
   43   16   42 1     
   44   17   18 ar    
   45   17   43 1     
   46    4   45 1     
   47   18   46 1     
@<TRIPOS>SUBSTRUCTURE
      1 S1             1
@<TRIPOS>SET
LONE_PAIRS      STATIC     ATOMS    <user>   **** ""
2 45 46
DONOR_HYDROGENS      STATIC     ATOMS    <user>   **** ""
2 35 44
ATOM$BLUE        STATIC     ATOMS    COLORGROUP SYSTEM
2 45 46
ATOM$RED        STATIC     ATOMS    COLORGROUP SYSTEM
2 35 44
