AV-unprocessed.smi:221|AV-procd|sdf|1689|dock4
  -GOLD-   2262020133D 1   1.00000     0.00000
 Structure written by MMmdl.
 50 53  0  0  0  0  0  0  0  0  1 V2000
  144.7713  136.5406  151.2544 N   0  0  0  0  0  0  0  0  0  0  0  0
  144.3890  135.6233  152.1493 C   0  0  0  0  0  0  0  0  0  0  0  0
  143.8286  135.9419  153.1956 O   0  0  0  0  0  0  0  0  0  0  0  0
  144.6659  134.1353  151.8556 C   0  0  1  0  0  0  0  0  0  0  0  0
  144.0643  133.7211  150.5025 C   0  0  0  0  0  0  0  0  0  0  0  0
  144.9153  132.5314  150.0723 C   0  0  2  0  0  0  0  0  0  0  0  0
  144.4804  131.4284  150.6837 F   0  0  0  0  0  0  0  0  0  0  0  0
  146.3060  132.8877  150.5961 C   0  0  0  0  0  0  0  0  0  0  0  0
  146.0867  133.7805  151.7295 N   0  0  0  0  0  0  0  0  0  0  0  0
  146.9105  133.6783  152.8081 C   0  0  0  0  0  0  0  0  0  0  0  0
  148.2379  133.4537  152.6189 N   0  0  0  0  0  0  0  0  0  0  0  0
  149.0649  133.3490  153.6627 C   0  0  0  0  0  0  0  0  0  0  0  0
  148.7798  133.4295  154.9628 N   0  0  0  0  0  0  0  0  0  0  0  0
  147.4481  133.6405  155.1647 C   0  0  0  0  0  0  0  0  0  0  0  0
  146.4531  133.7774  154.1548 C   0  0  0  0  0  0  0  0  0  0  0  0
  145.2093  133.9721  154.7461 N   0  0  0  0  0  0  0  0  0  0  0  0
  145.4567  133.9626  156.0272 C   0  0  0  0  0  0  0  0  0  0  0  0
  146.7740  133.7601  156.3675 N   0  0  0  0  0  0  0  0  0  0  0  0
  147.3223  133.7050  157.7111 C   0  0  0  0  0  0  0  0  0  0  0  0
  147.6968  135.1093  158.2608 C   0  0  2  0  0  0  0  0  0  0  0  0
  148.8008  135.7594  157.3994 C   0  0  0  0  0  0  0  0  0  0  0  0
  150.0844  135.3362  157.8099 O   0  0  0  0  0  0  0  0  0  0  0  0
  148.0576  135.1057  159.7718 C   0  0  2  0  0  0  0  0  0  0  0  0
  146.9169  134.7114  160.7142 C   0  0  0  0  0  0  0  0  0  0  0  0
  147.0032  135.7392  161.8383 C   0  0  0  0  0  0  0  0  0  0  0  0
  147.4894  136.8958  161.1797 O   0  0  0  0  0  0  0  0  0  0  0  0
  148.5258  136.4672  160.3097 C   0  0  0  0  0  0  0  0  0  0  0  0
  144.2097  133.5279  152.6393 H   0  0  0  0  0  0  0  0  0  0  0  0
  144.8923  132.3444  148.9983 H   0  0  0  0  0  0  0  0  0  0  0  0
  144.6034  137.5194  151.4364 H   0  0  0  0  0  0  0  0  0  0  0  0
  145.2327  136.2514  150.4042 H   0  0  0  0  0  0  0  0  0  0  0  0
  143.0039  133.4752  150.5706 H   0  0  0  0  0  0  0  0  0  0  0  0
  144.1717  134.5218  149.7682 H   0  0  0  0  0  0  0  0  0  0  0  0
  146.8683  131.9896  150.8576 H   0  0  0  0  0  0  0  0  0  0  0  0
  146.8707  133.4301  149.8372 H   0  0  0  0  0  0  0  0  0  0  0  0
  150.1032  133.1757  153.4216 H   0  0  0  0  0  0  0  0  0  0  0  0
  144.6791  134.0957  156.7655 H   0  0  0  0  0  0  0  0  0  0  0  0
  146.6019  133.1985  158.3525 H   0  0  0  0  0  0  0  0  0  0  0  0
  148.1941  133.0503  157.6836 H   0  0  0  0  0  0  0  0  0  0  0  0
  146.8202  135.7520  158.1601 H   0  0  0  0  0  0  0  0  0  0  0  0
  148.6642  135.5295  156.3423 H   0  0  0  0  0  0  0  0  0  0  0  0
  148.7652  136.8451  157.4969 H   0  0  0  0  0  0  0  0  0  0  0  0
  150.7269  135.9271  157.4471 H   0  0  0  0  0  0  0  0  0  0  0  0
  148.8830  134.4085  159.9234 H   0  0  0  0  0  0  0  0  0  0  0  0
  145.9465  134.7889  160.2244 H   0  0  0  0  0  0  0  0  0  0  0  0
  147.0129  133.6898  161.0828 H   0  0  0  0  0  0  0  0  0  0  0  0
  146.0410  135.9220  162.3171 H   0  0  0  0  0  0  0  0  0  0  0  0
  147.7159  135.4250  162.6026 H   0  0  0  0  0  0  0  0  0  0  0  0
  149.4442  136.3522  160.8872 H   0  0  0  0  0  0  0  0  0  0  0  0
  148.7213  137.2012  159.5286 H   0  0  0  0  0  0  0  0  0  0  0  0
  1  2  1  0  0  0  0
  1 30  1  0  0  0  0
  1 31  1  0  0  0  0
  2  3  2  0  0  0  0
  2  4  1  0  0  0  0
  4 28  1  0  0  0  0
  4  9  1  0  0  0  0
  4  5  1  0  0  0  0
  5  6  1  0  0  0  0
  5 32  1  0  0  0  0
  5 33  1  0  0  0  0
  6 29  1  0  0  0  0
  6  7  1  0  0  0  0
  6  8  1  0  0  0  0
  8  9  1  0  0  0  0
  8 34  1  0  0  0  0
  8 35  1  0  0  0  0
  9 10  1  0  0  0  0
 10 15  1  0  0  0  0
 10 11  2  0  0  0  0
 11 12  1  0  0  0  0
 12 13  2  0  0  0  0
 12 36  1  0  0  0  0
 13 14  1  0  0  0  0
 14 18  1  0  0  0  0
 14 15  2  0  0  0  0
 15 16  1  0  0  0  0
 16 17  2  0  0  0  0
 17 18  1  0  0  0  0
 17 37  1  0  0  0  0
 18 19  1  0  0  0  0
 19 20  1  0  0  0  0
 19 38  1  0  0  0  0
 19 39  1  0  0  0  0
 20 21  1  0  0  0  0
 20 23  1  0  0  0  0
 20 40  1  0  0  0  0
 21 22  1  0  0  0  0
 21 41  1  0  0  0  0
 21 42  1  0  0  0  0
 22 43  1  0  0  0  0
 23 27  1  0  0  0  0
 23 24  1  0  0  0  0
 23 44  1  0  0  0  0
 24 25  1  0  0  0  0
 24 45  1  0  0  0  0
 24 46  1  0  0  0  0
 25 26  1  0  0  0  0
 25 47  1  0  0  0  0
 25 48  1  0  0  0  0
 26 27  1  0  0  0  0
 27 49  1  0  0  0  0
 27 50  1  0  0  0  0
M  END
> <s_m_source_file>
AV-unprocessed.smi

> <i_m_source_file_index>
221

> <i_lp_mmshare_version>
43012

> <i_f3d_flags>
0

> <s_epik_input>
W05IMl1DKD1PKVtDQEBIXTFbQ0gyXVtDQEBIXShGKVtDSDJdTjFjKG5bY0hdbjIpYyhjMjMpbltjSF1uM1tDSDJdW0NASF0oW0NIMl1bT0hdKVtDQEBIXTRbQ0gyXVtDSDJdT1tDSDJdNA==

> <s_epik_cmdline>
J2VwaWtfcHl0aG9uJywgJy1waCcsICc3LjAnLCAnLXRuJywgJzgnLCAnLW1hJywgJzIwMCcsICctbWV0YWxfYmluZGluZycsICctaW1hZScsICc8aW5maWxlLm1hZT4nLCAnLW9tYWUnLCAnPG91dGZpbGUubWFlPic=

> <r_lp_tautomer_probability>
1

> <r_epik_Ionization_Penalty>
0.000818822

> <r_epik_Ionization_Penalty_Charging>
0

> <r_epik_Ionization_Penalty_Neutral>
0.000818822

> <r_epik_State_Penalty>
0.000440551

> <r_epik_Charging_Adjusted_Penalty>
0.000440551

> <i_epik_Tot_Q>
0

> <i_epik_Tot_abs_Q>
0

> <r_epik_Metal_State_Penalty>
-0

> <b_epik_Metal_Only>
0

> <s_lp_Force_Field>
OPLS_2005

> <r_lp_Energy>
52.2348

> <b_lp_Chiralities_Consistent>
1

> <s_lp_Variant>
AV-unprocessed.smi:221-4

> <Gold.Version>
5.8.1

> <Gold.Id.Protein>
6NUR|6NUR_protein|mol2

> <Gold.PLP.Fitness>
42.7907

> <Gold.PLP.PLP>
-36.7130

> <Gold.PLP.part.hbond>
-4.0000

> <Gold.PLP.part.metal>
0.0000

> <Gold.PLP.part.buried>
-6.8737

> <Gold.PLP.part.nonpolar>
-26.8051

> <Gold.PLP.part.repulsive>
0.5981

> <Gold.PLP.ligand.clash>
0.0000

> <Gold.PLP.ligand.torsion>
1.0056

> <Gold.PLP.Chemscore.Hbond>
2.5293

> <Gold.PLP.Chemscore.CHOScore>
0.0000

> <Gold.PLP.Chemscore.Metal>
0.0000

> <Gold.Chemscore.Hbonds>
donor molecule, donor type, donor heavy atom, donor atom, acceptor molecule, acceptor atom, score
      L1  H     1    30       P1 10171  0.25
      P1  H  6896  6909       L1    22  0.78
      P1  H  6931  6943       L1    26  0.10
      P1  H  6934  6947       L1    26  0.66

> <Gold.PLP.Chemscore.Internal.Correction>
0.5011

> <Gold.Rescore>
     Score         DG    S(hbond)    S(metal)    S(lipo)     H(rot)  DE(clash)    DE(int)     intcor
      7.09     -10.58       1.92        0.00      61.05       3.31       0.00       3.49       ----

> <Gold.Chemscore.Fitness>
7.0935

> <Gold.Chemscore.DG>
-10.5807

> <Gold.Chemscore.ZeroCoef>
-5.4800

> <Gold.Chemscore.Hbond>
1.9246

> <Gold.Chemscore.Metal>
0.0000

> <Gold.Chemscore.Lipo>
61.0542

> <Gold.Chemscore.Internal_Hbond>
0.0000

> <Gold.Chemscore.DEClash>
0.0021

> <Gold.Chemscore.DEInternal>
3.4850

> <Gold.Chemscore.Rot>
3.3089

> <Gold.Chemscore.Internal.Correction>
   9.000000E+99

> <Gold.Chemscore.Hbonds>
donor molecule, donor type, donor heavy atom, donor atom, acceptor molecule, acceptor atom, score
      L1  H     1    30       P1 10171  0.26
      P1  H  6896  6909       L1    22  0.63
      P1  H  6934  6947       L1    26  0.44

> <Gold.Chemscore.Hbond.Weighted>
-6.4282

> <Gold.Chemscore.Metal.Weighted>
-0.0000

> <Gold.Chemscore.Lipo.Weighted>
-7.1433

> <Gold.Chemscore.Internal_Hbond.Weighted>
0.0000

> <Gold.Chemscore.DEClash.Weighted>
0.0021

> <Gold.Chemscore.DEInternal.Weighted>
3.4850

> <Gold.Chemscore.Rot.Weighted>
8.4709

> <Gold.Chemscore.Internal.Correction.Weighted>
   9.000000E+99

> <Gold.Protein.RotatedTorsions>
[ 6907 6896 6895 6894 ] final   47.63 input  -60.11 | X-H torsion
[ 7974 7965 7964 7962 ] final  -50.77 input  175.53 | X-H torsion
[ 8008 7997 7996 7995 ] final  150.31 input   59.86 | X-H torsion
[ 10167 10162 10161 10158 ] final -177.37 input  -65.29 | X-H torsion
[ 10718 10713 10712 10709 ] final  -11.99 input   66.30 | X-H torsion
[ 10763 10752 10751 10750 ] final   85.14 input  -60.55 | X-H torsion
[ 11005 11000 10999 10996 ] final  -37.63 input  -57.11 | X-H torsion

> <Gold.Protein.ActiveResidues>
 VAL166  LYS551  ARG553  GLY616  TRP617  ASP618  TYR619  PRO620  LYS621  CYS622 
 ASP623  PHE694  ASN695  SER759  ASP760  ASP761  ALA762  ILE779  LEU786  VAL792 
 PHE793  MET794  SER795  GLU796  ALA797  LYS798  CYS799  TRP800  GLU811  SER814 

> <Gold.Protein.RotatedAtoms>
  152.2703  134.7940  160.0415 H   0  0  0  0  0  0  0  0  0  0  0  0  # atno 6907 bound_to 6896
  151.8555  133.3442  159.3695 H   0  0  0  0  0  0  0  0  0  0  0  0  # atno 6908 bound_to 6896
  150.7149  134.5185  159.5686 H   0  0  0  0  0  0  0  0  0  0  0  0  # atno 6909 bound_to 6896
  145.9262  140.7790  142.9622 H   0  0  0  0  0  0  0  0  0  0  0  0  # atno 7974 bound_to 7965
  156.2720  140.2078  156.5997 H   0  0  0  0  0  0  0  0  0  0  0  0  # atno 8008 bound_to 7997
  154.6916  140.0529  157.0393 H   0  0  0  0  0  0  0  0  0  0  0  0  # atno 8009 bound_to 7997
  155.0858  140.3191  155.4591 H   0  0  0  0  0  0  0  0  0  0  0  0  # atno 8010 bound_to 7997
  139.5484  144.2175  152.1031 H   0  0  0  0  0  0  0  0  0  0  0  0  # atno 10167 bound_to 10162
  156.6510  130.4955  149.6062 H   0  0  0  0  0  0  0  0  0  0  0  0  # atno 10718 bound_to 10713
  153.1447  135.4628  154.9548 H   0  0  0  0  0  0  0  0  0  0  0  0  # atno 10763 bound_to 10752
  154.7776  135.3178  154.8061 H   0  0  0  0  0  0  0  0  0  0  0  0  # atno 10764 bound_to 10752
  153.8577  135.6915  153.4840 H   0  0  0  0  0  0  0  0  0  0  0  0  # atno 10765 bound_to 10752
  140.9967  133.6976  156.1947 H   0  0  0  0  0  0  0  0  0  0  0  0  # atno 11005 bound_to 11000
  144.6759  140.2054  143.7382 LP  0  0  0  0  0  0  0  0  0  0  0  0  # atno 17320 bound_to 7965
  145.8486  139.2164  143.1785 LP  0  0  0  0  0  0  0  0  0  0  0  0  # atno 17321 bound_to 7965
  140.1666  144.4976  150.6603 LP  0  0  0  0  0  0  0  0  0  0  0  0  # atno 17342 bound_to 10162
  140.6739  143.2297  151.5557 LP  0  0  0  0  0  0  0  0  0  0  0  0  # atno 17343 bound_to 10162
  156.2084  130.6664  151.1243 LP  0  0  0  0  0  0  0  0  0  0  0  0  # atno 17370 bound_to 10713
  157.7141  131.0719  150.6394 LP  0  0  0  0  0  0  0  0  0  0  0  0  # atno 17371 bound_to 10713
  140.6955  134.4620  157.5588 LP  0  0  0  0  0  0  0  0  0  0  0  0  # atno 17394 bound_to 11000
  139.9018  134.8539  156.1865 LP  0  0  0  0  0  0  0  0  0  0  0  0  # atno 17395 bound_to 11000

$$$$
