#       Name:                AV-unprocessed.smi:47
#       Creating user name   scv26
#       Creation time:       Thu Mar 26 16:30:26 2020


#       File generated by GOLD software.
#

@<TRIPOS>MOLECULE
AV-unprocessed.smi:47
    36    38     1
SMALL
NO_CHARGES


@<TRIPOS>ATOM
      1 ****        -4.5342  -0.3701   2.5853 O.3            1 S1                 0.0000
      2 ****        -3.9625   0.2271   1.4406 C.3            1 S1                 0.0000
      3 ****        -3.5815   1.6916   1.6789 C.3            1 S1                 0.0000
      4 ****        -2.4217   1.9598   0.8057 N.4            1 S1                 1.0000
      5 ****        -1.9598   0.6804   0.2312 C.3            1 S1                 0.0000
      6 ****        -0.4491   0.5767   0.2151 C.2            1 S1                 0.0000
      7 ****         0.3685   1.1205   1.1387 N.2            1 S1                 0.0000
      8 ****         1.5933   0.7801   0.7883 N.pl3          1 S1                -1.0000
      9 ****         1.5083   0.0320  -0.3225 C.2            1 S1                 0.0000
     10 ****         2.7009  -0.5309  -0.9886 C.ar           1 S1                 0.0000
     11 ****         2.5659  -1.3003  -2.1676 C.ar           1 S1                 0.0000
     12 ****         3.6931  -1.8452  -2.8129 C.ar           1 S1                 0.0000
     13 ****         4.9791  -1.6279  -2.2864 C.ar           1 S1                 0.0000
     14 ****         5.1329  -0.8650  -1.1148 C.ar           1 S1                 0.0000
     15 ****         4.0025  -0.3220  -0.4733 C.ar           1 S1                 0.0000
     16 ****         0.2459  -0.1148  -0.6999 N.2            1 S1                 0.0000
     17 ****        -2.6344  -0.4173   1.0576 C.3            1 S1                 0.0000
     18 ****        -4.6600   0.1566   0.6047 H              1 S1                 0.0000
     19 ****        -2.3295   0.6333  -0.7942 H              1 S1                 0.0000
     20 ****        -4.7168  -1.2779   2.3942 H              1 S1                 0.0000
     21 ****        -4.4053   2.3765   1.4770 H              1 S1                 0.0000
     22 ****        -3.2615   1.8442   2.7109 H              1 S1                 0.0000
     23 ****        -2.6684   2.5949   0.0606 H              1 S1                 0.0000
     24 ****         1.5870  -1.4789  -2.5875 H              1 S1                 0.0000
     25 ****         3.5691  -2.4301  -3.7123 H              1 S1                 0.0000
     26 ****         5.8447  -2.0450  -2.7795 H              1 S1                 0.0000
     27 ****         6.1181  -0.6955  -0.7063 H              1 S1                 0.0000
     28 ****         4.1453   0.2598   0.4254 H              1 S1                 0.0000
     29 ****        -2.0497  -0.6153   1.9581 H              1 S1                 0.0000
     30 ****        -2.7426  -1.3565   0.5142 H              1 S1                 0.0000
     31 ****        -1.6771   2.3585   1.3605 H              1 S1                 0.0000
     32 ****        -5.3837   0.1014   2.8222 LP             1 S1                 0.0000
     33 ****        -3.8945  -0.3095   3.3515 LP             1 S1                 0.0000
     34 ****         0.1004   1.6707   1.9295 LP             1 S1                 0.0000
     35 ****         2.4349   1.0340   1.2650 LP             1 S1                 0.0000
     36 ****        -0.1066  -0.6236  -1.4854 LP             1 S1                 0.0000
@<TRIPOS>BOND
    1    1    2 1     
    2    1   20 1     
    3    2   18 1     
    4    2   17 1     
    5    2    3 1     
    6    3    4 1     
    7    3   21 1     
    8    3   22 1     
    9    4    5 1     
   10    4   23 1     
   11    4   31 1     
   12    5   19 1     
   13    5    6 1     
   14    5   17 1     
   15    6   16 1     
   16    6    7 2     
   17    7    8 1     
   18    8    9 1     
   19    9   10 1     
   20    9   16 2     
   21   10   15 ar    
   22   10   11 ar    
   23   11   12 ar    
   24   11   24 1     
   25   12   13 ar    
   26   12   25 1     
   27   13   14 ar    
   28   13   26 1     
   29   14   15 ar    
   30   14   27 1     
   31   15   28 1     
   32   17   29 1     
   33   17   30 1     
   34    1   32 1     
   35    1   33 1     
   36    7   34 1     
   37    8   35 1     
   38   16   36 1     
@<TRIPOS>SUBSTRUCTURE
      1 S1             1
@<TRIPOS>SET
LONE_PAIRS      STATIC     ATOMS    <user>   **** ""
5 32 33 34 35 36
DONOR_HYDROGENS      STATIC     ATOMS    <user>   **** ""
3 20 23 31
ATOM$BLUE        STATIC     ATOMS    COLORGROUP SYSTEM
5 32 33 34 35 36
ATOM$RED        STATIC     ATOMS    COLORGROUP SYSTEM
3 20 23 31
