AV-unprocessed.smi:1047|AV-procd|sdf|4561|dock3
  -GOLD-   22720 3 03D 1   1.00000     0.00000
 Structure written by MMmdl.
 57 59  0  0  0  0  0  0  0  0  3 V2000
  146.1939  133.7339  153.3872 C   0  0  0  0  0  0  0  0  0  0  0  0
  147.4613  133.4803  154.2160 C   0  0  0  0  0  0  0  0  0  0  0  0
  148.4663  134.5661  154.0634 N   0  3  2  0  0  0  0  0  0  0  0  0
  149.7747  134.2549  154.6888 C   0  0  0  0  0  0  0  0  0  0  0  0
  149.7232  134.4526  156.2141 C   0  0  0  0  0  0  0  0  0  0  0  0
  149.3137  135.7838  156.5047 O   0  0  0  0  0  0  0  0  0  0  0  0
  148.0059  136.0724  156.0198 C   0  0  1  0  0  0  0  0  0  0  0  0
  147.6458  137.5042  156.4460 C   0  0  0  0  0  0  0  0  0  0  0  0
  148.1464  138.4967  155.4735 N   0  3  0  0  0  0  0  0  0  0  0  0
  148.9793  139.5607  156.0697 C   0  0  0  0  0  0  0  0  0  0  0  0
  149.3856  140.6064  155.0183 C   0  0  2  0  0  0  0  0  0  0  0  0
  150.1025  139.9555  153.9865 O   0  0  0  0  0  0  0  0  0  0  0  0
  150.2610  141.7210  155.6228 C   0  0  0  0  0  0  0  0  0  0  0  0
  151.2256  141.2100  156.5804 N   0  0  0  0  0  0  0  0  0  0  0  0
  151.9640  140.0882  156.4738 C   0  0  0  0  0  0  0  0  0  0  0  0
  152.7958  139.8101  157.4731 N   0  0  0  0  0  0  0  0  0  0  0  0
  152.5647  140.8704  158.3325 C   0  0  0  0  0  0  0  0  0  0  0  0
  153.1327  141.1726  159.5894 C   0  0  0  0  0  0  0  0  0  0  0  0
  152.7385  142.3262  160.3042 C   0  0  0  0  0  0  0  0  0  0  0  0
  153.3735  142.6109  161.6540 C   0  0  0  0  0  0  0  0  0  0  0  0
  151.7623  143.1999  159.7612 C   0  0  0  0  0  0  0  0  0  0  0  0
  151.3220  144.4431  160.5135 C   0  0  0  0  0  0  0  0  0  0  0  0
  151.1874  142.9149  158.5046 C   0  0  0  0  0  0  0  0  0  0  0  0
  151.5866  141.7630  157.8040 C   0  0  0  0  0  0  0  0  0  0  0  0
  148.0000  135.9137  154.4821 C   0  0  0  0  0  0  0  0  0  0  0  0
  145.5220  132.8771  153.4434 H   0  0  0  0  0  0  0  0  0  0  0  0
  146.4356  133.8936  152.3357 H   0  0  0  0  0  0  0  0  0  0  0  0
  145.6379  134.6017  153.7407 H   0  0  0  0  0  0  0  0  0  0  0  0
  147.2057  133.3271  155.2645 H   0  0  0  0  0  0  0  0  0  0  0  0
  147.8979  132.5427  153.8699 H   0  0  0  0  0  0  0  0  0  0  0  0
  150.0931  133.2423  154.4384 H   0  0  0  0  0  0  0  0  0  0  0  0
  150.5251  134.9238  154.2649 H   0  0  0  0  0  0  0  0  0  0  0  0
  149.0480  133.7367  156.6854 H   0  0  0  0  0  0  0  0  0  0  0  0
  150.7103  134.2872  156.6461 H   0  0  0  0  0  0  0  0  0  0  0  0
  147.2884  135.3837  156.4689 H   0  0  0  0  0  0  0  0  0  0  0  0
  146.5652  137.6087  156.5556 H   0  0  0  0  0  0  0  0  0  0  0  0
  148.0898  137.7194  157.4188 H   0  0  0  0  0  0  0  0  0  0  0  0
  148.7034  138.0197  154.7783 H   0  0  0  0  0  0  0  0  0  0  0  0
  148.4084  140.0411  156.8655 H   0  0  0  0  0  0  0  0  0  0  0  0
  149.8650  139.1216  156.5318 H   0  0  0  0  0  0  0  0  0  0  0  0
  148.4891  141.0523  154.5848 H   0  0  0  0  0  0  0  0  0  0  0  0
  149.5930  140.0024  153.1910 H   0  0  0  0  0  0  0  0  0  0  0  0
  150.8082  142.2405  154.8351 H   0  0  0  0  0  0  0  0  0  0  0  0
  149.6410  142.4706  156.1171 H   0  0  0  0  0  0  0  0  0  0  0  0
  151.8910  139.4423  155.6108 H   0  0  0  0  0  0  0  0  0  0  0  0
  153.8762  140.5071  160.0030 H   0  0  0  0  0  0  0  0  0  0  0  0
  152.6113  142.6711  162.4310 H   0  0  0  0  0  0  0  0  0  0  0  0
  153.9174  143.5553  161.6277 H   0  0  0  0  0  0  0  0  0  0  0  0
  154.0768  141.8272  161.9369 H   0  0  0  0  0  0  0  0  0  0  0  0
  150.5868  145.0136  159.9453 H   0  0  0  0  0  0  0  0  0  0  0  0
  152.1739  145.0952  160.7071 H   0  0  0  0  0  0  0  0  0  0  0  0
  150.8697  144.1715  161.4676 H   0  0  0  0  0  0  0  0  0  0  0  0
  150.4430  143.5719  158.0800 H   0  0  0  0  0  0  0  0  0  0  0  0
  148.6734  136.6509  154.0422 H   0  0  0  0  0  0  0  0  0  0  0  0
  147.0127  136.1295  154.0752 H   0  0  0  0  0  0  0  0  0  0  0  0
  147.3569  138.9273  155.0135 H   0  0  0  0  0  0  0  0  0  0  0  0
  148.6436  134.6177  153.0699 H   0  0  0  0  0  0  0  0  0  0  0  0
  1  2  1  0  0  0  0
  1 26  1  0  0  0  0
  1 27  1  0  0  0  0
  1 28  1  0  0  0  0
  2  3  1  0  0  0  0
  2 29  1  0  0  0  0
  2 30  1  0  0  0  0
  3 25  1  0  0  0  0
  3  4  1  0  0  0  0
  3 57  1  0  0  0  0
  4  5  1  0  0  0  0
  4 31  1  0  0  0  0
  4 32  1  0  0  0  0
  5  6  1  0  0  0  0
  5 33  1  0  0  0  0
  5 34  1  0  0  0  0
  6  7  1  0  0  0  0
  7  8  1  0  0  0  0
  7 25  1  0  0  0  0
  7 35  1  0  0  0  0
  8  9  1  0  0  0  0
  8 36  1  0  0  0  0
  8 37  1  0  0  0  0
  9 10  1  0  0  0  0
  9 38  1  0  0  0  0
  9 56  1  0  0  0  0
 10 11  1  0  0  0  0
 10 39  1  0  0  0  0
 10 40  1  0  0  0  0
 11 12  1  0  0  0  0
 11 13  1  0  0  0  0
 11 41  1  0  0  0  0
 12 42  1  0  0  0  0
 13 14  1  0  0  0  0
 13 43  1  0  0  0  0
 13 44  1  0  0  0  0
 14 24  1  0  0  0  0
 14 15  1  0  0  0  0
 15 16  2  0  0  0  0
 15 45  1  0  0  0  0
 16 17  1  0  0  0  0
 17 24  2  0  0  0  0
 17 18  1  0  0  0  0
 18 19  2  0  0  0  0
 18 46  1  0  0  0  0
 19 20  1  0  0  0  0
 19 21  1  0  0  0  0
 20 47  1  0  0  0  0
 20 48  1  0  0  0  0
 20 49  1  0  0  0  0
 21 22  1  0  0  0  0
 21 23  2  0  0  0  0
 22 50  1  0  0  0  0
 22 51  1  0  0  0  0
 22 52  1  0  0  0  0
 23 24  1  0  0  0  0
 23 53  1  0  0  0  0
 25 54  1  0  0  0  0
 25 55  1  0  0  0  0
M  CHG  1   3   1
M  CHG  1   9   1
M  END
> <s_m_source_file>
AV-unprocessed.smi

> <i_m_source_file_index>
1047

> <i_lp_mmshare_version>
43012

> <i_f3d_flags>
0

> <s_epik_input>
W0NIM11bQ0gyXU4xW0NIMl1bQ0gyXU9bQ0BIXShbQ0gyXTEpW0NIMl1bTkhdW0NIMl1bQ0BIXShbT0hdKVtDSDJdbihbY0hdbjIpYyhjMjMpW2NIXWMoW0NIM10pYyhbY0hdMylbQ0gzXQ==

> <s_epik_cmdline>
J2VwaWtfcHl0aG9uJywgJy1waCcsICc3LjAnLCAnLXRuJywgJzgnLCAnLW1hJywgJzIwMCcsICctbWV0YWxfYmluZGluZycsICctaW1hZScsICc8aW5maWxlLm1hZT4nLCAnLW9tYWUnLCAnPG91dGZpbGUubWFlPic=

> <r_epik_Ionization_Penalty>
0.528991

> <r_epik_Ionization_Penalty_Charging>
0.438567

> <r_epik_Ionization_Penalty_Neutral>
0.0904237

> <r_epik_State_Penalty>
0.533036

> <r_epik_Charging_Adjusted_Penalty>
0.971603

> <i_epik_Tot_Q>
2

> <i_epik_Tot_abs_Q>
2

> <r_epik_Metal_State_Penalty>
0.448985

> <b_epik_Metal_Only>
0

> <s_lp_Force_Field>
OPLS_2005

> <r_lp_Energy>
30.8403

> <b_lp_Chiralities_Consistent>
1

> <s_lp_Variant>
AV-unprocessed.smi:1047-2

> <Gold.Version>
5.8.1

> <Gold.Id.Protein>
6NUR|6NUR_protein|mol2

> <Gold.PLP.Fitness>
50.6195

> <Gold.PLP.PLP>
-39.7931

> <Gold.PLP.part.hbond>
-4.0000

> <Gold.PLP.part.metal>
0.0000

> <Gold.PLP.part.buried>
-3.4439

> <Gold.PLP.part.nonpolar>
-31.2099

> <Gold.PLP.part.repulsive>
0.0145

> <Gold.PLP.ligand.clash>
0.0000

> <Gold.PLP.ligand.torsion>
1.1378

> <Gold.PLP.Chemscore.Hbond>
4.2000

> <Gold.PLP.Chemscore.CHOScore>
0.0000

> <Gold.PLP.Chemscore.Metal>
0.0000

> <Gold.Chemscore.Hbonds>
donor molecule, donor type, donor heavy atom, donor atom, acceptor molecule, acceptor atom, score
      L1  H     3    57       P1  7948  1.28
      L1  H    12    42       P1  7957  0.93
      P1  H  7989  7998       L1    12  0.94
      P1  H  7997  8010       L1    16  1.00

> <Gold.PLP.Chemscore.Internal.Correction>
0.5019

> <Gold.Rescore>
     Score         DG    S(hbond)    S(metal)    S(lipo)     H(rot)  DE(clash)    DE(int)     intcor
     17.22     -18.57       2.15        0.00     109.65       2.70       0.43       0.92       ----

> <Gold.Chemscore.Fitness>
17.2174

> <Gold.Chemscore.DG>
-18.5683

> <Gold.Chemscore.ZeroCoef>
-5.4800

> <Gold.Chemscore.Hbond>
2.1458

> <Gold.Chemscore.Metal>
0.0000

> <Gold.Chemscore.Lipo>
109.6538

> <Gold.Chemscore.Internal_Hbond>
0.0000

> <Gold.Chemscore.DEClash>
0.4343

> <Gold.Chemscore.DEInternal>
0.9166

> <Gold.Chemscore.Rot>
2.6985

> <Gold.Chemscore.Internal.Correction>
   9.000000E+99

> <Gold.Chemscore.Hbonds>
donor molecule, donor type, donor heavy atom, donor atom, acceptor molecule, acceptor atom, score
      L1  H     3    57       P1  7948  0.16
      L1  H    12    42       P1  7957  0.85
      P1  H  7989  7998       L1    12  0.20
      P1  H  7997  8010       L1    16  0.19

> <Gold.Chemscore.Hbond.Weighted>
-7.1670

> <Gold.Chemscore.Metal.Weighted>
-0.0000

> <Gold.Chemscore.Lipo.Weighted>
-12.8295

> <Gold.Chemscore.Internal_Hbond.Weighted>
0.0000

> <Gold.Chemscore.DEClash.Weighted>
0.4343

> <Gold.Chemscore.DEInternal.Weighted>
0.9166

> <Gold.Chemscore.Rot.Weighted>
6.9081

> <Gold.Chemscore.Internal.Correction.Weighted>
   9.000000E+99

> <Gold.Protein.RotatedTorsions>
[ 6907 6896 6895 6894 ] final   61.03 input  -60.11 | X-H torsion
[ 7974 7965 7964 7962 ] final  -27.37 input  175.53 | X-H torsion
[ 8008 7997 7996 7995 ] final   58.39 input   59.86 | X-H torsion
[ 10167 10162 10161 10158 ] final  -28.62 input  -65.29 | X-H torsion
[ 10718 10713 10712 10709 ] final -171.98 input   66.30 | X-H torsion
[ 10763 10752 10751 10750 ] final -130.26 input  -60.55 | X-H torsion
[ 11005 11000 10999 10996 ] final -172.14 input  -57.11 | X-H torsion

> <Gold.Protein.ActiveResidues>
 VAL166  LYS551  ARG553  GLY616  TRP617  ASP618  TYR619  PRO620  LYS621  CYS622 
 ASP623  PHE694  ASN695  SER759  ASP760  ASP761  ALA762  ILE779  LEU786  VAL792 
 PHE793  MET794  SER795  GLU796  ALA797  LYS798  CYS799  TRP800  GLU811  SER814 

> <Gold.Protein.RotatedAtoms>
  152.4054  134.6216  160.0052 H   0  0  0  0  0  0  0  0  0  0  0  0  # atno 6907 bound_to 6896
  151.6409  133.3320  159.3138 H   0  0  0  0  0  0  0  0  0  0  0  0  # atno 6908 bound_to 6896
  150.7949  134.7043  159.6612 H   0  0  0  0  0  0  0  0  0  0  0  0  # atno 6909 bound_to 6896
  146.1363  140.5142  142.8671 H   0  0  0  0  0  0  0  0  0  0  0  0  # atno 7974 bound_to 7965
  155.5493  140.3486  155.4465 H   0  0  0  0  0  0  0  0  0  0  0  0  # atno 8008 bound_to 7997
  156.0595  140.1337  156.9984 H   0  0  0  0  0  0  0  0  0  0  0  0  # atno 8009 bound_to 7997
  154.4473  140.0988  156.6480 H   0  0  0  0  0  0  0  0  0  0  0  0  # atno 8010 bound_to 7997
  140.7268  143.3995  151.1289 H   0  0  0  0  0  0  0  0  0  0  0  0  # atno 10167 bound_to 10162
  156.7488  130.9370  151.3113 H   0  0  0  0  0  0  0  0  0  0  0  0  # atno 10718 bound_to 10713
  154.8756  135.3868  154.4054 H   0  0  0  0  0  0  0  0  0  0  0  0  # atno 10763 bound_to 10752
  153.4774  135.7030  153.5963 H   0  0  0  0  0  0  0  0  0  0  0  0  # atno 10764 bound_to 10752
  153.4393  135.3860  155.2186 H   0  0  0  0  0  0  0  0  0  0  0  0  # atno 10765 bound_to 10752
  140.5003  134.5899  157.4985 H   0  0  0  0  0  0  0  0  0  0  0  0  # atno 11005 bound_to 11000
  144.7743  140.5705  143.6649 LP  0  0  0  0  0  0  0  0  0  0  0  0  # atno 17320 bound_to 7965
  145.5149  139.1478  143.3584 LP  0  0  0  0  0  0  0  0  0  0  0  0  # atno 17321 bound_to 7965
  139.7613  143.8632  152.3100 LP  0  0  0  0  0  0  0  0  0  0  0  0  # atno 17342 bound_to 10162
  139.8519  144.7160  150.9204 LP  0  0  0  0  0  0  0  0  0  0  0  0  # atno 17343 bound_to 10162
  157.6786  130.9118  150.0211 LP  0  0  0  0  0  0  0  0  0  0  0  0  # atno 17370 bound_to 10713
  156.1415  130.3642  149.9575 LP  0  0  0  0  0  0  0  0  0  0  0  0  # atno 17371 bound_to 10713
  139.9717  134.7282  156.0029 LP  0  0  0  0  0  0  0  0  0  0  0  0  # atno 17394 bound_to 11000
  141.1439  133.6559  156.3809 LP  0  0  0  0  0  0  0  0  0  0  0  0  # atno 17395 bound_to 11000

$$$$
