AV-unprocessed.smi:3240|AV-procd|sdf|12383|dock3
  -GOLD-   2272018243D 1   1.00000     0.00000
 Structure written by MMmdl.
 43 44  0  0  0  0  0  0  0  0  1 V2000
  154.4425  142.6124  164.2229 C   0  0  0  0  0  0  0  0  0  0  0  0
  153.7778  142.6081  162.8768 C   0  0  0  0  0  0  0  0  0  0  0  0
  153.9353  141.6589  161.8273 C   0  0  0  0  0  0  0  0  0  0  0  0
  153.2033  141.9429  160.7625 N   0  0  0  0  0  0  0  0  0  0  0  0
  152.5597  143.0843  161.0892 N   0  0  0  0  0  0  0  0  0  0  0  0
  151.6512  143.7052  160.1380 C   0  0  0  0  0  0  0  0  0  0  0  0
  152.0324  143.4518  158.6575 C   0  0  2  0  0  0  0  0  0  0  0  0
  151.4481  144.5139  157.7129 C   0  0  0  0  0  0  0  0  0  0  0  0
  151.6414  142.1187  158.1868 N   0  0  0  0  0  0  0  0  0  0  0  0
  150.2354  141.9642  157.8056 C   0  0  0  0  0  0  0  0  0  0  0  0
  150.0706  141.5239  156.3335 C   0  0  0  0  0  0  0  0  0  0  0  0
  150.4971  142.6053  155.5241 O   0  0  0  0  0  0  0  0  0  0  0  0
  151.0099  140.3282  156.0478 C   0  0  0  0  0  0  0  0  0  0  0  0
  150.8466  139.7563  154.6279 C   0  0  0  0  0  0  0  0  0  0  0  0
  149.3873  139.3731  154.3470 C   0  0  0  0  0  0  0  0  0  0  0  0
  148.4554  140.5724  154.5665 C   0  0  0  0  0  0  0  0  0  0  0  0
  148.6068  141.1499  155.9852 C   0  0  0  0  0  0  0  0  0  0  0  0
  152.8827  143.5027  162.3629 C   0  0  0  0  0  0  0  0  0  0  0  0
  155.5115  142.4140  164.1442 H   0  0  0  0  0  0  0  0  0  0  0  0
  154.0212  141.8521  164.8808 H   0  0  0  0  0  0  0  0  0  0  0  0
  154.3314  143.5724  164.7276 H   0  0  0  0  0  0  0  0  0  0  0  0
  154.5560  140.7753  161.8088 H   0  0  0  0  0  0  0  0  0  0  0  0
  150.6473  143.3187  160.3213 H   0  0  0  0  0  0  0  0  0  0  0  0
  151.5933  144.7703  160.3599 H   0  0  0  0  0  0  0  0  0  0  0  0
  153.1178  143.5328  158.5877 H   0  0  0  0  0  0  0  0  0  0  0  0
  151.7173  145.5190  158.0387 H   0  0  0  0  0  0  0  0  0  0  0  0
  150.3599  144.4590  157.6666 H   0  0  0  0  0  0  0  0  0  0  0  0
  151.8270  144.3855  156.6984 H   0  0  0  0  0  0  0  0  0  0  0  0
  151.8728  141.4270  158.8932 H   0  0  0  0  0  0  0  0  0  0  0  0
  149.7502  141.2390  158.4603 H   0  0  0  0  0  0  0  0  0  0  0  0
  149.7070  142.9064  157.9460 H   0  0  0  0  0  0  0  0  0  0  0  0
  150.0115  143.3757  155.7760 H   0  0  0  0  0  0  0  0  0  0  0  0
  152.0495  140.6167  156.2094 H   0  0  0  0  0  0  0  0  0  0  0  0
  150.8048  139.5324  156.7653 H   0  0  0  0  0  0  0  0  0  0  0  0
  151.1822  140.4876  153.8918 H   0  0  0  0  0  0  0  0  0  0  0  0
  151.4883  138.8831  154.5058 H   0  0  0  0  0  0  0  0  0  0  0  0
  149.2879  139.0054  153.3253 H   0  0  0  0  0  0  0  0  0  0  0  0
  149.0906  138.5533  155.0026 H   0  0  0  0  0  0  0  0  0  0  0  0
  148.6724  141.3448  153.8278 H   0  0  0  0  0  0  0  0  0  0  0  0
  147.4207  140.2717  154.3994 H   0  0  0  0  0  0  0  0  0  0  0  0
  148.2465  140.4114  156.7024 H   0  0  0  0  0  0  0  0  0  0  0  0
  147.9518  142.0156  156.0884 H   0  0  0  0  0  0  0  0  0  0  0  0
  152.4560  144.3966  162.7925 H   0  0  0  0  0  0  0  0  0  0  0  0
  1  2  1  0  0  0  0
  1 19  1  0  0  0  0
  1 20  1  0  0  0  0
  1 21  1  0  0  0  0
  2 18  2  0  0  0  0
  2  3  1  0  0  0  0
  3  4  2  0  0  0  0
  3 22  1  0  0  0  0
  4  5  1  0  0  0  0
  5  6  1  0  0  0  0
  5 18  1  0  0  0  0
  6  7  1  0  0  0  0
  6 23  1  0  0  0  0
  6 24  1  0  0  0  0
  7  8  1  0  0  0  0
  7  9  1  0  0  0  0
  7 25  1  0  0  0  0
  8 26  1  0  0  0  0
  8 27  1  0  0  0  0
  8 28  1  0  0  0  0
  9 10  1  0  0  0  0
  9 29  1  0  0  0  0
 10 11  1  0  0  0  0
 10 30  1  0  0  0  0
 10 31  1  0  0  0  0
 11 17  1  0  0  0  0
 11 12  1  0  0  0  0
 11 13  1  0  0  0  0
 12 32  1  0  0  0  0
 13 14  1  0  0  0  0
 13 33  1  0  0  0  0
 13 34  1  0  0  0  0
 14 15  1  0  0  0  0
 14 35  1  0  0  0  0
 14 36  1  0  0  0  0
 15 16  1  0  0  0  0
 15 37  1  0  0  0  0
 15 38  1  0  0  0  0
 16 17  1  0  0  0  0
 16 39  1  0  0  0  0
 16 40  1  0  0  0  0
 17 41  1  0  0  0  0
 17 42  1  0  0  0  0
 18 43  1  0  0  0  0
M  END
> <s_m_source_file>
AV-unprocessed.smi

> <i_m_source_file_index>
3240

> <i_lp_mmshare_version>
43012

> <i_f3d_flags>
0

> <s_epik_input>
W0NIM11jMVtjSF1ubihbY0hdMSlbQ0gyXVtDQEhdKFtDSDNdKVtOSF1bQ0gyXUMyKFtPSF0pW0NIMl1bQ0gyXVtDSDJdW0NIMl1bQ0gyXTI=

> <s_epik_cmdline>
J2VwaWtfcHl0aG9uJywgJy1waCcsICc3LjAnLCAnLXRuJywgJzgnLCAnLW1hJywgJzIwMCcsICctbWV0YWxfYmluZGluZycsICctaW1hZScsICc8aW5maWxlLm1hZT4nLCAnLW9tYWUnLCAnPG91dGZpbGUubWFlPic=

> <r_lp_tautomer_probability>
1

> <r_epik_Ionization_Penalty>
2.35969

> <r_epik_Ionization_Penalty_Charging>
0

> <r_epik_Ionization_Penalty_Neutral>
2.35969

> <r_epik_State_Penalty>
2.51455

> <r_epik_Charging_Adjusted_Penalty>
2.51455

> <i_epik_Tot_Q>
0

> <i_epik_Tot_abs_Q>
0

> <r_epik_Metal_State_Penalty>
2.51446

> <b_epik_Metal_Only>
0

> <s_lp_Force_Field>
OPLS_2005

> <r_lp_Energy>
22.0798

> <b_lp_Chiralities_Consistent>
1

> <s_lp_Variant>
AV-unprocessed.smi:3240-3

> <Gold.Version>
5.8.1

> <Gold.Id.Protein>
6NUR|6NUR_protein|mol2

> <Gold.PLP.Fitness>
43.8264

> <Gold.PLP.PLP>
-43.0645

> <Gold.PLP.part.hbond>
-2.0000

> <Gold.PLP.part.metal>
0.0000

> <Gold.PLP.part.buried>
0.7077

> <Gold.PLP.part.nonpolar>
-41.5134

> <Gold.PLP.part.repulsive>
0.0000

> <Gold.PLP.ligand.clash>
0.0000

> <Gold.PLP.ligand.torsion>
1.1661

> <Gold.PLP.Chemscore.Hbond>
1.0000

> <Gold.PLP.Chemscore.CHOScore>
0.0000

> <Gold.PLP.Chemscore.Metal>
0.0000

> <Gold.Chemscore.Hbonds>
donor molecule, donor type, donor heavy atom, donor atom, acceptor molecule, acceptor atom, score
      L1  H    12    32       P1  8028  1.00

> <Gold.PLP.Chemscore.Internal.Correction>
0.0941

> <Gold.Rescore>
     Score         DG    S(hbond)    S(metal)    S(lipo)     H(rot)  DE(clash)    DE(int)     intcor
     15.54     -17.95       1.00        0.00     122.79       2.04       1.43       0.98       ----

> <Gold.Chemscore.Fitness>
15.5381

> <Gold.Chemscore.DG>
-17.9467

> <Gold.Chemscore.ZeroCoef>
-5.4800

> <Gold.Chemscore.Hbond>
0.9986

> <Gold.Chemscore.Metal>
0.0000

> <Gold.Chemscore.Lipo>
122.7853

> <Gold.Chemscore.Internal_Hbond>
0.0000

> <Gold.Chemscore.DEClash>
1.4307

> <Gold.Chemscore.DEInternal>
0.9779

> <Gold.Chemscore.Rot>
2.0447

> <Gold.Chemscore.Internal.Correction>
   9.000000E+99

> <Gold.Chemscore.Hbonds>
donor molecule, donor type, donor heavy atom, donor atom, acceptor molecule, acceptor atom, score
      L1  H    12    32       P1  8028  0.99

> <Gold.Chemscore.Hbond.Weighted>
-3.3352

> <Gold.Chemscore.Metal.Weighted>
-0.0000

> <Gold.Chemscore.Lipo.Weighted>
-14.3659

> <Gold.Chemscore.Internal_Hbond.Weighted>
0.0000

> <Gold.Chemscore.DEClash.Weighted>
1.4307

> <Gold.Chemscore.DEInternal.Weighted>
0.9779

> <Gold.Chemscore.Rot.Weighted>
5.2344

> <Gold.Chemscore.Internal.Correction.Weighted>
   9.000000E+99

> <Gold.Protein.RotatedTorsions>
[ 6907 6896 6895 6894 ] final   27.76 input  -60.11 | X-H torsion
[ 7974 7965 7964 7962 ] final  -93.73 input  175.53 | X-H torsion
[ 8008 7997 7996 7995 ] final   45.78 input   59.86 | X-H torsion
[ 10167 10162 10161 10158 ] final -170.41 input  -65.29 | X-H torsion
[ 10718 10713 10712 10709 ] final -131.45 input   66.30 | X-H torsion
[ 10763 10752 10751 10750 ] final   -5.50 input  -60.55 | X-H torsion
[ 11005 11000 10999 10996 ] final  -99.48 input  -57.11 | X-H torsion

> <Gold.Protein.ActiveResidues>
 VAL166  LYS551  ARG553  GLY616  TRP617  ASP618  TYR619  PRO620  LYS621  CYS622 
 ASP623  PHE694  ASN695  SER759  ASP760  ASP761  ALA762  ILE779  LEU786  VAL792 
 PHE793  MET794  SER795  GLU796  ALA797  LYS798  CYS799  TRP800  GLU811  SER814 

> <Gold.Protein.RotatedAtoms>
  152.0071  134.9897  160.0566 H   0  0  0  0  0  0  0  0  0  0  0  0  # atno 6907 bound_to 6896
  152.1464  133.4490  159.4800 H   0  0  0  0  0  0  0  0  0  0  0  0  # atno 6908 bound_to 6896
  150.6870  134.2160  159.4421 H   0  0  0  0  0  0  0  0  0  0  0  0  # atno 6909 bound_to 6896
  145.3827  140.9519  143.2385 H   0  0  0  0  0  0  0  0  0  0  0  0  # atno 7974 bound_to 7965
  155.3416  140.3408  155.4239 H   0  0  0  0  0  0  0  0  0  0  0  0  # atno 8008 bound_to 7997
  156.1810  140.1664  156.8310 H   0  0  0  0  0  0  0  0  0  0  0  0  # atno 8009 bound_to 7997
  154.5334  140.0740  156.8367 H   0  0  0  0  0  0  0  0  0  0  0  0  # atno 8010 bound_to 7997
  139.5863  144.1310  152.1580 H   0  0  0  0  0  0  0  0  0  0  0  0  # atno 10167 bound_to 10162
  156.2245  130.6999  151.0792 H   0  0  0  0  0  0  0  0  0  0  0  0  # atno 10718 bound_to 10713
  153.3993  135.7004  153.6437 H   0  0  0  0  0  0  0  0  0  0  0  0  # atno 10763 bound_to 10752
  153.4977  135.3659  155.2524 H   0  0  0  0  0  0  0  0  0  0  0  0  # atno 10764 bound_to 10752
  154.8709  135.4104  154.3325 H   0  0  0  0  0  0  0  0  0  0  0  0  # atno 10765 bound_to 10752
  141.1307  133.8325  157.0977 H   0  0  0  0  0  0  0  0  0  0  0  0  # atno 11005 bound_to 11000
  144.8496  139.5342  143.6862 LP  0  0  0  0  0  0  0  0  0  0  0  0  # atno 17320 bound_to 7965
  146.2835  139.6940  142.9212 LP  0  0  0  0  0  0  0  0  0  0  0  0  # atno 17321 bound_to 7965
  140.0875  144.5649  150.7078 LP  0  0  0  0  0  0  0  0  0  0  0  0  # atno 17342 bound_to 10162
  140.7134  143.2524  151.4509 LP  0  0  0  0  0  0  0  0  0  0  0  0  # atno 17343 bound_to 10162
  157.7104  131.0737  150.6521 LP  0  0  0  0  0  0  0  0  0  0  0  0  # atno 17370 bound_to 10713
  156.6586  130.4505  149.5695 LP  0  0  0  0  0  0  0  0  0  0  0  0  # atno 17371 bound_to 10713
  140.0353  134.9881  157.0858 LP  0  0  0  0  0  0  0  0  0  0  0  0  # atno 17394 bound_to 11000
  140.4221  134.1870  155.7165 LP  0  0  0  0  0  0  0  0  0  0  0  0  # atno 17395 bound_to 11000

$$$$
