#       Name:                AV-unprocessed.smi:2944
#       Creating user name   scv26
#       Creation time:       Fri Mar 27 16:16:26 2020


#       File generated by GOLD software.
#

@<TRIPOS>MOLECULE
AV-unprocessed.smi:2944
    51    53     1
SMALL
NO_CHARGES


@<TRIPOS>ATOM
      1 ****        -3.0314   2.8963  -2.8021 C.3            1 S1                 0.0000
      2 ****        -2.7079   1.5201  -2.7148 O.3            1 S1                 0.0000
      3 ****        -3.4214   0.8574  -1.6836 C.3            1 S1                 0.0000
      4 ****        -2.9915  -0.6152  -1.6236 C.3            1 S1                 0.0000
      5 ****        -1.5608  -0.7577  -1.3973 N.pl3          1 S1                 0.0000
      6 ****        -0.8975  -0.7113  -0.2153 C.2            1 S1                 0.0000
      7 ****        -1.7615  -0.4637   1.3122 S.3            1 S1                 0.0000
      8 ****        -0.4775   0.3782   2.2975 C.3            1 S1                 0.0000
      9 ****        -1.1420   1.2160   3.4004 C.3            1 S1                 0.0000
     10 ****         0.5242  -0.6189   2.9245 C.2            1 S1                 0.0000
     11 ****         0.0678  -1.6787   3.3590 O.2            1 S1                 0.0000
     12 ****         1.8628  -0.3757   2.9602 N.am           1 S1                 0.0000
     13 ****         2.8012  -1.4321   3.3413 C.3            1 S1                 0.0000
     14 ****         4.1756  -0.7916   3.1907 C.3            1 S1                 0.0000
     15 ****         3.8353   0.5589   2.8192 N.am           1 S1                 0.0000
     16 ****         2.5228   0.7828   2.7185 C.2            1 S1                 0.0000
     17 ****         2.0525   1.8903   2.4622 O.2            1 S1                 0.0000
     18 ****         0.4251  -0.8718  -0.2973 N.2            1 S1                 0.0000
     19 ****         0.6370  -1.0252  -1.6521 C.ar           1 S1                 0.0000
     20 ****         1.8330  -1.2272  -2.3774 C.ar           1 S1                 0.0000
     21 ****         1.8023  -1.3541  -3.7817 C.ar           1 S1                 0.0000
     22 ****         0.5788  -1.2802  -4.4785 C.ar           1 S1                 0.0000
     23 ****        -0.6241  -1.0806  -3.7740 C.ar           1 S1                 0.0000
     24 ****        -0.5879  -0.9565  -2.3719 C.ar           1 S1                 0.0000
     25 ****        -2.4686   3.3534  -3.6160 H              1 S1                 0.0000
     26 ****        -2.7758   3.4200  -1.8802 H              1 S1                 0.0000
     27 ****        -4.0936   3.0403  -3.0043 H              1 S1                 0.0000
     28 ****        -3.2298   1.3427  -0.7252 H              1 S1                 0.0000
     29 ****        -4.4940   0.9219  -1.8715 H              1 S1                 0.0000
     30 ****        -3.5340  -1.1414  -0.8379 H              1 S1                 0.0000
     31 ****        -3.2494  -1.1152  -2.5576 H              1 S1                 0.0000
     32 ****         0.0042   1.0523   1.5940 H              1 S1                 0.0000
     33 ****        -0.4020   1.7679   3.9812 H              1 S1                 0.0000
     34 ****        -1.7094   0.5912   4.0915 H              1 S1                 0.0000
     35 ****        -1.8301   1.9456   2.9727 H              1 S1                 0.0000
     36 ****         2.6273  -1.7476   4.3719 H              1 S1                 0.0000
     37 ****         2.6988  -2.3032   2.6914 H              1 S1                 0.0000
     38 ****         4.7434  -0.8080   4.1215 H              1 S1                 0.0000
     39 ****         4.7645  -1.2652   2.4042 H              1 S1                 0.0000
     40 ****         4.5358   1.2741   2.6868 H              1 S1                 0.0000
     41 ****         2.7752  -1.2835  -1.8527 H              1 S1                 0.0000
     42 ****         2.7219  -1.5071  -4.3272 H              1 S1                 0.0000
     43 ****         0.5638  -1.3762  -5.5545 H              1 S1                 0.0000
     44 ****        -1.5620  -1.0205  -4.3057 H              1 S1                 0.0000
     45 ****        -1.7283   1.4320  -2.5343 LP             1 S1                 0.0000
     46 ****        -2.9267   1.0835  -3.5874 LP             1 S1                 0.0000
     47 ****        -0.9131  -1.8633   3.2973 LP             1 S1                 0.0000
     48 ****         0.6785  -2.3536   3.7732 LP             1 S1                 0.0000
     49 ****         1.0613   2.0132   2.4123 LP             1 S1                 0.0000
     50 ****         2.6613   2.6676   2.3039 LP             1 S1                 0.0000
     51 ****         1.0980  -0.8791   0.4424 LP             1 S1                 0.0000
@<TRIPOS>BOND
    1    1    2 1     
    2    1   25 1     
    3    1   26 1     
    4    1   27 1     
    5    2    3 1     
    6    3    4 1     
    7    3   28 1     
    8    3   29 1     
    9    4    5 1     
   10    4   30 1     
   11    4   31 1     
   12    5   24 1     
   13    5    6 1     
   14    6    7 1     
   15    6   18 2     
   16    7    8 1     
   17    8    9 1     
   18    8   10 1     
   19    8   32 1     
   20    9   33 1     
   21    9   34 1     
   22    9   35 1     
   23   10   11 2     
   24   10   12 am    
   25   12   16 am    
   26   12   13 1     
   27   13   14 1     
   28   13   36 1     
   29   13   37 1     
   30   14   15 1     
   31   14   38 1     
   32   14   39 1     
   33   15   16 am    
   34   15   40 1     
   35   16   17 2     
   36   18   19 1     
   37   19   24 ar    
   38   19   20 ar    
   39   20   21 ar    
   40   20   41 1     
   41   21   22 ar    
   42   21   42 1     
   43   22   23 ar    
   44   22   43 1     
   45   23   24 ar    
   46   23   44 1     
   47    2   45 1     
   48    2   46 1     
   49   11   47 1     
   50   11   48 1     
   51   17   49 1     
   52   17   50 1     
   53   18   51 1     
@<TRIPOS>SUBSTRUCTURE
      1 S1             1
@<TRIPOS>SET
LONE_PAIRS      STATIC     ATOMS    <user>   **** ""
7 45 46 47 48 49 50 51
DONOR_HYDROGENS      STATIC     ATOMS    <user>   **** ""
1 40
ATOM$BLUE        STATIC     ATOMS    COLORGROUP SYSTEM
7 45 46 47 48 49 50 51
ATOM$RED        STATIC     ATOMS    COLORGROUP SYSTEM
1 40
