AV-unprocessed.smi:113|AV-procd|sdf|1096|dock5
  -GOLD-   2262018203D 1   1.00000     0.00000
 Structure written by MMmdl.
 52 55  0  0  0  0  0  0  0  0  1 V2000
  152.4123  143.6396  160.3681 C   0  0  0  0  0  0  0  0  0  0  0  0
  152.8026  142.1828  160.5071 C   0  0  0  0  0  0  0  0  0  0  0  0
  152.4464  141.2468  159.5201 C   0  0  0  0  0  0  0  0  0  0  0  0
  152.8275  139.8957  159.6866 C   0  0  0  0  0  0  0  0  0  0  0  0
  152.4655  138.8360  158.6403 C   0  0  0  0  0  0  0  0  0  0  0  0
  151.1082  138.8699  158.1140 N   0  0  0  0  0  0  0  0  0  0  0  0
  150.8074  139.8388  157.1254 C   0  0  0  0  0  0  0  0  0  0  0  0
  151.6618  140.6252  156.7113 O   0  0  0  0  0  0  0  0  0  0  0  0
  149.4271  139.8199  156.6352 C   0  0  0  0  0  0  0  0  0  0  0  0
  149.0176  140.8604  155.6048 C   0  0  0  0  0  0  0  0  0  0  0  0
  148.5599  138.8910  157.1042 C   0  0  0  0  0  0  0  0  0  0  0  0
  148.8942  137.9261  158.0391 N   0  0  0  0  0  0  0  0  0  0  0  0
  147.8797  136.9070  158.5053 C   0  0  1  0  0  0  0  0  0  0  0  0
  148.3842  135.4849  158.2542 C   0  0  0  0  0  0  0  0  0  0  0  0
  147.8891  134.7656  159.4912 C   0  0  1  0  0  0  0  0  0  0  0  0
  148.6796  133.6256  159.7594 O   0  0  0  0  0  0  0  0  0  0  0  0
  148.0315  135.8504  160.5631 C   0  0  2  0  0  0  0  0  0  0  0  0
  147.1202  135.6730  161.7875 C   0  0  0  0  0  0  0  0  0  0  0  0
  147.2754  136.7550  162.6807 O   0  0  0  0  0  0  0  0  0  0  0  0
  147.6804  137.0532  159.8817 O   0  0  0  0  0  0  0  0  0  0  0  0
  150.1927  137.9032  158.5880 C   0  0  0  0  0  0  0  0  0  0  0  0
  150.5100  137.0678  159.4381 O   0  0  0  0  0  0  0  0  0  0  0  0
  153.5583  139.5496  160.8553 C   0  0  0  0  0  0  0  0  0  0  0  0
  153.9810  138.2199  161.0969 C   0  0  0  0  0  0  0  0  0  0  0  0
  154.7009  137.8976  162.2611 C   0  0  0  0  0  0  0  0  0  0  0  0
  155.0059  138.9004  163.1960 C   0  0  0  0  0  0  0  0  0  0  0  0
  154.5907  140.2238  162.9630 C   0  0  0  0  0  0  0  0  0  0  0  0
  153.8682  140.5709  161.8013 C   0  0  0  0  0  0  0  0  0  0  0  0
  153.4914  141.8555  161.6177 N   0  0  0  0  0  0  0  0  0  0  0  0
  152.1919  143.8882  159.3294 H   0  0  0  0  0  0  0  0  0  0  0  0
  153.2182  144.2919  160.7066 H   0  0  0  0  0  0  0  0  0  0  0  0
  151.5253  143.8494  160.9661 H   0  0  0  0  0  0  0  0  0  0  0  0
  151.8894  141.5757  158.6556 H   0  0  0  0  0  0  0  0  0  0  0  0
  153.1471  138.8986  157.7906 H   0  0  0  0  0  0  0  0  0  0  0  0
  152.6307  137.8360  159.0438 H   0  0  0  0  0  0  0  0  0  0  0  0
  147.9620  140.7807  155.3439 H   0  0  0  0  0  0  0  0  0  0  0  0
  149.5984  140.7385  154.6899 H   0  0  0  0  0  0  0  0  0  0  0  0
  149.1898  141.8668  155.9886 H   0  0  0  0  0  0  0  0  0  0  0  0
  147.5494  138.9117  156.7250 H   0  0  0  0  0  0  0  0  0  0  0  0
  146.9331  137.1284  158.0107 H   0  0  0  0  0  0  0  0  0  0  0  0
  147.9918  135.0838  157.3193 H   0  0  0  0  0  0  0  0  0  0  0  0
  149.4752  135.4844  158.2137 H   0  0  0  0  0  0  0  0  0  0  0  0
  146.8438  134.4797  159.3642 H   0  0  0  0  0  0  0  0  0  0  0  0
  148.8741  133.6044  160.6842 H   0  0  0  0  0  0  0  0  0  0  0  0
  149.0737  135.9391  160.8748 H   0  0  0  0  0  0  0  0  0  0  0  0
  146.0766  135.6408  161.4739 H   0  0  0  0  0  0  0  0  0  0  0  0
  147.3310  134.7354  162.3026 H   0  0  0  0  0  0  0  0  0  0  0  0
  146.4809  136.8446  163.1851 H   0  0  0  0  0  0  0  0  0  0  0  0
  153.7633  137.4257  160.3992 H   0  0  0  0  0  0  0  0  0  0  0  0
  155.0189  136.8802  162.4357 H   0  0  0  0  0  0  0  0  0  0  0  0
  155.5581  138.6557  164.0915 H   0  0  0  0  0  0  0  0  0  0  0  0
  154.8318  140.9863  163.6893 H   0  0  0  0  0  0  0  0  0  0  0  0
  1  2  1  0  0  0  0
  1 30  1  0  0  0  0
  1 31  1  0  0  0  0
  1 32  1  0  0  0  0
  2 29  1  0  0  0  0
  2  3  2  0  0  0  0
  3  4  1  0  0  0  0
  3 33  1  0  0  0  0
  4  5  1  0  0  0  0
  4 23  2  0  0  0  0
  5  6  1  0  0  0  0
  5 34  1  0  0  0  0
  5 35  1  0  0  0  0
  6 21  1  0  0  0  0
  6  7  1  0  0  0  0
  7  8  2  0  0  0  0
  7  9  1  0  0  0  0
  9 10  1  0  0  0  0
  9 11  2  0  0  0  0
 10 36  1  0  0  0  0
 10 37  1  0  0  0  0
 10 38  1  0  0  0  0
 11 12  1  0  0  0  0
 11 39  1  0  0  0  0
 12 13  1  0  0  0  0
 12 21  1  0  0  0  0
 13 20  1  0  0  0  0
 13 14  1  0  0  0  0
 13 40  1  0  0  0  0
 14 15  1  0  0  0  0
 14 41  1  0  0  0  0
 14 42  1  0  0  0  0
 15 16  1  0  0  0  0
 15 17  1  0  0  0  0
 15 43  1  0  0  0  0
 16 44  1  0  0  0  0
 17 18  1  0  0  0  0
 17 20  1  0  0  0  0
 17 45  1  0  0  0  0
 18 19  1  0  0  0  0
 18 46  1  0  0  0  0
 18 47  1  0  0  0  0
 19 48  1  0  0  0  0
 21 22  2  0  0  0  0
 23 28  1  0  0  0  0
 23 24  1  0  0  0  0
 24 25  2  0  0  0  0
 24 49  1  0  0  0  0
 25 26  1  0  0  0  0
 25 50  1  0  0  0  0
 26 27  2  0  0  0  0
 26 51  1  0  0  0  0
 27 28  1  0  0  0  0
 27 52  1  0  0  0  0
 28 29  2  0  0  0  0
M  END
> <s_m_source_file>
AV-unprocessed.smi

> <i_m_source_file_index>
113

> <i_lp_mmshare_version>
43012

> <i_f3d_flags>
0

> <s_epik_input>
W2NIXTFbY0hdW2NIXVtjSF1jKGMxMiluYyhbQ0gzXSlbY0hdYzJbQ0gyXW4zYyg9TyljKFtDSDNdKVtjSF1uKGMzPU8pW0NAQEhdNFtDSDJdW0NAQEhdKFtPSF0pW0NASF0oTzQpW0NIMl1bT0hd

> <s_epik_cmdline>
J2VwaWtfcHl0aG9uJywgJy1waCcsICc3LjAnLCAnLXRuJywgJzgnLCAnLW1hJywgJzIwMCcsICctbWV0YWxfYmluZGluZycsICctaW1hZScsICc8aW5maWxlLm1hZT4nLCAnLW9tYWUnLCAnPG91dGZpbGUubWFlPic=

> <r_lp_tautomer_probability>
1

> <r_epik_Ionization_Penalty>
0.214728

> <r_epik_Ionization_Penalty_Charging>
3.04883e-08

> <r_epik_Ionization_Penalty_Neutral>
0.214728

> <r_epik_State_Penalty>
0.204913

> <r_epik_Charging_Adjusted_Penalty>
0.204913

> <i_epik_Tot_Q>
0

> <i_epik_Tot_abs_Q>
0

> <r_epik_Metal_State_Penalty>
0.000244761

> <b_epik_Metal_Only>
0

> <s_epik_Chemistry_Notes>
This compound contains an acetal/aminal-like group ( X-CH(R)-Y where X, Y are N, S, or O) that may be acid/base labile, releasing an aldehyde.

> <s_lp_Force_Field>
OPLS_2005

> <r_lp_Energy>
37.2315

> <b_lp_Chiralities_Consistent>
1

> <s_lp_Variant>
AV-unprocessed.smi:113-6

> <Gold.Version>
5.8.1

> <Gold.Id.Protein>
6NUR|6NUR_protein|mol2

> <Gold.PLP.Fitness>
48.5958

> <Gold.PLP.PLP>
-43.4918

> <Gold.PLP.part.hbond>
-4.3828

> <Gold.PLP.part.metal>
0.0000

> <Gold.PLP.part.buried>
-4.2040

> <Gold.PLP.part.nonpolar>
-34.6975

> <Gold.PLP.part.repulsive>
0.0000

> <Gold.PLP.ligand.clash>
0.0000

> <Gold.PLP.ligand.torsion>
0.4503

> <Gold.PLP.Chemscore.Hbond>
1.9956

> <Gold.PLP.Chemscore.CHOScore>
0.0000

> <Gold.PLP.Chemscore.Metal>
0.0000

> <Gold.Chemscore.Hbonds>
donor molecule, donor type, donor heavy atom, donor atom, acceptor molecule, acceptor atom, score
      P1  H  6896  6908       L1    22  0.78
      P1  H  6931  6943       L1    19  0.03
      P1  H  6934  6947       L1    20  0.34

> <Gold.PLP.Chemscore.Internal.Correction>
0.0177

> <Gold.Rescore>
     Score         DG    S(hbond)    S(metal)    S(lipo)     H(rot)  DE(clash)    DE(int)     intcor
     12.54     -16.82       1.79        0.00     110.16       2.95       0.06       4.22       ----

> <Gold.Chemscore.Fitness>
12.5394

> <Gold.Chemscore.DG>
-16.8165

> <Gold.Chemscore.ZeroCoef>
-5.4800

> <Gold.Chemscore.Hbond>
1.7939

> <Gold.Chemscore.Metal>
0.0000

> <Gold.Chemscore.Lipo>
110.1606

> <Gold.Chemscore.Internal_Hbond>
0.0000

> <Gold.Chemscore.DEClash>
0.0580

> <Gold.Chemscore.DEInternal>
4.2192

> <Gold.Chemscore.Rot>
2.9469

> <Gold.Chemscore.Internal.Correction>
   9.000000E+99

> <Gold.Chemscore.Hbonds>
donor molecule, donor type, donor heavy atom, donor atom, acceptor molecule, acceptor atom, score
      P1  H  6896  6908       L1    22  0.79
      P1  H  6931  6943       L1    19  0.06
      P1  H  6934  6947       L1    20  0.34

> <Gold.Chemscore.Hbond.Weighted>
-5.9917

> <Gold.Chemscore.Metal.Weighted>
-0.0000

> <Gold.Chemscore.Lipo.Weighted>
-12.8888

> <Gold.Chemscore.Internal_Hbond.Weighted>
0.0000

> <Gold.Chemscore.DEClash.Weighted>
0.0580

> <Gold.Chemscore.DEInternal.Weighted>
4.2192

> <Gold.Chemscore.Rot.Weighted>
7.5439

> <Gold.Chemscore.Internal.Correction.Weighted>
   9.000000E+99

> <Gold.Protein.RotatedTorsions>
[ 6907 6896 6895 6894 ] final -145.97 input  -60.11 | X-H torsion
[ 7974 7965 7964 7962 ] final  166.72 input  175.53 | X-H torsion
[ 8008 7997 7996 7995 ] final -131.28 input   59.86 | X-H torsion
[ 10167 10162 10161 10158 ] final   97.22 input  -65.29 | X-H torsion
[ 10718 10713 10712 10709 ] final   81.58 input   66.30 | X-H torsion
[ 10763 10752 10751 10750 ] final   27.72 input  -60.55 | X-H torsion
[ 11005 11000 10999 10996 ] final  -26.64 input  -57.11 | X-H torsion

> <Gold.Protein.ActiveResidues>
 VAL166  LYS551  ARG553  GLY616  TRP617  ASP618  TYR619  PRO620  LYS621  CYS622 
 ASP623  PHE694  ASN695  SER759  ASP760  ASP761  ALA762  ILE779  LEU786  VAL792 
 PHE793  MET794  SER795  GLU796  ALA797  LYS798  CYS799  TRP800  GLU811  SER814 

> <Gold.Protein.RotatedAtoms>
  151.1351  133.5009  159.2597 H   0  0  0  0  0  0  0  0  0  0  0  0  # atno 6907 bound_to 6896
  151.1715  135.0319  159.8763 H   0  0  0  0  0  0  0  0  0  0  0  0  # atno 6908 bound_to 6896
  152.5461  134.1214  159.8454 H   0  0  0  0  0  0  0  0  0  0  0  0  # atno 6909 bound_to 6896
  144.7451  139.8657  143.6384 H   0  0  0  0  0  0  0  0  0  0  0  0  # atno 7974 bound_to 7965
  155.3097  140.0457  157.3034 H   0  0  0  0  0  0  0  0  0  0  0  0  # atno 8008 bound_to 7997
  154.5440  140.2296  155.8561 H   0  0  0  0  0  0  0  0  0  0  0  0  # atno 8009 bound_to 7997
  156.1907  140.3051  155.9333 H   0  0  0  0  0  0  0  0  0  0  0  0  # atno 8010 bound_to 7997
  139.7821  144.6884  151.0008 H   0  0  0  0  0  0  0  0  0  0  0  0  # atno 10167 bound_to 10162
  157.6836  131.0010  150.2248 H   0  0  0  0  0  0  0  0  0  0  0  0  # atno 10718 bound_to 10713
  153.0537  135.6530  154.0629 H   0  0  0  0  0  0  0  0  0  0  0  0  # atno 10763 bound_to 10752
  154.0312  135.2911  155.3369 H   0  0  0  0  0  0  0  0  0  0  0  0  # atno 10764 bound_to 10752
  154.6840  135.5308  153.8369 H   0  0  0  0  0  0  0  0  0  0  0  0  # atno 10765 bound_to 10752
  140.9047  133.7500  156.0590 H   0  0  0  0  0  0  0  0  0  0  0  0  # atno 11005 bound_to 11000
  146.1317  139.4353  143.0165 LP  0  0  0  0  0  0  0  0  0  0  0  0  # atno 17320 bound_to 7965
  145.7154  141.0093  143.1431 LP  0  0  0  0  0  0  0  0  0  0  0  0  # atno 17321 bound_to 7965
  140.7818  143.4471  151.0466 LP  0  0  0  0  0  0  0  0  0  0  0  0  # atno 17342 bound_to 10162
  139.8151  143.7896  152.3174 LP  0  0  0  0  0  0  0  0  0  0  0  0  # atno 17343 bound_to 10162
  156.2893  130.3743  149.7858 LP  0  0  0  0  0  0  0  0  0  0  0  0  # atno 17370 bound_to 10713
  156.5522  130.8347  151.3303 LP  0  0  0  0  0  0  0  0  0  0  0  0  # atno 17371 bound_to 10713
  140.8186  134.3316  157.5389 LP  0  0  0  0  0  0  0  0  0  0  0  0  # atno 17394 bound_to 11000
  139.8747  134.9296  156.3480 LP  0  0  0  0  0  0  0  0  0  0  0  0  # atno 17395 bound_to 11000

$$$$
