#       Name:                AV-unprocessed.smi:193
#       Creating user name   scv26
#       Creation time:       Thu Mar 26 19:32:59 2020


#       File generated by GOLD software.
#

@<TRIPOS>MOLECULE
AV-unprocessed.smi:193
    69    73     1
SMALL
NO_CHARGES


@<TRIPOS>ATOM
      1 ****        -2.7339  -2.9769   3.6608 C.3            1 S1                 0.0000
      2 ****        -2.3711  -1.8684   2.6607 C.3            1 S1                 0.0000
      3 ****        -2.3915  -2.4519   1.2294 C.3            1 S1                 0.0000
      4 ****        -1.8108  -1.5688   0.2187 N.pl3          1 S1                 0.0000
      5 ****        -0.4970  -1.7190  -0.0994 C.ar           1 S1                 0.0000
      6 ****         0.3682  -2.1944   0.8358 N.ar           1 S1                 0.0000
      7 ****         1.6669  -2.3275   0.5518 C.ar           1 S1                 0.0000
      8 ****         2.3037  -2.0488  -0.5863 N.ar           1 S1                 0.0000
      9 ****         1.4425  -1.5789  -1.5330 C.ar           1 S1                 0.0000
     10 ****         0.0399  -1.3881  -1.3768 C.ar           1 S1                 0.0000
     11 ****        -0.5051  -0.9146  -2.5650 N.2            1 S1                 0.0000
     12 ****         0.5160  -0.8217  -3.3720 C.2            1 S1                 0.0000
     13 ****         1.7270  -1.1876  -2.8297 N.pl3          1 S1                 0.0000
     14 ****         3.0201  -1.1747  -3.4964 C.3            1 S1                 0.0000
     15 ****         3.7878   0.1637  -3.3552 C.3            1 S1                 0.0000
     16 ****         4.0528   0.3694  -1.9784 O.3            1 S1                 0.0000
     17 ****         5.1342   0.0904  -4.1035 C.3            1 S1                 0.0000
     18 ****         5.8535   1.4505  -4.1405 C.3            1 S1                 0.0000
     19 ****         5.0001   2.4356  -4.7097 O.3            1 S1                 0.0000
     20 ****         3.8251   2.6555  -3.9392 C.3            1 S1                 0.0000
     21 ****         2.9796   1.3708  -3.8809 C.3            1 S1                 0.0000
     22 ****        -2.3643  -0.2235   0.0817 C.3            1 S1                 0.0000
     23 ****        -1.9199   0.6946   1.2354 C.3            1 S1                 0.0000
     24 ****        -2.8023   0.6505   2.4313 N.4            1 S1                 1.0000
     25 ****        -2.1828   1.3350   3.5914 C.3            1 S1                 0.0000
     26 ****        -2.2018   2.8442   3.4977 C.3            1 S1                 0.0000
     27 ****        -3.1371   2.1396   4.4562 C.3            1 S1                 0.0000
     28 ****        -4.6377   2.1838   4.2311 C.3            1 S1                 0.0000
     29 ****        -3.3551  -0.6825   2.8014 C.3            1 S1                 0.0000
     30 ****        -3.7394  -3.3601   3.4829 H              1 S1                 0.0000
     31 ****        -2.6926  -2.6122   4.6877 H              1 S1                 0.0000
     32 ****        -2.0406  -3.8153   3.5868 H              1 S1                 0.0000
     33 ****        -1.3626  -1.5404   2.9152 H              1 S1                 0.0000
     34 ****        -1.8735  -3.4121   1.2089 H              1 S1                 0.0000
     35 ****        -3.4175  -2.6762   0.9359 H              1 S1                 0.0000
     36 ****         2.2843  -2.7093   1.3515 H              1 S1                 0.0000
     37 ****         0.4153  -0.4731  -4.3897 H              1 S1                 0.0000
     38 ****         3.6174  -1.9983  -3.1027 H              1 S1                 0.0000
     39 ****         2.8546  -1.4001  -4.5507 H              1 S1                 0.0000
     40 ****         4.5492   1.1678  -1.8831 H              1 S1                 0.0000
     41 ****         5.7821  -0.6630  -3.6534 H              1 S1                 0.0000
     42 ****         4.9591  -0.2335  -5.1304 H              1 S1                 0.0000
     43 ****         6.1689   1.7576  -3.1421 H              1 S1                 0.0000
     44 ****         6.7565   1.3777  -4.7467 H              1 S1                 0.0000
     45 ****         4.0917   2.9959  -2.9376 H              1 S1                 0.0000
     46 ****         3.2493   3.4581  -4.4004 H              1 S1                 0.0000
     47 ****         2.6163   1.1491  -4.8852 H              1 S1                 0.0000
     48 ****         2.0958   1.5462  -3.2664 H              1 S1                 0.0000
     49 ****        -2.0380   0.2155  -0.8594 H              1 S1                 0.0000
     50 ****        -3.4516  -0.2706   0.0147 H              1 S1                 0.0000
     51 ****        -0.8867   0.4853   1.5175 H              1 S1                 0.0000
     52 ****        -1.9234   1.7235   0.8753 H              1 S1                 0.0000
     53 ****        -1.3258   0.8315   4.0359 H              1 S1                 0.0000
     54 ****        -1.3627   3.3846   3.9307 H              1 S1                 0.0000
     55 ****        -2.6399   3.3035   2.6134 H              1 S1                 0.0000
     56 ****        -2.8657   2.1979   5.5086 H              1 S1                 0.0000
     57 ****        -4.8813   2.2194   3.1691 H              1 S1                 0.0000
     58 ****        -5.0569   3.0714   4.7054 H              1 S1                 0.0000
     59 ****        -5.1099   1.3049   4.6702 H              1 S1                 0.0000
     60 ****        -4.2447  -0.8678   2.1987 H              1 S1                 0.0000
     61 ****        -3.7235  -0.6231   3.8267 H              1 S1                 0.0000
     62 ****        -3.6107   1.2072   2.1936 H              1 S1                 0.0000
     63 ****         0.0300  -2.4461   1.7426 LP             1 S1                 0.0000
     64 ****         3.2864  -2.1690  -0.7272 LP             1 S1                 0.0000
     65 ****        -1.4616  -0.6952  -2.7573 LP             1 S1                 0.0000
     66 ****         4.5800  -0.4001  -1.6181 LP             1 S1                 0.0000
     67 ****         3.1909   0.4467  -1.4772 LP             1 S1                 0.0000
     68 ****         4.7310   2.1356  -5.6249 LP             1 S1                 0.0000
     69 ****         5.5048   3.2963  -4.7761 LP             1 S1                 0.0000
@<TRIPOS>BOND
    1    1    2 1     
    2    1   30 1     
    3    1   31 1     
    4    1   32 1     
    5    2   29 1     
    6    2    3 1     
    7    2   33 1     
    8    3    4 1     
    9    3   34 1     
   10    3   35 1     
   11    4    5 1     
   12    4   22 1     
   13    5   10 ar    
   14    5    6 ar    
   15    6    7 ar    
   16    7    8 ar    
   17    7   36 1     
   18    8    9 ar    
   19    9   13 1     
   20    9   10 ar    
   21   10   11 1     
   22   11   12 2     
   23   12   13 1     
   24   12   37 1     
   25   13   14 1     
   26   14   15 1     
   27   14   38 1     
   28   14   39 1     
   29   15   21 1     
   30   15   16 1     
   31   15   17 1     
   32   16   40 1     
   33   17   18 1     
   34   17   41 1     
   35   17   42 1     
   36   18   19 1     
   37   18   43 1     
   38   18   44 1     
   39   19   20 1     
   40   20   21 1     
   41   20   45 1     
   42   20   46 1     
   43   21   47 1     
   44   21   48 1     
   45   22   23 1     
   46   22   49 1     
   47   22   50 1     
   48   23   24 1     
   49   23   51 1     
   50   23   52 1     
   51   24   25 1     
   52   24   29 1     
   53   24   62 1     
   54   25   27 1     
   55   25   26 1     
   56   25   53 1     
   57   26   27 1     
   58   26   54 1     
   59   26   55 1     
   60   27   28 1     
   61   27   56 1     
   62   28   57 1     
   63   28   58 1     
   64   28   59 1     
   65   29   60 1     
   66   29   61 1     
   67    6   63 1     
   68    8   64 1     
   69   11   65 1     
   70   16   66 1     
   71   16   67 1     
   72   19   68 1     
   73   19   69 1     
@<TRIPOS>SUBSTRUCTURE
      1 S1             1
@<TRIPOS>SET
LONE_PAIRS      STATIC     ATOMS    <user>   **** ""
7 63 64 65 66 67 68 69
DONOR_HYDROGENS      STATIC     ATOMS    <user>   **** ""
2 40 62
ATOM$BLUE        STATIC     ATOMS    COLORGROUP SYSTEM
7 63 64 65 66 67 68 69
ATOM$RED        STATIC     ATOMS    COLORGROUP SYSTEM
2 40 62
