AV-unprocessed.smi:1634|AV-procd|sdf|6539|dock2
  -GOLD-   22720 7223D 1   1.00000     0.00000
 Structure written by MMmdl.
 37 37  0  0  0  0  0  0  0  0  2 V2000
  146.5875  138.5711  151.8974 C   0  0  0  0  0  0  0  0  0  0  0  0
  146.0413  137.8162  153.1198 C   0  0  0  0  0  0  0  0  0  0  0  0
  144.6027  137.3416  152.8682 C   0  0  0  0  0  0  0  0  0  0  0  0
  146.1226  138.6720  154.3940 C   0  0  0  0  0  0  0  0  0  0  0  0
  147.4860  138.8108  154.7808 O   0  0  0  0  0  0  0  0  0  0  0  0
  148.1782  139.9161  154.2055 C   0  0  1  0  0  0  0  0  0  0  0  0
  147.3212  141.1697  154.4342 C   0  0  0  0  0  0  0  0  0  0  0  0
  149.5677  140.0658  154.8457 C   0  0  0  0  0  0  0  0  0  0  0  0
  150.5729  139.8854  154.1581 O   0  0  0  0  0  0  0  0  0  0  0  0
  149.5693  140.3971  156.1516 N   0  0  0  0  0  0  0  0  0  0  0  0
  150.6560  140.6899  156.9922 C   0  0  0  0  0  0  0  0  0  0  0  0
  150.7974  141.8468  157.6963 C   0  0  0  0  0  0  0  0  0  0  0  0
  151.9342  142.0920  158.5743 C   0  0  0  0  0  0  0  0  0  0  0  0
  152.0796  143.3373  159.4313 C   0  0  0  0  0  0  0  0  0  0  0  0
  152.2403  143.0226  160.7169 F   0  0  0  0  0  0  0  0  0  0  0  0
  153.1431  144.0366  159.0382 F   0  0  0  0  0  0  0  0  0  0  0  0
  151.0054  144.1191  159.3211 F   0  0  0  0  0  0  0  0  0  0  0  0
  152.8014  141.0173  158.6206 C   0  0  0  0  0  0  0  0  0  0  0  0
  152.7385  139.8436  157.9538 N   0  5  0  0  0  0  0  0  0  0  0  0
  151.6741  139.6283  157.1298 C   0  0  0  0  0  0  0  0  0  0  0  0
  151.5461  138.5758  156.5034 O   0  0  0  0  0  0  0  0  0  0  0  0
  146.0111  139.4753  151.6991 H   0  0  0  0  0  0  0  0  0  0  0  0
  146.5499  137.9492  151.0026 H   0  0  0  0  0  0  0  0  0  0  0  0
  147.6266  138.8665  152.0455 H   0  0  0  0  0  0  0  0  0  0  0  0
  146.6585  136.9298  153.2714 H   0  0  0  0  0  0  0  0  0  0  0  0
  143.9297  138.1848  152.7090 H   0  0  0  0  0  0  0  0  0  0  0  0
  144.2236  136.7686  153.7147 H   0  0  0  0  0  0  0  0  0  0  0  0
  144.5482  136.7010  151.9875 H   0  0  0  0  0  0  0  0  0  0  0  0
  145.6561  139.6416  154.2150 H   0  0  0  0  0  0  0  0  0  0  0  0
  145.5697  138.1908  155.2023 H   0  0  0  0  0  0  0  0  0  0  0  0
  148.2771  139.7583  153.1296 H   0  0  0  0  0  0  0  0  0  0  0  0
  147.8059  142.0592  154.0302 H   0  0  0  0  0  0  0  0  0  0  0  0
  147.1348  141.3416  155.4950 H   0  0  0  0  0  0  0  0  0  0  0  0
  146.3533  141.0706  153.9424 H   0  0  0  0  0  0  0  0  0  0  0  0
  148.6698  140.4192  156.6101 H   0  0  0  0  0  0  0  0  0  0  0  0
  150.0498  142.6212  157.6407 H   0  0  0  0  0  0  0  0  0  0  0  0
  153.6741  141.1120  159.3013 H   0  0  0  0  0  0  0  0  0  0  0  0
  1  2  1  0  0  0  0
  1 22  1  0  0  0  0
  1 23  1  0  0  0  0
  1 24  1  0  0  0  0
  2  3  1  0  0  0  0
  2  4  1  0  0  0  0
  2 25  1  0  0  0  0
  3 26  1  0  0  0  0
  3 27  1  0  0  0  0
  3 28  1  0  0  0  0
  4  5  1  0  0  0  0
  4 29  1  0  0  0  0
  4 30  1  0  0  0  0
  5  6  1  0  0  0  0
  6  7  1  0  0  0  0
  6  8  1  0  0  0  0
  6 31  1  0  0  0  0
  7 32  1  0  0  0  0
  7 33  1  0  0  0  0
  7 34  1  0  0  0  0
  8  9  2  0  0  0  0
  8 10  1  0  0  0  0
 10 11  1  0  0  0  0
 10 35  1  0  0  0  0
 11 20  1  0  0  0  0
 11 12  2  0  0  0  0
 12 13  1  0  0  0  0
 12 36  1  0  0  0  0
 13 14  1  0  0  0  0
 13 18  2  0  0  0  0
 14 15  1  0  0  0  0
 14 16  1  0  0  0  0
 14 17  1  0  0  0  0
 18 19  1  0  0  0  0
 18 37  1  0  0  0  0
 19 20  1  0  0  0  0
 20 21  2  0  0  0  0
M  CHG  1  19  -1
M  END
> <s_m_source_file>
AV-unprocessed.smi

> <i_m_source_file_index>
1634

> <i_lp_mmshare_version>
43012

> <i_f3d_flags>
0

> <s_epik_input>
W0NIM11bQ0hdKFtDSDNdKVtDSDJdT1tDQEhdKFtDSDNdKUMoPU8pW05IXWMxW2NIXWMoQyhGKShGKUYpW2NIXVtuSF1jMT1P

> <s_epik_cmdline>
J2VwaWtfcHl0aG9uJywgJy1waCcsICc3LjAnLCAnLXRuJywgJzgnLCAnLW1hJywgJzIwMCcsICctbWV0YWxfYmluZGluZycsICctaW1hZScsICc8aW5maWxlLm1hZT4nLCAnLW9tYWUnLCAnPG91dGZpbGUubWFlPic=

> <r_epik_Ionization_Penalty>
2.55349

> <r_epik_Ionization_Penalty_Charging>
0.0582825

> <r_epik_Ionization_Penalty_Neutral>
2.49521

> <r_epik_State_Penalty>
2.65983

> <r_epik_Charging_Adjusted_Penalty>
2.71812

> <i_epik_Tot_Q>
-1

> <i_epik_Tot_abs_Q>
1

> <r_epik_Metal_State_Penalty>
0.516727

> <b_epik_Metal_Only>
0

> <s_lp_Force_Field>
OPLS_2005

> <r_lp_Energy>
21.4582

> <b_lp_Chiralities_Consistent>
1

> <s_lp_Variant>
AV-unprocessed.smi:1634-4

> <Gold.Version>
5.8.1

> <Gold.Id.Protein>
6NUR|6NUR_protein|mol2

> <Gold.PLP.Fitness>
42.6960

> <Gold.PLP.PLP>
-35.5308

> <Gold.PLP.part.hbond>
-1.9480

> <Gold.PLP.part.metal>
0.0000

> <Gold.PLP.part.buried>
-5.0254

> <Gold.PLP.part.nonpolar>
-29.7624

> <Gold.PLP.part.repulsive>
0.6311

> <Gold.PLP.ligand.clash>
0.0000

> <Gold.PLP.ligand.torsion>
1.0416

> <Gold.PLP.Chemscore.Hbond>
3.0000

> <Gold.PLP.Chemscore.CHOScore>
0.0000

> <Gold.PLP.Chemscore.Metal>
0.0000

> <Gold.Chemscore.Hbonds>
donor molecule, donor type, donor heavy atom, donor atom, acceptor molecule, acceptor atom, score
      P1  H  7989  7998       L1     9  1.00
      P1  H  7997  8009       L1    19  1.57

> <Gold.PLP.Chemscore.Internal.Correction>
0.2484

> <Gold.Rescore>
     Score         DG    S(hbond)    S(metal)    S(lipo)     H(rot)  DE(clash)    DE(int)     intcor
     10.36     -14.07       1.56        0.00      67.23       1.75       0.11       3.60       ----

> <Gold.Chemscore.Fitness>
10.3599

> <Gold.Chemscore.DG>
-14.0710

> <Gold.Chemscore.ZeroCoef>
-5.4800

> <Gold.Chemscore.Hbond>
1.5613

> <Gold.Chemscore.Metal>
0.0000

> <Gold.Chemscore.Lipo>
67.2309

> <Gold.Chemscore.Internal_Hbond>
0.0000

> <Gold.Chemscore.DEClash>
0.1069

> <Gold.Chemscore.DEInternal>
3.6042

> <Gold.Chemscore.Rot>
1.7538

> <Gold.Chemscore.Internal.Correction>
   9.000000E+99

> <Gold.Chemscore.Hbonds>
donor molecule, donor type, donor heavy atom, donor atom, acceptor molecule, acceptor atom, score
      P1  H  7989  7998       L1     9  0.98
      P1  H  7997  8009       L1    19  0.08

> <Gold.Chemscore.Hbond.Weighted>
-5.2148

> <Gold.Chemscore.Metal.Weighted>
-0.0000

> <Gold.Chemscore.Lipo.Weighted>
-7.8660

> <Gold.Chemscore.Internal_Hbond.Weighted>
0.0000

> <Gold.Chemscore.DEClash.Weighted>
0.1069

> <Gold.Chemscore.DEInternal.Weighted>
3.6042

> <Gold.Chemscore.Rot.Weighted>
4.4898

> <Gold.Chemscore.Internal.Correction.Weighted>
   9.000000E+99

> <Gold.Protein.RotatedTorsions>
[ 6907 6896 6895 6894 ] final   52.36 input  -60.11 | X-H torsion
[ 7974 7965 7964 7962 ] final  -48.25 input  175.53 | X-H torsion
[ 8008 7997 7996 7995 ] final  179.24 input   59.86 | X-H torsion
[ 10167 10162 10161 10158 ] final   11.93 input  -65.29 | X-H torsion
[ 10718 10713 10712 10709 ] final  -77.87 input   66.30 | X-H torsion
[ 10763 10752 10751 10750 ] final -103.35 input  -60.55 | X-H torsion
[ 11005 11000 10999 10996 ] final -122.97 input  -57.11 | X-H torsion

> <Gold.Protein.ActiveResidues>
 VAL166  LYS551  ARG553  GLY616  TRP617  ASP618  TYR619  PRO620  LYS621  CYS622 
 ASP623  PHE694  ASN695  SER759  ASP760  ASP761  ALA762  ILE779  LEU786  VAL792 
 PHE793  MET794  SER795  GLU796  ALA797  LYS798  CYS799  TRP800  GLU811  SER814 

> <Gold.Protein.RotatedAtoms>
  152.3225  134.7363  160.0309 H   0  0  0  0  0  0  0  0  0  0  0  0  # atno 6907 bound_to 6896
  151.7807  133.3344  159.3478 H   0  0  0  0  0  0  0  0  0  0  0  0  # atno 6908 bound_to 6896
  150.7377  134.5865  159.6010 H   0  0  0  0  0  0  0  0  0  0  0  0  # atno 6909 bound_to 6896
  145.9531  140.7553  142.9495 H   0  0  0  0  0  0  0  0  0  0  0  0  # atno 7974 bound_to 7965
  156.0456  140.1313  157.0108 H   0  0  0  0  0  0  0  0  0  0  0  0  # atno 8008 bound_to 7997
  154.4411  140.1021  156.6371 H   0  0  0  0  0  0  0  0  0  0  0  0  # atno 8009 bound_to 7997
  155.5601  140.3464  155.4491 H   0  0  0  0  0  0  0  0  0  0  0  0  # atno 8010 bound_to 7997
  140.6100  143.8427  150.7055 H   0  0  0  0  0  0  0  0  0  0  0  0  # atno 10167 bound_to 10162
  156.0133  130.4503  150.3410 H   0  0  0  0  0  0  0  0  0  0  0  0  # atno 10718 bound_to 10713
  154.7801  135.4827  153.9826 H   0  0  0  0  0  0  0  0  0  0  0  0  # atno 10763 bound_to 10752
  153.1481  135.6786  153.8930 H   0  0  0  0  0  0  0  0  0  0  0  0  # atno 10764 bound_to 10752
  153.8583  135.3158  155.3414 H   0  0  0  0  0  0  0  0  0  0  0  0  # atno 10765 bound_to 10752
  140.9955  134.0478  157.3603 H   0  0  0  0  0  0  0  0  0  0  0  0  # atno 11005 bound_to 11000
  144.6799  140.2467  143.7337 LP  0  0  0  0  0  0  0  0  0  0  0  0  # atno 17320 bound_to 7965
  145.8144  139.2017  143.1974 LP  0  0  0  0  0  0  0  0  0  0  0  0  # atno 17321 bound_to 7965
  140.1993  143.3972  152.1804 LP  0  0  0  0  0  0  0  0  0  0  0  0  # atno 17342 bound_to 10162
  139.5354  144.7204  151.4911 LP  0  0  0  0  0  0  0  0  0  0  0  0  # atno 17343 bound_to 10162
  157.1505  131.0320  151.2887 LP  0  0  0  0  0  0  0  0  0  0  0  0  # atno 17370 bound_to 10713
  157.4396  130.7536  149.7058 LP  0  0  0  0  0  0  0  0  0  0  0  0  # atno 17371 bound_to 10713
  139.9012  135.0165  156.7278 LP  0  0  0  0  0  0  0  0  0  0  0  0  # atno 17394 bound_to 11000
  140.6973  133.9337  155.8003 LP  0  0  0  0  0  0  0  0  0  0  0  0  # atno 17395 bound_to 11000

$$$$
