#       Name:                AV-unprocessed.smi:581
#       Creating user name   scv26
#       Creation time:       Thu Mar 26 23:49:52 2020


#       File generated by GOLD software.
#

@<TRIPOS>MOLECULE
AV-unprocessed.smi:581
    45    46     1
SMALL
NO_CHARGES


@<TRIPOS>ATOM
      1 ****         1.6780   2.2552  -1.0218 C.3            1 S1                 0.0000
      2 ****         1.0778   0.9295  -0.5912 C.ar           1 S1                 0.0000
      3 ****        -0.2636   0.8242  -0.7098 N.ar           1 S1                 0.0000
      4 ****        -0.8404  -0.3231  -0.3337 C.ar           1 S1                 0.0000
      5 ****        -2.2329  -0.4191  -0.4557 N.pl3          1 S1                 0.0000
      6 ****        -2.9571  -1.6656  -0.1970 C.3            1 S1                 0.0000
      7 ****        -4.3452  -1.3748   0.3979 C.3            1 S1                 0.0000
      8 ****        -5.0637  -0.4965  -0.4597 O.3            1 S1                 0.0000
      9 ****        -4.4026   0.7548  -0.6009 C.3            1 S1                 0.0000
     10 ****        -3.0170   0.5433  -1.2335 C.3            1 S1                 0.0000
     11 ****        -0.1848  -1.3835   0.1545 N.ar           1 S1                 0.0000
     12 ****         1.1568  -1.3036   0.2811 C.ar           1 S1                 0.0000
     13 ****         1.8163  -2.3861   0.7867 O.3            1 S1                 0.0000
     14 ****         1.8637  -0.1363  -0.0909 C.ar           1 S1                 0.0000
     15 ****         3.3778  -0.0363   0.0559 C.3            1 S1                 0.0000
     16 ****         3.7925   0.4351   1.4644 C.3            1 S1                 0.0000
     17 ****         5.3121   0.5555   1.6406 C.2            1 S1                 0.0000
     18 ****         5.7161   0.8032   2.7976 O.co2          1 S1                 0.0000
     19 ****         6.0484   0.4106   0.6390 O.co2          1 S1                -1.0000
     20 ****         1.2339  -3.0952   1.0101 H              1 S1                 0.0000
     21 ****         2.3011   2.6702  -0.2296 H              1 S1                 0.0000
     22 ****         0.9028   2.9863  -1.2548 H              1 S1                 0.0000
     23 ****         2.2926   2.1213  -1.9120 H              1 S1                 0.0000
     24 ****        -2.4210  -2.3175   0.4921 H              1 S1                 0.0000
     25 ****        -3.0581  -2.2118  -1.1354 H              1 S1                 0.0000
     26 ****        -4.9074  -2.3024   0.5064 H              1 S1                 0.0000
     27 ****        -4.2569  -0.9385   1.3941 H              1 S1                 0.0000
     28 ****        -5.0072   1.4052  -1.2332 H              1 S1                 0.0000
     29 ****        -4.3159   1.2458   0.3700 H              1 S1                 0.0000
     30 ****        -3.1249   0.1620  -2.2493 H              1 S1                 0.0000
     31 ****        -2.5253   1.5122  -1.3127 H              1 S1                 0.0000
     32 ****         3.7741   0.6371  -0.7041 H              1 S1                 0.0000
     33 ****         3.8213  -1.0093  -0.1592 H              1 S1                 0.0000
     34 ****         3.3458   1.4061   1.6798 H              1 S1                 0.0000
     35 ****         3.4120  -0.2596   2.2144 H              1 S1                 0.0000
     36 ****        -0.8096   1.5815  -1.0682 LP             1 S1                 0.0000
     37 ****        -5.9740  -0.3410  -0.0760 LP             1 S1                 0.0000
     38 ****        -5.1499  -0.9214  -1.3608 LP             1 S1                 0.0000
     39 ****        -0.6763  -2.2133   0.4186 LP             1 S1                 0.0000
     40 ****         2.3089  -2.1048   1.6103 LP             1 S1                 0.0000
     41 ****         2.4691  -2.7114   0.1026 LP             1 S1                 0.0000
     42 ****         6.6955   0.9000   2.9752 LP             1 S1                 0.0000
     43 ****         5.0599   0.9046   3.5453 LP             1 S1                 0.0000
     44 ****         7.0408   0.4920   0.7320 LP             1 S1                 0.0000
     45 ****         5.6444   0.2135  -0.2543 LP             1 S1                 0.0000
@<TRIPOS>BOND
    1    1   21 1     
    2    1   22 1     
    3    1   23 1     
    4    1    2 1     
    5    2   14 ar    
    6    2    3 ar    
    7    3    4 ar    
    8    4    5 1     
    9    4   11 ar    
   10    5   10 1     
   11    5    6 1     
   12    6    7 1     
   13    6   24 1     
   14    6   25 1     
   15    7    8 1     
   16    7   26 1     
   17    7   27 1     
   18    8    9 1     
   19    9   10 1     
   20    9   28 1     
   21    9   29 1     
   22   10   30 1     
   23   10   31 1     
   24   11   12 ar    
   25   12   13 1     
   26   12   14 ar    
   27   13   20 1     
   28   14   15 1     
   29   15   16 1     
   30   15   32 1     
   31   15   33 1     
   32   16   17 1     
   33   16   34 1     
   34   16   35 1     
   35   17   18 ar    
   36   17   19 ar    
   37    3   36 1     
   38    8   37 1     
   39    8   38 1     
   40   11   39 1     
   41   13   40 1     
   42   13   41 1     
   43   18   42 1     
   44   18   43 1     
   45   19   44 1     
   46   19   45 1     
@<TRIPOS>SUBSTRUCTURE
      1 S1             1
@<TRIPOS>SET
LONE_PAIRS      STATIC     ATOMS    <user>   **** ""
10 36 37 38 39 40 41 42 43 44 45
DONOR_HYDROGENS      STATIC     ATOMS    <user>   **** ""
1 20
ATOM$BLUE        STATIC     ATOMS    COLORGROUP SYSTEM
10 36 37 38 39 40 41 42 43 44 45
ATOM$RED        STATIC     ATOMS    COLORGROUP SYSTEM
1 20
