AV-unprocessed.smi:287|AV-procd|sdf|2178|dock7
  -GOLD-   2262021543D 1   1.00000     0.00000
 Structure written by MMmdl.
 55 58  0  0  0  0  0  0  0  0  1 V2000
  152.1819  144.2901  159.8231 C   0  0  0  0  0  0  0  0  0  0  0  0
  152.0939  142.9076  159.2737 C   0  0  0  0  0  0  0  0  0  0  0  0
  152.7590  141.7447  159.5323 C   0  0  0  0  0  0  0  0  0  0  0  0
  152.2124  140.7414  158.6773 C   0  0  0  0  0  0  0  0  0  0  0  0
  152.6465  139.2832  158.6142 C   0  0  2  0  0  0  0  0  0  0  0  0
  153.8908  139.0738  159.4926 C   0  0  0  0  0  0  0  0  0  0  0  0
  153.0315  138.8818  157.3135 O   0  0  0  0  0  0  0  0  0  0  0  0
  151.5229  138.3114  159.0429 C   0  0  0  0  0  0  0  0  0  0  0  0
  151.0148  137.5075  157.9357 N   0  0  0  0  0  0  0  0  0  0  0  0
  149.9990  136.6418  158.1337 C   0  0  0  0  0  0  0  0  0  0  0  0
  149.5961  136.3085  159.3880 N   0  0  0  0  0  0  0  0  0  0  0  0
  148.5850  135.4506  159.5589 C   0  0  0  0  0  0  0  0  0  0  0  0
  147.8570  134.8220  158.6325 N   0  0  0  0  0  0  0  0  0  0  0  0
  148.2628  135.1534  157.3726 C   0  0  0  0  0  0  0  0  0  0  0  0
  149.3147  136.0506  157.0408 C   0  0  0  0  0  0  0  0  0  0  0  0
  149.4332  136.1459  155.6602 N   0  0  0  0  0  0  0  0  0  0  0  0
  148.5038  135.3473  155.2073 C   0  0  0  0  0  0  0  0  0  0  0  0
  147.7553  134.7076  156.1728 N   0  0  0  0  0  0  0  0  0  0  0  0
  146.6258  133.7442  156.0084 C   0  0  2  0  0  0  0  0  0  0  0  0
  147.1242  132.6123  155.3562 O   0  0  0  0  0  0  0  0  0  0  0  0
  146.4376  132.3881  154.1256 C   0  0  2  0  0  0  0  0  0  0  0  0
  147.4035  131.7939  153.0891 C   0  0  0  0  0  0  0  0  0  0  0  0
  146.8280  131.8511  151.8018 O   0  0  0  0  0  0  0  0  0  0  0  0
  145.9183  133.7768  153.7520 C   0  0  1  0  0  0  0  0  0  0  0  0
  144.8254  133.7474  152.8543 O   0  0  0  0  0  0  0  0  0  0  0  0
  145.5536  134.3670  155.1063 C   0  0  1  0  0  0  0  0  0  0  0  0
  144.2554  134.0041  155.5407 O   0  0  0  0  0  0  0  0  0  0  0  0
  151.2517  141.3935  157.9419 C   0  0  0  0  0  0  0  0  0  0  0  0
  150.3108  140.9738  156.8610 C   0  0  0  0  0  0  0  0  0  0  0  0
  151.1705  142.7054  158.3006 O   0  0  0  0  0  0  0  0  0  0  0  0
  146.2970  133.5208  157.0244 H   0  0  0  0  0  0  0  0  0  0  0  0
  145.5931  131.7209  154.3091 H   0  0  0  0  0  0  0  0  0  0  0  0
  146.7251  134.3632  153.3094 H   0  0  0  0  0  0  0  0  0  0  0  0
  145.6198  135.4562  155.1087 H   0  0  0  0  0  0  0  0  0  0  0  0
  152.8491  144.3247  160.6846 H   0  0  0  0  0  0  0  0  0  0  0  0
  151.2011  144.6435  160.1420 H   0  0  0  0  0  0  0  0  0  0  0  0
  152.5642  144.9808  159.0714 H   0  0  0  0  0  0  0  0  0  0  0  0
  153.5477  141.6237  160.2600 H   0  0  0  0  0  0  0  0  0  0  0  0
  153.6857  139.3244  160.5341 H   0  0  0  0  0  0  0  0  0  0  0  0
  154.7196  139.7013  159.1620 H   0  0  0  0  0  0  0  0  0  0  0  0
  154.2301  138.0374  159.4667 H   0  0  0  0  0  0  0  0  0  0  0  0
  152.2629  138.8701  156.7639 H   0  0  0  0  0  0  0  0  0  0  0  0
  151.8553  137.6675  159.8588 H   0  0  0  0  0  0  0  0  0  0  0  0
  150.6860  138.8957  159.4282 H   0  0  0  0  0  0  0  0  0  0  0  0
  151.4588  137.6535  157.0399 H   0  0  0  0  0  0  0  0  0  0  0  0
  148.3220  135.2376  160.5845 H   0  0  0  0  0  0  0  0  0  0  0  0
  148.3409  135.2050  154.1492 H   0  0  0  0  0  0  0  0  0  0  0  0
  148.3262  132.3742  153.0599 H   0  0  0  0  0  0  0  0  0  0  0  0
  147.6748  130.7678  153.3383 H   0  0  0  0  0  0  0  0  0  0  0  0
  147.4389  131.4817  151.1826 H   0  0  0  0  0  0  0  0  0  0  0  0
  144.9479  133.0200  152.2629 H   0  0  0  0  0  0  0  0  0  0  0  0
  144.0301  133.1745  155.1476 H   0  0  0  0  0  0  0  0  0  0  0  0
  150.8517  140.5045  156.0391 H   0  0  0  0  0  0  0  0  0  0  0  0
  149.7649  141.8275  156.4588 H   0  0  0  0  0  0  0  0  0  0  0  0
  149.5816  140.2581  157.2404 H   0  0  0  0  0  0  0  0  0  0  0  0
  1  2  1  0  0  0  0
  1 35  1  0  0  0  0
  1 36  1  0  0  0  0
  1 37  1  0  0  0  0
  2 30  1  0  0  0  0
  2  3  2  0  0  0  0
  3  4  1  0  0  0  0
  3 38  1  0  0  0  0
  4  5  1  0  0  0  0
  4 28  2  0  0  0  0
  5  6  1  0  0  0  0
  5  7  1  0  0  0  0
  5  8  1  0  0  0  0
  6 39  1  0  0  0  0
  6 40  1  0  0  0  0
  6 41  1  0  0  0  0
  7 42  1  0  0  0  0
  8  9  1  0  0  0  0
  8 43  1  0  0  0  0
  8 44  1  0  0  0  0
  9 10  1  0  0  0  0
  9 45  1  0  0  0  0
 10 15  1  0  0  0  0
 10 11  2  0  0  0  0
 11 12  1  0  0  0  0
 12 13  2  0  0  0  0
 12 46  1  0  0  0  0
 13 14  1  0  0  0  0
 14 18  1  0  0  0  0
 14 15  2  0  0  0  0
 15 16  1  0  0  0  0
 16 17  2  0  0  0  0
 17 18  1  0  0  0  0
 17 47  1  0  0  0  0
 18 19  1  0  0  0  0
 19 31  1  0  0  0  0
 19 26  1  0  0  0  0
 19 20  1  0  0  0  0
 20 21  1  0  0  0  0
 21 32  1  0  0  0  0
 21 22  1  0  0  0  0
 21 24  1  0  0  0  0
 22 23  1  0  0  0  0
 22 48  1  0  0  0  0
 22 49  1  0  0  0  0
 23 50  1  0  0  0  0
 24 33  1  0  0  0  0
 24 25  1  0  0  0  0
 24 26  1  0  0  0  0
 25 51  1  0  0  0  0
 26 34  1  0  0  0  0
 26 27  1  0  0  0  0
 27 52  1  0  0  0  0
 28 29  1  0  0  0  0
 28 30  1  0  0  0  0
 29 53  1  0  0  0  0
 29 54  1  0  0  0  0
 29 55  1  0  0  0  0
M  END
> <s_m_source_file>
AV-unprocessed.smi

> <i_m_source_file_index>
287

> <i_lp_mmshare_version>
43012

> <i_f3d_flags>
0

> <s_epik_input>
W0NIM11jMVtjSF1jKGMobzEpW0NIM10pW0NAQF0oW0NIM10pKFtPSF0pW0NIMl1bTkhdYyhuW2NIXW4yKWMoYzIzKW5bY0hdbjNbQ0BASF00T1tDQEhdKFtDSDJdW09IXSlbQ0BASF0oW09IXSlbQ0BIXTRbT0hd

> <s_epik_cmdline>
J2VwaWtfcHl0aG9uJywgJy1waCcsICc3LjAnLCAnLXRuJywgJzgnLCAnLW1hJywgJzIwMCcsICctbWV0YWxfYmluZGluZycsICctaW1hZScsICc8aW5maWxlLm1hZT4nLCAnLW9tYWUnLCAnPG91dGZpbGUubWFlPic=

> <r_lp_tautomer_probability>
1

> <r_epik_Ionization_Penalty>
0.000992612

> <r_epik_Ionization_Penalty_Charging>
0

> <r_epik_Ionization_Penalty_Neutral>
0.000992612

> <r_epik_State_Penalty>
-0

> <r_epik_Charging_Adjusted_Penalty>
0

> <i_epik_Tot_Q>
0

> <i_epik_Tot_abs_Q>
0

> <r_epik_Metal_State_Penalty>
-0

> <b_epik_Metal_Only>
0

> <s_epik_Chemistry_Notes>
This compound contains an acetal/aminal-like group ( X-CH(R)-Y where X, Y are N, S, or O) that may be acid/base labile, releasing an aldehyde.

> <s_lp_Force_Field>
OPLS_2005

> <r_lp_Energy>
40.8374

> <b_lp_Chiralities_Consistent>
1

> <s_lp_Variant>
AV-unprocessed.smi:287-2

> <Gold.Version>
5.8.1

> <Gold.Id.Protein>
6NUR|6NUR_protein|mol2

> <Gold.PLP.Fitness>
44.8656

> <Gold.PLP.PLP>
-33.0262

> <Gold.PLP.part.hbond>
-4.0000

> <Gold.PLP.part.metal>
0.0000

> <Gold.PLP.part.buried>
-6.5157

> <Gold.PLP.part.nonpolar>
-24.0911

> <Gold.PLP.part.repulsive>
0.2420

> <Gold.PLP.ligand.clash>
0.0000

> <Gold.PLP.ligand.torsion>
1.2919

> <Gold.PLP.Chemscore.Hbond>
3.7898

> <Gold.PLP.Chemscore.CHOScore>
1.0000

> <Gold.PLP.Chemscore.Metal>
0.0000

> <Gold.Chemscore.Hbonds>
donor molecule, donor type, donor heavy atom, donor atom, acceptor molecule, acceptor atom, score
      L1  H    23    50       P1 10747  1.00
      L1  H    27    52       P1 10957  0.99
      P1  H  6896  6908       L1    11  0.76
      P1  H  7997  8010       L1     7  1.00
      L1  C    17    47       P1  7948  0.92

> <Gold.PLP.Chemscore.Internal.Correction>
0.0540

> <Gold.Rescore>
     Score         DG    S(hbond)    S(metal)    S(lipo)     H(rot)  DE(clash)    DE(int)     intcor
      8.96     -10.24       2.66        0.00      79.98       5.27       0.01       1.27       ----

> <Gold.Chemscore.Fitness>
8.9630

> <Gold.Chemscore.DG>
-10.2434

> <Gold.Chemscore.ZeroCoef>
-5.4800

> <Gold.Chemscore.Hbond>
2.6614

> <Gold.Chemscore.Metal>
0.0000

> <Gold.Chemscore.Lipo>
79.9835

> <Gold.Chemscore.Internal_Hbond>
0.0000

> <Gold.Chemscore.DEClash>
0.0106

> <Gold.Chemscore.DEInternal>
1.2697

> <Gold.Chemscore.Rot>
5.2672

> <Gold.Chemscore.Internal.Correction>
   9.000000E+99

> <Gold.Chemscore.Hbonds>
donor molecule, donor type, donor heavy atom, donor atom, acceptor molecule, acceptor atom, score
      L1  H    23    50       P1 10747  1.00
      L1  H    27    52       P1 10957  0.91
      P1  H  6896  6908       L1    11  0.02
      P1  H  7997  8010       L1     7  0.57

> <Gold.Chemscore.Hbond.Weighted>
-8.8892

> <Gold.Chemscore.Metal.Weighted>
-0.0000

> <Gold.Chemscore.Lipo.Weighted>
-9.3581

> <Gold.Chemscore.Internal_Hbond.Weighted>
0.0000

> <Gold.Chemscore.DEClash.Weighted>
0.0106

> <Gold.Chemscore.DEInternal.Weighted>
1.2697

> <Gold.Chemscore.Rot.Weighted>
13.4839

> <Gold.Chemscore.Internal.Correction.Weighted>
   9.000000E+99

> <Gold.Protein.RotatedTorsions>
[ 6907 6896 6895 6894 ] final -149.44 input  -60.11 | X-H torsion
[ 7974 7965 7964 7962 ] final  -12.65 input  175.53 | X-H torsion
[ 8008 7997 7996 7995 ] final   56.24 input   59.86 | X-H torsion
[ 10167 10162 10161 10158 ] final  146.30 input  -65.29 | X-H torsion
[ 10718 10713 10712 10709 ] final   64.36 input   66.30 | X-H torsion
[ 10763 10752 10751 10750 ] final  162.54 input  -60.55 | X-H torsion
[ 11005 11000 10999 10996 ] final   59.32 input  -57.11 | X-H torsion

> <Gold.Protein.ActiveResidues>
 VAL166  LYS551  ARG553  GLY616  TRP617  ASP618  TYR619  PRO620  LYS621  CYS622 
 ASP623  PHE694  ASN695  SER759  ASP760  ASP761  ALA762  ILE779  LEU786  VAL792 
 PHE793  MET794  SER795  GLU796  ALA797  LYS798  CYS799  TRP800  GLU811  SER814 

> <Gold.Protein.RotatedAtoms>
  151.1841  133.4707  159.2594 H   0  0  0  0  0  0  0  0  0  0  0  0  # atno 6907 bound_to 6896
  151.1229  135.0089  159.8557 H   0  0  0  0  0  0  0  0  0  0  0  0  # atno 6908 bound_to 6896
  152.5457  134.1751  159.8666 H   0  0  0  0  0  0  0  0  0  0  0  0  # atno 6909 bound_to 6896
  146.2144  140.3089  142.8381 H   0  0  0  0  0  0  0  0  0  0  0  0  # atno 7974 bound_to 7965
  155.5142  140.3478  155.4394 H   0  0  0  0  0  0  0  0  0  0  0  0  # atno 8008 bound_to 7997
  156.0829  140.1391  156.9717 H   0  0  0  0  0  0  0  0  0  0  0  0  # atno 8009 bound_to 7997
  154.4590  140.0942  156.6815 H   0  0  0  0  0  0  0  0  0  0  0  0  # atno 8010 bound_to 7997
  139.4909  144.5839  151.6817 H   0  0  0  0  0  0  0  0  0  0  0  0  # atno 10167 bound_to 10162
  157.6034  130.9156  149.9836 H   0  0  0  0  0  0  0  0  0  0  0  0  # atno 10718 bound_to 10713
  154.2800  135.2763  155.2701 H   0  0  0  0  0  0  0  0  0  0  0  0  # atno 10763 bound_to 10752
  154.5227  135.5752  153.6697 H   0  0  0  0  0  0  0  0  0  0  0  0  # atno 10764 bound_to 10752
  152.9931  135.6208  154.2958 H   0  0  0  0  0  0  0  0  0  0  0  0  # atno 10765 bound_to 10752
  140.0313  134.6008  155.9503 H   0  0  0  0  0  0  0  0  0  0  0  0  # atno 11005 bound_to 11000
  144.9003  140.7634  143.5871 LP  0  0  0  0  0  0  0  0  0  0  0  0  # atno 17320 bound_to 7965
  145.3014  139.1849  143.4687 LP  0  0  0  0  0  0  0  0  0  0  0  0  # atno 17321 bound_to 7965
  140.5451  144.0516  150.6104 LP  0  0  0  0  0  0  0  0  0  0  0  0  # atno 17342 bound_to 10162
  140.3552  143.2940  152.0444 LP  0  0  0  0  0  0  0  0  0  0  0  0  # atno 17343 bound_to 10162
  156.1114  130.3650  150.0043 LP  0  0  0  0  0  0  0  0  0  0  0  0  # atno 17370 bound_to 10713
  156.8140  130.9335  151.3643 LP  0  0  0  0  0  0  0  0  0  0  0  0  # atno 17371 bound_to 10713
  141.1832  133.6550  156.5108 LP  0  0  0  0  0  0  0  0  0  0  0  0  # atno 17394 bound_to 11000
  140.4221  134.7178  157.4896 LP  0  0  0  0  0  0  0  0  0  0  0  0  # atno 17395 bound_to 11000

$$$$
