#       Name:                AV-unprocessed.smi:3237
#       Creating user name   scv26
#       Creation time:       Fri Mar 27 18:22:36 2020


#       File generated by GOLD software.
#

@<TRIPOS>MOLECULE
AV-unprocessed.smi:3237
    42    44     1
SMALL
NO_CHARGES


@<TRIPOS>ATOM
      1 ****        -6.8466  -0.8588   0.6246 C.3            1 S1                 0.0000
      2 ****        -5.6878  -0.1684  -0.0088 C.2            1 S1                 0.0000
      3 ****        -4.3394  -0.3839   0.0377 C.2            1 S1                 0.0000
      4 ****        -3.8227   0.6468  -0.8004 C.2            1 S1                 0.0000
      5 ****        -2.4559   0.8814  -1.0997 N.am           1 S1                 0.0000
      6 ****        -1.3821   0.1783  -0.7024 C.2            1 S1                 0.0000
      7 ****        -1.4068  -0.8193   0.0183 O.2            1 S1                 0.0000
      8 ****        -0.2493   0.7006  -1.1939 N.am           1 S1                 0.0000
      9 ****         1.0841   0.1549  -0.9649 C.3            1 S1                 0.0000
     10 ****         2.1678   0.8035  -1.8161 C.3            1 S1                 0.0000
     11 ****         3.4495   0.4427  -1.0551 C.3            1 S1                 0.0000
     12 ****         3.0700   0.2786   0.3710 N.4            1 S1                 1.0000
     13 ****         3.5905  -0.9644   0.9811 C.3            1 S1                 0.0000
     14 ****         3.8301  -0.8539   2.4680 C.3            1 S1                 0.0000
     15 ****         4.9996  -0.8338   1.5076 C.3            1 S1                 0.0000
     16 ****         1.5987   0.4054   0.4548 C.3            1 S1                 0.0000
     17 ****        -4.7700   1.4165  -1.3034 N.2            1 S1                 0.0000
     18 ****        -5.9703   0.9001  -0.8016 O.3            1 S1                 0.0000
     19 ****        -6.5860  -1.8803   0.9018 H              1 S1                 0.0000
     20 ****        -7.6954  -0.9013  -0.0583 H              1 S1                 0.0000
     21 ****        -7.1625  -0.3334   1.5258 H              1 S1                 0.0000
     22 ****        -3.8259  -1.1577   0.5876 H              1 S1                 0.0000
     23 ****        -2.2780   1.6759  -1.6964 H              1 S1                 0.0000
     24 ****        -0.3158   1.5216  -1.7783 H              1 S1                 0.0000
     25 ****         1.0767  -0.9191  -1.1643 H              1 S1                 0.0000
     26 ****         2.1722   0.4449  -2.8459 H              1 S1                 0.0000
     27 ****         2.0392   1.8871  -1.8347 H              1 S1                 0.0000
     28 ****         3.8527  -0.4924  -1.4476 H              1 S1                 0.0000
     29 ****         4.2211   1.2045  -1.1692 H              1 S1                 0.0000
     30 ****         3.2443  -1.9009   0.5465 H              1 S1                 0.0000
     31 ****         3.5694   0.0792   2.9641 H              1 S1                 0.0000
     32 ****         3.6931  -1.7523   3.0666 H              1 S1                 0.0000
     33 ****         5.6320  -1.7187   1.4740 H              1 S1                 0.0000
     34 ****         5.5173   0.1134   1.3659 H              1 S1                 0.0000
     35 ****         1.3663   1.4242   0.7685 H              1 S1                 0.0000
     36 ****         1.1573  -0.2721   1.1874 H              1 S1                 0.0000
     37 ****         3.4631   1.0519   0.8883 H              1 S1                 0.0000
     38 ****        -2.2798  -1.1689   0.3585 LP             1 S1                 0.0000
     39 ****        -0.5539  -1.2802   0.2636 LP             1 S1                 0.0000
     40 ****        -4.6547   2.2009  -1.9127 LP             1 S1                 0.0000
     41 ****        -6.4406   1.6015  -0.2659 LP             1 S1                 0.0000
     42 ****        -6.5554   0.6114  -1.5595 LP             1 S1                 0.0000
@<TRIPOS>BOND
    1    1    2 1     
    2    1   19 1     
    3    1   20 1     
    4    1   21 1     
    5    2   18 1     
    6    2    3 2     
    7    3    4 1     
    8    3   22 1     
    9    4    5 1     
   10    4   17 2     
   11    5    6 am    
   12    5   23 1     
   13    6    7 2     
   14    6    8 am    
   15    8    9 1     
   16    8   24 1     
   17    9   16 1     
   18    9   10 1     
   19    9   25 1     
   20   10   11 1     
   21   10   26 1     
   22   10   27 1     
   23   11   12 1     
   24   11   28 1     
   25   11   29 1     
   26   12   13 1     
   27   12   16 1     
   28   12   37 1     
   29   13   15 1     
   30   13   14 1     
   31   13   30 1     
   32   14   15 1     
   33   14   31 1     
   34   14   32 1     
   35   15   33 1     
   36   15   34 1     
   37   16   35 1     
   38   16   36 1     
   39   17   18 1     
   40    7   38 1     
   41    7   39 1     
   42   17   40 1     
   43   18   41 1     
   44   18   42 1     
@<TRIPOS>SUBSTRUCTURE
      1 S1             1
@<TRIPOS>SET
LONE_PAIRS      STATIC     ATOMS    <user>   **** ""
5 38 39 40 41 42
DONOR_HYDROGENS      STATIC     ATOMS    <user>   **** ""
3 23 24 37
ATOM$BLUE        STATIC     ATOMS    COLORGROUP SYSTEM
5 38 39 40 41 42
ATOM$RED        STATIC     ATOMS    COLORGROUP SYSTEM
3 23 24 37
