#       Name:                AV-unprocessed.smi:2044
#       Creating user name   scv26
#       Creation time:       Fri Mar 27 10:57:16 2020


#       File generated by GOLD software.
#

@<TRIPOS>MOLECULE
AV-unprocessed.smi:2044
    47    48     1
SMALL
NO_CHARGES


@<TRIPOS>ATOM
      1 ****        -6.3764   3.6009   0.2260 C.3            1 S1                 0.0000
      2 ****        -5.3334   2.7702   0.8925 C.2            1 S1                 0.0000
      3 ****        -4.5224   1.7662   0.4453 C.2            1 S1                 0.0000
      4 ****        -3.7667   1.4210   1.5990 C.2            1 S1                 0.0000
      5 ****        -2.8293   0.4636   1.6700 N.pl3          1 S1                -1.0000
      6 ****        -1.5564   0.7289   1.2990 C.2            1 S1                 0.0000
      7 ****        -1.1260   1.8051   0.8778 O.2            1 S1                 0.0000
      8 ****        -0.7342  -0.3247   1.4116 N.am           1 S1                 0.0000
      9 ****         0.6904  -0.3510   1.0888 C.3            1 S1                 0.0000
     10 ****         0.9963  -1.0750  -0.2484 C.3            1 S1                 0.0000
     11 ****         0.2212  -0.4247  -1.4211 C.3            1 S1                 0.0000
     12 ****         2.4791  -1.1256  -0.4688 N.4            1 S1                 1.0000
     13 ****         3.1477  -2.1550   0.3732 C.3            1 S1                 0.0000
     14 ****         4.6740  -2.1057   0.1996 C.3            1 S1                 0.0000
     15 ****         5.0021  -2.2980  -1.1683 O.3            1 S1                 0.0000
     16 ****         4.4586  -1.2700  -1.9828 C.3            1 S1                 0.0000
     17 ****         2.9234  -1.2761  -1.8822 C.3            1 S1                 0.0000
     18 ****        -4.1006   2.1412   2.6567 N.2            1 S1                 0.0000
     19 ****        -5.1005   3.0135   2.2104 O.3            1 S1                 0.0000
     20 ****        -7.1993   2.9775  -0.1231 H              1 S1                 0.0000
     21 ****        -5.9596   4.1250  -0.6340 H              1 S1                 0.0000
     22 ****        -6.7833   4.3458   0.9103 H              1 S1                 0.0000
     23 ****        -4.4743   1.3466  -0.5485 H              1 S1                 0.0000
     24 ****        -1.1368  -1.1827   1.7599 H              1 S1                 0.0000
     25 ****         1.1080   0.6570   1.0714 H              1 S1                 0.0000
     26 ****         1.1711  -0.8533   1.9259 H              1 S1                 0.0000
     27 ****         0.6366  -2.1028  -0.1742 H              1 S1                 0.0000
     28 ****        -0.8523  -0.4100  -1.2366 H              1 S1                 0.0000
     29 ****         0.3434  -0.9773  -2.3523 H              1 S1                 0.0000
     30 ****         0.5387   0.6052  -1.5871 H              1 S1                 0.0000
     31 ****         2.9167  -2.0131   1.4271 H              1 S1                 0.0000
     32 ****         2.7787  -3.1449   0.1006 H              1 S1                 0.0000
     33 ****         5.0787  -1.1577   0.5580 H              1 S1                 0.0000
     34 ****         5.1438  -2.8944   0.7875 H              1 S1                 0.0000
     35 ****         4.8639  -0.3011  -1.6858 H              1 S1                 0.0000
     36 ****         4.7670  -1.4393  -3.0147 H              1 S1                 0.0000
     37 ****         2.5236  -2.2029  -2.2969 H              1 S1                 0.0000
     38 ****         2.5553  -0.4542  -2.4957 H              1 S1                 0.0000
     39 ****         2.8316  -0.2278  -0.1687 H              1 S1                 0.0000
     40 ****        -3.0728  -0.4490   1.9983 LP             1 S1                 0.0000
     41 ****        -1.7415   2.5876   0.7841 LP             1 S1                 0.0000
     42 ****        -0.1614   1.8953   0.6299 LP             1 S1                 0.0000
     43 ****         4.6367  -3.1787  -1.4695 LP             1 S1                 0.0000
     44 ****         5.9973  -2.2988  -1.2669 LP             1 S1                 0.0000
     45 ****        -3.7198   2.0765   3.5791 LP             1 S1                 0.0000
     46 ****        -5.9386   2.8612   2.7341 LP             1 S1                 0.0000
     47 ****        -4.7999   3.9597   2.3301 LP             1 S1                 0.0000
@<TRIPOS>BOND
    1    1    2 1     
    2    1   20 1     
    3    1   21 1     
    4    1   22 1     
    5    2   19 1     
    6    2    3 2     
    7    3    4 1     
    8    3   23 1     
    9    4    5 1     
   10    4   18 2     
   11    5    6 1     
   12    6    7 2     
   13    6    8 am    
   14    8    9 1     
   15    8   24 1     
   16    9   10 1     
   17    9   25 1     
   18    9   26 1     
   19   10   11 1     
   20   10   12 1     
   21   10   27 1     
   22   11   28 1     
   23   11   29 1     
   24   11   30 1     
   25   12   17 1     
   26   12   13 1     
   27   12   39 1     
   28   13   14 1     
   29   13   31 1     
   30   13   32 1     
   31   14   15 1     
   32   14   33 1     
   33   14   34 1     
   34   15   16 1     
   35   16   17 1     
   36   16   35 1     
   37   16   36 1     
   38   17   37 1     
   39   17   38 1     
   40   18   19 1     
   41    5   40 1     
   42    7   41 1     
   43    7   42 1     
   44   15   43 1     
   45   15   44 1     
   46   18   45 1     
   47   19   46 1     
   48   19   47 1     
@<TRIPOS>SUBSTRUCTURE
      1 S1             1
@<TRIPOS>SET
LONE_PAIRS      STATIC     ATOMS    <user>   **** ""
8 40 41 42 43 44 45 46 47
DONOR_HYDROGENS      STATIC     ATOMS    <user>   **** ""
2 24 39
ATOM$BLUE        STATIC     ATOMS    COLORGROUP SYSTEM
8 40 41 42 43 44 45 46 47
ATOM$RED        STATIC     ATOMS    COLORGROUP SYSTEM
2 24 39
