AV-unprocessed.smi:282|AV-procd|sdf|2119|dock9
  -GOLD-   2262021423D 1   1.00000     0.00000
 Structure written by MMmdl.
 65 69  0  0  0  0  0  0  0  0  2 V2000
  148.8894  132.6553  153.4626 C   0  0  0  0  0  0  0  0  0  0  0  0
  147.8099  131.8708  154.2210 C   0  0  0  0  0  0  0  0  0  0  0  0
  146.3990  132.5163  154.1752 C   0  0  2  0  0  0  0  0  0  0  0  0
  145.7636  132.3487  152.7748 C   0  0  0  0  0  0  0  0  0  0  0  0
  144.4506  133.0357  152.6630 N   0  3  2  0  0  0  0  0  0  0  0  0
  143.7846  132.8352  151.3491 C   0  0  0  0  0  0  0  0  0  0  0  0
  144.4283  133.6836  150.2349 C   0  0  0  0  0  0  0  0  0  0  0  0
  144.4763  135.1674  150.6265 C   0  0  0  0  0  0  0  0  0  0  0  0
  145.1677  135.3424  151.9866 C   0  0  0  0  0  0  0  0  0  0  0  0
  144.4905  134.4684  153.0651 C   0  0  2  0  0  0  0  0  0  0  0  0
  145.1332  134.6248  154.4530 C   0  0  0  0  0  0  0  0  0  0  0  0
  146.4201  133.9401  154.5387 N   0  0  0  0  0  0  0  0  0  0  0  0
  147.0514  134.2415  155.6957 C   0  0  0  0  0  0  0  0  0  0  0  0
  148.1669  135.0177  155.6815 N   0  0  0  0  0  0  0  0  0  0  0  0
  148.7782  135.3218  156.8311 C   0  0  0  0  0  0  0  0  0  0  0  0
  148.4470  134.9626  158.0741 N   0  0  0  0  0  0  0  0  0  0  0  0
  147.3262  134.1845  158.0856 C   0  0  0  0  0  0  0  0  0  0  0  0
  146.5728  133.7817  156.9490 C   0  0  0  0  0  0  0  0  0  0  0  0
  145.4901  133.0062  157.3397 N   0  0  0  0  0  0  0  0  0  0  0  0
  145.5940  132.9569  158.6398 C   0  0  0  0  0  0  0  0  0  0  0  0
  146.6770  133.6224  159.1719 N   0  0  0  0  0  0  0  0  0  0  0  0
  147.0255  133.7350  160.5812 C   0  0  0  0  0  0  0  0  0  0  0  0
  146.1009  134.6716  161.4218 C   0  0  0  0  0  0  0  0  0  0  0  0
  144.7876  133.9062  161.7464 C   0  0  0  0  0  0  0  0  0  0  0  0
  144.9986  132.7115  162.4730 O   0  0  0  0  0  0  0  0  0  0  0  0
  146.8345  135.0580  162.7321 C   0  0  0  0  0  0  0  0  0  0  0  0
  148.0023  136.0355  162.4944 C   0  0  0  0  0  0  0  0  0  0  0  0
  147.5433  137.1932  161.8066 O   0  0  0  0  0  0  0  0  0  0  0  0
  147.0012  136.9015  160.5244 C   0  0  0  0  0  0  0  0  0  0  0  0
  145.7705  135.9895  160.6737 C   0  0  0  0  0  0  0  0  0  0  0  0
  149.8236  132.0939  153.4380 H   0  0  0  0  0  0  0  0  0  0  0  0
  149.1032  133.6139  153.9346 H   0  0  0  0  0  0  0  0  0  0  0  0
  148.5889  132.8425  152.4314 H   0  0  0  0  0  0  0  0  0  0  0  0
  147.7832  130.8737  153.7812 H   0  0  0  0  0  0  0  0  0  0  0  0
  148.1211  131.7338  155.2575 H   0  0  0  0  0  0  0  0  0  0  0  0
  145.7636  132.0046  154.8998 H   0  0  0  0  0  0  0  0  0  0  0  0
  146.4487  132.7285  152.0165 H   0  0  0  0  0  0  0  0  0  0  0  0
  145.6102  131.2920  152.5566 H   0  0  0  0  0  0  0  0  0  0  0  0
  143.7971  131.7784  151.0806 H   0  0  0  0  0  0  0  0  0  0  0  0
  142.7345  133.1111  151.4525 H   0  0  0  0  0  0  0  0  0  0  0  0
  145.4365  133.3262  150.0236 H   0  0  0  0  0  0  0  0  0  0  0  0
  143.8654  133.5646  149.3085 H   0  0  0  0  0  0  0  0  0  0  0  0
  144.9985  135.7423  149.8613 H   0  0  0  0  0  0  0  0  0  0  0  0
  143.4620  135.5656  150.6770 H   0  0  0  0  0  0  0  0  0  0  0  0
  146.2247  135.0893  151.8974 H   0  0  0  0  0  0  0  0  0  0  0  0
  145.1309  136.3917  152.2812 H   0  0  0  0  0  0  0  0  0  0  0  0
  143.4563  134.8056  153.1517 H   0  0  0  0  0  0  0  0  0  0  0  0
  145.2526  135.6833  154.6910 H   0  0  0  0  0  0  0  0  0  0  0  0
  144.4615  134.2090  155.2056 H   0  0  0  0  0  0  0  0  0  0  0  0
  149.6570  135.9435  156.7429 H   0  0  0  0  0  0  0  0  0  0  0  0
  144.8793  132.4253  159.2510 H   0  0  0  0  0  0  0  0  0  0  0  0
  147.0167  132.7311  161.0083 H   0  0  0  0  0  0  0  0  0  0  0  0
  148.0650  134.0548  160.6273 H   0  0  0  0  0  0  0  0  0  0  0  0
  144.1135  134.5265  162.3368 H   0  0  0  0  0  0  0  0  0  0  0  0
  144.2592  133.6524  160.8269 H   0  0  0  0  0  0  0  0  0  0  0  0
  144.3090  132.1022  162.2571 H   0  0  0  0  0  0  0  0  0  0  0  0
  146.1432  135.5422  163.4222 H   0  0  0  0  0  0  0  0  0  0  0  0
  147.1936  134.1657  163.2460 H   0  0  0  0  0  0  0  0  0  0  0  0
  148.4219  136.3468  163.4511 H   0  0  0  0  0  0  0  0  0  0  0  0
  148.8165  135.5684  161.9402 H   0  0  0  0  0  0  0  0  0  0  0  0
  146.7107  137.8388  160.0498 H   0  0  0  0  0  0  0  0  0  0  0  0
  147.7622  136.4522  159.8860 H   0  0  0  0  0  0  0  0  0  0  0  0
  145.3231  135.7912  159.7007 H   0  0  0  0  0  0  0  0  0  0  0  0
  145.0172  136.5498  161.2284 H   0  0  0  0  0  0  0  0  0  0  0  0
  143.8607  132.5781  153.3435 H   0  0  0  0  0  0  0  0  0  0  0  0
  1  2  1  0  0  0  0
  1 31  1  0  0  0  0
  1 32  1  0  0  0  0
  1 33  1  0  0  0  0
  2  3  1  0  0  0  0
  2 34  1  0  0  0  0
  2 35  1  0  0  0  0
  3 12  1  0  0  0  0
  3  4  1  0  0  0  0
  3 36  1  0  0  0  0
  4  5  1  0  0  0  0
  4 37  1  0  0  0  0
  4 38  1  0  0  0  0
  5 10  1  0  0  0  0
  5  6  1  0  0  0  0
  5 65  1  0  0  0  0
  6  7  1  0  0  0  0
  6 39  1  0  0  0  0
  6 40  1  0  0  0  0
  7  8  1  0  0  0  0
  7 41  1  0  0  0  0
  7 42  1  0  0  0  0
  8  9  1  0  0  0  0
  8 43  1  0  0  0  0
  8 44  1  0  0  0  0
  9 10  1  0  0  0  0
  9 45  1  0  0  0  0
  9 46  1  0  0  0  0
 10 11  1  0  0  0  0
 10 47  1  0  0  0  0
 11 12  1  0  0  0  0
 11 48  1  0  0  0  0
 11 49  1  0  0  0  0
 12 13  1  0  0  0  0
 13 18  1  0  0  0  0
 13 14  2  0  0  0  0
 14 15  1  0  0  0  0
 15 16  2  0  0  0  0
 15 50  1  0  0  0  0
 16 17  1  0  0  0  0
 17 21  1  0  0  0  0
 17 18  2  0  0  0  0
 18 19  1  0  0  0  0
 19 20  2  0  0  0  0
 20 21  1  0  0  0  0
 20 51  1  0  0  0  0
 21 22  1  0  0  0  0
 22 23  1  0  0  0  0
 22 52  1  0  0  0  0
 22 53  1  0  0  0  0
 23 30  1  0  0  0  0
 23 24  1  0  0  0  0
 23 26  1  0  0  0  0
 24 25  1  0  0  0  0
 24 54  1  0  0  0  0
 24 55  1  0  0  0  0
 25 56  1  0  0  0  0
 26 27  1  0  0  0  0
 26 57  1  0  0  0  0
 26 58  1  0  0  0  0
 27 28  1  0  0  0  0
 27 59  1  0  0  0  0
 27 60  1  0  0  0  0
 28 29  1  0  0  0  0
 29 30  1  0  0  0  0
 29 61  1  0  0  0  0
 29 62  1  0  0  0  0
 30 63  1  0  0  0  0
 30 64  1  0  0  0  0
M  CHG  1   5   1
M  END
> <s_m_source_file>
AV-unprocessed.smi

> <i_m_source_file_index>
282

> <i_lp_mmshare_version>
43012

> <i_f3d_flags>
0

> <s_epik_input>
W0NIMl0xW0NIMl1bQ0gyXVtDSDJdW0NAQEhdKE4xMilbQ0gyXU4oW0NAQEhdKFtDSDJdMilbQ0gyXVtDSDNdKWMobltjSF1uMyljKGMzNCluW2NIXW40W0NIMl1DNShbQ0gyXVtPSF0pW0NIMl1bQ0gyXU9bQ0gyXVtDSDJdNQ==

> <s_epik_cmdline>
J2VwaWtfcHl0aG9uJywgJy1waCcsICc3LjAnLCAnLXRuJywgJzgnLCAnLW1hJywgJzIwMCcsICctbWV0YWxfYmluZGluZycsICctaW1hZScsICc8aW5maWxlLm1hZT4nLCAnLW9tYWUnLCAnPG91dGZpbGUubWFlPic=

> <r_lp_tautomer_probability>
1

> <r_epik_Ionization_Penalty>
0.00308583

> <r_epik_Ionization_Penalty_Charging>
0.00300384

> <r_epik_Ionization_Penalty_Neutral>
8.19894e-05

> <r_epik_State_Penalty>
-0

> <r_epik_Charging_Adjusted_Penalty>
0.00300384

> <i_epik_Tot_Q>
1

> <i_epik_Tot_abs_Q>
1

> <r_epik_Metal_State_Penalty>
-0

> <b_epik_Metal_Only>
0

> <s_lp_Force_Field>
OPLS_2005

> <r_lp_Energy>
60.5871

> <b_lp_Chiralities_Consistent>
1

> <s_lp_Variant>
AV-unprocessed.smi:282-3

> <Gold.Version>
5.8.1

> <Gold.Id.Protein>
6NUR|6NUR_protein|mol2

> <Gold.PLP.Fitness>
45.2281

> <Gold.PLP.PLP>
-37.2406

> <Gold.PLP.part.hbond>
-3.8379

> <Gold.PLP.part.metal>
0.0000

> <Gold.PLP.part.buried>
-5.7034

> <Gold.PLP.part.nonpolar>
-26.6542

> <Gold.PLP.part.repulsive>
0.1770

> <Gold.PLP.ligand.clash>
0.0000

> <Gold.PLP.ligand.torsion>
0.5541

> <Gold.PLP.Chemscore.Hbond>
2.9600

> <Gold.PLP.Chemscore.CHOScore>
0.0000

> <Gold.PLP.Chemscore.Metal>
0.0000

> <Gold.Chemscore.Hbonds>
donor molecule, donor type, donor heavy atom, donor atom, acceptor molecule, acceptor atom, score
      L1  H     5    65       P1 10957  2.00
      P1  H  6931  6943       L1    28  0.96

> <Gold.PLP.Chemscore.Internal.Correction>
0.2158

> <Gold.Rescore>
     Score         DG    S(hbond)    S(metal)    S(lipo)     H(rot)  DE(clash)    DE(int)     intcor
     14.29     -15.22       1.55        0.00      92.80       2.46       0.43       0.50       ----

> <Gold.Chemscore.Fitness>
14.2913

> <Gold.Chemscore.DG>
-15.2220

> <Gold.Chemscore.ZeroCoef>
-5.4800

> <Gold.Chemscore.Hbond>
1.5498

> <Gold.Chemscore.Metal>
0.0000

> <Gold.Chemscore.Lipo>
92.7956

> <Gold.Chemscore.Internal_Hbond>
0.0000

> <Gold.Chemscore.DEClash>
0.4261

> <Gold.Chemscore.DEInternal>
0.5046

> <Gold.Chemscore.Rot>
2.4576

> <Gold.Chemscore.Internal.Correction>
   9.000000E+99

> <Gold.Chemscore.Hbonds>
donor molecule, donor type, donor heavy atom, donor atom, acceptor molecule, acceptor atom, score
      L1  H     5    65       P1 10957  0.28
      P1  H  6931  6943       L1    28  0.27

> <Gold.Chemscore.Hbond.Weighted>
-5.1764

> <Gold.Chemscore.Metal.Weighted>
-0.0000

> <Gold.Chemscore.Lipo.Weighted>
-10.8571

> <Gold.Chemscore.Internal_Hbond.Weighted>
0.0000

> <Gold.Chemscore.DEClash.Weighted>
0.4261

> <Gold.Chemscore.DEInternal.Weighted>
0.5046

> <Gold.Chemscore.Rot.Weighted>
6.2915

> <Gold.Chemscore.Internal.Correction.Weighted>
   9.000000E+99

> <Gold.Protein.RotatedTorsions>
[ 6907 6896 6895 6894 ] final  -80.92 input  -60.11 | X-H torsion
[ 7974 7965 7964 7962 ] final  112.11 input  175.53 | X-H torsion
[ 8008 7997 7996 7995 ] final  -99.91 input   59.86 | X-H torsion
[ 10167 10162 10161 10158 ] final  -68.08 input  -65.29 | X-H torsion
[ 10718 10713 10712 10709 ] final  -13.91 input   66.30 | X-H torsion
[ 10763 10752 10751 10750 ] final  154.51 input  -60.55 | X-H torsion
[ 11005 11000 10999 10996 ] final -115.35 input  -57.11 | X-H torsion

> <Gold.Protein.ActiveResidues>
 VAL166  LYS551  ARG553  GLY616  TRP617  ASP618  TYR619  PRO620  LYS621  CYS622 
 ASP623  PHE694  ASN695  SER759  ASP760  ASP761  ALA762  ILE779  LEU786  VAL792 
 PHE793  MET794  SER795  GLU796  ALA797  LYS798  CYS799  TRP800  GLU811  SER814 

> <Gold.Protein.RotatedAtoms>
  150.6921  134.3896  159.5070 H   0  0  0  0  0  0  0  0  0  0  0  0  # atno 6907 bound_to 6896
  152.1686  134.8850  160.0545 H   0  0  0  0  0  0  0  0  0  0  0  0  # atno 6908 bound_to 6896
  151.9885  133.3747  159.4172 H   0  0  0  0  0  0  0  0  0  0  0  0  # atno 6909 bound_to 6896
  145.2337  139.2808  143.4154 H   0  0  0  0  0  0  0  0  0  0  0  0  # atno 7974 bound_to 7965
  154.8214  140.0444  157.1413 H   0  0  0  0  0  0  0  0  0  0  0  0  # atno 8008 bound_to 7997
  154.9255  140.3033  155.5174 H   0  0  0  0  0  0  0  0  0  0  0  0  # atno 8009 bound_to 7997
  156.2980  140.2332  156.4310 H   0  0  0  0  0  0  0  0  0  0  0  0  # atno 8010 bound_to 7997
  140.5534  143.2312  151.6867 H   0  0  0  0  0  0  0  0  0  0  0  0  # atno 10167 bound_to 10162
  156.6234  130.4882  149.6156 H   0  0  0  0  0  0  0  0  0  0  0  0  # atno 10718 bound_to 10713
  154.1535  135.2814  155.3129 H   0  0  0  0  0  0  0  0  0  0  0  0  # atno 10763 bound_to 10752
  154.6200  135.5470  153.7568 H   0  0  0  0  0  0  0  0  0  0  0  0  # atno 10764 bound_to 10752
  153.0214  135.6436  154.1678 H   0  0  0  0  0  0  0  0  0  0  0  0  # atno 10765 bound_to 10752
  141.0493  133.9712  157.2863 H   0  0  0  0  0  0  0  0  0  0  0  0  # atno 11005 bound_to 11000
  146.3346  140.2680  142.8604 LP  0  0  0  0  0  0  0  0  0  0  0  0  # atno 17320 bound_to 7965
  144.9653  140.8315  143.5489 LP  0  0  0  0  0  0  0  0  0  0  0  0  # atno 17321 bound_to 7965
  139.5037  144.3780  152.0404 LP  0  0  0  0  0  0  0  0  0  0  0  0  # atno 17342 bound_to 10162
  140.2900  144.3765  150.6092 LP  0  0  0  0  0  0  0  0  0  0  0  0  # atno 17343 bound_to 10162
  156.2293  130.6784  151.1447 LP  0  0  0  0  0  0  0  0  0  0  0  0  # atno 17370 bound_to 10713
  157.7221  131.0675  150.6092 LP  0  0  0  0  0  0  0  0  0  0  0  0  # atno 17371 bound_to 10713
  139.9337  135.0198  156.8487 LP  0  0  0  0  0  0  0  0  0  0  0  0  # atno 17394 bound_to 11000
  140.6085  134.0104  155.7567 LP  0  0  0  0  0  0  0  0  0  0  0  0  # atno 17395 bound_to 11000

$$$$
