#       Name:                AV-unprocessed.smi:766
#       Creating user name   scv26
#       Creation time:       Fri Mar 27 01:05:58 2020


#       File generated by GOLD software.
#

@<TRIPOS>MOLECULE
AV-unprocessed.smi:766
    51    53     1
SMALL
NO_CHARGES


@<TRIPOS>ATOM
      1 ****        -5.2775   2.9639   2.2575 C.3            1 S1                 0.0000
      2 ****        -4.1897   2.5707   1.2723 C.ar           1 S1                 0.0000
      3 ****        -4.5726   2.1309  -0.0147 C.ar           1 S1                 0.0000
      4 ****        -3.5552   1.7813  -0.8943 C.ar           1 S1                 0.0000
      5 ****        -3.6053   1.3170  -2.2101 N.pl3          1 S1                 1.0000
      6 ****        -2.3398   1.1103  -2.6678 C.2            1 S1                 0.0000
      7 ****        -1.4808   1.4329  -1.6624 N.pl3          1 S1                 0.0000
      8 ****        -0.0109   1.3994  -1.6395 C.3            1 S1                 0.0000
      9 ****         0.5526   0.0064  -1.2969 C.3            1 S1                 0.0000
     10 ****         0.1090  -0.3826  -0.0115 O.3            1 S1                 0.0000
     11 ****         2.0901  -0.0092  -1.3105 C.3            1 S1                 0.0000
     12 ****         2.6123  -1.3848  -1.1913 N.4            1 S1                 1.0000
     13 ****         4.0857  -1.4704  -1.1441 C.3            1 S1                 0.0000
     14 ****         4.5635  -2.9274  -1.0036 C.3            1 S1                 0.0000
     15 ****         4.0646  -3.5895   0.1918 N.pl3          1 S1                 0.0000
     16 ****         3.5463  -4.8629   0.3053 C.2            1 S1                 0.0000
     17 ****         3.2386  -5.0631   1.6204 C.2            1 S1                 0.0000
     18 ****         3.6252  -3.8460   2.2471 C.2            1 S1                 0.0000
     19 ****         4.1274  -2.9703   1.3915 N.2            1 S1                 0.0000
     20 ****        -2.1952   1.8572  -0.5346 C.ar           1 S1                 0.0000
     21 ****        -1.8013   2.2855   0.7313 C.ar           1 S1                 0.0000
     22 ****        -2.8214   2.6457   1.6409 C.ar           1 S1                 0.0000
     23 ****        -2.4216   3.1166   3.0290 C.3            1 S1                 0.0000
     24 ****        -6.2710   2.8387   1.8259 H              1 S1                 0.0000
     25 ****        -5.1702   4.0090   2.5485 H              1 S1                 0.0000
     26 ****        -5.2246   2.3467   3.1546 H              1 S1                 0.0000
     27 ****        -5.6123   2.0700  -0.3015 H              1 S1                 0.0000
     28 ****        -2.0682   0.7572  -3.6523 H              1 S1                 0.0000
     29 ****         0.3280   1.7005  -2.6317 H              1 S1                 0.0000
     30 ****         0.3583   2.1594  -0.9504 H              1 S1                 0.0000
     31 ****         0.1751  -0.7157  -2.0224 H              1 S1                 0.0000
     32 ****        -0.8364  -0.3827  -0.0064 H              1 S1                 0.0000
     33 ****         2.4562   0.4158  -2.2461 H              1 S1                 0.0000
     34 ****         2.4849   0.6095  -0.5028 H              1 S1                 0.0000
     35 ****         2.2471  -1.7864  -0.3388 H              1 S1                 0.0000
     36 ****         4.4963  -1.0400  -2.0582 H              1 S1                 0.0000
     37 ****         4.4601  -0.8654  -0.3173 H              1 S1                 0.0000
     38 ****         4.2539  -3.5065  -1.8747 H              1 S1                 0.0000
     39 ****         5.6532  -2.9607  -0.9774 H              1 S1                 0.0000
     40 ****         3.4389  -5.5143  -0.5496 H              1 S1                 0.0000
     41 ****         2.8096  -5.9473   2.0680 H              1 S1                 0.0000
     42 ****         3.5603  -3.5765   3.2909 H              1 S1                 0.0000
     43 ****        -0.7610   2.3398   1.0165 H              1 S1                 0.0000
     44 ****        -1.3383   3.1189   3.1535 H              1 S1                 0.0000
     45 ****        -2.8428   2.4615   3.7918 H              1 S1                 0.0000
     46 ****        -2.7790   4.1310   3.2068 H              1 S1                 0.0000
     47 ****         2.2782  -1.9287  -1.9737 H              1 S1                 0.0000
     48 ****        -4.4407   1.1556  -2.7586 H              1 S1                 0.0000
     49 ****         0.4496   0.2628   0.6722 LP             1 S1                 0.0000
     50 ****         0.4473  -1.3000   0.1984 LP             1 S1                 0.0000
     51 ****         4.4759  -2.0540   1.5888 LP             1 S1                 0.0000
@<TRIPOS>BOND
    1    1    2 1     
    2    1   24 1     
    3    1   25 1     
    4    1   26 1     
    5    2   22 ar    
    6    2    3 ar    
    7    3    4 ar    
    8    3   27 1     
    9    4   20 ar    
   10    4    5 1     
   11    5    6 2     
   12    5   48 1     
   13    6    7 1     
   14    6   28 1     
   15    7    8 1     
   16    7   20 1     
   17    8    9 1     
   18    8   29 1     
   19    8   30 1     
   20    9   10 1     
   21    9   11 1     
   22    9   31 1     
   23   10   32 1     
   24   11   12 1     
   25   11   33 1     
   26   11   34 1     
   27   12   13 1     
   28   12   35 1     
   29   12   47 1     
   30   13   14 1     
   31   13   36 1     
   32   13   37 1     
   33   14   15 1     
   34   14   38 1     
   35   14   39 1     
   36   15   19 1     
   37   15   16 1     
   38   16   17 2     
   39   16   40 1     
   40   17   18 1     
   41   17   41 1     
   42   18   19 2     
   43   18   42 1     
   44   20   21 ar    
   45   21   22 ar    
   46   21   43 1     
   47   22   23 1     
   48   23   44 1     
   49   23   45 1     
   50   23   46 1     
   51   10   49 1     
   52   10   50 1     
   53   19   51 1     
@<TRIPOS>SUBSTRUCTURE
      1 S1             1
@<TRIPOS>SET
LONE_PAIRS      STATIC     ATOMS    <user>   **** ""
3 49 50 51
DONOR_HYDROGENS      STATIC     ATOMS    <user>   **** ""
4 48 32 35 47
ATOM$BLUE        STATIC     ATOMS    COLORGROUP SYSTEM
3 49 50 51
ATOM$RED        STATIC     ATOMS    COLORGROUP SYSTEM
4 48 32 35 47
