AV-unprocessed.smi:2405|AV-procd|sdf|9514|dock5
  -GOLD-   2272013143D 1   1.00000     0.00000
 Structure written by MMmdl.
 36 37  0  0  0  0  0  0  0  0  2 V2000
  151.9743  144.8111  158.1391 C   0  0  0  0  0  0  0  0  0  0  0  0
  151.3680  144.6747  159.5398 C   0  0  0  0  0  0  0  0  0  0  0  0
  151.9202  143.5108  160.2924 C   0  0  0  0  0  0  0  0  0  0  0  0
  152.2353  142.3466  159.7194 N   0  0  0  0  0  0  0  0  0  0  0  0
  152.7575  141.4208  160.6287 C   0  0  0  0  0  0  0  0  0  0  0  0
  153.1495  140.0495  160.1607 C   0  0  0  0  0  0  0  0  0  0  0  0
  152.5052  139.7507  158.8067 C   0  0  0  0  0  0  0  0  0  0  0  0
  153.2117  139.5146  157.8263 O   0  0  0  0  0  0  0  0  0  0  0  0
  151.1645  139.7675  158.7667 N   0  0  0  0  0  0  0  0  0  0  0  0
  150.3512  139.5150  157.5818 C   0  0  2  0  0  0  0  0  0  0  0  0
  148.8452  139.5033  157.9169 C   0  0  0  0  0  0  0  0  0  0  0  0
  148.2948  138.1844  157.3621 C   0  0  0  0  0  0  0  0  0  0  0  0
  149.4841  137.2133  157.3743 C   0  0  2  0  0  0  0  0  0  0  0  0
  149.6344  136.5369  158.7543 C   0  0  0  0  0  0  0  0  0  0  0  0
  149.6064  135.2867  158.7685 O   0  0  0  0  0  0  0  0  0  0  0  0
  149.7868  137.2556  159.7674 O   0  5  0  0  0  0  0  0  0  0  0  0
  150.6678  138.1249  156.9979 C   0  0  0  0  0  0  0  0  0  0  0  0
  152.8560  141.9159  161.9059 C   0  0  0  0  0  0  0  0  0  0  0  0
  152.2862  143.5586  162.0129 S   0  0  0  0  0  0  0  0  0  0  0  0
  151.5525  145.6689  157.6151 H   0  0  0  0  0  0  0  0  0  0  0  0
  151.7774  143.9234  157.5376 H   0  0  0  0  0  0  0  0  0  0  0  0
  153.0545  144.9492  158.1901 H   0  0  0  0  0  0  0  0  0  0  0  0
  151.5537  145.5820  160.1151 H   0  0  0  0  0  0  0  0  0  0  0  0
  150.2851  144.5666  159.4680 H   0  0  0  0  0  0  0  0  0  0  0  0
  154.2332  139.9596  160.0722 H   0  0  0  0  0  0  0  0  0  0  0  0
  152.8368  139.2949  160.8832 H   0  0  0  0  0  0  0  0  0  0  0  0
  150.6647  139.9814  159.6190 H   0  0  0  0  0  0  0  0  0  0  0  0
  150.5675  140.2725  156.8262 H   0  0  0  0  0  0  0  0  0  0  0  0
  148.6884  139.5303  158.9965 H   0  0  0  0  0  0  0  0  0  0  0  0
  148.3264  140.3654  157.4967 H   0  0  0  0  0  0  0  0  0  0  0  0
  147.4304  137.8324  157.9273 H   0  0  0  0  0  0  0  0  0  0  0  0
  147.9630  138.3309  156.3335 H   0  0  0  0  0  0  0  0  0  0  0  0
  149.3522  136.4246  156.6329 H   0  0  0  0  0  0  0  0  0  0  0  0
  150.7098  138.2014  155.9108 H   0  0  0  0  0  0  0  0  0  0  0  0
  151.6413  137.7394  157.3056 H   0  0  0  0  0  0  0  0  0  0  0  0
  153.2260  141.4130  162.7871 H   0  0  0  0  0  0  0  0  0  0  0  0
  1  2  1  0  0  0  0
  1 20  1  0  0  0  0
  1 21  1  0  0  0  0
  1 22  1  0  0  0  0
  2  3  1  0  0  0  0
  2 23  1  0  0  0  0
  2 24  1  0  0  0  0
  3 19  1  0  0  0  0
  3  4  2  0  0  0  0
  4  5  1  0  0  0  0
  5  6  1  0  0  0  0
  5 18  2  0  0  0  0
  6  7  1  0  0  0  0
  6 25  1  0  0  0  0
  6 26  1  0  0  0  0
  7  8  2  0  0  0  0
  7  9  1  0  0  0  0
  9 10  1  0  0  0  0
  9 27  1  0  0  0  0
 10 17  1  0  0  0  0
 10 11  1  0  0  0  0
 10 28  1  0  0  0  0
 11 12  1  0  0  0  0
 11 29  1  0  0  0  0
 11 30  1  0  0  0  0
 12 13  1  0  0  0  0
 12 31  1  0  0  0  0
 12 32  1  0  0  0  0
 13 14  1  0  0  0  0
 13 17  1  0  0  0  0
 13 33  1  0  0  0  0
 14 15  2  0  0  0  0
 14 16  1  0  0  0  0
 17 34  1  0  0  0  0
 17 35  1  0  0  0  0
 18 19  1  0  0  0  0
 18 36  1  0  0  0  0
M  CHG  1  16  -1
M  END
> <s_m_source_file>
AV-unprocessed.smi

> <i_m_source_file_index>
2405

> <i_lp_mmshare_version>
43012

> <i_f3d_flags>
0

> <s_epik_input>
W0NIM11bQ0gyXWMxbmMoW2NIXXMxKVtDSDJdQyg9TylbTkhdW0NAQEhdMltDSDJdW0NIMl1bQ0BIXShbQ0gyXTIpQyg9TylbT0hd

> <s_epik_cmdline>
J2VwaWtfcHl0aG9uJywgJy1waCcsICc3LjAnLCAnLXRuJywgJzgnLCAnLW1hJywgJzIwMCcsICctbWV0YWxfYmluZGluZycsICctaW1hZScsICc8aW5maWxlLm1hZT4nLCAnLW9tYWUnLCAnPG91dGZpbGUubWFlPic=

> <r_epik_Ionization_Penalty>
0.000544611

> <r_epik_Ionization_Penalty_Charging>
0.000481685

> <r_epik_Ionization_Penalty_Neutral>
6.29266e-05

> <r_epik_State_Penalty>
0.00029893

> <r_epik_Charging_Adjusted_Penalty>
0.000780614

> <i_epik_Tot_Q>
-1

> <i_epik_Tot_abs_Q>
1

> <r_epik_Metal_State_Penalty>
-0

> <b_epik_Metal_Only>
0

> <s_lp_Force_Field>
OPLS_2005

> <r_lp_Energy>
7.32439

> <b_lp_Chiralities_Consistent>
1

> <s_lp_Variant>
AV-unprocessed.smi:2405-3

> <Gold.Version>
5.8.1

> <Gold.Id.Protein>
6NUR|6NUR_protein|mol2

> <Gold.PLP.Fitness>
44.3070

> <Gold.PLP.PLP>
-36.1896

> <Gold.PLP.part.hbond>
-3.0000

> <Gold.PLP.part.metal>
0.0000

> <Gold.PLP.part.buried>
-6.1134

> <Gold.PLP.part.nonpolar>
-27.9190

> <Gold.PLP.part.repulsive>
0.1614

> <Gold.PLP.ligand.clash>
0.0000

> <Gold.PLP.ligand.torsion>
0.5706

> <Gold.PLP.Chemscore.Hbond>
3.0728

> <Gold.PLP.Chemscore.CHOScore>
0.0000

> <Gold.PLP.Chemscore.Metal>
0.0000

> <Gold.Chemscore.Hbonds>
donor molecule, donor type, donor heavy atom, donor atom, acceptor molecule, acceptor atom, score
      P1  H  6896  6907       L1    15  1.95
      P1  H  7997  8009       L1     8  1.00

> <Gold.PLP.Chemscore.Internal.Correction>
0.0402

> <Gold.Rescore>
     Score         DG    S(hbond)    S(metal)    S(lipo)     H(rot)  DE(clash)    DE(int)     intcor
     15.96     -17.58       2.09        0.00      88.77       2.06       0.21       1.41       ----

> <Gold.Chemscore.Fitness>
15.9583

> <Gold.Chemscore.DG>
-17.5765

> <Gold.Chemscore.ZeroCoef>
-5.4800

> <Gold.Chemscore.Hbond>
2.0936

> <Gold.Chemscore.Metal>
0.0000

> <Gold.Chemscore.Lipo>
88.7723

> <Gold.Chemscore.Internal_Hbond>
0.0000

> <Gold.Chemscore.DEClash>
0.2096

> <Gold.Chemscore.DEInternal>
1.4086

> <Gold.Chemscore.Rot>
2.0635

> <Gold.Chemscore.Internal.Correction>
   9.000000E+99

> <Gold.Chemscore.Hbonds>
donor molecule, donor type, donor heavy atom, donor atom, acceptor molecule, acceptor atom, score
      P1  H  6896  6907       L1    15  0.72
      P1  H  6931  6943       L1    16  0.01
      P1  H  7997  8009       L1     8  1.00

> <Gold.Chemscore.Hbond.Weighted>
-6.9926

> <Gold.Chemscore.Metal.Weighted>
-0.0000

> <Gold.Chemscore.Lipo.Weighted>
-10.3864

> <Gold.Chemscore.Internal_Hbond.Weighted>
0.0000

> <Gold.Chemscore.DEClash.Weighted>
0.2096

> <Gold.Chemscore.DEInternal.Weighted>
1.4086

> <Gold.Chemscore.Rot.Weighted>
5.2825

> <Gold.Chemscore.Internal.Correction.Weighted>
   9.000000E+99

> <Gold.Protein.RotatedTorsions>
[ 6907 6896 6895 6894 ] final  -59.83 input  -60.11 | X-H torsion
[ 7974 7965 7964 7962 ] final -134.99 input  175.53 | X-H torsion
[ 8008 7997 7996 7995 ] final  171.47 input   59.86 | X-H torsion
[ 10167 10162 10161 10158 ] final  -34.31 input  -65.29 | X-H torsion
[ 10718 10713 10712 10709 ] final    7.18 input   66.30 | X-H torsion
[ 10763 10752 10751 10750 ] final -145.79 input  -60.55 | X-H torsion
[ 11005 11000 10999 10996 ] final -133.88 input  -57.11 | X-H torsion

> <Gold.Protein.ActiveResidues>
 VAL166  LYS551  ARG553  GLY616  TRP617  ASP618  TYR619  PRO620  LYS621  CYS622 
 ASP623  PHE694  ASN695  SER759  ASP760  ASP761  ALA762  ILE779  LEU786  VAL792 
 PHE793  MET794  SER795  GLU796  ALA797  LYS798  CYS799  TRP800  GLU811  SER814 

> <Gold.Protein.RotatedAtoms>
  150.7901  134.6917  159.6499 H   0  0  0  0  0  0  0  0  0  0  0  0  # atno 6907 bound_to 6896
  152.4004  134.6292  160.0081 H   0  0  0  0  0  0  0  0  0  0  0  0  # atno 6908 bound_to 6896
  151.6565  133.3282  159.3200 H   0  0  0  0  0  0  0  0  0  0  0  0  # atno 6909 bound_to 6896
  144.9053  140.6825  143.5059 H   0  0  0  0  0  0  0  0  0  0  0  0  # atno 7974 bound_to 7965
  156.1268  140.1511  156.9125 H   0  0  0  0  0  0  0  0  0  0  0  0  # atno 8008 bound_to 7997
  154.4877  140.0860  156.7565 H   0  0  0  0  0  0  0  0  0  0  0  0  # atno 8009 bound_to 7997
  155.4329  140.3428  155.4284 H   0  0  0  0  0  0  0  0  0  0  0  0  # atno 8010 bound_to 7997
  140.7188  143.3557  151.2065 H   0  0  0  0  0  0  0  0  0  0  0  0  # atno 10167 bound_to 10162
  156.9332  130.5833  149.5650 H   0  0  0  0  0  0  0  0  0  0  0  0  # atno 10718 bound_to 10713
  154.8367  135.3404  154.6559 H   0  0  0  0  0  0  0  0  0  0  0  0  # atno 10763 bound_to 10752
  153.7173  135.6960  153.5026 H   0  0  0  0  0  0  0  0  0  0  0  0  # atno 10764 bound_to 10752
  153.2407  135.4385  155.0648 H   0  0  0  0  0  0  0  0  0  0  0  0  # atno 10765 bound_to 10752
  140.9041  134.1653  157.4439 H   0  0  0  0  0  0  0  0  0  0  0  0  # atno 11005 bound_to 11000
  145.3546  139.1697  143.4416 LP  0  0  0  0  0  0  0  0  0  0  0  0  # atno 17320 bound_to 7965
  146.3130  140.3602  142.8664 LP  0  0  0  0  0  0  0  0  0  0  0  0  # atno 17321 bound_to 7965
  139.7098  143.9396  152.2942 LP  0  0  0  0  0  0  0  0  0  0  0  0  # atno 17342 bound_to 10162
  139.9117  144.6852  150.8555 LP  0  0  0  0  0  0  0  0  0  0  0  0  # atno 17343 bound_to 10162
  156.0438  130.5517  150.8833 LP  0  0  0  0  0  0  0  0  0  0  0  0  # atno 17370 bound_to 10713
  157.5833  131.0946  150.9236 LP  0  0  0  0  0  0  0  0  0  0  0  0  # atno 17371 bound_to 10713
  139.8746  134.9910  156.5527 LP  0  0  0  0  0  0  0  0  0  0  0  0  # atno 17394 bound_to 11000
  140.8193  133.8366  155.8881 LP  0  0  0  0  0  0  0  0  0  0  0  0  # atno 17395 bound_to 11000

$$$$
