AV-unprocessed.smi:671|AV-procd|sdf|3276|dock6
  -GOLD-   22720 0233D 1   1.00000     0.00000
 Structure written by MMmdl.
 49 50  0  0  0  0  0  0  0  0  1 V2000
  152.8542  138.5628  154.9345 C   0  0  0  0  0  0  0  0  0  0  0  0
  151.9667  139.5879  155.5806 C   0  0  0  0  0  0  0  0  0  0  0  0
  152.4423  140.3312  156.5662 N   0  0  0  0  0  0  0  0  0  0  0  0
  151.4179  141.1342  156.9180 N   0  0  0  0  0  0  0  0  0  0  0  0
  151.6012  142.0955  157.9878 C   0  0  0  0  0  0  0  0  0  0  0  0
  150.2924  140.8958  156.1538 C   0  0  0  0  0  0  0  0  0  0  0  0
  149.0186  141.6533  156.3447 C   0  0  0  0  0  0  0  0  0  0  0  0
  150.6112  139.9015  155.2692 C   0  0  0  0  0  0  0  0  0  0  0  0
  149.7396  139.2783  154.2096 C   0  0  0  0  0  0  0  0  0  0  0  0
  148.4475  138.6668  154.7942 C   0  0  1  0  0  0  0  0  0  0  0  0
  147.2983  139.6845  154.8723 C   0  0  0  0  0  0  0  0  0  0  0  0
  148.0142  137.5267  153.9835 N   0  0  0  0  0  0  0  0  0  0  0  0
  146.8544  136.8473  154.0491 C   0  0  0  0  0  0  0  0  0  0  0  0
  145.9792  137.1386  154.8620 O   0  0  0  0  0  0  0  0  0  0  0  0
  146.7423  135.8388  153.1669 N   0  0  0  0  0  0  0  0  0  0  0  0
  145.5802  134.9629  153.0113 C   0  0  1  0  0  0  0  0  0  0  0  0
  144.5351  135.6498  152.1219 C   0  0  0  0  0  0  0  0  0  0  0  0
  144.7840  135.0981  150.7215 C   0  0  0  0  0  0  0  0  0  0  0  0
  145.1818  133.6432  150.9551 C   0  0  0  0  0  0  0  0  0  0  0  0
  145.8984  133.6082  152.3176 C   0  0  1  0  0  0  0  0  0  0  0  0
  147.3891  133.2407  152.1868 C   0  0  0  0  0  0  0  0  0  0  0  0
  152.4127  137.5685  155.0014 H   0  0  0  0  0  0  0  0  0  0  0  0
  153.8364  138.5204  155.4070 H   0  0  0  0  0  0  0  0  0  0  0  0
  153.0044  138.7889  153.8786 H   0  0  0  0  0  0  0  0  0  0  0  0
  150.8967  141.8866  158.7932 H   0  0  0  0  0  0  0  0  0  0  0  0
  151.4227  143.1024  157.6098 H   0  0  0  0  0  0  0  0  0  0  0  0
  152.6160  142.0423  158.3852 H   0  0  0  0  0  0  0  0  0  0  0  0
  148.2030  141.1889  155.7919 H   0  0  0  0  0  0  0  0  0  0  0  0
  149.1220  142.6796  155.9923 H   0  0  0  0  0  0  0  0  0  0  0  0
  148.7319  141.6812  157.3961 H   0  0  0  0  0  0  0  0  0  0  0  0
  149.4758  140.0102  153.4454 H   0  0  0  0  0  0  0  0  0  0  0  0
  150.3025  138.5084  153.6813 H   0  0  0  0  0  0  0  0  0  0  0  0
  148.6417  138.3239  155.8119 H   0  0  0  0  0  0  0  0  0  0  0  0
  147.5497  140.5213  155.5245 H   0  0  0  0  0  0  0  0  0  0  0  0
  146.3940  139.2244  155.2721 H   0  0  0  0  0  0  0  0  0  0  0  0
  147.0587  140.0900  153.8888 H   0  0  0  0  0  0  0  0  0  0  0  0
  148.6778  137.2079  153.2922 H   0  0  0  0  0  0  0  0  0  0  0  0
  147.5194  135.6718  152.5447 H   0  0  0  0  0  0  0  0  0  0  0  0
  145.1372  134.7825  153.9925 H   0  0  0  0  0  0  0  0  0  0  0  0
  143.5356  135.3585  152.4480 H   0  0  0  0  0  0  0  0  0  0  0  0
  144.5818  136.7392  152.1589 H   0  0  0  0  0  0  0  0  0  0  0  0
  143.9155  135.1970  150.0698 H   0  0  0  0  0  0  0  0  0  0  0  0
  145.6125  135.6312  150.2550 H   0  0  0  0  0  0  0  0  0  0  0  0
  144.2822  133.0280  151.0038 H   0  0  0  0  0  0  0  0  0  0  0  0
  145.7917  133.2535  150.1391 H   0  0  0  0  0  0  0  0  0  0  0  0
  145.4325  132.8180  152.9081 H   0  0  0  0  0  0  0  0  0  0  0  0
  147.9309  133.9639  151.5761 H   0  0  0  0  0  0  0  0  0  0  0  0
  147.5072  132.2632  151.7187 H   0  0  0  0  0  0  0  0  0  0  0  0
  147.8709  133.1917  153.1635 H   0  0  0  0  0  0  0  0  0  0  0  0
  1  2  1  0  0  0  0
  1 22  1  0  0  0  0
  1 23  1  0  0  0  0
  1 24  1  0  0  0  0
  2  8  1  0  0  0  0
  2  3  2  0  0  0  0
  3  4  1  0  0  0  0
  4  5  1  0  0  0  0
  4  6  1  0  0  0  0
  5 25  1  0  0  0  0
  5 26  1  0  0  0  0
  5 27  1  0  0  0  0
  6  7  1  0  0  0  0
  6  8  2  0  0  0  0
  7 28  1  0  0  0  0
  7 29  1  0  0  0  0
  7 30  1  0  0  0  0
  8  9  1  0  0  0  0
  9 10  1  0  0  0  0
  9 31  1  0  0  0  0
  9 32  1  0  0  0  0
 10 11  1  0  0  0  0
 10 12  1  0  0  0  0
 10 33  1  0  0  0  0
 11 34  1  0  0  0  0
 11 35  1  0  0  0  0
 11 36  1  0  0  0  0
 12 13  1  0  0  0  0
 12 37  1  0  0  0  0
 13 14  2  0  0  0  0
 13 15  1  0  0  0  0
 15 16  1  0  0  0  0
 15 38  1  0  0  0  0
 16 20  1  0  0  0  0
 16 17  1  0  0  0  0
 16 39  1  0  0  0  0
 17 18  1  0  0  0  0
 17 40  1  0  0  0  0
 17 41  1  0  0  0  0
 18 19  1  0  0  0  0
 18 42  1  0  0  0  0
 18 43  1  0  0  0  0
 19 20  1  0  0  0  0
 19 44  1  0  0  0  0
 19 45  1  0  0  0  0
 20 21  1  0  0  0  0
 20 46  1  0  0  0  0
 21 47  1  0  0  0  0
 21 48  1  0  0  0  0
 21 49  1  0  0  0  0
M  END
> <s_m_source_file>
AV-unprocessed.smi

> <i_m_source_file_index>
671

> <i_lp_mmshare_version>
43012

> <i_f3d_flags>
0

> <s_epik_input>
W0NIM11jMW5uKFtDSDNdKWMoW0NIM10pYzFbQ0gyXVtDQEhdKFtDSDNdKVtOSF1DKD1PKVtOSF1bQ0BASF0yW0NIMl1bQ0gyXVtDSDJdW0NASF0yW0NIM10=

> <s_epik_cmdline>
J2VwaWtfcHl0aG9uJywgJy1waCcsICc3LjAnLCAnLXRuJywgJzgnLCAnLW1hJywgJzIwMCcsICctbWV0YWxfYmluZGluZycsICctaW1hZScsICc8aW5maWxlLm1hZT4nLCAnLW9tYWUnLCAnPG91dGZpbGUubWFlPic=

> <r_lp_tautomer_probability>
1

> <r_epik_Ionization_Penalty>
0.0126855

> <r_epik_Ionization_Penalty_Charging>
0

> <r_epik_Ionization_Penalty_Neutral>
0.0126855

> <r_epik_State_Penalty>
0.00977547

> <r_epik_Charging_Adjusted_Penalty>
0.00977547

> <i_epik_Tot_Q>
0

> <i_epik_Tot_abs_Q>
0

> <r_epik_Metal_State_Penalty>
0.00957132

> <b_epik_Metal_Only>
0

> <s_lp_Force_Field>
OPLS_2005

> <r_lp_Energy>
24.0852

> <b_lp_Chiralities_Consistent>
1

> <s_lp_Variant>
AV-unprocessed.smi:671-4

> <Gold.Version>
5.8.1

> <Gold.Id.Protein>
6NUR|6NUR_protein|mol2

> <Gold.PLP.Fitness>
41.1661

> <Gold.PLP.PLP>
-33.7898

> <Gold.PLP.part.hbond>
-3.0000

> <Gold.PLP.part.metal>
0.0000

> <Gold.PLP.part.buried>
-0.5219

> <Gold.PLP.part.nonpolar>
-29.4988

> <Gold.PLP.part.repulsive>
0.0640

> <Gold.PLP.ligand.clash>
0.0000

> <Gold.PLP.ligand.torsion>
0.8071

> <Gold.PLP.Chemscore.Hbond>
2.9920

> <Gold.PLP.Chemscore.CHOScore>
0.0000

> <Gold.PLP.Chemscore.Metal>
0.0000

> <Gold.Chemscore.Hbonds>
donor molecule, donor type, donor heavy atom, donor atom, acceptor molecule, acceptor atom, score
      L1  H    12    37       P1  7948  0.96
      L1  H    15    38       P1  7948  0.99
      P1  H  7997  8010       L1     3  1.00

> <Gold.PLP.Chemscore.Internal.Correction>
0.0146

> <Gold.Rescore>
     Score         DG    S(hbond)    S(metal)    S(lipo)     H(rot)  DE(clash)    DE(int)     intcor
     19.60     -20.31       2.74        0.00      80.29       1.45       0.06       0.64       ----

> <Gold.Chemscore.Fitness>
19.6020

> <Gold.Chemscore.DG>
-20.3086

> <Gold.Chemscore.ZeroCoef>
-5.4800

> <Gold.Chemscore.Hbond>
2.7384

> <Gold.Chemscore.Metal>
0.0000

> <Gold.Chemscore.Lipo>
80.2917

> <Gold.Chemscore.Internal_Hbond>
0.0000

> <Gold.Chemscore.DEClash>
0.0624

> <Gold.Chemscore.DEInternal>
0.6441

> <Gold.Chemscore.Rot>
1.4499

> <Gold.Chemscore.Internal.Correction>
   9.000000E+99

> <Gold.Chemscore.Hbonds>
donor molecule, donor type, donor heavy atom, donor atom, acceptor molecule, acceptor atom, score
      L1  H    12    37       P1  7948  0.92
      L1  H    15    38       P1  7948  0.94
      P1  H  7997  8010       L1     3  0.38

> <Gold.Chemscore.Hbond.Weighted>
-9.1463

> <Gold.Chemscore.Metal.Weighted>
-0.0000

> <Gold.Chemscore.Lipo.Weighted>
-9.3941

> <Gold.Chemscore.Internal_Hbond.Weighted>
0.0000

> <Gold.Chemscore.DEClash.Weighted>
0.0624

> <Gold.Chemscore.DEInternal.Weighted>
0.6441

> <Gold.Chemscore.Rot.Weighted>
3.7118

> <Gold.Chemscore.Internal.Correction.Weighted>
   9.000000E+99

> <Gold.Protein.RotatedTorsions>
[ 6907 6896 6895 6894 ] final   10.52 input  -60.11 | X-H torsion
[ 7974 7965 7964 7962 ] final  -78.37 input  175.53 | X-H torsion
[ 8008 7997 7996 7995 ] final   76.49 input   59.86 | X-H torsion
[ 10167 10162 10161 10158 ] final  -26.00 input  -65.29 | X-H torsion
[ 10718 10713 10712 10709 ] final  -52.11 input   66.30 | X-H torsion
[ 10763 10752 10751 10750 ] final -153.26 input  -60.55 | X-H torsion
[ 11005 11000 10999 10996 ] final    0.73 input  -57.11 | X-H torsion

> <Gold.Protein.ActiveResidues>
 VAL166  LYS551  ARG553  GLY616  TRP617  ASP618  TYR619  PRO620  LYS621  CYS622 
 ASP623  PHE694  ASN695  SER759  ASP760  ASP761  ALA762  ILE779  LEU786  VAL792 
 PHE793  MET794  SER795  GLU796  ALA797  LYS798  CYS799  TRP800  GLU811  SER814 

> <Gold.Protein.RotatedAtoms>
  151.7396  135.0857  160.0313 H   0  0  0  0  0  0  0  0  0  0  0  0  # atno 6907 bound_to 6896
  152.3488  133.6150  159.5938 H   0  0  0  0  0  0  0  0  0  0  0  0  # atno 6908 bound_to 6896
  150.7526  133.9523  159.3531 H   0  0  0  0  0  0  0  0  0  0  0  0  # atno 6909 bound_to 6896
  145.5874  140.9436  143.1311 H   0  0  0  0  0  0  0  0  0  0  0  0  # atno 7974 bound_to 7965
  155.8280  140.3467  155.5555 H   0  0  0  0  0  0  0  0  0  0  0  0  # atno 8008 bound_to 7997
  155.8272  140.0921  157.1834 H   0  0  0  0  0  0  0  0  0  0  0  0  # atno 8009 bound_to 7997
  154.4004  140.1419  156.3557 H   0  0  0  0  0  0  0  0  0  0  0  0  # atno 8010 bound_to 7997
  140.7284  143.4216  151.0942 H   0  0  0  0  0  0  0  0  0  0  0  0  # atno 10167 bound_to 10162
  156.1650  130.4149  149.9734 H   0  0  0  0  0  0  0  0  0  0  0  0  # atno 10718 bound_to 10713
  154.7940  135.3217  154.7711 H   0  0  0  0  0  0  0  0  0  0  0  0  # atno 10763 bound_to 10752
  153.8394  135.6872  153.4809 H   0  0  0  0  0  0  0  0  0  0  0  0  # atno 10764 bound_to 10752
  153.1622  135.4656  154.9729 H   0  0  0  0  0  0  0  0  0  0  0  0  # atno 10765 bound_to 10752
  140.6233  133.9641  155.8236 H   0  0  0  0  0  0  0  0  0  0  0  0  # atno 11005 bound_to 11000
  144.7366  139.7567  143.7327 LP  0  0  0  0  0  0  0  0  0  0  0  0  # atno 17320 bound_to 7965
  146.1672  139.4808  142.9951 LP  0  0  0  0  0  0  0  0  0  0  0  0  # atno 17321 bound_to 7965
  139.7862  143.8284  152.3145 LP  0  0  0  0  0  0  0  0  0  0  0  0  # atno 17342 bound_to 10162
  139.8252  144.7278  150.9521 LP  0  0  0  0  0  0  0  0  0  0  0  0  # atno 17343 bound_to 10162
  156.7552  130.9130  151.3639 LP  0  0  0  0  0  0  0  0  0  0  0  0  # atno 17370 bound_to 10713
  157.6761  130.9096  150.0154 LP  0  0  0  0  0  0  0  0  0  0  0  0  # atno 17371 bound_to 10713
  141.0727  134.0181  157.3503 LP  0  0  0  0  0  0  0  0  0  0  0  0  # atno 17394 bound_to 11000
  139.9145  135.0195  156.7825 LP  0  0  0  0  0  0  0  0  0  0  0  0  # atno 17395 bound_to 11000

$$$$
