AV-unprocessed.smi:1983|AV-procd|sdf|8032|dock1
  -GOLD-   2272010223D 1   1.00000     0.00000
 Structure written by MMmdl.
 49 50  0  0  0  0  0  0  0  0  1 V2000
  147.3077  134.1167  154.8729 C   0  0  0  0  0  0  0  0  0  0  0  0
  146.4340  135.0153  153.9789 C   0  0  2  0  0  0  0  0  0  0  0  0
  145.9098  134.3055  152.7169 C   0  0  0  0  0  0  0  0  0  0  0  0
  146.5413  134.7893  151.5483 O   0  0  0  0  0  0  0  0  0  0  0  0
  147.1361  136.2399  153.6044 N   0  0  0  0  0  0  0  0  0  0  0  0
  146.7029  137.4869  153.8356 C   0  0  0  0  0  0  0  0  0  0  0  0
  145.6364  137.7577  154.3882 O   0  0  0  0  0  0  0  0  0  0  0  0
  147.5775  138.4047  153.4014 N   0  0  0  0  0  0  0  0  0  0  0  0
  147.4041  139.8479  153.5333 C   0  0  0  0  0  0  0  0  0  0  0  0
  148.2920  140.4929  154.5886 C   0  0  0  0  0  0  0  0  0  0  0  0
  147.7204  141.0788  155.7340 C   0  0  0  0  0  0  0  0  0  0  0  0
  148.5614  141.6714  156.6950 C   0  0  0  0  0  0  0  0  0  0  0  0
  149.9638  141.6659  156.4850 C   0  0  0  0  0  0  0  0  0  0  0  0
  150.8656  142.2472  157.4043 N   0  0  0  0  0  0  0  0  0  0  0  0
  151.7428  141.3730  158.1752 C   0  0  0  0  0  0  0  0  0  0  0  0
  152.3506  142.1327  159.3677 C   0  0  1  0  0  0  0  0  0  0  0  0
  153.3868  141.2868  160.1151 C   0  0  0  0  0  0  0  0  0  0  0  0
  152.9981  143.3161  158.9041 O   0  0  0  0  0  0  0  0  0  0  0  0
  152.1516  144.2168  158.1869 C   0  0  2  0  0  0  0  0  0  0  0  0
  151.1369  144.9213  159.1055 C   0  0  0  0  0  0  0  0  0  0  0  0
  151.4982  143.4986  156.9900 C   0  0  0  0  0  0  0  0  0  0  0  0
  150.5071  141.1082  155.3761 N   0  0  0  0  0  0  0  0  0  0  0  0
  149.6961  140.5421  154.4585 C   0  0  0  0  0  0  0  0  0  0  0  0
  146.7814  133.1992  155.1365 H   0  0  0  0  0  0  0  0  0  0  0  0
  147.5701  134.6221  155.8029 H   0  0  0  0  0  0  0  0  0  0  0  0
  148.2376  133.8373  154.3767 H   0  0  0  0  0  0  0  0  0  0  0  0
  145.5545  135.3014  154.5587 H   0  0  0  0  0  0  0  0  0  0  0  0
  146.1025  133.2345  152.7869 H   0  0  0  0  0  0  0  0  0  0  0  0
  144.8301  134.4266  152.6222 H   0  0  0  0  0  0  0  0  0  0  0  0
  147.3092  135.2780  151.8021 H   0  0  0  0  0  0  0  0  0  0  0  0
  148.0289  136.1235  153.1477 H   0  0  0  0  0  0  0  0  0  0  0  0
  148.4268  138.0842  152.9596 H   0  0  0  0  0  0  0  0  0  0  0  0
  147.6313  140.3064  152.5708 H   0  0  0  0  0  0  0  0  0  0  0  0
  146.3568  140.0722  153.7428 H   0  0  0  0  0  0  0  0  0  0  0  0
  146.6504  141.0717  155.8806 H   0  0  0  0  0  0  0  0  0  0  0  0
  148.1130  142.1062  157.5753 H   0  0  0  0  0  0  0  0  0  0  0  0
  151.1853  140.5158  158.5539 H   0  0  0  0  0  0  0  0  0  0  0  0
  152.5314  140.9939  157.5238 H   0  0  0  0  0  0  0  0  0  0  0  0
  151.5621  142.3967  160.0725 H   0  0  0  0  0  0  0  0  0  0  0  0
  152.9404  140.3698  160.5005 H   0  0  0  0  0  0  0  0  0  0  0  0
  153.8000  141.8361  160.9613 H   0  0  0  0  0  0  0  0  0  0  0  0
  154.2144  141.0084  159.4622 H   0  0  0  0  0  0  0  0  0  0  0  0
  152.8053  144.9933  157.7888 H   0  0  0  0  0  0  0  0  0  0  0  0
  150.6012  145.6994  158.5616 H   0  0  0  0  0  0  0  0  0  0  0  0
  151.6396  145.3950  159.9489 H   0  0  0  0  0  0  0  0  0  0  0  0
  150.3901  144.2342  159.5021 H   0  0  0  0  0  0  0  0  0  0  0  0
  152.2592  143.2619  156.2455 H   0  0  0  0  0  0  0  0  0  0  0  0
  150.7917  144.1759  156.5099 H   0  0  0  0  0  0  0  0  0  0  0  0
  150.1893  140.1190  153.5960 H   0  0  0  0  0  0  0  0  0  0  0  0
  1  2  1  0  0  0  0
  1 24  1  0  0  0  0
  1 25  1  0  0  0  0
  1 26  1  0  0  0  0
  2  3  1  0  0  0  0
  2  5  1  0  0  0  0
  2 27  1  0  0  0  0
  3  4  1  0  0  0  0
  3 28  1  0  0  0  0
  3 29  1  0  0  0  0
  4 30  1  0  0  0  0
  5  6  1  0  0  0  0
  5 31  1  0  0  0  0
  6  7  2  0  0  0  0
  6  8  1  0  0  0  0
  8  9  1  0  0  0  0
  8 32  1  0  0  0  0
  9 10  1  0  0  0  0
  9 33  1  0  0  0  0
  9 34  1  0  0  0  0
 10 23  1  0  0  0  0
 10 11  2  0  0  0  0
 11 12  1  0  0  0  0
 11 35  1  0  0  0  0
 12 13  2  0  0  0  0
 12 36  1  0  0  0  0
 13 14  1  0  0  0  0
 13 22  1  0  0  0  0
 14 21  1  0  0  0  0
 14 15  1  0  0  0  0
 15 16  1  0  0  0  0
 15 37  1  0  0  0  0
 15 38  1  0  0  0  0
 16 17  1  0  0  0  0
 16 18  1  0  0  0  0
 16 39  1  0  0  0  0
 17 40  1  0  0  0  0
 17 41  1  0  0  0  0
 17 42  1  0  0  0  0
 18 19  1  0  0  0  0
 19 20  1  0  0  0  0
 19 21  1  0  0  0  0
 19 43  1  0  0  0  0
 20 44  1  0  0  0  0
 20 45  1  0  0  0  0
 20 46  1  0  0  0  0
 21 47  1  0  0  0  0
 21 48  1  0  0  0  0
 22 23  2  0  0  0  0
 23 49  1  0  0  0  0
M  END
> <s_m_source_file>
AV-unprocessed.smi

> <i_m_source_file_index>
1983

> <i_lp_mmshare_version>
43012

> <i_f3d_flags>
0

> <s_epik_input>
W09IXVtDSDJdW0NAQEhdKFtDSDNdKVtOSF1DKD1PKVtOSF1bQ0gyXWMxW2NIXVtjSF1jKG5bY0hdMSlOMltDSDJdW0NAQEhdKFtDSDNdKU9bQ0BASF0oW0NIM10pW0NIMl0y

> <s_epik_cmdline>
J2VwaWtfcHl0aG9uJywgJy1waCcsICc3LjAnLCAnLXRuJywgJzgnLCAnLW1hJywgJzIwMCcsICctbWV0YWxfYmluZGluZycsICctaW1hZScsICc8aW5maWxlLm1hZT4nLCAnLW9tYWUnLCAnPG91dGZpbGUubWFlPic=

> <r_lp_tautomer_probability>
1

> <r_epik_Ionization_Penalty>
0.00801967

> <r_epik_Ionization_Penalty_Charging>
0

> <r_epik_Ionization_Penalty_Neutral>
0.00801967

> <r_epik_State_Penalty>
0.00598289

> <r_epik_Charging_Adjusted_Penalty>
0.00598289

> <i_epik_Tot_Q>
0

> <i_epik_Tot_abs_Q>
0

> <r_epik_Metal_State_Penalty>
0.00590297

> <b_epik_Metal_Only>
0

> <s_lp_Force_Field>
OPLS_2005

> <r_lp_Energy>
17.8108

> <b_lp_Chiralities_Consistent>
1

> <s_lp_Variant>
AV-unprocessed.smi:1983-5

> <Gold.Version>
5.8.1

> <Gold.Id.Protein>
6NUR|6NUR_protein|mol2

> <Gold.PLP.Fitness>
44.5525

> <Gold.PLP.PLP>
-35.9405

> <Gold.PLP.part.hbond>
-3.9775

> <Gold.PLP.part.metal>
0.0000

> <Gold.PLP.part.buried>
-2.2468

> <Gold.PLP.part.nonpolar>
-29.4374

> <Gold.PLP.part.repulsive>
0.2848

> <Gold.PLP.ligand.clash>
0.0000

> <Gold.PLP.ligand.torsion>
1.0398

> <Gold.PLP.Chemscore.Hbond>
2.3913

> <Gold.PLP.Chemscore.CHOScore>
1.0000

> <Gold.PLP.Chemscore.Metal>
0.0000

> <Gold.Chemscore.Hbonds>
donor molecule, donor type, donor heavy atom, donor atom, acceptor molecule, acceptor atom, score
      L1  H     4    30       P1  7948  1.00
      L1  H     5    31       P1  7948  1.00
      L1  H     8    32       P1  7948  0.40
      L1  C    23    49       P1  7957  1.00

> <Gold.PLP.Chemscore.Internal.Correction>
0.5176

> <Gold.Rescore>
     Score         DG    S(hbond)    S(metal)    S(lipo)     H(rot)  DE(clash)    DE(int)     intcor
     17.14     -18.18       2.48        0.00      94.92       2.61       0.03       1.01       ----

> <Gold.Chemscore.Fitness>
17.1376

> <Gold.Chemscore.DG>
-18.1763

> <Gold.Chemscore.ZeroCoef>
-5.4800

> <Gold.Chemscore.Hbond>
2.4767

> <Gold.Chemscore.Metal>
0.0000

> <Gold.Chemscore.Lipo>
94.9162

> <Gold.Chemscore.Internal_Hbond>
0.0000

> <Gold.Chemscore.DEClash>
0.0304

> <Gold.Chemscore.DEInternal>
1.0084

> <Gold.Chemscore.Rot>
2.6097

> <Gold.Chemscore.Internal.Correction>
   9.000000E+99

> <Gold.Chemscore.Hbonds>
donor molecule, donor type, donor heavy atom, donor atom, acceptor molecule, acceptor atom, score
      L1  H     4    30       P1  7948  0.98
      L1  H     5    31       P1  7948  0.93
      L1  H     8    32       P1  7948  0.40

> <Gold.Chemscore.Hbond.Weighted>
-8.2721

> <Gold.Chemscore.Metal.Weighted>
-0.0000

> <Gold.Chemscore.Lipo.Weighted>
-11.1052

> <Gold.Chemscore.Internal_Hbond.Weighted>
0.0000

> <Gold.Chemscore.DEClash.Weighted>
0.0304

> <Gold.Chemscore.DEInternal.Weighted>
1.0084

> <Gold.Chemscore.Rot.Weighted>
6.6809

> <Gold.Chemscore.Internal.Correction.Weighted>
   9.000000E+99

> <Gold.Protein.RotatedTorsions>
[ 6907 6896 6895 6894 ] final   84.69 input  -60.11 | X-H torsion
[ 7974 7965 7964 7962 ] final -172.15 input  175.53 | X-H torsion
[ 8008 7997 7996 7995 ] final  170.32 input   59.86 | X-H torsion
[ 10167 10162 10161 10158 ] final  127.06 input  -65.29 | X-H torsion
[ 10718 10713 10712 10709 ] final  179.53 input   66.30 | X-H torsion
[ 10763 10752 10751 10750 ] final -178.05 input  -60.55 | X-H torsion
[ 11005 11000 10999 10996 ] final  -17.12 input  -57.11 | X-H torsion

> <Gold.Protein.ActiveResidues>
 VAL166  LYS551  ARG553  GLY616  TRP617  ASP618  TYR619  PRO620  LYS621  CYS622 
 ASP623  PHE694  ASN695  SER759  ASP760  ASP761  ALA762  ILE779  LEU786  VAL792 
 PHE793  MET794  SER795  GLU796  ALA797  LYS798  CYS799  TRP800  GLU811  SER814 

> <Gold.Protein.RotatedAtoms>
  152.5358  134.2702  159.8968 H   0  0  0  0  0  0  0  0  0  0  0  0  # atno 6907 bound_to 6896
  151.2659  133.4272  159.2626 H   0  0  0  0  0  0  0  0  0  0  0  0  # atno 6908 bound_to 6896
  151.0411  134.9622  159.8218 H   0  0  0  0  0  0  0  0  0  0  0  0  # atno 6909 bound_to 6896
  144.7149  140.1815  143.6358 H   0  0  0  0  0  0  0  0  0  0  0  0  # atno 7974 bound_to 7965
  156.1377  140.1541  156.8969 H   0  0  0  0  0  0  0  0  0  0  0  0  # atno 8008 bound_to 7997
  154.4961  140.0838  156.7737 H   0  0  0  0  0  0  0  0  0  0  0  0  # atno 8009 bound_to 7997
  155.4138  140.3420  155.4268 H   0  0  0  0  0  0  0  0  0  0  0  0  # atno 8010 bound_to 7997
  139.5598  144.6874  151.4076 H   0  0  0  0  0  0  0  0  0  0  0  0  # atno 10167 bound_to 10162
  156.8745  130.9795  151.3069 H   0  0  0  0  0  0  0  0  0  0  0  0  # atno 10718 bound_to 10713
  154.5526  135.2814  155.0995 H   0  0  0  0  0  0  0  0  0  0  0  0  # atno 10763 bound_to 10752
  154.2435  135.6352  153.5219 H   0  0  0  0  0  0  0  0  0  0  0  0  # atno 10764 bound_to 10752
  153.0007  135.5565  154.6096 H   0  0  0  0  0  0  0  0  0  0  0  0  # atno 10765 bound_to 10752
  140.8137  133.8121  155.9589 H   0  0  0  0  0  0  0  0  0  0  0  0  # atno 11005 bound_to 11000
  145.8852  139.2345  143.1582 LP  0  0  0  0  0  0  0  0  0  0  0  0  # atno 17320 bound_to 7965
  145.9956  140.8565  143.0044 LP  0  0  0  0  0  0  0  0  0  0  0  0  # atno 17321 bound_to 7965
  140.6876  143.7937  150.7208 LP  0  0  0  0  0  0  0  0  0  0  0  0  # atno 17342 bound_to 10162
  140.1410  143.4441  152.2194 LP  0  0  0  0  0  0  0  0  0  0  0  0  # atno 17343 bound_to 10162
  157.6176  130.8631  149.9055 LP  0  0  0  0  0  0  0  0  0  0  0  0  # atno 17370 bound_to 10713
  156.0709  130.3685  150.0777 LP  0  0  0  0  0  0  0  0  0  0  0  0  # atno 17371 bound_to 10713
  140.9171  134.2188  157.4949 LP  0  0  0  0  0  0  0  0  0  0  0  0  # atno 17394 bound_to 11000
  139.8712  134.9776  156.4965 LP  0  0  0  0  0  0  0  0  0  0  0  0  # atno 17395 bound_to 11000

$$$$
