AV-unprocessed.smi:86|AV-procd|sdf|817|dock3
  -GOLD-   2262017223D 1   1.00000     0.00000
 Structure written by MMmdl.
 51 55  0  0  0  0  0  0  0  0  1 V2000
  144.9139  138.3650  152.4587 O   0  0  0  0  0  0  0  0  0  0  0  0
  146.1983  137.7741  152.4757 C   0  0  0  0  0  0  0  0  0  0  0  0
  147.0765  138.2986  153.6291 C   0  0  0  0  0  0  0  0  0  0  0  0
  148.1994  139.2044  153.0834 C   0  0  0  0  0  0  0  0  0  0  0  0
  148.8559  140.0214  154.0913 N   0  0  0  0  0  0  0  0  0  0  0  0
  148.3912  141.1970  154.6329 C   0  0  0  0  0  0  0  0  0  0  0  0
  149.1692  141.7404  155.5279 N   0  0  0  0  0  0  0  0  0  0  0  0
  150.2596  140.8802  155.6104 C   0  0  0  0  0  0  0  0  0  0  0  0
  151.4632  140.8550  156.3774 C   0  0  0  0  0  0  0  0  0  0  0  0
  151.8163  141.7932  157.2939 N   0  0  0  0  0  0  0  0  0  0  0  0
  151.1796  143.1033  157.3866 C   0  0  0  0  0  0  0  0  0  0  0  0
  151.8431  143.7392  158.6062 C   0  0  1  0  0  0  0  0  0  0  0  0
  151.1108  144.8659  159.3423 C   0  0  0  0  0  0  0  0  0  0  0  0
  151.9368  145.2786  160.5816 C   0  0  0  0  0  0  0  0  0  0  0  0
  152.3137  144.0847  161.4966 C   0  0  1  0  0  0  0  0  0  0  0  0
  151.1671  143.6538  162.2032 O   0  0  0  0  0  0  0  0  0  0  0  0
  152.9249  142.8957  160.7150 C   0  0  0  0  0  0  0  0  0  0  0  0
  152.0318  142.5368  159.5193 C   0  0  2  0  0  0  0  0  0  0  0  0
  152.5034  141.4593  158.5422 C   0  0  0  0  0  0  0  0  0  0  0  0
  152.3159  139.8190  156.1589 N   0  0  0  0  0  0  0  0  0  0  0  0
  152.0192  138.8689  155.2685 C   0  0  0  0  0  0  0  0  0  0  0  0
  150.9386  138.7600  154.4954 N   0  0  0  0  0  0  0  0  0  0  0  0
  150.0784  139.7977  154.7011 C   0  0  0  0  0  0  0  0  0  0  0  0
  146.2808  138.9103  154.7913 C   0  0  0  0  0  0  0  0  0  0  0  0
  146.4564  137.7352  155.6100 O   0  0  0  0  0  0  0  0  0  0  0  0
  147.4687  137.2639  154.6962 C   0  0  0  0  0  0  0  0  0  0  0  0
  144.7828  138.7761  151.6179 H   0  0  0  0  0  0  0  0  0  0  0  0
  146.0860  136.6909  152.5297 H   0  0  0  0  0  0  0  0  0  0  0  0
  146.6613  137.9862  151.5115 H   0  0  0  0  0  0  0  0  0  0  0  0
  148.9562  138.6049  152.5760 H   0  0  0  0  0  0  0  0  0  0  0  0
  147.8065  139.8808  152.3232 H   0  0  0  0  0  0  0  0  0  0  0  0
  147.4501  141.6423  154.3458 H   0  0  0  0  0  0  0  0  0  0  0  0
  151.3436  143.6995  156.4887 H   0  0  0  0  0  0  0  0  0  0  0  0
  150.1064  142.9828  157.5405 H   0  0  0  0  0  0  0  0  0  0  0  0
  152.8242  144.1063  158.2971 H   0  0  0  0  0  0  0  0  0  0  0  0
  150.9689  145.7214  158.6815 H   0  0  0  0  0  0  0  0  0  0  0  0
  150.1173  144.5349  159.6468 H   0  0  0  0  0  0  0  0  0  0  0  0
  152.8566  145.7547  160.2394 H   0  0  0  0  0  0  0  0  0  0  0  0
  151.4020  146.0389  161.1518 H   0  0  0  0  0  0  0  0  0  0  0  0
  153.0314  144.4244  162.2439 H   0  0  0  0  0  0  0  0  0  0  0  0
  151.2648  143.8969  163.1112 H   0  0  0  0  0  0  0  0  0  0  0  0
  153.9183  143.1693  160.3572 H   0  0  0  0  0  0  0  0  0  0  0  0
  153.0580  142.0323  161.3680 H   0  0  0  0  0  0  0  0  0  0  0  0
  151.0543  142.2276  159.8954 H   0  0  0  0  0  0  0  0  0  0  0  0
  152.2567  140.4632  158.9118 H   0  0  0  0  0  0  0  0  0  0  0  0
  153.5807  141.5129  158.3812 H   0  0  0  0  0  0  0  0  0  0  0  0
  152.7527  138.0835  155.1612 H   0  0  0  0  0  0  0  0  0  0  0  0
  146.7507  139.7873  155.2396 H   0  0  0  0  0  0  0  0  0  0  0  0
  145.2333  139.1099  154.5619 H   0  0  0  0  0  0  0  0  0  0  0  0
  147.3126  136.2264  154.3995 H   0  0  0  0  0  0  0  0  0  0  0  0
  148.4708  137.4034  155.1036 H   0  0  0  0  0  0  0  0  0  0  0  0
  1  2  1  0  0  0  0
  1 27  1  0  0  0  0
  2  3  1  0  0  0  0
  2 28  1  0  0  0  0
  2 29  1  0  0  0  0
  3 26  1  0  0  0  0
  3  4  1  0  0  0  0
  3 24  1  0  0  0  0
  4  5  1  0  0  0  0
  4 30  1  0  0  0  0
  4 31  1  0  0  0  0
  5 23  1  0  0  0  0
  5  6  1  0  0  0  0
  6  7  2  0  0  0  0
  6 32  1  0  0  0  0
  7  8  1  0  0  0  0
  8 23  2  0  0  0  0
  8  9  1  0  0  0  0
  9 10  1  0  0  0  0
  9 20  2  0  0  0  0
 10 19  1  0  0  0  0
 10 11  1  0  0  0  0
 11 12  1  0  0  0  0
 11 33  1  0  0  0  0
 11 34  1  0  0  0  0
 12 18  1  0  0  0  0
 12 13  1  0  0  0  0
 12 35  1  0  0  0  0
 13 14  1  0  0  0  0
 13 36  1  0  0  0  0
 13 37  1  0  0  0  0
 14 15  1  0  0  0  0
 14 38  1  0  0  0  0
 14 39  1  0  0  0  0
 15 16  1  0  0  0  0
 15 17  1  0  0  0  0
 15 40  1  0  0  0  0
 16 41  1  0  0  0  0
 17 18  1  0  0  0  0
 17 42  1  0  0  0  0
 17 43  1  0  0  0  0
 18 19  1  0  0  0  0
 18 44  1  0  0  0  0
 19 45  1  0  0  0  0
 19 46  1  0  0  0  0
 20 21  1  0  0  0  0
 21 22  2  0  0  0  0
 21 47  1  0  0  0  0
 22 23  1  0  0  0  0
 24 25  1  0  0  0  0
 24 48  1  0  0  0  0
 24 49  1  0  0  0  0
 25 26  1  0  0  0  0
 26 50  1  0  0  0  0
 26 51  1  0  0  0  0
M  END
> <s_m_source_file>
AV-unprocessed.smi

> <i_m_source_file_index>
86

> <i_lp_mmshare_version>
43012

> <i_f3d_flags>
0

> <s_epik_input>
W0NIMl0xT1tDSDJdQzEoW0NIMl1bT0hdKVtDSDJdbihbY0hdbjIpYyhjMjMpbltjSF1uYzNOKFtDSDJdNClbQ0gyXVtDQEBIXShbQ0BIXTQ1KVtDSDJdW0NASF0oW09IXSlbQ0gyXVtDSDJdNQ==

> <s_epik_cmdline>
J2VwaWtfcHl0aG9uJywgJy1waCcsICc3LjAnLCAnLXRuJywgJzgnLCAnLW1hJywgJzIwMCcsICctbWV0YWxfYmluZGluZycsICctaW1hZScsICc8aW5maWxlLm1hZT4nLCAnLW9tYWUnLCAnPG91dGZpbGUubWFlPic=

> <r_lp_tautomer_probability>
1

> <r_epik_Ionization_Penalty>
0.00425795

> <r_epik_Ionization_Penalty_Charging>
0

> <r_epik_Ionization_Penalty_Neutral>
0.00425795

> <r_epik_State_Penalty>
0.00299946

> <r_epik_Charging_Adjusted_Penalty>
0.00299946

> <i_epik_Tot_Q>
0

> <i_epik_Tot_abs_Q>
0

> <r_epik_Metal_State_Penalty>
-0

> <b_epik_Metal_Only>
0

> <s_lp_Force_Field>
OPLS_2005

> <r_lp_Energy>
55.8457

> <b_lp_Chiralities_Consistent>
1

> <s_lp_Variant>
AV-unprocessed.smi:86-6

> <Gold.Version>
5.8.1

> <Gold.Id.Protein>
6NUR|6NUR_protein|mol2

> <Gold.PLP.Fitness>
52.9956

> <Gold.PLP.PLP>
-49.4166

> <Gold.PLP.part.hbond>
-5.0681

> <Gold.PLP.part.metal>
0.0000

> <Gold.PLP.part.buried>
-1.1515

> <Gold.PLP.part.nonpolar>
-43.7511

> <Gold.PLP.part.repulsive>
1.1599

> <Gold.PLP.ligand.clash>
0.0000

> <Gold.PLP.ligand.torsion>
1.7817

> <Gold.PLP.Chemscore.Hbond>
2.2166

> <Gold.PLP.Chemscore.CHOScore>
0.0000

> <Gold.PLP.Chemscore.Metal>
0.0000

> <Gold.Chemscore.Hbonds>
donor molecule, donor type, donor heavy atom, donor atom, acceptor molecule, acceptor atom, score
      L1  H     1    27       P1 10171  0.91
      P1  H  6933  6945       L1    16  0.35
      P1  H  7997  8010       L1    20  0.94

> <Gold.PLP.Chemscore.Internal.Correction>
0.4928

> <Gold.Rescore>
     Score         DG    S(hbond)    S(metal)    S(lipo)     H(rot)  DE(clash)    DE(int)     intcor
     12.91     -19.43       2.35        0.00     112.64       2.76       3.97       2.56       ----

> <Gold.Chemscore.Fitness>
12.9100

> <Gold.Chemscore.DG>
-19.4346

> <Gold.Chemscore.ZeroCoef>
-5.4800

> <Gold.Chemscore.Hbond>
2.3502

> <Gold.Chemscore.Metal>
0.0000

> <Gold.Chemscore.Lipo>
112.6353

> <Gold.Chemscore.Internal_Hbond>
0.0000

> <Gold.Chemscore.DEClash>
3.9678

> <Gold.Chemscore.DEInternal>
2.5567

> <Gold.Chemscore.Rot>
2.7630

> <Gold.Chemscore.Internal.Correction>
   9.000000E+99

> <Gold.Chemscore.Hbonds>
donor molecule, donor type, donor heavy atom, donor atom, acceptor molecule, acceptor atom, score
      L1  H     1    27       P1 10171  0.83
      P1  H  6933  6945       L1    16  0.18
      P1  H  7997  8010       L1    20  0.74

> <Gold.Chemscore.Hbond.Weighted>
-7.8496

> <Gold.Chemscore.Metal.Weighted>
-0.0000

> <Gold.Chemscore.Lipo.Weighted>
-13.1783

> <Gold.Chemscore.Internal_Hbond.Weighted>
0.0000

> <Gold.Chemscore.DEClash.Weighted>
3.9678

> <Gold.Chemscore.DEInternal.Weighted>
2.5567

> <Gold.Chemscore.Rot.Weighted>
7.0734

> <Gold.Chemscore.Internal.Correction.Weighted>
   9.000000E+99

> <Gold.Protein.RotatedTorsions>
[ 6907 6896 6895 6894 ] final  175.48 input  -60.11 | X-H torsion
[ 7974 7965 7964 7962 ] final -118.59 input  175.53 | X-H torsion
[ 8008 7997 7996 7995 ] final   75.29 input   59.86 | X-H torsion
[ 10167 10162 10161 10158 ] final  -54.06 input  -65.29 | X-H torsion
[ 10718 10713 10712 10709 ] final   15.98 input   66.30 | X-H torsion
[ 10763 10752 10751 10750 ] final   -7.94 input  -60.55 | X-H torsion
[ 11005 11000 10999 10996 ] final  176.87 input  -57.11 | X-H torsion

> <Gold.Protein.ActiveResidues>
 VAL166  LYS551  ARG553  GLY616  TRP617  ASP618  TYR619  PRO620  LYS621  CYS622 
 ASP623  PHE694  ASN695  SER759  ASP760  ASP761  ALA762  ILE779  LEU786  VAL792 
 PHE793  MET794  SER795  GLU796  ALA797  LYS798  CYS799  TRP800  GLU811  SER814 

> <Gold.Protein.RotatedAtoms>
  151.7355  133.3319  159.3351 H   0  0  0  0  0  0  0  0  0  0  0  0  # atno 6907 bound_to 6896
  150.7595  134.6325  159.6203 H   0  0  0  0  0  0  0  0  0  0  0  0  # atno 6908 bound_to 6896
  152.3564  134.6936  160.0272 H   0  0  0  0  0  0  0  0  0  0  0  0  # atno 6909 bound_to 6896
  145.0721  140.8366  143.4089 H   0  0  0  0  0  0  0  0  0  0  0  0  # atno 7974 bound_to 7965
  155.8108  140.3473  155.5457 H   0  0  0  0  0  0  0  0  0  0  0  0  # atno 8008 bound_to 7997
  155.8442  140.0946  157.1735 H   0  0  0  0  0  0  0  0  0  0  0  0  # atno 8009 bound_to 7997
  154.4006  140.1388  156.3753 H   0  0  0  0  0  0  0  0  0  0  0  0  # atno 8010 bound_to 7997
  140.6451  143.2530  151.4882 H   0  0  0  0  0  0  0  0  0  0  0  0  # atno 10167 bound_to 10162
  157.0613  130.6310  149.5786 H   0  0  0  0  0  0  0  0  0  0  0  0  # atno 10718 bound_to 10713
  153.4334  135.7012  153.6215 H   0  0  0  0  0  0  0  0  0  0  0  0  # atno 10763 bound_to 10752
  153.4620  135.3734  155.2344 H   0  0  0  0  0  0  0  0  0  0  0  0  # atno 10764 bound_to 10752
  154.8726  135.4022  154.3722 H   0  0  0  0  0  0  0  0  0  0  0  0  # atno 10765 bound_to 10752
  140.3778  134.6973  157.4432 H   0  0  0  0  0  0  0  0  0  0  0  0  # atno 11005 bound_to 11000
  145.1280  139.2650  143.5554 LP  0  0  0  0  0  0  0  0  0  0  0  0  # atno 17320 bound_to 7965
  146.3529  140.0923  142.8612 LP  0  0  0  0  0  0  0  0  0  0  0  0  # atno 17321 bound_to 7965
  139.5661  144.2038  152.1767 LP  0  0  0  0  0  0  0  0  0  0  0  0  # atno 17342 bound_to 10162
  140.1321  144.5279  150.6796 LP  0  0  0  0  0  0  0  0  0  0  0  0  # atno 17343 bound_to 10162
  155.9978  130.5050  150.7546 LP  0  0  0  0  0  0  0  0  0  0  0  0  # atno 17370 bound_to 10713
  157.4953  131.0914  151.0379 LP  0  0  0  0  0  0  0  0  0  0  0  0  # atno 17371 bound_to 10713
  140.0502  134.6142  155.8872 LP  0  0  0  0  0  0  0  0  0  0  0  0  # atno 17394 bound_to 11000
  141.1933  133.6578  156.5543 LP  0  0  0  0  0  0  0  0  0  0  0  0  # atno 17395 bound_to 11000

$$$$
