AV-unprocessed.smi:2477|AV-procd|sdf|9759|dock8
  -GOLD-   2272013403D 1   1.00000     0.00000
 Structure written by MMmdl.
 51 53  0  0  0  0  0  0  0  0  1 V2000
  141.7394  145.6070  158.9902 C   0  0  0  0  0  0  0  0  0  0  0  0
  142.8640  145.1492  159.8104 N   0  0  0  0  0  0  0  0  0  0  0  0
  142.5697  144.6109  161.0744 C   0  0  0  0  0  0  0  0  0  0  0  0
  143.5350  144.1694  161.8926 C   0  0  0  0  0  0  0  0  0  0  0  0
  144.9052  144.2566  161.4478 C   0  0  0  0  0  0  0  0  0  0  0  0
  145.2114  144.7636  160.2267 C   0  0  0  0  0  0  0  0  0  0  0  0
  146.5148  144.8905  159.7145 N   0  0  0  0  0  0  0  0  0  0  0  0
  147.6747  144.4023  160.1912 C   0  0  0  0  0  0  0  0  0  0  0  0
  147.8072  143.7153  161.2034 O   0  0  0  0  0  0  0  0  0  0  0  0
  148.6953  144.7353  159.3876 N   0  0  0  0  0  0  0  0  0  0  0  0
  150.0853  144.3170  159.5582 C   0  0  2  0  0  0  0  0  0  0  0  0
  150.9776  145.5728  159.6148 C   0  0  0  0  0  0  0  0  0  0  0  0
  152.4684  145.2115  159.7055 C   0  0  0  0  0  0  0  0  0  0  0  0
  152.8873  144.2965  158.5457 C   0  0  0  0  0  0  0  0  0  0  0  0
  152.0143  143.0345  158.5013 C   0  0  0  0  0  0  0  0  0  0  0  0
  150.5185  143.3838  158.4020 C   0  0  1  0  0  0  0  0  0  0  0  0
  149.7982  142.1590  158.4840 O   0  0  0  0  0  0  0  0  0  0  0  0
  150.2417  141.1377  157.5977 C   0  0  0  0  0  0  0  0  0  0  0  0
  150.0677  141.6466  156.1662 C   0  0  0  0  0  0  0  0  0  0  0  0
  148.6002  141.3775  155.8070 C   0  0  0  0  0  0  0  0  0  0  0  0
  148.0877  140.3419  156.8201 C   0  0  0  0  0  0  0  0  0  0  0  0
  149.3021  139.9300  157.6569 C   0  0  0  0  0  0  0  0  0  0  0  0
  144.1409  145.2527  159.3353 C   0  0  0  0  0  0  0  0  0  0  0  0
  144.3699  145.7300  158.2210 O   0  0  0  0  0  0  0  0  0  0  0  0
  140.7756  145.4672  159.4805 H   0  0  0  0  0  0  0  0  0  0  0  0
  141.7052  145.0597  158.0470 H   0  0  0  0  0  0  0  0  0  0  0  0
  141.8369  146.6696  158.7637 H   0  0  0  0  0  0  0  0  0  0  0  0
  141.5218  144.5794  161.3343 H   0  0  0  0  0  0  0  0  0  0  0  0
  143.2934  143.7568  162.8611 H   0  0  0  0  0  0  0  0  0  0  0  0
  145.6645  143.9156  162.1321 H   0  0  0  0  0  0  0  0  0  0  0  0
  146.5694  145.3875  158.8373 H   0  0  0  0  0  0  0  0  0  0  0  0
  148.4916  145.2989  158.5755 H   0  0  0  0  0  0  0  0  0  0  0  0
  150.2001  143.7837  160.5039 H   0  0  0  0  0  0  0  0  0  0  0  0
  150.8117  146.1847  158.7268 H   0  0  0  0  0  0  0  0  0  0  0  0
  150.6989  146.1897  160.4699 H   0  0  0  0  0  0  0  0  0  0  0  0
  153.0722  146.1194  159.7000 H   0  0  0  0  0  0  0  0  0  0  0  0
  152.6669  144.7136  160.6555 H   0  0  0  0  0  0  0  0  0  0  0  0
  152.8008  144.8357  157.6016 H   0  0  0  0  0  0  0  0  0  0  0  0
  153.9366  144.0195  158.6500 H   0  0  0  0  0  0  0  0  0  0  0  0
  152.3077  142.4120  157.6555 H   0  0  0  0  0  0  0  0  0  0  0  0
  152.1925  142.4389  159.3975 H   0  0  0  0  0  0  0  0  0  0  0  0
  150.3476  143.8874  157.4478 H   0  0  0  0  0  0  0  0  0  0  0  0
  151.2813  140.8720  157.7952 H   0  0  0  0  0  0  0  0  0  0  0  0
  150.3444  142.6957  156.0561 H   0  0  0  0  0  0  0  0  0  0  0  0
  150.7110  141.0705  155.5002 H   0  0  0  0  0  0  0  0  0  0  0  0
  148.0140  142.2940  155.8833 H   0  0  0  0  0  0  0  0  0  0  0  0
  148.5102  141.0174  154.7814 H   0  0  0  0  0  0  0  0  0  0  0  0
  147.3382  140.8034  157.4646 H   0  0  0  0  0  0  0  0  0  0  0  0
  147.6190  139.4850  156.3353 H   0  0  0  0  0  0  0  0  0  0  0  0
  149.7895  139.0735  157.1894 H   0  0  0  0  0  0  0  0  0  0  0  0
  149.0331  139.6363  158.6717 H   0  0  0  0  0  0  0  0  0  0  0  0
  1  2  1  0  0  0  0
  1 25  1  0  0  0  0
  1 26  1  0  0  0  0
  1 27  1  0  0  0  0
  2 23  1  0  0  0  0
  2  3  1  0  0  0  0
  3  4  2  0  0  0  0
  3 28  1  0  0  0  0
  4  5  1  0  0  0  0
  4 29  1  0  0  0  0
  5  6  2  0  0  0  0
  5 30  1  0  0  0  0
  6  7  1  0  0  0  0
  6 23  1  0  0  0  0
  7  8  1  0  0  0  0
  7 31  1  0  0  0  0
  8  9  2  0  0  0  0
  8 10  1  0  0  0  0
 10 11  1  0  0  0  0
 10 32  1  0  0  0  0
 11 16  1  0  0  0  0
 11 12  1  0  0  0  0
 11 33  1  0  0  0  0
 12 13  1  0  0  0  0
 12 34  1  0  0  0  0
 12 35  1  0  0  0  0
 13 14  1  0  0  0  0
 13 36  1  0  0  0  0
 13 37  1  0  0  0  0
 14 15  1  0  0  0  0
 14 38  1  0  0  0  0
 14 39  1  0  0  0  0
 15 16  1  0  0  0  0
 15 40  1  0  0  0  0
 15 41  1  0  0  0  0
 16 17  1  0  0  0  0
 16 42  1  0  0  0  0
 17 18  1  0  0  0  0
 18 22  1  0  0  0  0
 18 19  1  0  0  0  0
 18 43  1  0  0  0  0
 19 20  1  0  0  0  0
 19 44  1  0  0  0  0
 19 45  1  0  0  0  0
 20 21  1  0  0  0  0
 20 46  1  0  0  0  0
 20 47  1  0  0  0  0
 21 22  1  0  0  0  0
 21 48  1  0  0  0  0
 21 49  1  0  0  0  0
 22 50  1  0  0  0  0
 22 51  1  0  0  0  0
 23 24  2  0  0  0  0
M  END
> <s_m_source_file>
AV-unprocessed.smi

> <i_m_source_file_index>
2477

> <i_lp_mmshare_version>
43012

> <i_f3d_flags>
0

> <s_epik_input>
W0NIM11uMVtjSF1bY0hdW2NIXWMoYzE9TylbTkhdQyg9TylbTkhdW0NAQEhdMltDSDJdW0NIMl1bQ0gyXVtDSDJdW0NASF0yT1tDSF0zW0NIMl1bQ0gyXVtDSDJdW0NIMl0z

> <s_epik_cmdline>
J2VwaWtfcHl0aG9uJywgJy1waCcsICc3LjAnLCAnLXRuJywgJzgnLCAnLW1hJywgJzIwMCcsICctbWV0YWxfYmluZGluZycsICctaW1hZScsICc8aW5maWxlLm1hZT4nLCAnLW9tYWUnLCAnPG91dGZpbGUubWFlPic=

> <r_lp_tautomer_probability>
1

> <r_epik_Ionization_Penalty>
2.40753e-05

> <r_epik_Ionization_Penalty_Charging>
4.84018e-06

> <r_epik_Ionization_Penalty_Neutral>
1.92352e-05

> <r_epik_State_Penalty>
-0

> <r_epik_Charging_Adjusted_Penalty>
4.84018e-06

> <i_epik_Tot_Q>
0

> <i_epik_Tot_abs_Q>
0

> <r_epik_Metal_State_Penalty>
-0

> <b_epik_Metal_Only>
0

> <s_lp_Force_Field>
OPLS_2005

> <r_lp_Energy>
41.4176

> <b_lp_Chiralities_Consistent>
1

> <s_lp_Variant>
AV-unprocessed.smi:2477-1

> <Gold.Version>
5.8.1

> <Gold.Id.Protein>
6NUR|6NUR_protein|mol2

> <Gold.PLP.Fitness>
45.0614

> <Gold.PLP.PLP>
-36.5587

> <Gold.PLP.part.hbond>
-2.9934

> <Gold.PLP.part.metal>
0.0000

> <Gold.PLP.part.buried>
-5.2250

> <Gold.PLP.part.nonpolar>
-26.6615

> <Gold.PLP.part.repulsive>
0.4851

> <Gold.PLP.ligand.clash>
0.0421

> <Gold.PLP.ligand.torsion>
0.1013

> <Gold.PLP.Chemscore.Hbond>
2.8953

> <Gold.PLP.Chemscore.CHOScore>
0.0000

> <Gold.PLP.Chemscore.Metal>
0.0000

> <Gold.Chemscore.Hbonds>
donor molecule, donor type, donor heavy atom, donor atom, acceptor molecule, acceptor atom, score
      L1  H     7    31       P1  8029  0.76
      L1  H    10    32       P1  8029  1.00
      P1  H  6933  6944       L1     9  1.00

> <Gold.PLP.Chemscore.Internal.Correction>
0.0616

> <Gold.Rescore>
     Score         DG    S(hbond)    S(metal)    S(lipo)     H(rot)  DE(clash)    DE(int)     intcor
     22.34     -24.08       2.77        0.00     109.55       1.36       0.48       1.26       ----

> <Gold.Chemscore.Fitness>
22.3351

> <Gold.Chemscore.DG>
-24.0758

> <Gold.Chemscore.ZeroCoef>
-5.4800

> <Gold.Chemscore.Hbond>
2.7696

> <Gold.Chemscore.Metal>
0.0000

> <Gold.Chemscore.Lipo>
109.5530

> <Gold.Chemscore.Internal_Hbond>
0.0000

> <Gold.Chemscore.DEClash>
0.4788

> <Gold.Chemscore.DEInternal>
1.2620

> <Gold.Chemscore.Rot>
1.3564

> <Gold.Chemscore.Internal.Correction>
   9.000000E+99

> <Gold.Chemscore.Hbonds>
donor molecule, donor type, donor heavy atom, donor atom, acceptor molecule, acceptor atom, score
      L1  H     7    31       P1  8029  0.72
      L1  H    10    32       P1  8029  0.97
      P1  H  6933  6944       L1     9  0.93

> <Gold.Chemscore.Hbond.Weighted>
-9.2505

> <Gold.Chemscore.Metal.Weighted>
-0.0000

> <Gold.Chemscore.Lipo.Weighted>
-12.8177

> <Gold.Chemscore.Internal_Hbond.Weighted>
0.0000

> <Gold.Chemscore.DEClash.Weighted>
0.4788

> <Gold.Chemscore.DEInternal.Weighted>
1.2620

> <Gold.Chemscore.Rot.Weighted>
3.4724

> <Gold.Chemscore.Internal.Correction.Weighted>
   9.000000E+99

> <Gold.Protein.RotatedTorsions>
[ 6907 6896 6895 6894 ] final  -75.82 input  -60.11 | X-H torsion
[ 7974 7965 7964 7962 ] final  -82.81 input  175.53 | X-H torsion
[ 8008 7997 7996 7995 ] final  144.09 input   59.86 | X-H torsion
[ 10167 10162 10161 10158 ] final  -58.68 input  -65.29 | X-H torsion
[ 10718 10713 10712 10709 ] final    3.97 input   66.30 | X-H torsion
[ 10763 10752 10751 10750 ] final -113.84 input  -60.55 | X-H torsion
[ 11005 11000 10999 10996 ] final  -73.65 input  -57.11 | X-H torsion

> <Gold.Protein.ActiveResidues>
 VAL166  LYS551  ARG553  GLY616  TRP617  ASP618  TYR619  PRO620  LYS621  CYS622 
 ASP623  PHE694  ASN695  SER759  ASP760  ASP761  ALA762  ILE779  LEU786  VAL792 
 PHE793  MET794  SER795  GLU796  ALA797  LYS798  CYS799  TRP800  GLU811  SER814 

> <Gold.Protein.RotatedAtoms>
  150.7046  134.4664  159.5404 H   0  0  0  0  0  0  0  0  0  0  0  0  # atno 6907 bound_to 6896
  152.2328  134.8302  160.0480 H   0  0  0  0  0  0  0  0  0  0  0  0  # atno 6908 bound_to 6896
  151.9112  133.3526  159.3901 H   0  0  0  0  0  0  0  0  0  0  0  0  # atno 6909 bound_to 6896
  145.5283  140.9524  143.1617 H   0  0  0  0  0  0  0  0  0  0  0  0  # atno 7974 bound_to 7965
  156.2916  140.2245  156.4996 H   0  0  0  0  0  0  0  0  0  0  0  0  # atno 8008 bound_to 7997
  154.7701  140.0467  157.1065 H   0  0  0  0  0  0  0  0  0  0  0  0  # atno 8009 bound_to 7997
  154.9885  140.3087  155.4919 H   0  0  0  0  0  0  0  0  0  0  0  0  # atno 8010 bound_to 7997
  140.6182  143.2410  151.5544 H   0  0  0  0  0  0  0  0  0  0  0  0  # atno 10167 bound_to 10162
  156.8857  130.5669  149.5651 H   0  0  0  0  0  0  0  0  0  0  0  0  # atno 10718 bound_to 10713
  154.8414  135.4439  154.1413 H   0  0  0  0  0  0  0  0  0  0  0  0  # atno 10763 bound_to 10752
  153.2597  135.6935  153.7597 H   0  0  0  0  0  0  0  0  0  0  0  0  # atno 10764 bound_to 10752
  153.6878  135.3392  155.3170 H   0  0  0  0  0  0  0  0  0  0  0  0  # atno 10765 bound_to 10752
  141.1625  133.6885  156.7243 H   0  0  0  0  0  0  0  0  0  0  0  0  # atno 11005 bound_to 11000
  144.7639  139.6891  143.7223 LP  0  0  0  0  0  0  0  0  0  0  0  0  # atno 17320 bound_to 7965
  146.2061  139.5386  142.9712 LP  0  0  0  0  0  0  0  0  0  0  0  0  # atno 17321 bound_to 7965
  139.5416  144.2631  152.1363 LP  0  0  0  0  0  0  0  0  0  0  0  0  # atno 17342 bound_to 10162
  140.1845  144.4812  150.6511 LP  0  0  0  0  0  0  0  0  0  0  0  0  # atno 17343 bound_to 10162
  156.0654  130.5698  150.9278 LP  0  0  0  0  0  0  0  0  0  0  0  0  # atno 17370 bound_to 10713
  157.6114  131.0936  150.8789 LP  0  0  0  0  0  0  0  0  0  0  0  0  # atno 17371 bound_to 10713
  140.2792  134.8330  157.3918 LP  0  0  0  0  0  0  0  0  0  0  0  0  # atno 17394 bound_to 11000
  140.1449  134.4924  155.8004 LP  0  0  0  0  0  0  0  0  0  0  0  0  # atno 17395 bound_to 11000

$$$$
