AV-unprocessed.smi:787|AV-procd|sdf|3728|dock5
  -GOLD-   22720 1163D 1   1.00000     0.00000
 Structure written by MMmdl.
 47 49  0  0  0  0  0  0  0  0  2 V2000
  145.1815  140.3140  157.4989 C   0  0  0  0  0  0  0  0  0  0  0  0
  146.1092  140.0138  156.4199 N   0  0  0  0  0  0  0  0  0  0  0  0
  147.3103  139.3393  156.6819 C   0  0  0  0  0  0  0  0  0  0  0  0
  147.6171  138.9849  157.9510 N   0  0  0  0  0  0  0  0  0  0  0  0
  148.7754  138.3472  158.1624 C   0  0  0  0  0  0  0  0  0  0  0  0
  149.7152  137.9875  157.2751 N   0  0  0  0  0  0  0  0  0  0  0  0
  149.4193  138.3290  156.0140 C   0  0  0  0  0  0  0  0  0  0  0  0
  150.2049  138.0794  154.9029 N   0  0  0  0  0  0  0  0  0  0  0  0
  149.4679  138.6032  153.9277 C   0  0  0  0  0  0  0  0  0  0  0  0
  148.2863  139.1568  154.2665 N   0  0  0  0  0  0  0  0  0  0  0  0
  147.3241  139.7555  153.3509 C   0  0  0  0  0  0  0  0  0  0  0  0
  146.7174  138.7466  152.3487 C   0  0  1  0  0  0  0  0  0  0  0  0
  147.7473  138.2959  151.4884 O   0  0  0  0  0  0  0  0  0  0  0  0
  146.0679  137.5233  153.0294 C   0  0  0  0  0  0  0  0  0  0  0  0
  146.0195  136.3398  152.1317 N   0  3  2  0  0  0  0  0  0  0  0  0
  145.3370  136.6279  150.8496 C   0  0  0  0  0  0  0  0  0  0  0  0
  145.4843  135.1213  152.7887 C   0  0  0  0  0  0  0  0  0  0  0  0
  145.1352  134.0450  151.7742 C   0  0  0  0  0  0  0  0  0  0  0  0
  146.1392  133.5183  150.9340 C   0  0  0  0  0  0  0  0  0  0  0  0
  145.8260  132.5090  150.0031 C   0  0  0  0  0  0  0  0  0  0  0  0
  144.5077  132.0230  149.9074 C   0  0  0  0  0  0  0  0  0  0  0  0
  143.5017  132.5485  150.7410 C   0  0  0  0  0  0  0  0  0  0  0  0
  143.8136  133.5597  151.6702 C   0  0  0  0  0  0  0  0  0  0  0  0
  148.2165  139.0092  155.6526 C   0  0  0  0  0  0  0  0  0  0  0  0
  144.3184  140.8526  157.1083 H   0  0  0  0  0  0  0  0  0  0  0  0
  145.6580  140.9369  158.2565 H   0  0  0  0  0  0  0  0  0  0  0  0
  144.8261  139.3973  157.9710 H   0  0  0  0  0  0  0  0  0  0  0  0
  145.9591  140.4374  155.5160 H   0  0  0  0  0  0  0  0  0  0  0  0
  148.9820  138.0874  159.1900 H   0  0  0  0  0  0  0  0  0  0  0  0
  149.8017  138.5712  152.9007 H   0  0  0  0  0  0  0  0  0  0  0  0
  146.5334  140.2299  153.9297 H   0  0  0  0  0  0  0  0  0  0  0  0
  147.8208  140.5642  152.8126 H   0  0  0  0  0  0  0  0  0  0  0  0
  145.9807  139.2706  151.7395 H   0  0  0  0  0  0  0  0  0  0  0  0
  148.2969  137.6858  151.9553 H   0  0  0  0  0  0  0  0  0  0  0  0
  146.6206  137.2931  153.9391 H   0  0  0  0  0  0  0  0  0  0  0  0
  145.0556  137.7622  153.3558 H   0  0  0  0  0  0  0  0  0  0  0  0
  144.2765  136.8288  151.0082 H   0  0  0  0  0  0  0  0  0  0  0  0
  145.4251  135.7818  150.1675 H   0  0  0  0  0  0  0  0  0  0  0  0
  145.7781  137.4942  150.3565 H   0  0  0  0  0  0  0  0  0  0  0  0
  146.1988  134.7446  153.5229 H   0  0  0  0  0  0  0  0  0  0  0  0
  144.5734  135.3653  153.3374 H   0  0  0  0  0  0  0  0  0  0  0  0
  147.1533  133.8839  151.0032 H   0  0  0  0  0  0  0  0  0  0  0  0
  146.5968  132.1066  149.3623 H   0  0  0  0  0  0  0  0  0  0  0  0
  144.2677  131.2488  149.1936 H   0  0  0  0  0  0  0  0  0  0  0  0
  142.4906  132.1758  150.6675 H   0  0  0  0  0  0  0  0  0  0  0  0
  143.0356  133.9546  152.3073 H   0  0  0  0  0  0  0  0  0  0  0  0
  146.9773  136.1185  151.9012 H   0  0  0  0  0  0  0  0  0  0  0  0
  1  2  1  0  0  0  0
  1 25  1  0  0  0  0
  1 26  1  0  0  0  0
  1 27  1  0  0  0  0
  2  3  1  0  0  0  0
  2 28  1  0  0  0  0
  3 24  1  0  0  0  0
  3  4  2  0  0  0  0
  4  5  1  0  0  0  0
  5  6  2  0  0  0  0
  5 29  1  0  0  0  0
  6  7  1  0  0  0  0
  7 24  2  0  0  0  0
  7  8  1  0  0  0  0
  8  9  2  0  0  0  0
  9 10  1  0  0  0  0
  9 30  1  0  0  0  0
 10 11  1  0  0  0  0
 10 24  1  0  0  0  0
 11 12  1  0  0  0  0
 11 31  1  0  0  0  0
 11 32  1  0  0  0  0
 12 13  1  0  0  0  0
 12 14  1  0  0  0  0
 12 33  1  0  0  0  0
 13 34  1  0  0  0  0
 14 15  1  0  0  0  0
 14 35  1  0  0  0  0
 14 36  1  0  0  0  0
 15 16  1  0  0  0  0
 15 17  1  0  0  0  0
 15 47  1  0  0  0  0
 16 37  1  0  0  0  0
 16 38  1  0  0  0  0
 16 39  1  0  0  0  0
 17 18  1  0  0  0  0
 17 40  1  0  0  0  0
 17 41  1  0  0  0  0
 18 23  1  0  0  0  0
 18 19  2  0  0  0  0
 19 20  1  0  0  0  0
 19 42  1  0  0  0  0
 20 21  2  0  0  0  0
 20 43  1  0  0  0  0
 21 22  1  0  0  0  0
 21 44  1  0  0  0  0
 22 23  2  0  0  0  0
 22 45  1  0  0  0  0
 23 46  1  0  0  0  0
M  CHG  1  15   1
M  END
> <s_m_source_file>
AV-unprocessed.smi

> <i_m_source_file_index>
787

> <i_lp_mmshare_version>
43012

> <i_f3d_flags>
0

> <s_epik_input>
bjFbY0hdbmMoW05IXVtDSDNdKWMoYzEyKW4oW2NIXW4yKVtDSDJdW0NASF0oW09IXSlbQ0gyXU4oW0NIM10pW0NIMl1jM1tjSF1bY0hdW2NIXVtjSF1bY0hdMw==

> <s_epik_cmdline>
J2VwaWtfcHl0aG9uJywgJy1waCcsICc3LjAnLCAnLXRuJywgJzgnLCAnLW1hJywgJzIwMCcsICctbWV0YWxfYmluZGluZycsICctaW1hZScsICc8aW5maWxlLm1hZT4nLCAnLW9tYWUnLCAnPG91dGZpbGUubWFlPic=

> <r_lp_tautomer_probability>
0.999987

> <r_epik_Ionization_Penalty>
0.0526284

> <r_epik_Ionization_Penalty_Charging>
0.0475377

> <r_epik_Ionization_Penalty_Neutral>
0.00509065

> <r_epik_State_Penalty>
0.0404888

> <r_epik_Charging_Adjusted_Penalty>
0.0880265

> <i_epik_Tot_Q>
1

> <i_epik_Tot_abs_Q>
1

> <r_epik_Metal_State_Penalty>
0.040507

> <b_epik_Metal_Only>
0

> <s_lp_Force_Field>
OPLS_2005

> <r_lp_Energy>
14.9507

> <b_lp_Chiralities_Consistent>
1

> <s_lp_Variant>
AV-unprocessed.smi:787-4

> <Gold.Version>
5.8.1

> <Gold.Id.Protein>
6NUR|6NUR_protein|mol2

> <Gold.PLP.Fitness>
46.1728

> <Gold.PLP.PLP>
-32.0019

> <Gold.PLP.part.hbond>
-4.1524

> <Gold.PLP.part.metal>
0.0000

> <Gold.PLP.part.buried>
-0.4102

> <Gold.PLP.part.nonpolar>
-28.2219

> <Gold.PLP.part.repulsive>
0.1655

> <Gold.PLP.ligand.clash>
0.0022

> <Gold.PLP.ligand.torsion>
0.4837

> <Gold.PLP.Chemscore.Hbond>
3.7280

> <Gold.PLP.Chemscore.CHOScore>
1.1942

> <Gold.PLP.Chemscore.Metal>
0.0000

> <Gold.Chemscore.Hbonds>
donor molecule, donor type, donor heavy atom, donor atom, acceptor molecule, acceptor atom, score
      L1  H    13    34       P1  7948  0.83
      L1  H    15    47       P1  7948  2.00
      P1  H  7954  7966       L1    13  0.95
      L1  C     9    30       P1  7948  0.40
      L1  C     9    30       P1  7957  1.00

> <Gold.PLP.Chemscore.Internal.Correction>
0.3739

> <Gold.Rescore>
     Score         DG    S(hbond)    S(metal)    S(lipo)     H(rot)  DE(clash)    DE(int)     intcor
     10.37     -13.35       1.98        0.00      80.48       3.19       1.59       1.39       ----

> <Gold.Chemscore.Fitness>
10.3748

> <Gold.Chemscore.DG>
-13.3522

> <Gold.Chemscore.ZeroCoef>
-5.4800

> <Gold.Chemscore.Hbond>
1.9848

> <Gold.Chemscore.Metal>
0.0000

> <Gold.Chemscore.Lipo>
80.4842

> <Gold.Chemscore.Internal_Hbond>
0.0000

> <Gold.Chemscore.DEClash>
1.5857

> <Gold.Chemscore.DEInternal>
1.3918

> <Gold.Chemscore.Rot>
3.1928

> <Gold.Chemscore.Internal.Correction>
   9.000000E+99

> <Gold.Chemscore.Hbonds>
donor molecule, donor type, donor heavy atom, donor atom, acceptor molecule, acceptor atom, score
      L1  H    13    34       P1  7948  0.80
      L1  H    15    47       P1  7948  0.99
      P1  H  7954  7966       L1    13  0.21

> <Gold.Chemscore.Hbond.Weighted>
-6.6292

> <Gold.Chemscore.Metal.Weighted>
-0.0000

> <Gold.Chemscore.Lipo.Weighted>
-9.4166

> <Gold.Chemscore.Internal_Hbond.Weighted>
0.0000

> <Gold.Chemscore.DEClash.Weighted>
1.5857

> <Gold.Chemscore.DEInternal.Weighted>
1.3918

> <Gold.Chemscore.Rot.Weighted>
8.1736

> <Gold.Chemscore.Internal.Correction.Weighted>
   9.000000E+99

> <Gold.Protein.RotatedTorsions>
[ 6907 6896 6895 6894 ] final   24.08 input  -60.11 | X-H torsion
[ 7974 7965 7964 7962 ] final   62.19 input  175.53 | X-H torsion
[ 8008 7997 7996 7995 ] final -121.69 input   59.86 | X-H torsion
[ 10167 10162 10161 10158 ] final  -32.51 input  -65.29 | X-H torsion
[ 10718 10713 10712 10709 ] final  133.46 input   66.30 | X-H torsion
[ 10763 10752 10751 10750 ] final -152.92 input  -60.55 | X-H torsion
[ 11005 11000 10999 10996 ] final  -20.98 input  -57.11 | X-H torsion

> <Gold.Protein.ActiveResidues>
 VAL166  LYS551  ARG553  GLY616  TRP617  ASP618  TYR619  PRO620  LYS621  CYS622 
 ASP623  PHE694  ASN695  SER759  ASP760  ASP761  ALA762  ILE779  LEU786  VAL792 
 PHE793  MET794  SER795  GLU796  ALA797  LYS798  CYS799  TRP800  GLU811  SER814 

> <Gold.Protein.RotatedAtoms>
  151.9522  135.0164  160.0542 H   0  0  0  0  0  0  0  0  0  0  0  0  # atno 6907 bound_to 6896
  152.1943  133.4791  159.5033 H   0  0  0  0  0  0  0  0  0  0  0  0  # atno 6908 bound_to 6896
  150.6941  134.1589  159.4211 H   0  0  0  0  0  0  0  0  0  0  0  0  # atno 6909 bound_to 6896
  145.8762  139.3411  143.0733 H   0  0  0  0  0  0  0  0  0  0  0  0  # atno 7974 bound_to 7965
  155.1522  140.0404  157.2823 H   0  0  0  0  0  0  0  0  0  0  0  0  # atno 8008 bound_to 7997
  154.6396  140.2544  155.7311 H   0  0  0  0  0  0  0  0  0  0  0  0  # atno 8009 bound_to 7997
  156.2526  140.2858  156.0784 H   0  0  0  0  0  0  0  0  0  0  0  0  # atno 8010 bound_to 7997
  140.7220  143.3689  151.1817 H   0  0  0  0  0  0  0  0  0  0  0  0  # atno 10167 bound_to 10162
  157.4771  131.1083  150.9729 H   0  0  0  0  0  0  0  0  0  0  0  0  # atno 10718 bound_to 10713
  154.7962  135.3225  154.7661 H   0  0  0  0  0  0  0  0  0  0  0  0  # atno 10763 bound_to 10752
  153.8339  135.6877  153.4815 H   0  0  0  0  0  0  0  0  0  0  0  0  # atno 10764 bound_to 10752
  153.1655  135.4644  154.9773 H   0  0  0  0  0  0  0  0  0  0  0  0  # atno 10765 bound_to 10752
  140.8517  133.7852  155.9973 H   0  0  0  0  0  0  0  0  0  0  0  0  # atno 11005 bound_to 11000
  145.9078  140.9200  143.0469 LP  0  0  0  0  0  0  0  0  0  0  0  0  # atno 17320 bound_to 7965
  144.6726  140.1119  143.7455 LP  0  0  0  0  0  0  0  0  0  0  0  0  # atno 17321 bound_to 7965
  139.7256  143.9153  152.3001 LP  0  0  0  0  0  0  0  0  0  0  0  0  # atno 17342 bound_to 10162
  139.8925  144.6957  150.8754 LP  0  0  0  0  0  0  0  0  0  0  0  0  # atno 17343 bound_to 10162
  157.0475  130.5773  149.5365 LP  0  0  0  0  0  0  0  0  0  0  0  0  # atno 17370 bound_to 10713
  156.0102  130.5193  150.7964 LP  0  0  0  0  0  0  0  0  0  0  0  0  # atno 17371 bound_to 10713
  140.8783  134.2643  157.5157 LP  0  0  0  0  0  0  0  0  0  0  0  0  # atno 17394 bound_to 11000
  139.8704  134.9602  156.4356 LP  0  0  0  0  0  0  0  0  0  0  0  0  # atno 17395 bound_to 11000

$$$$
