AV-unprocessed.smi:2450|AV-procd|sdf|9668|dock1
  -GOLD-   2272013303D 1   1.00000     0.00000
 Structure written by MMmdl.
 42 43  0  0  0  0  0  0  0  0  2 V2000
  138.3912  141.1316  154.0965 C   0  0  0  0  0  0  0  0  0  0  0  0
  139.8641  140.7104  153.9890 C   0  0  0  0  0  0  0  0  0  0  0  0
  140.0722  139.1845  153.9526 C   0  0  1  0  0  0  0  0  0  0  0  0
  138.9425  138.4803  153.1835 C   0  0  0  0  0  0  0  0  0  0  0  0
  141.3668  138.8666  153.3529 N   0  0  0  0  0  0  0  0  0  0  0  0
  141.8784  137.6348  153.2161 C   0  0  0  0  0  0  0  0  0  0  0  0
  141.2897  136.6110  153.5615 O   0  0  0  0  0  0  0  0  0  0  0  0
  143.0935  137.6768  152.6440 N   0  0  0  0  0  0  0  0  0  0  0  0
  143.9665  136.5973  152.3221 C   0  0  0  0  0  0  0  0  0  0  0  0
  143.5019  135.2940  152.0078 C   0  0  0  0  0  0  0  0  0  0  0  0
  144.4277  134.2731  151.7155 C   0  0  0  0  0  0  0  0  0  0  0  0
  145.8036  134.5646  151.7518 C   0  0  0  0  0  0  0  0  0  0  0  0
  146.2151  135.8092  152.0707 N   0  3  0  0  0  0  0  0  0  0  0  0
  145.3661  136.8262  152.3594 C   0  0  0  0  0  0  0  0  0  0  0  0
  145.8992  138.0868  152.6795 N   0  0  0  0  0  0  0  0  0  0  0  0
  146.8419  138.1114  153.7856 C   0  0  0  0  0  0  0  0  0  0  0  0
  147.5537  139.4629  153.6838 C   0  0  0  0  0  0  0  0  0  0  0  0
  147.3591  139.9036  152.2276 C   0  0  0  0  0  0  0  0  0  0  0  0
  146.5509  138.7768  151.5794 C   0  0  0  0  0  0  0  0  0  0  0  0
  138.2973  142.2175  154.0692 H   0  0  0  0  0  0  0  0  0  0  0  0
  137.9402  140.7869  155.0272 H   0  0  0  0  0  0  0  0  0  0  0  0
  137.8060  140.7275  153.2702 H   0  0  0  0  0  0  0  0  0  0  0  0
  140.2847  141.1492  153.0834 H   0  0  0  0  0  0  0  0  0  0  0  0
  140.4236  141.1408  154.8206 H   0  0  0  0  0  0  0  0  0  0  0  0
  140.0613  138.8222  154.9824 H   0  0  0  0  0  0  0  0  0  0  0  0
  137.9712  138.6995  153.6279 H   0  0  0  0  0  0  0  0  0  0  0  0
  139.0685  137.3972  153.1957 H   0  0  0  0  0  0  0  0  0  0  0  0
  138.9109  138.8005  152.1417 H   0  0  0  0  0  0  0  0  0  0  0  0
  141.9186  139.6491  153.0331 H   0  0  0  0  0  0  0  0  0  0  0  0
  143.4057  138.5880  152.3416 H   0  0  0  0  0  0  0  0  0  0  0  0
  142.4511  135.0494  151.9988 H   0  0  0  0  0  0  0  0  0  0  0  0
  144.0849  133.2781  151.4716 H   0  0  0  0  0  0  0  0  0  0  0  0
  146.5815  133.8441  151.5434 H   0  0  0  0  0  0  0  0  0  0  0  0
  146.3284  137.9994  154.7410 H   0  0  0  0  0  0  0  0  0  0  0  0
  147.5652  137.2998  153.6949 H   0  0  0  0  0  0  0  0  0  0  0  0
  147.0916  140.1874  154.3556 H   0  0  0  0  0  0  0  0  0  0  0  0
  148.6064  139.3821  153.9567 H   0  0  0  0  0  0  0  0  0  0  0  0
  146.7989  140.8390  152.1949 H   0  0  0  0  0  0  0  0  0  0  0  0
  148.3060  140.0659  151.7119 H   0  0  0  0  0  0  0  0  0  0  0  0
  147.2157  138.0981  151.0430 H   0  0  0  0  0  0  0  0  0  0  0  0
  145.8199  139.1641  150.8691 H   0  0  0  0  0  0  0  0  0  0  0  0
  147.2182  135.9936  152.0959 H   0  0  0  0  0  0  0  0  0  0  0  0
  1  2  1  0  0  0  0
  1 20  1  0  0  0  0
  1 21  1  0  0  0  0
  1 22  1  0  0  0  0
  2  3  1  0  0  0  0
  2 23  1  0  0  0  0
  2 24  1  0  0  0  0
  3  4  1  0  0  0  0
  3  5  1  0  0  0  0
  3 25  1  0  0  0  0
  4 26  1  0  0  0  0
  4 27  1  0  0  0  0
  4 28  1  0  0  0  0
  5  6  1  0  0  0  0
  5 29  1  0  0  0  0
  6  7  2  0  0  0  0
  6  8  1  0  0  0  0
  8  9  1  0  0  0  0
  8 30  1  0  0  0  0
  9 14  1  0  0  0  0
  9 10  2  0  0  0  0
 10 11  1  0  0  0  0
 10 31  1  0  0  0  0
 11 12  2  0  0  0  0
 11 32  1  0  0  0  0
 12 13  1  0  0  0  0
 12 33  1  0  0  0  0
 13 14  2  0  0  0  0
 13 42  1  0  0  0  0
 14 15  1  0  0  0  0
 15 19  1  0  0  0  0
 15 16  1  0  0  0  0
 16 17  1  0  0  0  0
 16 34  1  0  0  0  0
 16 35  1  0  0  0  0
 17 18  1  0  0  0  0
 17 36  1  0  0  0  0
 17 37  1  0  0  0  0
 18 19  1  0  0  0  0
 18 38  1  0  0  0  0
 18 39  1  0  0  0  0
 19 40  1  0  0  0  0
 19 41  1  0  0  0  0
M  CHG  1  13   1
M  END
> <s_m_source_file>
AV-unprocessed.smi

> <i_m_source_file_index>
2450

> <i_lp_mmshare_version>
43012

> <i_f3d_flags>
0

> <s_epik_input>
W0NIM11bQ0gyXVtDQEhdKFtDSDNdKVtOSF1DKD1PKVtOSF1jMVtjSF1bY0hdW2NIXW5jMU4yW0NIMl1bQ0gyXVtDSDJdW0NIMl0y

> <s_epik_cmdline>
J2VwaWtfcHl0aG9uJywgJy1waCcsICc3LjAnLCAnLXRuJywgJzgnLCAnLW1hJywgJzIwMCcsICctbWV0YWxfYmluZGluZycsICctaW1hZScsICc8aW5maWxlLm1hZT4nLCAnLW9tYWUnLCAnPG91dGZpbGUubWFlPic=

> <r_lp_tautomer_probability>
0.999994

> <r_epik_Ionization_Penalty>
1.08838

> <r_epik_Ionization_Penalty_Charging>
1.08836

> <r_epik_Ionization_Penalty_Neutral>
2.1796e-05

> <r_epik_State_Penalty>
1.14442

> <r_epik_Charging_Adjusted_Penalty>
2.23278

> <i_epik_Tot_Q>
1

> <i_epik_Tot_abs_Q>
1

> <r_epik_Metal_State_Penalty>
1.23344

> <b_epik_Metal_Only>
0

> <s_lp_Force_Field>
OPLS_2005

> <r_lp_Energy>
41.1125

> <b_lp_Chiralities_Consistent>
1

> <s_lp_Variant>
AV-unprocessed.smi:2450-4

> <Gold.Version>
5.8.1

> <Gold.Id.Protein>
6NUR|6NUR_protein|mol2

> <Gold.PLP.Fitness>
42.2221

> <Gold.PLP.PLP>
-31.2098

> <Gold.PLP.part.hbond>
-4.9223

> <Gold.PLP.part.metal>
0.0000

> <Gold.PLP.part.buried>
1.4701

> <Gold.PLP.part.nonpolar>
-29.5409

> <Gold.PLP.part.repulsive>
0.4940

> <Gold.PLP.ligand.clash>
0.0000

> <Gold.PLP.ligand.torsion>
0.5208

> <Gold.PLP.Chemscore.Hbond>
4.0000

> <Gold.PLP.Chemscore.CHOScore>
0.0000

> <Gold.PLP.Chemscore.Metal>
0.0000

> <Gold.Chemscore.Hbonds>
donor molecule, donor type, donor heavy atom, donor atom, acceptor molecule, acceptor atom, score
      L1  H     5    29       P1 10175  1.00
      L1  H     8    30       P1 10175  1.00
      L1  H    13    42       P1  7948  2.00

> <Gold.PLP.Chemscore.Internal.Correction>
0.0539

> <Gold.Rescore>
     Score         DG    S(hbond)    S(metal)    S(lipo)     H(rot)  DE(clash)    DE(int)     intcor
     16.79     -19.97       2.85        0.00      71.83       1.34       1.68       1.50       ----

> <Gold.Chemscore.Fitness>
16.7948

> <Gold.Chemscore.DG>
-19.9706

> <Gold.Chemscore.ZeroCoef>
-5.4800

> <Gold.Chemscore.Hbond>
2.8490

> <Gold.Chemscore.Metal>
0.0000

> <Gold.Chemscore.Lipo>
71.8257

> <Gold.Chemscore.Internal_Hbond>
0.0000

> <Gold.Chemscore.DEClash>
1.6768

> <Gold.Chemscore.DEInternal>
1.4990

> <Gold.Chemscore.Rot>
1.3393

> <Gold.Chemscore.Internal.Correction>
   9.000000E+99

> <Gold.Chemscore.Hbonds>
donor molecule, donor type, donor heavy atom, donor atom, acceptor molecule, acceptor atom, score
      L1  H     5    29       P1 10175  0.58
      L1  H     8    30       P1 10175  0.98
      L1  H    13    42       P1  7948  1.00

> <Gold.Chemscore.Hbond.Weighted>
-9.5155

> <Gold.Chemscore.Metal.Weighted>
-0.0000

> <Gold.Chemscore.Lipo.Weighted>
-8.4036

> <Gold.Chemscore.Internal_Hbond.Weighted>
0.0000

> <Gold.Chemscore.DEClash.Weighted>
1.6768

> <Gold.Chemscore.DEInternal.Weighted>
1.4990

> <Gold.Chemscore.Rot.Weighted>
3.4285

> <Gold.Chemscore.Internal.Correction.Weighted>
   9.000000E+99

> <Gold.Protein.RotatedTorsions>
[ 6907 6896 6895 6894 ] final  -97.44 input  -60.11 | X-H torsion
[ 7974 7965 7964 7962 ] final  175.67 input  175.53 | X-H torsion
[ 8008 7997 7996 7995 ] final   92.61 input   59.86 | X-H torsion
[ 10167 10162 10161 10158 ] final  101.28 input  -65.29 | X-H torsion
[ 10718 10713 10712 10709 ] final  -32.89 input   66.30 | X-H torsion
[ 10763 10752 10751 10750 ] final  -78.23 input  -60.55 | X-H torsion
[ 11005 11000 10999 10996 ] final   77.32 input  -57.11 | X-H torsion

> <Gold.Protein.ActiveResidues>
 VAL166  LYS551  ARG553  GLY616  TRP617  ASP618  TYR619  PRO620  LYS621  CYS622 
 ASP623  PHE694  ASN695  SER759  ASP760  ASP761  ALA762  ILE779  LEU786  VAL792 
 PHE793  MET794  SER795  GLU796  ALA797  LYS798  CYS799  TRP800  GLU811  SER814 

> <Gold.Protein.RotatedAtoms>
  150.7016  134.1348  159.4082 H   0  0  0  0  0  0  0  0  0  0  0  0  # atno 6907 bound_to 6896
  151.9333  135.0244  160.0540 H   0  0  0  0  0  0  0  0  0  0  0  0  # atno 6908 bound_to 6896
  152.2156  133.4909  159.5171 H   0  0  0  0  0  0  0  0  0  0  0  0  # atno 6909 bound_to 6896
  144.7197  139.9982  143.6440 H   0  0  0  0  0  0  0  0  0  0  0  0  # atno 7974 bound_to 7965
  156.0374  140.3323  155.7205 H   0  0  0  0  0  0  0  0  0  0  0  0  # atno 8008 bound_to 7997
  155.5796  140.0635  157.2804 H   0  0  0  0  0  0  0  0  0  0  0  0  # atno 8009 bound_to 7997
  154.4378  140.1846  156.0951 H   0  0  0  0  0  0  0  0  0  0  0  0  # atno 8010 bound_to 7997
  139.7452  144.7000  151.0515 H   0  0  0  0  0  0  0  0  0  0  0  0  # atno 10167 bound_to 10162
  156.3693  130.4337  149.7558 H   0  0  0  0  0  0  0  0  0  0  0  0  # atno 10718 bound_to 10713
  154.5232  135.5737  153.6697 H   0  0  0  0  0  0  0  0  0  0  0  0  # atno 10763 bound_to 10752
  152.9922  135.6186  154.2727 H   0  0  0  0  0  0  0  0  0  0  0  0  # atno 10764 bound_to 10752
  154.2649  135.2855  155.2742 H   0  0  0  0  0  0  0  0  0  0  0  0  # atno 10765 bound_to 10752
  139.9260  134.7673  156.1507 H   0  0  0  0  0  0  0  0  0  0  0  0  # atno 11005 bound_to 11000
  146.0357  139.3375  143.0728 LP  0  0  0  0  0  0  0  0  0  0  0  0  # atno 17320 bound_to 7965
  145.8398  140.9587  143.0805 LP  0  0  0  0  0  0  0  0  0  0  0  0  # atno 17321 bound_to 7965
  140.7791  143.4876  150.9935 LP  0  0  0  0  0  0  0  0  0  0  0  0  # atno 17342 bound_to 10162
  139.8564  143.7371  152.3176 LP  0  0  0  0  0  0  0  0  0  0  0  0  # atno 17343 bound_to 10162
  156.4692  130.7988  151.3007 LP  0  0  0  0  0  0  0  0  0  0  0  0  # atno 17370 bound_to 10713
  157.7482  131.0041  150.3064 LP  0  0  0  0  0  0  0  0  0  0  0  0  # atno 17371 bound_to 10713
  141.0817  133.6751  156.2350 LP  0  0  0  0  0  0  0  0  0  0  0  0  # atno 17394 bound_to 11000
  140.6336  134.5238  157.5562 LP  0  0  0  0  0  0  0  0  0  0  0  0  # atno 17395 bound_to 11000

$$$$
