AV-unprocessed.smi:3155|AV-procd|sdf|12025|dock4
  -GOLD-   2272017443D 1   1.00000     0.00000
 Structure written by MMmdl.
 38 39  0  0  0  0  0  0  0  0  2 V2000
  152.1811  144.4350  157.8627 C   0  0  0  0  0  0  0  0  0  0  0  0
  151.2604  143.2207  158.0737 C   0  0  2  0  0  0  0  0  0  0  0  0
  151.9376  142.0995  158.8975 C   0  0  0  0  0  0  0  0  0  0  0  0
  152.3804  142.5417  160.2075 N   0  0  0  0  0  0  0  0  0  0  0  0
  153.1778  141.8758  161.1148 C   0  0  0  0  0  0  0  0  0  0  0  0
  153.3127  142.6850  162.2063 C   0  0  0  0  0  0  0  0  0  0  0  0
  152.5436  143.8345  161.8728 C   0  0  0  0  0  0  0  0  0  0  0  0
  151.9834  143.7439  160.6772 N   0  0  0  0  0  0  0  0  0  0  0  0
  150.8085  142.7209  156.7560 N   0  3  0  0  0  0  0  0  0  0  0  0
  150.2455  141.3524  156.7469 C   0  0  0  0  0  0  0  0  0  0  0  0
  150.0327  140.8227  155.3211 C   0  0  0  0  0  0  0  0  0  0  0  0
  150.9331  140.1924  154.7646 O   0  0  0  0  0  0  0  0  0  0  0  0
  148.8523  141.0712  154.7172 N   0  0  0  0  0  0  0  0  0  0  0  0
  147.7724  141.8374  155.3365 C   0  0  0  0  0  0  0  0  0  0  0  0
  146.7625  142.1036  154.2200 C   0  0  0  0  0  0  0  0  0  0  0  0
  146.9855  140.9622  153.2374 C   0  0  0  0  0  0  0  0  0  0  0  0
  148.4726  140.6343  153.3740 C   0  0  0  0  0  0  0  0  0  0  0  0
  152.4576  144.9018  158.8084 H   0  0  0  0  0  0  0  0  0  0  0  0
  151.6891  145.1999  157.2606 H   0  0  0  0  0  0  0  0  0  0  0  0
  153.1007  144.1494  157.3509 H   0  0  0  0  0  0  0  0  0  0  0  0
  150.3797  143.5723  158.6133 H   0  0  0  0  0  0  0  0  0  0  0  0
  151.2591  141.2597  159.0469 H   0  0  0  0  0  0  0  0  0  0  0  0
  152.8026  141.7094  158.3593 H   0  0  0  0  0  0  0  0  0  0  0  0
  153.5811  140.8947  160.9104 H   0  0  0  0  0  0  0  0  0  0  0  0
  153.8728  142.4856  163.1078 H   0  0  0  0  0  0  0  0  0  0  0  0
  152.3759  144.7249  162.4608 H   0  0  0  0  0  0  0  0  0  0  0  0
  150.0816  143.3403  156.4267 H   0  0  0  0  0  0  0  0  0  0  0  0
  150.9184  140.6802  157.2783 H   0  0  0  0  0  0  0  0  0  0  0  0
  149.2890  141.3518  157.2709 H   0  0  0  0  0  0  0  0  0  0  0  0
  147.3196  141.2384  156.1280 H   0  0  0  0  0  0  0  0  0  0  0  0
  148.1285  142.7698  155.7780 H   0  0  0  0  0  0  0  0  0  0  0  0
  145.7354  142.1572  154.5819 H   0  0  0  0  0  0  0  0  0  0  0  0
  146.9956  143.0527  153.7353 H   0  0  0  0  0  0  0  0  0  0  0  0
  146.3916  140.0989  153.5407 H   0  0  0  0  0  0  0  0  0  0  0  0
  146.7015  141.2211  152.2169 H   0  0  0  0  0  0  0  0  0  0  0  0
  149.0528  141.1929  152.6384 H   0  0  0  0  0  0  0  0  0  0  0  0
  148.6542  139.5702  153.2174 H   0  0  0  0  0  0  0  0  0  0  0  0
  151.5784  142.7642  156.1035 H   0  0  0  0  0  0  0  0  0  0  0  0
  1  2  1  0  0  0  0
  1 18  1  0  0  0  0
  1 19  1  0  0  0  0
  1 20  1  0  0  0  0
  2  3  1  0  0  0  0
  2  9  1  0  0  0  0
  2 21  1  0  0  0  0
  3  4  1  0  0  0  0
  3 22  1  0  0  0  0
  3 23  1  0  0  0  0
  4  8  1  0  0  0  0
  4  5  1  0  0  0  0
  5  6  2  0  0  0  0
  5 24  1  0  0  0  0
  6  7  1  0  0  0  0
  6 25  1  0  0  0  0
  7  8  2  0  0  0  0
  7 26  1  0  0  0  0
  9 10  1  0  0  0  0
  9 27  1  0  0  0  0
  9 38  1  0  0  0  0
 10 11  1  0  0  0  0
 10 28  1  0  0  0  0
 10 29  1  0  0  0  0
 11 12  2  0  0  0  0
 11 13  1  0  0  0  0
 13 17  1  0  0  0  0
 13 14  1  0  0  0  0
 14 15  1  0  0  0  0
 14 30  1  0  0  0  0
 14 31  1  0  0  0  0
 15 16  1  0  0  0  0
 15 32  1  0  0  0  0
 15 33  1  0  0  0  0
 16 17  1  0  0  0  0
 16 34  1  0  0  0  0
 16 35  1  0  0  0  0
 17 36  1  0  0  0  0
 17 37  1  0  0  0  0
M  CHG  1   9   1
M  END
> <s_m_source_file>
AV-unprocessed.smi

> <i_m_source_file_index>
3155

> <i_lp_mmshare_version>
43012

> <i_f3d_flags>
0

> <s_epik_input>
bjFbY0hdW2NIXVtjSF1uMVtDSDJdW0NAQEhdKFtDSDNdKVtOSF1bQ0gyXUMoPU8pTjJbQ0gyXVtDSDJdW0NIMl1bQ0gyXTI=

> <s_epik_cmdline>
J2VwaWtfcHl0aG9uJywgJy1waCcsICc3LjAnLCAnLXRuJywgJzgnLCAnLW1hJywgJzIwMCcsICctbWV0YWxfYmluZGluZycsICctaW1hZScsICc8aW5maWxlLm1hZT4nLCAnLW9tYWUnLCAnPG91dGZpbGUubWFlPic=

> <r_lp_tautomer_probability>
1

> <r_epik_Ionization_Penalty>
0.120138

> <r_epik_Ionization_Penalty_Charging>
0.120135

> <r_epik_Ionization_Penalty_Neutral>
3.43791e-06

> <r_epik_State_Penalty>
0.109683

> <r_epik_Charging_Adjusted_Penalty>
0.229818

> <i_epik_Tot_Q>
1

> <i_epik_Tot_abs_Q>
1

> <r_epik_Metal_State_Penalty>
0.109693

> <b_epik_Metal_Only>
0

> <s_lp_Force_Field>
OPLS_2005

> <r_lp_Energy>
27.5308

> <b_lp_Chiralities_Consistent>
1

> <s_lp_Variant>
AV-unprocessed.smi:3155-1

> <Gold.Version>
5.8.1

> <Gold.Id.Protein>
6NUR|6NUR_protein|mol2

> <Gold.PLP.Fitness>
51.8168

> <Gold.PLP.PLP>
-44.1554

> <Gold.PLP.part.hbond>
-1.9828

> <Gold.PLP.part.metal>
0.0000

> <Gold.PLP.part.buried>
-0.4092

> <Gold.PLP.part.nonpolar>
-40.3706

> <Gold.PLP.part.repulsive>
0.2180

> <Gold.PLP.ligand.clash>
0.0000

> <Gold.PLP.ligand.torsion>
0.6811

> <Gold.PLP.Chemscore.Hbond>
3.0000

> <Gold.PLP.Chemscore.CHOScore>
0.0000

> <Gold.PLP.Chemscore.Metal>
0.0000

> <Gold.Chemscore.Hbonds>
donor molecule, donor type, donor heavy atom, donor atom, acceptor molecule, acceptor atom, score
      L1  H     9    27       P1  8028  2.00
      P1  H  7989  7998       L1    12  1.00

> <Gold.PLP.Chemscore.Internal.Correction>
0.0236

> <Gold.Rescore>
     Score         DG    S(hbond)    S(metal)    S(lipo)     H(rot)  DE(clash)    DE(int)     intcor
     17.88     -18.79       1.97        0.00      97.67       1.84       0.05       0.86       ----

> <Gold.Chemscore.Fitness>
17.8772

> <Gold.Chemscore.DG>
-18.7933

> <Gold.Chemscore.ZeroCoef>
-5.4800

> <Gold.Chemscore.Hbond>
1.9724

> <Gold.Chemscore.Metal>
0.0000

> <Gold.Chemscore.Lipo>
97.6668

> <Gold.Chemscore.Internal_Hbond>
0.0000

> <Gold.Chemscore.DEClash>
0.0533

> <Gold.Chemscore.DEInternal>
0.8628

> <Gold.Chemscore.Rot>
1.8366

> <Gold.Chemscore.Internal.Correction>
   9.000000E+99

> <Gold.Chemscore.Hbonds>
donor molecule, donor type, donor heavy atom, donor atom, acceptor molecule, acceptor atom, score
      L1  H     9    27       P1  8028  0.98
      P1  H  7989  7998       L1    12  0.93

> <Gold.Chemscore.Hbond.Weighted>
-6.5879

> <Gold.Chemscore.Metal.Weighted>
-0.0000

> <Gold.Chemscore.Lipo.Weighted>
-11.4270

> <Gold.Chemscore.Internal_Hbond.Weighted>
0.0000

> <Gold.Chemscore.DEClash.Weighted>
0.0533

> <Gold.Chemscore.DEInternal.Weighted>
0.8628

> <Gold.Chemscore.Rot.Weighted>
4.7017

> <Gold.Chemscore.Internal.Correction.Weighted>
   9.000000E+99

> <Gold.Protein.RotatedTorsions>
[ 6907 6896 6895 6894 ] final  -72.37 input  -60.11 | X-H torsion
[ 7974 7965 7964 7962 ] final  -20.43 input  175.53 | X-H torsion
[ 8008 7997 7996 7995 ] final   69.83 input   59.86 | X-H torsion
[ 10167 10162 10161 10158 ] final   25.20 input  -65.29 | X-H torsion
[ 10718 10713 10712 10709 ] final  139.69 input   66.30 | X-H torsion
[ 10763 10752 10751 10750 ] final   64.12 input  -60.55 | X-H torsion
[ 11005 11000 10999 10996 ] final  -10.14 input  -57.11 | X-H torsion

> <Gold.Protein.ActiveResidues>
 VAL166  LYS551  ARG553  GLY616  TRP617  ASP618  TYR619  PRO620  LYS621  CYS622 
 ASP623  PHE694  ASN695  SER759  ASP760  ASP761  ALA762  ILE779  LEU786  VAL792 
 PHE793  MET794  SER795  GLU796  ALA797  LYS798  CYS799  TRP800  GLU811  SER814 

> <Gold.Protein.RotatedAtoms>
  150.7173  134.5173  159.5636 H   0  0  0  0  0  0  0  0  0  0  0  0  # atno 6907 bound_to 6896
  152.2736  134.7903  160.0419 H   0  0  0  0  0  0  0  0  0  0  0  0  # atno 6908 bound_to 6896
  151.8574  133.3415  159.3729 H   0  0  0  0  0  0  0  0  0  0  0  0  # atno 6909 bound_to 6896
  146.1789  140.4200  142.8502 H   0  0  0  0  0  0  0  0  0  0  0  0  # atno 7974 bound_to 7965
  155.7296  140.3492  155.5053 H   0  0  0  0  0  0  0  0  0  0  0  0  # atno 8008 bound_to 7997
  155.9195  140.1064  157.1239 H   0  0  0  0  0  0  0  0  0  0  0  0  # atno 8009 bound_to 7997
  154.4067  140.1252  156.4647 H   0  0  0  0  0  0  0  0  0  0  0  0  # atno 8010 bound_to 7997
  140.5125  144.0136  150.6379 H   0  0  0  0  0  0  0  0  0  0  0  0  # atno 10167 bound_to 10162
  157.4116  131.1028  151.0448 H   0  0  0  0  0  0  0  0  0  0  0  0  # atno 10718 bound_to 10713
  153.0043  135.5404  154.6459 H   0  0  0  0  0  0  0  0  0  0  0  0  # atno 10763 bound_to 10752
  154.5703  135.2841  155.0836 H   0  0  0  0  0  0  0  0  0  0  0  0  # atno 10764 bound_to 10752
  154.2004  135.6485  153.5138 H   0  0  0  0  0  0  0  0  0  0  0  0  # atno 10765 bound_to 10752
  140.7415  133.8666  155.8972 H   0  0  0  0  0  0  0  0  0  0  0  0  # atno 11005 bound_to 11000
  144.8281  140.6662  143.6309 LP  0  0  0  0  0  0  0  0  0  0  0  0  # atno 17320 bound_to 7965
  145.4134  139.1576  143.4113 LP  0  0  0  0  0  0  0  0  0  0  0  0  # atno 17321 bound_to 7965
  140.3463  143.2990  152.0535 LP  0  0  0  0  0  0  0  0  0  0  0  0  # atno 17342 bound_to 10162
  139.4900  144.6406  151.6884 LP  0  0  0  0  0  0  0  0  0  0  0  0  # atno 17343 bound_to 10162
  157.1411  130.6143  149.5555 LP  0  0  0  0  0  0  0  0  0  0  0  0  # atno 17370 bound_to 10713
  155.9852  130.4881  150.7021 LP  0  0  0  0  0  0  0  0  0  0  0  0  # atno 17371 bound_to 10713
  140.9832  134.1378  157.4476 LP  0  0  0  0  0  0  0  0  0  0  0  0  # atno 17394 bound_to 11000
  139.8805  135.0017  156.6083 LP  0  0  0  0  0  0  0  0  0  0  0  0  # atno 17395 bound_to 11000

$$$$
