AV-unprocessed.smi:1971|AV-procd|sdf|7966|dock4
  -GOLD-   2272010133D 1   1.00000     0.00000
 Structure written by MMmdl.
 43 44  0  0  0  0  0  0  0  0  1 V2000
  152.1894  143.7179  158.6439 C   0  0  0  0  0  0  0  0  0  0  0  0
  150.6855  143.4193  158.5630 C   0  0  0  0  0  0  0  0  0  0  0  0
  150.3413  142.1817  157.8660 N   0  0  0  0  0  0  0  0  0  0  0  0
  151.0743  142.0684  156.6076 C   0  0  0  0  0  0  0  0  0  0  0  0
  150.7411  140.7583  155.8707 C   0  0  0  0  0  0  0  0  0  0  0  0
  149.3089  140.6428  155.5621 N   0  0  0  0  0  0  0  0  0  0  0  0
  148.9838  139.3877  154.8500 C   0  0  2  0  0  0  0  0  0  0  0  0
  150.1390  138.8638  153.9671 C   0  0  0  0  0  0  0  0  0  0  0  0
  147.6995  139.4667  153.9836 C   0  0  0  0  0  0  0  0  0  0  0  0
  147.5006  138.2694  153.1688 N   0  0  0  0  0  0  0  0  0  0  0  0
  146.3771  137.5404  153.1109 C   0  0  0  0  0  0  0  0  0  0  0  0
  145.3591  137.8064  153.7499 O   0  0  0  0  0  0  0  0  0  0  0  0
  146.5180  136.4979  152.2764 N   0  0  0  0  0  0  0  0  0  0  0  0
  145.5502  135.5190  151.9399 C   0  0  0  0  0  0  0  0  0  0  0  0
  145.2856  134.5460  152.8141 N   0  0  0  0  0  0  0  0  0  0  0  0
  144.3150  133.6606  152.3363 C   0  0  0  0  0  0  0  0  0  0  0  0
  143.8467  133.9770  151.0853 C   0  0  0  0  0  0  0  0  0  0  0  0
  144.6089  135.4103  150.4501 S   0  0  0  0  0  0  0  0  0  0  0  0
  148.5745  140.7776  156.8280 C   0  0  0  0  0  0  0  0  0  0  0  0
  148.9133  142.0872  157.5634 C   0  0  0  0  0  0  0  0  0  0  0  0
  152.3611  144.7039  159.0759 H   0  0  0  0  0  0  0  0  0  0  0  0
  152.6463  143.7071  157.6540 H   0  0  0  0  0  0  0  0  0  0  0  0
  152.7163  142.9962  159.2676 H   0  0  0  0  0  0  0  0  0  0  0  0
  150.2612  143.4109  159.5682 H   0  0  0  0  0  0  0  0  0  0  0  0
  150.2144  144.2564  158.0460 H   0  0  0  0  0  0  0  0  0  0  0  0
  150.8468  142.9191  155.9628 H   0  0  0  0  0  0  0  0  0  0  0  0
  152.1468  142.1039  156.8019 H   0  0  0  0  0  0  0  0  0  0  0  0
  151.3304  140.7420  154.9553 H   0  0  0  0  0  0  0  0  0  0  0  0
  151.0653  139.9059  156.4701 H   0  0  0  0  0  0  0  0  0  0  0  0
  148.7980  138.6171  155.5998 H   0  0  0  0  0  0  0  0  0  0  0  0
  149.8214  138.0122  153.3648 H   0  0  0  0  0  0  0  0  0  0  0  0
  150.9838  138.5167  154.5611 H   0  0  0  0  0  0  0  0  0  0  0  0
  150.5015  139.6326  153.2839 H   0  0  0  0  0  0  0  0  0  0  0  0
  146.8319  139.6516  154.6192 H   0  0  0  0  0  0  0  0  0  0  0  0
  147.7318  140.3283  153.3182 H   0  0  0  0  0  0  0  0  0  0  0  0
  148.2897  137.9668  152.6164 H   0  0  0  0  0  0  0  0  0  0  0  0
  147.4143  136.3975  151.8234 H   0  0  0  0  0  0  0  0  0  0  0  0
  144.0152  132.8276  152.9551 H   0  0  0  0  0  0  0  0  0  0  0  0
  143.1027  133.4561  150.5012 H   0  0  0  0  0  0  0  0  0  0  0  0
  147.5009  140.7773  156.6481 H   0  0  0  0  0  0  0  0  0  0  0  0
  148.7858  139.9256  157.4763 H   0  0  0  0  0  0  0  0  0  0  0  0
  148.3304  142.1265  158.4828 H   0  0  0  0  0  0  0  0  0  0  0  0
  148.6003  142.9394  156.9579 H   0  0  0  0  0  0  0  0  0  0  0  0
  1  2  1  0  0  0  0
  1 21  1  0  0  0  0
  1 22  1  0  0  0  0
  1 23  1  0  0  0  0
  2  3  1  0  0  0  0
  2 24  1  0  0  0  0
  2 25  1  0  0  0  0
  3 20  1  0  0  0  0
  3  4  1  0  0  0  0
  4  5  1  0  0  0  0
  4 26  1  0  0  0  0
  4 27  1  0  0  0  0
  5  6  1  0  0  0  0
  5 28  1  0  0  0  0
  5 29  1  0  0  0  0
  6  7  1  0  0  0  0
  6 19  1  0  0  0  0
  7  8  1  0  0  0  0
  7  9  1  0  0  0  0
  7 30  1  0  0  0  0
  8 31  1  0  0  0  0
  8 32  1  0  0  0  0
  8 33  1  0  0  0  0
  9 10  1  0  0  0  0
  9 34  1  0  0  0  0
  9 35  1  0  0  0  0
 10 11  1  0  0  0  0
 10 36  1  0  0  0  0
 11 12  2  0  0  0  0
 11 13  1  0  0  0  0
 13 14  1  0  0  0  0
 13 37  1  0  0  0  0
 14 18  1  0  0  0  0
 14 15  2  0  0  0  0
 15 16  1  0  0  0  0
 16 17  2  0  0  0  0
 16 38  1  0  0  0  0
 17 18  1  0  0  0  0
 17 39  1  0  0  0  0
 19 20  1  0  0  0  0
 19 40  1  0  0  0  0
 19 41  1  0  0  0  0
 20 42  1  0  0  0  0
 20 43  1  0  0  0  0
M  END
> <s_m_source_file>
AV-unprocessed.smi

> <i_m_source_file_index>
1971

> <i_lp_mmshare_version>
43012

> <i_f3d_flags>
0

> <s_epik_input>
W0NIM11bQ0gyXU4xW0NIMl1bQ0gyXU4oW0NIMl1bQ0gyXTEpW0NASF0oW0NIM10pW0NIMl1bTkhdQyg9TylbTkhdYzJuW2NIXVtjSF1zMg==

> <s_epik_cmdline>
J2VwaWtfcHl0aG9uJywgJy1waCcsICc3LjAnLCAnLXRuJywgJzgnLCAnLW1hJywgJzIwMCcsICctbWV0YWxfYmluZGluZycsICctaW1hZScsICc8aW5maWxlLm1hZT4nLCAnLW9tYWUnLCAnPG91dGZpbGUubWFlPic=

> <r_lp_tautomer_probability>
0.999

> <r_epik_Ionization_Penalty>
2.43994

> <r_epik_Ionization_Penalty_Charging>
0

> <r_epik_Ionization_Penalty_Neutral>
2.43994

> <r_epik_State_Penalty>
1.7682

> <r_epik_Charging_Adjusted_Penalty>
1.7682

> <i_epik_Tot_Q>
0

> <i_epik_Tot_abs_Q>
0

> <r_epik_Metal_State_Penalty>
1.80147

> <b_epik_Metal_Only>
0

> <s_lp_Force_Field>
OPLS_2005

> <r_lp_Energy>
42.0055

> <b_lp_Chiralities_Consistent>
1

> <s_lp_Variant>
AV-unprocessed.smi:1971-5

> <Gold.Version>
5.8.1

> <Gold.Id.Protein>
6NUR|6NUR_protein|mol2

> <Gold.PLP.Fitness>
36.6632

> <Gold.PLP.PLP>
-28.4621

> <Gold.PLP.part.hbond>
-1.8744

> <Gold.PLP.part.metal>
0.0000

> <Gold.PLP.part.buried>
-3.2004

> <Gold.PLP.part.nonpolar>
-24.5369

> <Gold.PLP.part.repulsive>
0.4735

> <Gold.PLP.ligand.clash>
0.0000

> <Gold.PLP.ligand.torsion>
1.5223

> <Gold.PLP.Chemscore.Hbond>
1.7840

> <Gold.PLP.Chemscore.CHOScore>
1.9341

> <Gold.PLP.Chemscore.Metal>
0.0000

> <Gold.Chemscore.Hbonds>
donor molecule, donor type, donor heavy atom, donor atom, acceptor molecule, acceptor atom, score
      L1  H    10    36       P1  7948  0.75
      L1  H    13    37       P1  7948  0.98
      L1  C    16    38       P1 10957  1.00
      L1  C    17    39       P1 10186  0.93

> <Gold.PLP.Chemscore.Internal.Correction>
0.0913

> <Gold.Rescore>
     Score         DG    S(hbond)    S(metal)    S(lipo)     H(rot)  DE(clash)    DE(int)     intcor
     14.99     -16.50       1.93        0.00      77.45       1.75       0.09       1.42       ----

> <Gold.Chemscore.Fitness>
14.9918

> <Gold.Chemscore.DG>
-16.5018

> <Gold.Chemscore.ZeroCoef>
-5.4800

> <Gold.Chemscore.Hbond>
1.9260

> <Gold.Chemscore.Metal>
0.0000

> <Gold.Chemscore.Lipo>
77.4523

> <Gold.Chemscore.Internal_Hbond>
0.0000

> <Gold.Chemscore.DEClash>
0.0942

> <Gold.Chemscore.DEInternal>
1.4159

> <Gold.Chemscore.Rot>
1.7473

> <Gold.Chemscore.Internal.Correction>
   9.000000E+99

> <Gold.Chemscore.Hbonds>
donor molecule, donor type, donor heavy atom, donor atom, acceptor molecule, acceptor atom, score
      L1  H    10    36       P1  7948  0.74
      L1  H    13    37       P1  7948  0.90

> <Gold.Chemscore.Hbond.Weighted>
-6.4330

> <Gold.Chemscore.Metal.Weighted>
-0.0000

> <Gold.Chemscore.Lipo.Weighted>
-9.0619

> <Gold.Chemscore.Internal_Hbond.Weighted>
0.0000

> <Gold.Chemscore.DEClash.Weighted>
0.0942

> <Gold.Chemscore.DEInternal.Weighted>
1.4159

> <Gold.Chemscore.Rot.Weighted>
4.4731

> <Gold.Chemscore.Internal.Correction.Weighted>
   9.000000E+99

> <Gold.Protein.RotatedTorsions>
[ 6907 6896 6895 6894 ] final   -6.22 input  -60.11 | X-H torsion
[ 7974 7965 7964 7962 ] final   48.47 input  175.53 | X-H torsion
[ 8008 7997 7996 7995 ] final  117.79 input   59.86 | X-H torsion
[ 10167 10162 10161 10158 ] final  -10.43 input  -65.29 | X-H torsion
[ 10718 10713 10712 10709 ] final  -33.61 input   66.30 | X-H torsion
[ 10763 10752 10751 10750 ] final  -33.53 input  -60.55 | X-H torsion
[ 11005 11000 10999 10996 ] final  -42.75 input  -57.11 | X-H torsion

> <Gold.Protein.ActiveResidues>
 VAL166  LYS551  ARG553  GLY616  TRP617  ASP618  TYR619  PRO620  LYS621  CYS622 
 ASP623  PHE694  ASN695  SER759  ASP760  ASP761  ALA762  ILE779  LEU786  VAL792 
 PHE793  MET794  SER795  GLU796  ALA797  LYS798  CYS799  TRP800  GLU811  SER814 

> <Gold.Protein.RotatedAtoms>
  151.4691  135.1044  159.9746 H   0  0  0  0  0  0  0  0  0  0  0  0  # atno 6907 bound_to 6896
  152.4823  133.8282  159.7099 H   0  0  0  0  0  0  0  0  0  0  0  0  # atno 6908 bound_to 6896
  150.8905  133.7189  159.2933 H   0  0  0  0  0  0  0  0  0  0  0  0  # atno 6909 bound_to 6896
  146.0201  139.4641  142.9902 H   0  0  0  0  0  0  0  0  0  0  0  0  # atno 7974 bound_to 7965
  156.2513  140.2888  156.0734 H   0  0  0  0  0  0  0  0  0  0  0  0  # atno 8008 bound_to 7997
  155.1646  140.0400  157.2867 H   0  0  0  0  0  0  0  0  0  0  0  0  # atno 8009 bound_to 7997
  154.6369  140.2513  155.7374 H   0  0  0  0  0  0  0  0  0  0  0  0  # atno 8010 bound_to 7997
  140.7114  143.5748  150.9054 H   0  0  0  0  0  0  0  0  0  0  0  0  # atno 10167 bound_to 10162
  156.3606  130.4323  149.7627 H   0  0  0  0  0  0  0  0  0  0  0  0  # atno 10718 bound_to 10713
  153.8317  135.6865  153.4814 H   0  0  0  0  0  0  0  0  0  0  0  0  # atno 10763 bound_to 10752
  153.1507  135.4619  154.9630 H   0  0  0  0  0  0  0  0  0  0  0  0  # atno 10764 bound_to 10752
  154.7884  135.3293  154.7779 H   0  0  0  0  0  0  0  0  0  0  0  0  # atno 10765 bound_to 10752
  141.0337  133.6809  156.2638 H   0  0  0  0  0  0  0  0  0  0  0  0  # atno 11005 bound_to 11000
  145.7207  141.0076  143.1404 LP  0  0  0  0  0  0  0  0  0  0  0  0  # atno 17320 bound_to 7965
  144.6986  139.8867  143.7450 LP  0  0  0  0  0  0  0  0  0  0  0  0  # atno 17321 bound_to 7965
  139.9474  143.6311  152.3038 LP  0  0  0  0  0  0  0  0  0  0  0  0  # atno 17342 bound_to 10162
  139.6817  144.7655  151.1596 LP  0  0  0  0  0  0  0  0  0  0  0  0  # atno 17343 bound_to 10162
  156.4792  130.8033  151.3048 LP  0  0  0  0  0  0  0  0  0  0  0  0  # atno 17370 bound_to 10713
  157.7473  131.0011  150.2951 LP  0  0  0  0  0  0  0  0  0  0  0  0  # atno 17371 bound_to 10713
  140.6360  134.5214  157.5565 LP  0  0  0  0  0  0  0  0  0  0  0  0  # atno 17394 bound_to 11000
  139.9226  134.8119  156.1166 LP  0  0  0  0  0  0  0  0  0  0  0  0  # atno 17395 bound_to 11000

$$$$
