AV-unprocessed.smi:2307|AV-procd|sdf|9250|dock8
  -GOLD-   2272012473D 1   1.00000     0.00000
 Structure written by MMmdl.
 38 39  0  0  0  0  0  0  0  0  1 V2000
  151.9411  144.1425  161.1363 C   0  0  0  0  0  0  0  0  0  0  0  0
  151.7998  143.3814  159.8299 C   0  0  0  0  0  0  0  0  0  0  0  0
  150.8760  143.9066  158.9222 N   0  0  0  0  0  0  0  0  0  0  0  0
  150.6860  143.3224  157.7848 C   0  0  0  0  0  0  0  0  0  0  0  0
  151.3852  142.1561  157.4270 N   0  0  0  0  0  0  0  0  0  0  0  0
  151.0678  141.5651  156.1133 C   0  0  0  0  0  0  0  0  0  0  0  0
  150.0894  140.3699  156.2077 C   0  0  2  0  0  0  0  0  0  0  0  0
  150.5307  139.3634  155.3202 O   0  0  0  0  0  0  0  0  0  0  0  0
  148.6406  140.7660  155.9557 C   0  0  0  0  0  0  0  0  0  0  0  0
  147.6491  140.5214  156.9284 C   0  0  0  0  0  0  0  0  0  0  0  0
  146.3083  140.8676  156.6760 C   0  0  0  0  0  0  0  0  0  0  0  0
  145.9307  141.4588  155.4532 C   0  0  0  0  0  0  0  0  0  0  0  0
  144.5930  141.7589  155.2933 O   0  0  0  0  0  0  0  0  0  0  0  0
  144.1697  143.0462  155.1681 C   0  0  0  0  0  0  0  0  0  0  0  0
  142.8175  143.0698  155.0866 F   0  0  0  0  0  0  0  0  0  0  0  0
  144.5135  143.7991  156.2431 F   0  0  0  0  0  0  0  0  0  0  0  0
  144.6428  143.6270  154.0367 F   0  0  0  0  0  0  0  0  0  0  0  0
  146.9312  141.7031  154.4788 C   0  0  0  0  0  0  0  0  0  0  0  0
  148.2733  141.3592  154.7305 C   0  0  0  0  0  0  0  0  0  0  0  0
  152.3112  141.5849  158.2501 C   0  0  0  0  0  0  0  0  0  0  0  0
  152.9243  140.5666  157.9247 O   0  0  0  0  0  0  0  0  0  0  0  0
  152.5161  142.2610  159.5412 C   0  0  0  0  0  0  0  0  0  0  0  0
  153.5367  141.6447  160.4896 C   0  0  0  0  0  0  0  0  0  0  0  0
  152.9602  144.5120  161.2536 H   0  0  0  0  0  0  0  0  0  0  0  0
  151.7034  143.4975  161.9826 H   0  0  0  0  0  0  0  0  0  0  0  0
  151.2690  145.0008  161.1715 H   0  0  0  0  0  0  0  0  0  0  0  0
  149.9731  143.6911  157.0456 H   0  0  0  0  0  0  0  0  0  0  0  0
  150.6501  142.3169  155.4404 H   0  0  0  0  0  0  0  0  0  0  0  0
  151.9919  141.2460  155.6274 H   0  0  0  0  0  0  0  0  0  0  0  0
  150.1528  139.9391  157.2076 H   0  0  0  0  0  0  0  0  0  0  0  0
  151.3894  139.5998  155.0039 H   0  0  0  0  0  0  0  0  0  0  0  0
  147.9122  140.0603  157.8692 H   0  0  0  0  0  0  0  0  0  0  0  0
  145.5593  140.6732  157.4298 H   0  0  0  0  0  0  0  0  0  0  0  0
  146.6941  142.1515  153.5266 H   0  0  0  0  0  0  0  0  0  0  0  0
  149.0200  141.5445  153.9722 H   0  0  0  0  0  0  0  0  0  0  0  0
  153.2410  140.6279  160.7494 H   0  0  0  0  0  0  0  0  0  0  0  0
  153.6512  142.2011  161.4183 H   0  0  0  0  0  0  0  0  0  0  0  0
  154.5160  141.6015  160.0118 H   0  0  0  0  0  0  0  0  0  0  0  0
  1  2  1  0  0  0  0
  1 24  1  0  0  0  0
  1 25  1  0  0  0  0
  1 26  1  0  0  0  0
  2 22  2  0  0  0  0
  2  3  1  0  0  0  0
  3  4  2  0  0  0  0
  4  5  1  0  0  0  0
  4 27  1  0  0  0  0
  5  6  1  0  0  0  0
  5 20  1  0  0  0  0
  6  7  1  0  0  0  0
  6 28  1  0  0  0  0
  6 29  1  0  0  0  0
  7  8  1  0  0  0  0
  7  9  1  0  0  0  0
  7 30  1  0  0  0  0
  8 31  1  0  0  0  0
  9 19  1  0  0  0  0
  9 10  2  0  0  0  0
 10 11  1  0  0  0  0
 10 32  1  0  0  0  0
 11 12  2  0  0  0  0
 11 33  1  0  0  0  0
 12 13  1  0  0  0  0
 12 18  1  0  0  0  0
 13 14  1  0  0  0  0
 14 15  1  0  0  0  0
 14 16  1  0  0  0  0
 14 17  1  0  0  0  0
 18 19  2  0  0  0  0
 18 34  1  0  0  0  0
 19 35  1  0  0  0  0
 20 21  2  0  0  0  0
 20 22  1  0  0  0  0
 22 23  1  0  0  0  0
 23 36  1  0  0  0  0
 23 37  1  0  0  0  0
 23 38  1  0  0  0  0
M  END
> <s_m_source_file>
AV-unprocessed.smi

> <i_m_source_file_index>
2307

> <i_lp_mmshare_version>
43012

> <i_f3d_flags>
0

> <s_epik_input>
W0NIM11jMW5bY0hdbihjKD1PKWMxW0NIM10pW0NIMl1bQ0BIXShbT0hdKWMyW2NIXVtjSF1jKE9DKEYpKEYpRilbY0hdW2NIXTI=

> <s_epik_cmdline>
J2VwaWtfcHl0aG9uJywgJy1waCcsICc3LjAnLCAnLXRuJywgJzgnLCAnLW1hJywgJzIwMCcsICctbWV0YWxfYmluZGluZycsICctaW1hZScsICc8aW5maWxlLm1hZT4nLCAnLW9tYWUnLCAnPG91dGZpbGUubWFlPic=

> <r_lp_tautomer_probability>
1

> <r_epik_Ionization_Penalty>
5.07003e-05

> <r_epik_Ionization_Penalty_Charging>
7.56727e-08

> <r_epik_Ionization_Penalty_Neutral>
5.06246e-05

> <r_epik_State_Penalty>
-0

> <r_epik_Charging_Adjusted_Penalty>
7.56727e-08

> <i_epik_Tot_Q>
0

> <i_epik_Tot_abs_Q>
0

> <r_epik_Metal_State_Penalty>
-0

> <b_epik_Metal_Only>
0

> <s_lp_Force_Field>
OPLS_2005

> <r_lp_Energy>
16.6377

> <b_lp_Chiralities_Consistent>
1

> <s_lp_Variant>
AV-unprocessed.smi:2307-1

> <Gold.Version>
5.8.1

> <Gold.Id.Protein>
6NUR|6NUR_protein|mol2

> <Gold.PLP.Fitness>
44.2410

> <Gold.PLP.PLP>
-39.9728

> <Gold.PLP.part.hbond>
-1.0000

> <Gold.PLP.part.metal>
0.0000

> <Gold.PLP.part.buried>
-7.0648

> <Gold.PLP.part.nonpolar>
-31.9837

> <Gold.PLP.part.repulsive>
0.2412

> <Gold.PLP.ligand.clash>
0.0000

> <Gold.PLP.ligand.torsion>
0.8873

> <Gold.PLP.Chemscore.Hbond>
0.9920

> <Gold.PLP.Chemscore.CHOScore>
1.0000

> <Gold.PLP.Chemscore.Metal>
0.0000

> <Gold.Chemscore.Hbonds>
donor molecule, donor type, donor heavy atom, donor atom, acceptor molecule, acceptor atom, score
      P1  H  7997  8008       L1    21  0.78
      L1  C     4    27       P1  8028  0.99

> <Gold.PLP.Chemscore.Internal.Correction>
0.0667

> <Gold.Rescore>
     Score         DG    S(hbond)    S(metal)    S(lipo)     H(rot)  DE(clash)    DE(int)     intcor
      9.82     -10.76       0.97        0.00      76.13       2.69       0.00       0.94       ----

> <Gold.Chemscore.Fitness>
9.8177

> <Gold.Chemscore.DG>
-10.7607

> <Gold.Chemscore.ZeroCoef>
-5.4800

> <Gold.Chemscore.Hbond>
0.9728

> <Gold.Chemscore.Metal>
0.0000

> <Gold.Chemscore.Lipo>
76.1262

> <Gold.Chemscore.Internal_Hbond>
0.0000

> <Gold.Chemscore.DEClash>
0.0004

> <Gold.Chemscore.DEInternal>
0.9426

> <Gold.Chemscore.Rot>
2.6856

> <Gold.Chemscore.Internal.Correction>
   9.000000E+99

> <Gold.Chemscore.Hbonds>
donor molecule, donor type, donor heavy atom, donor atom, acceptor molecule, acceptor atom, score
      P1  H  7997  8008       L1    21  0.77

> <Gold.Chemscore.Hbond.Weighted>
-3.2491

> <Gold.Chemscore.Metal.Weighted>
-0.0000

> <Gold.Chemscore.Lipo.Weighted>
-8.9068

> <Gold.Chemscore.Internal_Hbond.Weighted>
0.0000

> <Gold.Chemscore.DEClash.Weighted>
0.0004

> <Gold.Chemscore.DEInternal.Weighted>
0.9426

> <Gold.Chemscore.Rot.Weighted>
6.8751

> <Gold.Chemscore.Internal.Correction.Weighted>
   9.000000E+99

> <Gold.Protein.RotatedTorsions>
[ 6907 6896 6895 6894 ] final  -73.95 input  -60.11 | X-H torsion
[ 7974 7965 7964 7962 ] final    0.32 input  175.53 | X-H torsion
[ 8008 7997 7996 7995 ] final  -73.69 input   59.86 | X-H torsion
[ 10167 10162 10161 10158 ] final   12.19 input  -65.29 | X-H torsion
[ 10718 10713 10712 10709 ] final  -80.56 input   66.30 | X-H torsion
[ 10763 10752 10751 10750 ] final  -45.52 input  -60.55 | X-H torsion
[ 11005 11000 10999 10996 ] final   90.60 input  -57.11 | X-H torsion

> <Gold.Protein.ActiveResidues>
 VAL166  LYS551  ARG553  GLY616  TRP617  ASP618  TYR619  PRO620  LYS621  CYS622 
 ASP623  PHE694  ASN695  SER759  ASP760  ASP761  ALA762  ILE779  LEU786  VAL792 
 PHE793  MET794  SER795  GLU796  ALA797  LYS798  CYS799  TRP800  GLU811  SER814 

> <Gold.Protein.RotatedAtoms>
  150.7111  134.4940  159.5529 H   0  0  0  0  0  0  0  0  0  0  0  0  # atno 6907 bound_to 6896
  152.2552  134.8089  160.0449 H   0  0  0  0  0  0  0  0  0  0  0  0  # atno 6908 bound_to 6896
  151.8822  133.3462  159.3807 H   0  0  0  0  0  0  0  0  0  0  0  0  # atno 6909 bound_to 6896
  146.2433  140.1155  142.8342 H   0  0  0  0  0  0  0  0  0  0  0  0  # atno 7974 bound_to 7965
  154.5268  140.0775  156.8272 H   0  0  0  0  0  0  0  0  0  0  0  0  # atno 8008 bound_to 7997
  155.3459  140.3410  155.4221 H   0  0  0  0  0  0  0  0  0  0  0  0  # atno 8009 bound_to 7997
  156.1740  140.1629  156.8384 H   0  0  0  0  0  0  0  0  0  0  0  0  # atno 8010 bound_to 7997
  140.6084  143.8460  150.7038 H   0  0  0  0  0  0  0  0  0  0  0  0  # atno 10167 bound_to 10162
  156.0068  130.4578  150.3818 H   0  0  0  0  0  0  0  0  0  0  0  0  # atno 10718 bound_to 10713
  154.0300  135.6658  153.4780 H   0  0  0  0  0  0  0  0  0  0  0  0  # atno 10763 bound_to 10752
  153.0544  135.5065  154.7942 H   0  0  0  0  0  0  0  0  0  0  0  0  # atno 10764 bound_to 10752
  154.6884  135.3057  154.9479 H   0  0  0  0  0  0  0  0  0  0  0  0  # atno 10765 bound_to 10752
  139.8853  134.8623  156.3308 H   0  0  0  0  0  0  0  0  0  0  0  0  # atno 11005 bound_to 11000
  145.0450  140.8975  143.5029 LP  0  0  0  0  0  0  0  0  0  0  0  0  # atno 17320 bound_to 7965
  145.1243  139.2673  143.5572 LP  0  0  0  0  0  0  0  0  0  0  0  0  # atno 17321 bound_to 7965
  140.2023  143.3950  152.1782 LP  0  0  0  0  0  0  0  0  0  0  0  0  # atno 17342 bound_to 10162
  139.5342  144.7192  151.4950 LP  0  0  0  0  0  0  0  0  0  0  0  0  # atno 17343 bound_to 10162
  157.1898  131.0412  151.2706 LP  0  0  0  0  0  0  0  0  0  0  0  0  # atno 17370 bound_to 10713
  157.4071  130.7365  149.6811 LP  0  0  0  0  0  0  0  0  0  0  0  0  # atno 17371 bound_to 10713
  140.9724  133.7319  156.0554 LP  0  0  0  0  0  0  0  0  0  0  0  0  # atno 17394 bound_to 11000
  140.7854  134.3678  157.5477 LP  0  0  0  0  0  0  0  0  0  0  0  0  # atno 17395 bound_to 11000

$$$$
