#       Name:                AV-unprocessed.smi:300
#       Creating user name   scv26
#       Creation time:       Thu Mar 26 22:16:09 2020


#       File generated by GOLD software.
#

@<TRIPOS>MOLECULE
AV-unprocessed.smi:300
    53    54     1
SMALL
NO_CHARGES


@<TRIPOS>ATOM
      1 ****        -4.6586   3.4674  -3.0798 C.3            1 S1                 0.0000
      2 ****        -4.4226   3.2196  -1.6726 N.am           1 S1                 0.0000
      3 ****        -4.6553   4.2626  -0.7438 C.2            1 S1                 0.0000
      4 ****        -5.0554   5.3767  -1.0825 O.2            1 S1                 0.0000
      5 ****        -4.3732   3.9095   0.6424 C.2            1 S1                 0.0000
      6 ****        -3.9211   2.6786   0.9673 C.2            1 S1                 0.0000
      7 ****        -3.6926   1.6802   0.0380 N.am           1 S1                 0.0000
      8 ****        -3.1856   0.3750   0.4810 C.3            1 S1                 0.0000
      9 ****        -1.6684   0.2245   0.3049 C.2            1 S1                 0.0000
     10 ****        -0.9372   1.2148   0.2546 O.2            1 S1                 0.0000
     11 ****        -1.2069  -1.0330   0.2348 N.am           1 S1                 0.0000
     12 ****         0.1944  -1.4024   0.0787 C.3            1 S1                 0.0000
     13 ****         0.9449  -1.3497   1.4226 C.3            1 S1                 0.0000
     14 ****         2.3559  -1.7306   1.2622 N.am           1 S1                 0.0000
     15 ****         3.3042  -0.6166   1.1072 C.3            1 S1                 0.0000
     16 ****         3.9910  -0.6078  -0.2723 C.3            1 S1                 0.0000
     17 ****         5.1806  -1.5726  -0.3847 C.3            1 S1                 0.0000
     18 ****         4.8118  -3.0549  -0.2275 C.3            1 S1                 0.0000
     19 ****         4.2149  -3.3894   1.1494 C.3            1 S1                 0.0000
     20 ****         2.7263  -3.0336   1.2509 C.2            1 S1                 0.0000
     21 ****         1.9136  -3.9554   1.3366 O.2            1 S1                 0.0000
     22 ****        -3.9380   1.9386  -1.3276 C.2            1 S1                 0.0000
     23 ****        -3.7287   1.0714  -2.1798 O.2            1 S1                 0.0000
     24 ****        -5.2226   4.3882  -3.2264 H              1 S1                 0.0000
     25 ****        -5.2426   2.6336  -3.4741 H              1 S1                 0.0000
     26 ****        -3.6807   3.5320  -3.5593 H              1 S1                 0.0000
     27 ****        -4.5259   4.6447   1.4188 H              1 S1                 0.0000
     28 ****        -3.7233   2.4684   2.0083 H              1 S1                 0.0000
     29 ****        -3.4209   0.2238   1.5353 H              1 S1                 0.0000
     30 ****        -3.7004  -0.4262  -0.0526 H              1 S1                 0.0000
     31 ****        -1.8747  -1.7886   0.2905 H              1 S1                 0.0000
     32 ****         0.2306  -2.4099  -0.3365 H              1 S1                 0.0000
     33 ****         0.6731  -0.7496  -0.6533 H              1 S1                 0.0000
     34 ****         0.8619  -0.3542   1.8599 H              1 S1                 0.0000
     35 ****         0.4577  -2.0082   2.1443 H              1 S1                 0.0000
     36 ****         2.7877   0.3366   1.2226 H              1 S1                 0.0000
     37 ****         4.0433  -0.6370   1.9092 H              1 S1                 0.0000
     38 ****         3.2624  -0.8087  -1.0590 H              1 S1                 0.0000
     39 ****         4.3619   0.3998  -0.4628 H              1 S1                 0.0000
     40 ****         5.6540  -1.4322  -1.3569 H              1 S1                 0.0000
     41 ****         5.9357  -1.3050   0.3555 H              1 S1                 0.0000
     42 ****         4.1269  -3.3542  -1.0223 H              1 S1                 0.0000
     43 ****         5.7124  -3.6524  -0.3719 H              1 S1                 0.0000
     44 ****         4.3138  -4.4622   1.3209 H              1 S1                 0.0000
     45 ****         4.7768  -2.9100   1.9516 H              1 S1                 0.0000
     46 ****        -5.2292   5.5735  -2.0475 LP             1 S1                 0.0000
     47 ****        -5.2066   6.0847  -0.3927 LP             1 S1                 0.0000
     48 ****        -1.3307   2.1311   0.3288 LP             1 S1                 0.0000
     49 ****         0.0497   1.1022   0.1395 LP             1 S1                 0.0000
     50 ****         0.9372  -3.7552   1.4184 LP             1 S1                 0.0000
     51 ****         2.2302  -4.9039   1.3242 LP             1 S1                 0.0000
     52 ****        -3.9024   1.2667  -3.1451 LP             1 S1                 0.0000
     53 ****        -3.3854   0.1732  -1.9054 LP             1 S1                 0.0000
@<TRIPOS>BOND
    1    1    2 1     
    2    1   24 1     
    3    1   25 1     
    4    1   26 1     
    5    2   22 am    
    6    2    3 am    
    7    3    4 2     
    8    3    5 1     
    9    5    6 2     
   10    5   27 1     
   11    6    7 1     
   12    6   28 1     
   13    7    8 1     
   14    7   22 am    
   15    8    9 1     
   16    8   29 1     
   17    8   30 1     
   18    9   10 2     
   19    9   11 am    
   20   11   12 1     
   21   11   31 1     
   22   12   13 1     
   23   12   32 1     
   24   12   33 1     
   25   13   14 1     
   26   13   34 1     
   27   13   35 1     
   28   14   20 am    
   29   14   15 1     
   30   15   16 1     
   31   15   36 1     
   32   15   37 1     
   33   16   17 1     
   34   16   38 1     
   35   16   39 1     
   36   17   18 1     
   37   17   40 1     
   38   17   41 1     
   39   18   19 1     
   40   18   42 1     
   41   18   43 1     
   42   19   20 1     
   43   19   44 1     
   44   19   45 1     
   45   20   21 2     
   46   22   23 2     
   47    4   46 1     
   48    4   47 1     
   49   10   48 1     
   50   10   49 1     
   51   21   50 1     
   52   21   51 1     
   53   23   52 1     
   54   23   53 1     
@<TRIPOS>SUBSTRUCTURE
      1 S1             1
@<TRIPOS>SET
LONE_PAIRS      STATIC     ATOMS    <user>   **** ""
8 46 47 48 49 50 51 52 53
DONOR_HYDROGENS      STATIC     ATOMS    <user>   **** ""
1 31
ATOM$BLUE        STATIC     ATOMS    COLORGROUP SYSTEM
8 46 47 48 49 50 51 52 53
ATOM$RED        STATIC     ATOMS    COLORGROUP SYSTEM
1 31
