AV-unprocessed.smi:811|AV-procd|sdf|3812|dock2
  -GOLD-   22720 1253D 1   1.00000     0.00000
 Structure written by MMmdl.
 46 48  0  0  0  0  0  0  0  0  2 V2000
  147.2403  130.3304  153.4475 C   0  0  0  0  0  0  0  0  0  0  0  0
  148.4148  131.1851  153.1691 N   0  3  2  0  0  0  0  0  0  0  0  0
  149.4863  131.0841  154.1919 C   0  0  0  0  0  0  0  0  0  0  0  0
  149.9077  132.5183  154.5296 C   0  0  0  0  0  0  0  0  0  0  0  0
  148.6346  133.3118  154.2510 C   0  0  1  0  0  0  0  0  0  0  0  0
  148.8441  134.7398  154.0384 N   0  0  0  0  0  0  0  0  0  0  0  0
  149.3551  135.5768  154.9521 C   0  0  0  0  0  0  0  0  0  0  0  0
  149.7055  135.2174  156.0757 O   0  0  0  0  0  0  0  0  0  0  0  0
  149.4486  136.8280  154.4704 N   0  0  0  0  0  0  0  0  0  0  0  0
  149.9077  137.9977  155.1347 C   0  0  0  0  0  0  0  0  0  0  0  0
  149.8496  138.0279  156.5413 C   0  0  0  0  0  0  0  0  0  0  0  0
  150.3163  139.1654  157.2264 C   0  0  0  0  0  0  0  0  0  0  0  0
  150.8414  140.2503  156.4854 C   0  0  0  0  0  0  0  0  0  0  0  0
  151.3152  141.4025  157.1500 N   0  0  0  0  0  0  0  0  0  0  0  0
  151.7104  141.2145  158.5439 C   0  0  0  0  0  0  0  0  0  0  0  0
  152.4907  142.4406  159.0492 C   0  0  0  0  0  0  0  0  0  0  0  0
  151.7211  143.6211  158.8462 O   0  0  0  0  0  0  0  0  0  0  0  0
  151.4445  143.8420  157.4672 C   0  0  0  0  0  0  0  0  0  0  0  0
  150.6230  142.6675  156.9096 C   0  0  0  0  0  0  0  0  0  0  0  0
  150.9162  140.2120  155.1324 N   0  0  0  0  0  0  0  0  0  0  0  0
  150.4647  139.1210  154.4787 C   0  0  0  0  0  0  0  0  0  0  0  0
  148.0887  132.6194  153.0027 C   0  0  0  0  0  0  0  0  0  0  0  0
  146.7431  130.6350  154.3696 H   0  0  0  0  0  0  0  0  0  0  0  0
  147.5424  129.2872  153.5474 H   0  0  0  0  0  0  0  0  0  0  0  0
  146.5194  130.3937  152.6320 H   0  0  0  0  0  0  0  0  0  0  0  0
  149.1055  130.5989  155.0925 H   0  0  0  0  0  0  0  0  0  0  0  0
  150.3226  130.4872  153.8270 H   0  0  0  0  0  0  0  0  0  0  0  0
  150.2607  132.6238  155.5562 H   0  0  0  0  0  0  0  0  0  0  0  0
  150.7088  132.8388  153.8614 H   0  0  0  0  0  0  0  0  0  0  0  0
  147.9289  133.1630  155.0713 H   0  0  0  0  0  0  0  0  0  0  0  0
  148.5848  135.1156  153.1376 H   0  0  0  0  0  0  0  0  0  0  0  0
  149.2047  136.9517  153.4986 H   0  0  0  0  0  0  0  0  0  0  0  0
  149.4517  137.1896  157.0944 H   0  0  0  0  0  0  0  0  0  0  0  0
  150.2813  139.1849  158.3053 H   0  0  0  0  0  0  0  0  0  0  0  0
  150.8127  141.0699  159.1468 H   0  0  0  0  0  0  0  0  0  0  0  0
  152.3252  140.3252  158.6741 H   0  0  0  0  0  0  0  0  0  0  0  0
  152.7055  142.3361  160.1128 H   0  0  0  0  0  0  0  0  0  0  0  0
  153.4507  142.5275  158.5377 H   0  0  0  0  0  0  0  0  0  0  0  0
  150.8880  144.7732  157.3607 H   0  0  0  0  0  0  0  0  0  0  0  0
  152.3767  143.9629  156.9126 H   0  0  0  0  0  0  0  0  0  0  0  0
  150.4631  142.8148  155.8406 H   0  0  0  0  0  0  0  0  0  0  0  0
  149.6421  142.6389  157.3860 H   0  0  0  0  0  0  0  0  0  0  0  0
  150.5816  139.1591  153.4070 H   0  0  0  0  0  0  0  0  0  0  0  0
  148.6053  132.9787  152.1112 H   0  0  0  0  0  0  0  0  0  0  0  0
  147.0223  132.8013  152.8597 H   0  0  0  0  0  0  0  0  0  0  0  0
  148.8028  130.8713  152.2907 H   0  0  0  0  0  0  0  0  0  0  0  0
  1  2  1  0  0  0  0
  1 23  1  0  0  0  0
  1 24  1  0  0  0  0
  1 25  1  0  0  0  0
  2 22  1  0  0  0  0
  2  3  1  0  0  0  0
  2 46  1  0  0  0  0
  3  4  1  0  0  0  0
  3 26  1  0  0  0  0
  3 27  1  0  0  0  0
  4  5  1  0  0  0  0
  4 28  1  0  0  0  0
  4 29  1  0  0  0  0
  5  6  1  0  0  0  0
  5 22  1  0  0  0  0
  5 30  1  0  0  0  0
  6  7  1  0  0  0  0
  6 31  1  0  0  0  0
  7  8  2  0  0  0  0
  7  9  1  0  0  0  0
  9 10  1  0  0  0  0
  9 32  1  0  0  0  0
 10 21  1  0  0  0  0
 10 11  2  0  0  0  0
 11 12  1  0  0  0  0
 11 33  1  0  0  0  0
 12 13  2  0  0  0  0
 12 34  1  0  0  0  0
 13 14  1  0  0  0  0
 13 20  1  0  0  0  0
 14 19  1  0  0  0  0
 14 15  1  0  0  0  0
 15 16  1  0  0  0  0
 15 35  1  0  0  0  0
 15 36  1  0  0  0  0
 16 17  1  0  0  0  0
 16 37  1  0  0  0  0
 16 38  1  0  0  0  0
 17 18  1  0  0  0  0
 18 19  1  0  0  0  0
 18 39  1  0  0  0  0
 18 40  1  0  0  0  0
 19 41  1  0  0  0  0
 19 42  1  0  0  0  0
 20 21  2  0  0  0  0
 21 43  1  0  0  0  0
 22 44  1  0  0  0  0
 22 45  1  0  0  0  0
M  CHG  1   2   1
M  END
> <s_m_source_file>
AV-unprocessed.smi

> <i_m_source_file_index>
811

> <i_lp_mmshare_version>
43012

> <i_f3d_flags>
0

> <s_epik_input>
W0NIM11OMVtDSDJdW0NIMl1bQ0BIXShbQ0gyXTEpW05IXUMoPU8pW05IXWMyW2NIXVtjSF1jKG5bY0hdMilOM1tDSDJdW0NIMl1PW0NIMl1bQ0gyXTM=

> <s_epik_cmdline>
J2VwaWtfcHl0aG9uJywgJy1waCcsICc3LjAnLCAnLXRuJywgJzgnLCAnLW1hJywgJzIwMCcsICctbWV0YWxfYmluZGluZycsICctaW1hZScsICc8aW5maWxlLm1hZT4nLCAnLW9tYWUnLCAnPG91dGZpbGUubWFlPic=

> <r_lp_tautomer_probability>
1

> <r_epik_Ionization_Penalty>
0.00503422

> <r_epik_Ionization_Penalty_Charging>
0.00366104

> <r_epik_Ionization_Penalty_Neutral>
0.00137318

> <r_epik_State_Penalty>
-0

> <r_epik_Charging_Adjusted_Penalty>
0.00366104

> <i_epik_Tot_Q>
1

> <i_epik_Tot_abs_Q>
1

> <r_epik_Metal_State_Penalty>
-0

> <b_epik_Metal_Only>
0

> <s_lp_Force_Field>
OPLS_2005

> <r_lp_Energy>
43.7099

> <b_lp_Chiralities_Consistent>
1

> <s_lp_Variant>
AV-unprocessed.smi:811-2

> <Gold.Version>
5.8.1

> <Gold.Id.Protein>
6NUR|6NUR_protein|mol2

> <Gold.PLP.Fitness>
47.6156

> <Gold.PLP.PLP>
-35.3995

> <Gold.PLP.part.hbond>
-4.0000

> <Gold.PLP.part.metal>
0.0000

> <Gold.PLP.part.buried>
-3.2997

> <Gold.PLP.part.nonpolar>
-27.3226

> <Gold.PLP.part.repulsive>
0.1411

> <Gold.PLP.ligand.clash>
0.0000

> <Gold.PLP.ligand.torsion>
0.4779

> <Gold.PLP.Chemscore.Hbond>
3.5100

> <Gold.PLP.Chemscore.CHOScore>
0.7627

> <Gold.PLP.Chemscore.Metal>
0.0000

> <Gold.Chemscore.Hbonds>
donor molecule, donor type, donor heavy atom, donor atom, acceptor molecule, acceptor atom, score
      L1  H     2    46       P1 10747  1.00
      L1  H     6    31       P1  7948  0.94
      L1  H     9    32       P1  7948  0.98
      P1  H  7989  7998       L1    20  0.50
      L1  C    21    43       P1  7957  0.86

> <Gold.PLP.Chemscore.Internal.Correction>
0.3538

> <Gold.Rescore>
     Score         DG    S(hbond)    S(metal)    S(lipo)     H(rot)  DE(clash)    DE(int)     intcor
     19.44     -21.09       2.70        0.00      83.14       1.23       0.01       1.64       ----

> <Gold.Chemscore.Fitness>
19.4404

> <Gold.Chemscore.DG>
-21.0931

> <Gold.Chemscore.ZeroCoef>
-5.4800

> <Gold.Chemscore.Hbond>
2.7046

> <Gold.Chemscore.Metal>
0.0000

> <Gold.Chemscore.Lipo>
83.1386

> <Gold.Chemscore.Internal_Hbond>
0.0000

> <Gold.Chemscore.DEClash>
0.0115

> <Gold.Chemscore.DEInternal>
1.6412

> <Gold.Chemscore.Rot>
1.2295

> <Gold.Chemscore.Internal.Correction>
   9.000000E+99

> <Gold.Chemscore.Hbonds>
donor molecule, donor type, donor heavy atom, donor atom, acceptor molecule, acceptor atom, score
      L1  H     2    46       P1 10747  0.62
      L1  H     6    31       P1  7948  0.68
      L1  H     9    32       P1  7948  0.92
      P1  H  7989  7998       L1    20  0.02

> <Gold.Chemscore.Hbond.Weighted>
-9.0333

> <Gold.Chemscore.Metal.Weighted>
-0.0000

> <Gold.Chemscore.Lipo.Weighted>
-9.7272

> <Gold.Chemscore.Internal_Hbond.Weighted>
0.0000

> <Gold.Chemscore.DEClash.Weighted>
0.0115

> <Gold.Chemscore.DEInternal.Weighted>
1.6412

> <Gold.Chemscore.Rot.Weighted>
3.1474

> <Gold.Chemscore.Internal.Correction.Weighted>
   9.000000E+99

> <Gold.Protein.RotatedTorsions>
[ 6907 6896 6895 6894 ] final  -97.34 input  -60.11 | X-H torsion
[ 7974 7965 7964 7962 ] final   37.93 input  175.53 | X-H torsion
[ 8008 7997 7996 7995 ] final  160.47 input   59.86 | X-H torsion
[ 10167 10162 10161 10158 ] final   -8.54 input  -65.29 | X-H torsion
[ 10718 10713 10712 10709 ] final   99.16 input   66.30 | X-H torsion
[ 10763 10752 10751 10750 ] final   17.90 input  -60.55 | X-H torsion
[ 11005 11000 10999 10996 ] final   41.66 input  -57.11 | X-H torsion

> <Gold.Protein.ActiveResidues>
 VAL166  LYS551  ARG553  GLY616  TRP617  ASP618  TYR619  PRO620  LYS621  CYS622 
 ASP623  PHE694  ASN695  SER759  ASP760  ASP761  ALA762  ILE779  LEU786  VAL792 
 PHE793  MET794  SER795  GLU796  ALA797  LYS798  CYS799  TRP800  GLU811  SER814 

> <Gold.Protein.RotatedAtoms>
  150.7013  134.1364  159.4088 H   0  0  0  0  0  0  0  0  0  0  0  0  # atno 6907 bound_to 6896
  151.9349  135.0237  160.0541 H   0  0  0  0  0  0  0  0  0  0  0  0  # atno 6908 bound_to 6896
  152.2144  133.4900  159.5164 H   0  0  0  0  0  0  0  0  0  0  0  0  # atno 6909 bound_to 6896
  146.1100  139.5834  142.9358 H   0  0  0  0  0  0  0  0  0  0  0  0  # atno 7974 bound_to 7965
  156.2170  140.1803  156.7566 H   0  0  0  0  0  0  0  0  0  0  0  0  # atno 8008 bound_to 7997
  154.5806  140.0667  156.9127 H   0  0  0  0  0  0  0  0  0  0  0  0  # atno 8009 bound_to 7997
  155.2509  140.3329  155.4285 H   0  0  0  0  0  0  0  0  0  0  0  0  # atno 8010 bound_to 7997
  140.7062  143.5957  150.8848 H   0  0  0  0  0  0  0  0  0  0  0  0  # atno 10167 bound_to 10162
  157.6881  131.0661  150.4906 H   0  0  0  0  0  0  0  0  0  0  0  0  # atno 10718 bound_to 10713
  153.1297  135.6737  153.9198 H   0  0  0  0  0  0  0  0  0  0  0  0  # atno 10763 bound_to 10752
  153.8689  135.3072  155.3442 H   0  0  0  0  0  0  0  0  0  0  0  0  # atno 10764 bound_to 10752
  154.7696  135.4946  153.9704 H   0  0  0  0  0  0  0  0  0  0  0  0  # atno 10765 bound_to 10752
  140.1813  134.4100  155.8198 H   0  0  0  0  0  0  0  0  0  0  0  0  # atno 11005 bound_to 11000
  145.5682  141.0397  143.2189 LP  0  0  0  0  0  0  0  0  0  0  0  0  # atno 17320 bound_to 7965
  144.7504  139.7210  143.7275 LP  0  0  0  0  0  0  0  0  0  0  0  0  # atno 17321 bound_to 7965
  139.9682  143.6086  152.2982 LP  0  0  0  0  0  0  0  0  0  0  0  0  # atno 17342 bound_to 10162
  139.6664  144.7662  151.1866 LP  0  0  0  0  0  0  0  0  0  0  0  0  # atno 17343 bound_to 10162
  156.5233  130.4167  149.6239 LP  0  0  0  0  0  0  0  0  0  0  0  0  # atno 17370 bound_to 10713
  156.3135  130.7242  151.2139 LP  0  0  0  0  0  0  0  0  0  0  0  0  # atno 17371 bound_to 10713
  141.2223  133.7002  156.7936 LP  0  0  0  0  0  0  0  0  0  0  0  0  # atno 17394 bound_to 11000
  140.2264  134.8719  157.3431 LP  0  0  0  0  0  0  0  0  0  0  0  0  # atno 17395 bound_to 11000

$$$$
