AV-unprocessed.smi:444|AV-procd|sdf|2587|dock4
  -GOLD-   2262022583D 1   1.00000     0.00000
 Structure written by MMmdl.
 45 46  0  0  0  0  0  0  0  0  1 V2000
  150.8374  144.7490  159.5225 C   0  0  0  0  0  0  0  0  0  0  0  0
  151.7394  143.5371  159.6344 C   0  0  0  0  0  0  0  0  0  0  0  0
  152.6172  143.4035  160.7273 C   0  0  0  0  0  0  0  0  0  0  0  0
  153.4498  142.2744  160.8252 C   0  0  0  0  0  0  0  0  0  0  0  0
  153.4104  141.2728  159.8329 C   0  0  0  0  0  0  0  0  0  0  0  0
  154.3158  140.0615  159.9545 C   0  0  0  0  0  0  0  0  0  0  0  0
  152.5331  141.3937  158.7302 C   0  0  0  0  0  0  0  0  0  0  0  0
  152.5440  140.3784  157.7956 O   0  0  0  0  0  0  0  0  0  0  0  0
  151.6135  140.4321  156.7221 C   0  0  0  0  0  0  0  0  0  0  0  0
  151.7178  139.1298  155.9094 C   0  0  2  0  0  0  0  0  0  0  0  0
  152.8941  139.2261  155.1299 O   0  0  0  0  0  0  0  0  0  0  0  0
  150.5188  138.9503  154.9514 C   0  0  0  0  0  0  0  0  0  0  0  0
  149.2342  139.0522  155.6555 N   0  0  0  0  0  0  0  0  0  0  0  0
  149.1244  138.2148  156.7490 N   0  0  0  0  0  0  0  0  0  0  0  0
  148.0521  138.1857  157.4701 C   0  0  0  0  0  0  0  0  0  0  0  0
  148.0462  137.2330  158.6352 C   0  0  0  0  0  0  0  0  0  0  0  0
  146.9293  139.0540  157.1309 C   0  0  0  0  0  0  0  0  0  0  0  0
  145.6940  138.9811  158.0179 C   0  0  0  0  0  0  0  0  0  0  0  0
  147.0462  139.8652  156.0499 C   0  0  0  0  0  0  0  0  0  0  0  0
  145.9987  140.7433  155.6381 C   0  0  0  0  0  0  0  0  0  0  0  0
  145.1519  141.4491  155.2848 N   0  0  0  0  0  0  0  0  0  0  0  0
  148.2558  139.8982  155.2247 C   0  0  0  0  0  0  0  0  0  0  0  0
  148.3877  140.6143  154.2312 O   0  0  0  0  0  0  0  0  0  0  0  0
  151.6973  142.5365  158.6425 C   0  0  0  0  0  0  0  0  0  0  0  0
  151.1691  145.5514  160.1821 H   0  0  0  0  0  0  0  0  0  0  0  0
  149.8153  144.4833  159.7927 H   0  0  0  0  0  0  0  0  0  0  0  0
  150.8351  145.1309  158.5012 H   0  0  0  0  0  0  0  0  0  0  0  0
  152.6553  144.1645  161.4931 H   0  0  0  0  0  0  0  0  0  0  0  0
  154.1201  142.1808  161.6672 H   0  0  0  0  0  0  0  0  0  0  0  0
  154.9635  139.9830  159.0807 H   0  0  0  0  0  0  0  0  0  0  0  0
  153.7204  139.1506  160.0246 H   0  0  0  0  0  0  0  0  0  0  0  0
  154.9486  140.1218  160.8407 H   0  0  0  0  0  0  0  0  0  0  0  0
  150.6130  140.5170  157.1490 H   0  0  0  0  0  0  0  0  0  0  0  0
  151.7794  141.3026  156.0844 H   0  0  0  0  0  0  0  0  0  0  0  0
  151.7867  138.2803  156.5906 H   0  0  0  0  0  0  0  0  0  0  0  0
  153.4281  138.4638  155.2947 H   0  0  0  0  0  0  0  0  0  0  0  0
  150.5380  139.7377  154.1956 H   0  0  0  0  0  0  0  0  0  0  0  0
  150.6039  138.0231  154.3810 H   0  0  0  0  0  0  0  0  0  0  0  0
  147.1966  136.5521  158.5758 H   0  0  0  0  0  0  0  0  0  0  0  0
  147.9800  137.7765  159.5780 H   0  0  0  0  0  0  0  0  0  0  0  0
  148.9518  136.6249  158.6682 H   0  0  0  0  0  0  0  0  0  0  0  0
  144.9395  139.7151  157.7362 H   0  0  0  0  0  0  0  0  0  0  0  0
  145.9559  139.1685  159.0599 H   0  0  0  0  0  0  0  0  0  0  0  0
  145.2350  137.9942  157.9503 H   0  0  0  0  0  0  0  0  0  0  0  0
  151.0113  142.6682  157.8198 H   0  0  0  0  0  0  0  0  0  0  0  0
  1  2  1  0  0  0  0
  1 25  1  0  0  0  0
  1 26  1  0  0  0  0
  1 27  1  0  0  0  0
  2 24  1  0  0  0  0
  2  3  2  0  0  0  0
  3  4  1  0  0  0  0
  3 28  1  0  0  0  0
  4  5  2  0  0  0  0
  4 29  1  0  0  0  0
  5  6  1  0  0  0  0
  5  7  1  0  0  0  0
  6 30  1  0  0  0  0
  6 31  1  0  0  0  0
  6 32  1  0  0  0  0
  7  8  1  0  0  0  0
  7 24  2  0  0  0  0
  8  9  1  0  0  0  0
  9 10  1  0  0  0  0
  9 33  1  0  0  0  0
  9 34  1  0  0  0  0
 10 11  1  0  0  0  0
 10 12  1  0  0  0  0
 10 35  1  0  0  0  0
 11 36  1  0  0  0  0
 12 13  1  0  0  0  0
 12 37  1  0  0  0  0
 12 38  1  0  0  0  0
 13 22  1  0  0  0  0
 13 14  1  0  0  0  0
 14 15  2  0  0  0  0
 15 16  1  0  0  0  0
 15 17  1  0  0  0  0
 16 39  1  0  0  0  0
 16 40  1  0  0  0  0
 16 41  1  0  0  0  0
 17 18  1  0  0  0  0
 17 19  2  0  0  0  0
 18 42  1  0  0  0  0
 18 43  1  0  0  0  0
 18 44  1  0  0  0  0
 19 20  1  0  0  0  0
 19 22  1  0  0  0  0
 20 21  3  0  0  0  0
 22 23  2  0  0  0  0
 24 45  1  0  0  0  0
M  END
> <s_m_source_file>
AV-unprocessed.smi

> <i_m_source_file_index>
444

> <i_lp_mmshare_version>
43012

> <i_f3d_flags>
0

> <s_epik_input>
W0NIM11jMVtjSF1bY0hdYyhbQ0gzXSljKFtjSF0xKU9bQ0gyXVtDQEhdKFtPSF0pW0NIMl1uMm5jKFtDSDNdKWMoW0NIM10pYyhDI04pYzI9Tw==

> <s_epik_cmdline>
J2VwaWtfcHl0aG9uJywgJy1waCcsICc3LjAnLCAnLXRuJywgJzgnLCAnLW1hJywgJzIwMCcsICctbWV0YWxfYmluZGluZycsICctaW1hZScsICc8aW5maWxlLm1hZT4nLCAnLW9tYWUnLCAnPG91dGZpbGUubWFlPic=

> <r_lp_tautomer_probability>
1

> <r_epik_Ionization_Penalty>
1.17331e-07

> <r_epik_Ionization_Penalty_Charging>
1.57223e-10

> <r_epik_Ionization_Penalty_Neutral>
1.17174e-07

> <r_epik_State_Penalty>
-0

> <r_epik_Charging_Adjusted_Penalty>
1.57223e-10

> <i_epik_Tot_Q>
0

> <i_epik_Tot_abs_Q>
0

> <r_epik_Metal_State_Penalty>
-0

> <b_epik_Metal_Only>
0

> <s_lp_Force_Field>
OPLS_2005

> <r_lp_Energy>
32.4723

> <b_lp_Chiralities_Consistent>
1

> <s_lp_Variant>
AV-unprocessed.smi:444-1

> <Gold.Version>
5.8.1

> <Gold.Id.Protein>
6NUR|6NUR_protein|mol2

> <Gold.PLP.Fitness>
50.2310

> <Gold.PLP.PLP>
-44.7848

> <Gold.PLP.part.hbond>
-3.7811

> <Gold.PLP.part.metal>
0.0000

> <Gold.PLP.part.buried>
-5.7974

> <Gold.PLP.part.nonpolar>
-37.7710

> <Gold.PLP.part.repulsive>
3.0667

> <Gold.PLP.ligand.clash>
0.0000

> <Gold.PLP.ligand.torsion>
0.2190

> <Gold.PLP.Chemscore.Hbond>
1.9571

> <Gold.PLP.Chemscore.CHOScore>
0.0000

> <Gold.PLP.Chemscore.Metal>
0.0000

> <Gold.Chemscore.Hbonds>
donor molecule, donor type, donor heavy atom, donor atom, acceptor molecule, acceptor atom, score
      P1  H  7997  8008       L1    11  0.15

> <Gold.PLP.Chemscore.Internal.Correction>
0.0129

> <Gold.Rescore>
     Score         DG    S(hbond)    S(metal)    S(lipo)     H(rot)  DE(clash)    DE(int)     intcor
     17.63     -18.04       1.82        0.00     105.48       2.29       0.07       0.35       ----

> <Gold.Chemscore.Fitness>
17.6298

> <Gold.Chemscore.DG>
-18.0436

> <Gold.Chemscore.ZeroCoef>
-5.4800

> <Gold.Chemscore.Hbond>
1.8222

> <Gold.Chemscore.Metal>
0.0000

> <Gold.Chemscore.Lipo>
105.4800

> <Gold.Chemscore.Internal_Hbond>
0.0000

> <Gold.Chemscore.DEClash>
0.0659

> <Gold.Chemscore.DEInternal>
0.3479

> <Gold.Chemscore.Rot>
2.2905

> <Gold.Chemscore.Internal.Correction>
   9.000000E+99

> <Gold.Chemscore.Hbond.Weighted>
-6.0860

> <Gold.Chemscore.Metal.Weighted>
-0.0000

> <Gold.Chemscore.Lipo.Weighted>
-12.3412

> <Gold.Chemscore.Internal_Hbond.Weighted>
0.0000

> <Gold.Chemscore.DEClash.Weighted>
0.0659

> <Gold.Chemscore.DEInternal.Weighted>
0.3479

> <Gold.Chemscore.Rot.Weighted>
5.8636

> <Gold.Chemscore.Internal.Correction.Weighted>
   9.000000E+99

> <Gold.Protein.RotatedTorsions>
[ 6907 6896 6895 6894 ] final   74.70 input  -60.11 | X-H torsion
[ 7974 7965 7964 7962 ] final  -68.75 input  175.53 | X-H torsion
[ 8008 7997 7996 7995 ] final  -17.34 input   59.86 | X-H torsion
[ 10167 10162 10161 10158 ] final   45.77 input  -65.29 | X-H torsion
[ 10718 10713 10712 10709 ] final -169.23 input   66.30 | X-H torsion
[ 10763 10752 10751 10750 ] final -132.48 input  -60.55 | X-H torsion
[ 11005 11000 10999 10996 ] final -175.50 input  -57.11 | X-H torsion

> <Gold.Protein.ActiveResidues>
 VAL166  LYS551  ARG553  GLY616  TRP617  ASP618  TYR619  PRO620  LYS621  CYS622 
 ASP623  PHE694  ASN695  SER759  ASP760  ASP761  ALA762  ILE779  LEU786  VAL792 
 PHE793  MET794  SER795  GLU796  ALA797  LYS798  CYS799  TRP800  GLU811  SER814 

> <Gold.Protein.RotatedAtoms>
  152.4989  134.4232  159.9487 H   0  0  0  0  0  0  0  0  0  0  0  0  # atno 6907 bound_to 6896
  151.4206  133.3693  159.2763 H   0  0  0  0  0  0  0  0  0  0  0  0  # atno 6908 bound_to 6896
  150.9225  134.8665  159.7558 H   0  0  0  0  0  0  0  0  0  0  0  0  # atno 6909 bound_to 6896
  145.7126  140.9072  143.0673 H   0  0  0  0  0  0  0  0  0  0  0  0  # atno 7974 bound_to 7965
  154.4985  140.2145  155.9396 H   0  0  0  0  0  0  0  0  0  0  0  0  # atno 8008 bound_to 7997
  156.1403  140.3181  155.8452 H   0  0  0  0  0  0  0  0  0  0  0  0  # atno 8009 bound_to 7997
  155.4133  140.0492  157.3021 H   0  0  0  0  0  0  0  0  0  0  0  0  # atno 8010 bound_to 7997
  140.3207  144.2709  150.6183 H   0  0  0  0  0  0  0  0  0  0  0  0  # atno 10167 bound_to 10162
  156.7085  130.9224  151.3087 H   0  0  0  0  0  0  0  0  0  0  0  0  # atno 10718 bound_to 10713
  154.8742  135.3796  154.4417 H   0  0  0  0  0  0  0  0  0  0  0  0  # atno 10763 bound_to 10752
  153.5101  135.7029  153.5790 H   0  0  0  0  0  0  0  0  0  0  0  0  # atno 10764 bound_to 10752
  153.4084  135.3931  155.2000 H   0  0  0  0  0  0  0  0  0  0  0  0  # atno 10765 bound_to 10752
  140.4626  134.6240  157.4849 H   0  0  0  0  0  0  0  0  0  0  0  0  # atno 11005 bound_to 11000
  144.6938  139.9094  143.7462 LP  0  0  0  0  0  0  0  0  0  0  0  0  # atno 17320 bound_to 7965
  146.0699  139.3688  143.0529 LP  0  0  0  0  0  0  0  0  0  0  0  0  # atno 17321 bound_to 7965
  140.5486  143.2210  151.7965 LP  0  0  0  0  0  0  0  0  0  0  0  0  # atno 17342 bound_to 10162
  139.4875  144.4506  151.9658 LP  0  0  0  0  0  0  0  0  0  0  0  0  # atno 17343 bound_to 10162
  157.6945  130.9268  150.0606 LP  0  0  0  0  0  0  0  0  0  0  0  0  # atno 17370 bound_to 10713
  156.1678  130.3645  149.9208 LP  0  0  0  0  0  0  0  0  0  0  0  0  # atno 17371 bound_to 10713
  139.9936  134.6947  155.9648 LP  0  0  0  0  0  0  0  0  0  0  0  0  # atno 17394 bound_to 11000
  141.1614  133.6538  156.4332 LP  0  0  0  0  0  0  0  0  0  0  0  0  # atno 17395 bound_to 11000

$$$$
