AV-unprocessed.smi:2882|AV-procd|sdf|11071|dock2
  -GOLD-   2272015543D 1   1.00000     0.00000
 Structure written by MMmdl.
 28 30  0  0  0  0  0  0  0  0  1 V2000
  153.2033  138.8816  156.2825 N   0  0  0  0  0  0  0  0  0  0  0  0
  152.2587  139.5182  156.0783 C   0  0  0  0  0  0  0  0  0  0  0  0
  151.0685  140.3189  155.8215 C   0  0  0  0  0  0  0  0  0  0  0  0
  150.4407  140.1127  154.6405 N   0  0  0  0  0  0  0  0  0  0  0  0
  149.3386  140.8505  154.3893 C   0  0  0  0  0  0  0  0  0  0  0  0
  148.8584  141.7977  155.3141 C   0  0  0  0  0  0  0  0  0  0  0  0
  149.4780  142.0100  156.4943 N   0  0  0  0  0  0  0  0  0  0  0  0
  150.5874  141.2754  156.7596 C   0  0  0  0  0  0  0  0  0  0  0  0
  151.2423  141.4830  157.9875 N   0  0  0  0  0  0  0  0  0  0  0  0
  151.1163  142.7432  158.7117 C   0  0  2  0  0  0  0  0  0  0  0  0
  151.3800  143.9710  157.8304 C   0  0  0  0  0  0  0  0  0  0  0  0
  152.5065  144.6759  158.5960 C   0  0  1  0  0  0  0  0  0  0  0  0
  152.0247  145.2672  159.9279 C   0  0  0  0  0  0  0  0  0  0  0  0
  151.8443  144.0111  160.7797 C   0  0  0  0  0  0  0  0  0  0  0  0
  152.2066  142.8996  159.7855 C   0  0  2  0  0  0  0  0  0  0  0  0
  153.2342  143.5510  159.0558 O   0  0  0  0  0  0  0  0  0  0  0  0
  148.8377  140.6846  153.4468 H   0  0  0  0  0  0  0  0  0  0  0  0
  147.9757  142.3847  155.1077 H   0  0  0  0  0  0  0  0  0  0  0  0
  151.9812  140.8513  158.2623 H   0  0  0  0  0  0  0  0  0  0  0  0
  150.1320  142.7909  159.1800 H   0  0  0  0  0  0  0  0  0  0  0  0
  151.7247  143.6862  156.8349 H   0  0  0  0  0  0  0  0  0  0  0  0
  150.4974  144.6007  157.7137 H   0  0  0  0  0  0  0  0  0  0  0  0
  153.0877  145.3687  157.9871 H   0  0  0  0  0  0  0  0  0  0  0  0
  152.7834  145.9183  160.3635 H   0  0  0  0  0  0  0  0  0  0  0  0
  151.1039  145.8408  159.8163 H   0  0  0  0  0  0  0  0  0  0  0  0
  152.5382  144.0175  161.6210 H   0  0  0  0  0  0  0  0  0  0  0  0
  150.8327  143.9069  161.1732 H   0  0  0  0  0  0  0  0  0  0  0  0
  152.5086  141.9677  160.2652 H   0  0  0  0  0  0  0  0  0  0  0  0
  1  2  3  0  0  0  0
  2  3  1  0  0  0  0
  3  8  1  0  0  0  0
  3  4  2  0  0  0  0
  4  5  1  0  0  0  0
  5  6  2  0  0  0  0
  5 17  1  0  0  0  0
  6  7  1  0  0  0  0
  6 18  1  0  0  0  0
  7  8  2  0  0  0  0
  8  9  1  0  0  0  0
  9 10  1  0  0  0  0
  9 19  1  0  0  0  0
 10 15  1  0  0  0  0
 10 11  1  0  0  0  0
 10 20  1  0  0  0  0
 11 12  1  0  0  0  0
 11 21  1  0  0  0  0
 11 22  1  0  0  0  0
 12 16  1  0  0  0  0
 12 13  1  0  0  0  0
 12 23  1  0  0  0  0
 13 14  1  0  0  0  0
 13 24  1  0  0  0  0
 13 25  1  0  0  0  0
 14 15  1  0  0  0  0
 14 26  1  0  0  0  0
 14 27  1  0  0  0  0
 15 16  1  0  0  0  0
 15 28  1  0  0  0  0
M  END
> <s_m_source_file>
AV-unprocessed.smi

> <i_m_source_file_index>
2882

> <i_lp_mmshare_version>
43012

> <i_f3d_flags>
0

> <s_epik_input>
TiNDYzFuW2NIXVtjSF1uYzFbTkhdW0NASF0oW0NIMl1bQ0BASF0yMylbQ0BASF0oTzMpW0NIMl1bQ0gyXTI=

> <s_epik_cmdline>
J2VwaWtfcHl0aG9uJywgJy1waCcsICc3LjAnLCAnLXRuJywgJzgnLCAnLW1hJywgJzIwMCcsICctbWV0YWxfYmluZGluZycsICctaW1hZScsICc8aW5maWxlLm1hZT4nLCAnLW9tYWUnLCAnPG91dGZpbGUubWFlPic=

> <r_lp_tautomer_probability>
1

> <r_epik_Ionization_Penalty>
4.95445e-05

> <r_epik_Ionization_Penalty_Charging>
0

> <r_epik_Ionization_Penalty_Neutral>
4.95445e-05

> <r_epik_State_Penalty>
-0

> <r_epik_Charging_Adjusted_Penalty>
0

> <i_epik_Tot_Q>
0

> <i_epik_Tot_abs_Q>
0

> <r_epik_Metal_State_Penalty>
-0

> <b_epik_Metal_Only>
0

> <s_lp_Force_Field>
OPLS_2005

> <r_lp_Energy>
50.0651

> <b_lp_Chiralities_Consistent>
1

> <s_lp_Variant>
AV-unprocessed.smi:2882-1

> <Gold.Version>
5.8.1

> <Gold.Id.Protein>
6NUR|6NUR_protein|mol2

> <Gold.PLP.Fitness>
45.8217

> <Gold.PLP.PLP>
-36.3001

> <Gold.PLP.part.hbond>
-2.0000

> <Gold.PLP.part.metal>
0.0000

> <Gold.PLP.part.buried>
-2.6529

> <Gold.PLP.part.nonpolar>
-33.6322

> <Gold.PLP.part.repulsive>
1.6408

> <Gold.PLP.ligand.clash>
0.0000

> <Gold.PLP.ligand.torsion>
0.2815

> <Gold.PLP.Chemscore.Hbond>
2.0000

> <Gold.PLP.Chemscore.CHOScore>
1.3543

> <Gold.PLP.Chemscore.Metal>
0.0000

> <Gold.Chemscore.Hbonds>
donor molecule, donor type, donor heavy atom, donor atom, acceptor molecule, acceptor atom, score
      P1  H  7989  7998       L1     4  1.00
      P1  H  7997  8010       L1     1  1.00
      L1  C     5    17       P1  7957  1.00
      L1  C     6    18       P1  8028  0.40

> <Gold.PLP.Chemscore.Internal.Correction>
0.0216

> <Gold.Rescore>
     Score         DG    S(hbond)    S(metal)    S(lipo)     H(rot)  DE(clash)    DE(int)     intcor
     15.97     -16.24       0.90        0.00      88.09       1.00       0.00       0.26       ----

> <Gold.Chemscore.Fitness>
15.9730

> <Gold.Chemscore.DG>
-16.2380

> <Gold.Chemscore.ZeroCoef>
-5.4800

> <Gold.Chemscore.Hbond>
0.9016

> <Gold.Chemscore.Metal>
0.0000

> <Gold.Chemscore.Lipo>
88.0907

> <Gold.Chemscore.Internal_Hbond>
0.0000

> <Gold.Chemscore.DEClash>
0.0038

> <Gold.Chemscore.DEInternal>
0.2612

> <Gold.Chemscore.Rot>
1.0000

> <Gold.Chemscore.Internal.Correction>
   9.000000E+99

> <Gold.Chemscore.Hbonds>
donor molecule, donor type, donor heavy atom, donor atom, acceptor molecule, acceptor atom, score
      P1  H  7989  7998       L1     4  0.09
      P1  H  7997  8010       L1     1  0.30

> <Gold.Chemscore.Hbond.Weighted>
-3.0114

> <Gold.Chemscore.Metal.Weighted>
-0.0000

> <Gold.Chemscore.Lipo.Weighted>
-10.3066

> <Gold.Chemscore.Internal_Hbond.Weighted>
0.0000

> <Gold.Chemscore.DEClash.Weighted>
0.0038

> <Gold.Chemscore.DEInternal.Weighted>
0.2612

> <Gold.Chemscore.Rot.Weighted>
2.5600

> <Gold.Chemscore.Internal.Correction.Weighted>
   9.000000E+99

> <Gold.Protein.RotatedTorsions>
[ 6907 6896 6895 6894 ] final  -38.59 input  -60.11 | X-H torsion
[ 7974 7965 7964 7962 ] final  -89.36 input  175.53 | X-H torsion
[ 8008 7997 7996 7995 ] final   70.03 input   59.86 | X-H torsion
[ 10167 10162 10161 10158 ] final   44.64 input  -65.29 | X-H torsion
[ 10718 10713 10712 10709 ] final  122.20 input   66.30 | X-H torsion
[ 10763 10752 10751 10750 ] final  107.29 input  -60.55 | X-H torsion
[ 11005 11000 10999 10996 ] final -152.51 input  -57.11 | X-H torsion

> <Gold.Protein.ActiveResidues>
 VAL166  LYS551  ARG553  GLY616  TRP617  ASP618  TYR619  PRO620  LYS621  CYS622 
 ASP623  PHE694  ASN695  SER759  ASP760  ASP761  ALA762  ILE779  LEU786  VAL792 
 PHE793  MET794  SER795  GLU796  ALA797  LYS798  CYS799  TRP800  GLU811  SER814 

> <Gold.Protein.RotatedAtoms>
  151.0006  134.9319  159.7951 H   0  0  0  0  0  0  0  0  0  0  0  0  # atno 6907 bound_to 6896
  152.5276  134.3160  159.9141 H   0  0  0  0  0  0  0  0  0  0  0  0  # atno 6908 bound_to 6896
  151.3165  133.4016  159.2685 H   0  0  0  0  0  0  0  0  0  0  0  0  # atno 6909 bound_to 6896
  145.4408  140.9559  143.2076 H   0  0  0  0  0  0  0  0  0  0  0  0  # atno 7974 bound_to 7965
  155.7326  140.3491  155.5066 H   0  0  0  0  0  0  0  0  0  0  0  0  # atno 8008 bound_to 7997
  155.9168  140.1060  157.1259 H   0  0  0  0  0  0  0  0  0  0  0  0  # atno 8009 bound_to 7997
  154.4064  140.1257  156.4615 H   0  0  0  0  0  0  0  0  0  0  0  0  # atno 8010 bound_to 7997
  140.3322  144.2574  150.6166 H   0  0  0  0  0  0  0  0  0  0  0  0  # atno 10167 bound_to 10162
  157.5760  131.1079  150.8277 H   0  0  0  0  0  0  0  0  0  0  0  0  # atno 10718 bound_to 10713
  153.4047  135.3849  155.2010 H   0  0  0  0  0  0  0  0  0  0  0  0  # atno 10763 bound_to 10752
  154.8732  135.3779  154.4575 H   0  0  0  0  0  0  0  0  0  0  0  0  # atno 10764 bound_to 10752
  153.5077  135.7087  153.5860 H   0  0  0  0  0  0  0  0  0  0  0  0  # atno 10765 bound_to 10752
  140.7181  134.3758  157.5188 H   0  0  0  0  0  0  0  0  0  0  0  0  # atno 11005 bound_to 11000
  144.8123  139.5940  143.7024 LP  0  0  0  0  0  0  0  0  0  0  0  0  # atno 17320 bound_to 7965
  146.2557  139.6298  142.9396 LP  0  0  0  0  0  0  0  0  0  0  0  0  # atno 17321 bound_to 7965
  140.5386  143.2228  151.8122 LP  0  0  0  0  0  0  0  0  0  0  0  0  # atno 17342 bound_to 10162
  139.4854  144.4629  151.9519 LP  0  0  0  0  0  0  0  0  0  0  0  0  # atno 17343 bound_to 10162
  156.8736  130.5155  149.5295 LP  0  0  0  0  0  0  0  0  0  0  0  0  # atno 17370 bound_to 10713
  156.0805  130.5817  150.9554 LP  0  0  0  0  0  0  0  0  0  0  0  0  # atno 17371 bound_to 10713
  139.8855  134.8936  156.2640 LP  0  0  0  0  0  0  0  0  0  0  0  0  # atno 17394 bound_to 11000
  141.0027  133.7142  156.0986 LP  0  0  0  0  0  0  0  0  0  0  0  0  # atno 17395 bound_to 11000

$$$$
