AV-unprocessed.smi:250|AV-procd|sdf|1932|dock1
  -GOLD-   2262021 53D 1   1.00000     0.00000
 Structure written by MMmdl.
 56 60  0  0  0  0  0  0  0  0  1 V2000
  145.3586  130.5943  151.3821 C   0  0  0  0  0  0  0  0  0  0  0  0
  144.8308  131.9294  151.1335 N   0  0  0  0  0  0  0  0  0  0  0  0
  143.8292  132.2718  150.2959 C   0  0  0  0  0  0  0  0  0  0  0  0
  143.1563  131.5039  149.6110 O   0  0  0  0  0  0  0  0  0  0  0  0
  143.6870  133.6082  150.3311 N   0  0  0  0  0  0  0  0  0  0  0  0
  144.4512  134.1573  151.4273 C   0  0  2  0  0  0  0  0  0  0  0  0
  145.0927  135.5400  151.3392 C   0  0  0  0  0  0  0  0  0  0  0  0
  145.8643  135.7476  152.5768 N   0  0  0  0  0  0  0  0  0  0  0  0
  146.2442  137.0315  152.8045 C   0  0  0  0  0  0  0  0  0  0  0  0
  145.8888  138.0049  151.9232 N   0  0  0  0  0  0  0  0  0  0  0  0
  146.2459  139.2745  152.1359 C   0  0  0  0  0  0  0  0  0  0  0  0
  146.9484  139.7843  153.1484 N   0  0  0  0  0  0  0  0  0  0  0  0
  147.3149  138.8149  154.0343 C   0  0  0  0  0  0  0  0  0  0  0  0
  147.0125  137.4264  153.9374 C   0  0  0  0  0  0  0  0  0  0  0  0
  147.5771  136.7470  155.0106 N   0  0  0  0  0  0  0  0  0  0  0  0
  148.1681  137.6799  155.7056 C   0  0  0  0  0  0  0  0  0  0  0  0
  148.0463  138.9551  155.2014 N   0  0  0  0  0  0  0  0  0  0  0  0
  148.6053  140.1740  155.7700 C   0  0  0  0  0  0  0  0  0  0  0  0
  150.1534  140.1659  155.9463 C   0  0  0  0  0  0  0  0  0  0  0  0
  150.7228  141.6138  155.9265 C   0  0  0  0  0  0  0  0  0  0  0  0
  150.1068  142.4449  156.8900 O   0  0  0  0  0  0  0  0  0  0  0  0
  150.4883  139.4473  157.2776 C   0  0  0  0  0  0  0  0  0  0  0  0
  151.9845  139.1162  157.4241 C   0  0  0  0  0  0  0  0  0  0  0  0
  152.4165  138.3305  156.3211 O   0  0  0  0  0  0  0  0  0  0  0  0
  152.2854  139.0067  155.0776 C   0  0  0  0  0  0  0  0  0  0  0  0
  150.8058  139.3392  154.8095 C   0  0  0  0  0  0  0  0  0  0  0  0
  146.7977  134.6792  152.9963 C   0  0  0  0  0  0  0  0  0  0  0  0
  146.1736  133.2588  152.9307 C   0  0  0  0  0  0  0  0  0  0  0  0
  145.5439  133.1224  151.5442 C   0  0  1  0  0  0  0  0  0  0  0  0
  143.7938  134.1312  152.3004 H   0  0  0  0  0  0  0  0  0  0  0  0
  146.3176  133.2908  150.7902 H   0  0  0  0  0  0  0  0  0  0  0  0
  144.7531  129.8201  150.9092 H   0  0  0  0  0  0  0  0  0  0  0  0
  145.3826  130.3944  152.4534 H   0  0  0  0  0  0  0  0  0  0  0  0
  146.3750  130.5135  150.9964 H   0  0  0  0  0  0  0  0  0  0  0  0
  142.9931  134.1299  149.8155 H   0  0  0  0  0  0  0  0  0  0  0  0
  145.7570  135.6089  150.4767 H   0  0  0  0  0  0  0  0  0  0  0  0
  144.3177  136.2938  151.2099 H   0  0  0  0  0  0  0  0  0  0  0  0
  145.9208  139.9836  151.3888 H   0  0  0  0  0  0  0  0  0  0  0  0
  148.7094  137.4623  156.6147 H   0  0  0  0  0  0  0  0  0  0  0  0
  148.3017  141.0080  155.1359 H   0  0  0  0  0  0  0  0  0  0  0  0
  148.1182  140.3481  156.7305 H   0  0  0  0  0  0  0  0  0  0  0  0
  151.7938  141.6276  156.1206 H   0  0  0  0  0  0  0  0  0  0  0  0
  150.5939  142.0695  154.9449 H   0  0  0  0  0  0  0  0  0  0  0  0
  149.6659  143.1500  156.4406 H   0  0  0  0  0  0  0  0  0  0  0  0
  150.1551  140.0384  158.1312 H   0  0  0  0  0  0  0  0  0  0  0  0
  149.9324  138.5101  157.3323 H   0  0  0  0  0  0  0  0  0  0  0  0
  152.5907  140.0187  157.5075 H   0  0  0  0  0  0  0  0  0  0  0  0
  152.1483  138.5473  158.3393 H   0  0  0  0  0  0  0  0  0  0  0  0
  152.9077  139.9017  155.0678 H   0  0  0  0  0  0  0  0  0  0  0  0
  152.6660  138.3573  154.2893 H   0  0  0  0  0  0  0  0  0  0  0  0
  150.2675  138.3980  154.6912 H   0  0  0  0  0  0  0  0  0  0  0  0
  150.7190  139.8602  153.8553 H   0  0  0  0  0  0  0  0  0  0  0  0
  147.6769  134.7122  152.3511 H   0  0  0  0  0  0  0  0  0  0  0  0
  147.1441  134.8726  154.0125 H   0  0  0  0  0  0  0  0  0  0  0  0
  146.9402  132.5000  153.0899 H   0  0  0  0  0  0  0  0  0  0  0  0
  145.4249  133.1290  153.7131 H   0  0  0  0  0  0  0  0  0  0  0  0
  1  2  1  0  0  0  0
  1 32  1  0  0  0  0
  1 33  1  0  0  0  0
  1 34  1  0  0  0  0
  2 29  1  0  0  0  0
  2  3  1  0  0  0  0
  3  4  2  0  0  0  0
  3  5  1  0  0  0  0
  5  6  1  0  0  0  0
  5 35  1  0  0  0  0
  6 30  1  0  0  0  0
  6 29  1  0  0  0  0
  6  7  1  0  0  0  0
  7  8  1  0  0  0  0
  7 36  1  0  0  0  0
  7 37  1  0  0  0  0
  8  9  1  0  0  0  0
  8 27  1  0  0  0  0
  9 14  1  0  0  0  0
  9 10  2  0  0  0  0
 10 11  1  0  0  0  0
 11 12  2  0  0  0  0
 11 38  1  0  0  0  0
 12 13  1  0  0  0  0
 13 17  1  0  0  0  0
 13 14  2  0  0  0  0
 14 15  1  0  0  0  0
 15 16  2  0  0  0  0
 16 17  1  0  0  0  0
 16 39  1  0  0  0  0
 17 18  1  0  0  0  0
 18 19  1  0  0  0  0
 18 40  1  0  0  0  0
 18 41  1  0  0  0  0
 19 26  1  0  0  0  0
 19 20  1  0  0  0  0
 19 22  1  0  0  0  0
 20 21  1  0  0  0  0
 20 42  1  0  0  0  0
 20 43  1  0  0  0  0
 21 44  1  0  0  0  0
 22 23  1  0  0  0  0
 22 45  1  0  0  0  0
 22 46  1  0  0  0  0
 23 24  1  0  0  0  0
 23 47  1  0  0  0  0
 23 48  1  0  0  0  0
 24 25  1  0  0  0  0
 25 26  1  0  0  0  0
 25 49  1  0  0  0  0
 25 50  1  0  0  0  0
 26 51  1  0  0  0  0
 26 52  1  0  0  0  0
 27 28  1  0  0  0  0
 27 53  1  0  0  0  0
 27 54  1  0  0  0  0
 28 29  1  0  0  0  0
 28 55  1  0  0  0  0
 28 56  1  0  0  0  0
 29 31  1  0  0  0  0
M  END
> <s_m_source_file>
AV-unprocessed.smi

> <i_m_source_file_index>
250

> <i_lp_mmshare_version>
43012

> <i_f3d_flags>
0

> <s_epik_input>
Tz1DKFtOSF0xKU4oW0NIM10pW0NASF0oW0NASF0xMilbQ0gyXVtDSDJdTihbQ0gyXTIpYyhuW2NIXW4zKWMoYzM0KW5bY0hdbjRbQ0gyXUM1KFtDSDJdW09IXSlbQ0gyXVtDSDJdT1tDSDJdW0NIMl01

> <s_epik_cmdline>
J2VwaWtfcHl0aG9uJywgJy1waCcsICc3LjAnLCAnLXRuJywgJzgnLCAnLW1hJywgJzIwMCcsICctbWV0YWxfYmluZGluZycsICctaW1hZScsICc8aW5maWxlLm1hZT4nLCAnLW9tYWUnLCAnPG91dGZpbGUubWFlPic=

> <r_lp_tautomer_probability>
1

> <r_epik_Ionization_Penalty>
0.00229024

> <r_epik_Ionization_Penalty_Charging>
0

> <r_epik_Ionization_Penalty_Neutral>
0.00229024

> <r_epik_State_Penalty>
0.0013961

> <r_epik_Charging_Adjusted_Penalty>
0.0013961

> <i_epik_Tot_Q>
0

> <i_epik_Tot_abs_Q>
0

> <r_epik_Metal_State_Penalty>
-0

> <b_epik_Metal_Only>
0

> <s_lp_Force_Field>
OPLS_2005

> <r_lp_Energy>
71.8921

> <b_lp_Chiralities_Consistent>
1

> <s_lp_Variant>
AV-unprocessed.smi:250-3

> <Gold.Version>
5.8.1

> <Gold.Id.Protein>
6NUR|6NUR_protein|mol2

> <Gold.PLP.Fitness>
40.7530

> <Gold.PLP.PLP>
-32.2778

> <Gold.PLP.part.hbond>
-3.0000

> <Gold.PLP.part.metal>
0.0000

> <Gold.PLP.part.buried>
-0.4998

> <Gold.PLP.part.nonpolar>
-33.7044

> <Gold.PLP.part.repulsive>
4.8945

> <Gold.PLP.ligand.clash>
0.0000

> <Gold.PLP.ligand.torsion>
0.6788

> <Gold.PLP.Chemscore.Hbond>
2.8590

> <Gold.PLP.Chemscore.CHOScore>
0.3075

> <Gold.PLP.Chemscore.Metal>
0.0000

> <Gold.Chemscore.Hbonds>
donor molecule, donor type, donor heavy atom, donor atom, acceptor molecule, acceptor atom, score
      L1  H     5    35       P1 10186  0.90
      L1  H    21    44       P1  8028  1.00
      P1  H 10785 10796       L1     4  1.00
      L1  C    11    38       P1 10171  0.04
      L1  C    11    38       P1 10175  0.30

> <Gold.PLP.Chemscore.Internal.Correction>
0.3331

> <Gold.Rescore>
     Score         DG    S(hbond)    S(metal)    S(lipo)     H(rot)  DE(clash)    DE(int)     intcor
     12.10     -18.45       2.93        0.00      75.81       2.22       4.89       1.46       ----

> <Gold.Chemscore.Fitness>
12.0962

> <Gold.Chemscore.DG>
-18.4458

> <Gold.Chemscore.ZeroCoef>
-5.4800

> <Gold.Chemscore.Hbond>
2.9258

> <Gold.Chemscore.Metal>
0.0000

> <Gold.Chemscore.Lipo>
75.8060

> <Gold.Chemscore.Internal_Hbond>
0.0000

> <Gold.Chemscore.DEClash>
4.8898

> <Gold.Chemscore.DEInternal>
1.4599

> <Gold.Chemscore.Rot>
2.2170

> <Gold.Chemscore.Internal.Correction>
   9.000000E+99

> <Gold.Chemscore.Hbonds>
donor molecule, donor type, donor heavy atom, donor atom, acceptor molecule, acceptor atom, score
      L1  H     5    35       P1 10186  0.83
      L1  H    21    44       P1  8028  1.00
      P1  H 10785 10796       L1     4  0.99

> <Gold.Chemscore.Hbond.Weighted>
-9.7721

> <Gold.Chemscore.Metal.Weighted>
-0.0000

> <Gold.Chemscore.Lipo.Weighted>
-8.8693

> <Gold.Chemscore.Internal_Hbond.Weighted>
0.0000

> <Gold.Chemscore.DEClash.Weighted>
4.8898

> <Gold.Chemscore.DEInternal.Weighted>
1.4599

> <Gold.Chemscore.Rot.Weighted>
5.6756

> <Gold.Chemscore.Internal.Correction.Weighted>
   9.000000E+99

> <Gold.Protein.RotatedTorsions>
[ 6907 6896 6895 6894 ] final -104.99 input  -60.11 | X-H torsion
[ 7974 7965 7964 7962 ] final   87.84 input  175.53 | X-H torsion
[ 8008 7997 7996 7995 ] final -167.40 input   59.86 | X-H torsion
[ 10167 10162 10161 10158 ] final  -94.57 input  -65.29 | X-H torsion
[ 10718 10713 10712 10709 ] final  127.41 input   66.30 | X-H torsion
[ 10763 10752 10751 10750 ] final  155.30 input  -60.55 | X-H torsion
[ 11005 11000 10999 10996 ] final  154.75 input  -57.11 | X-H torsion

> <Gold.Protein.ActiveResidues>
 VAL166  LYS551  ARG553  GLY616  TRP617  ASP618  TYR619  PRO620  LYS621  CYS622 
 ASP623  PHE694  ASN695  SER759  ASP760  ASP761  ALA762  ILE779  LEU786  VAL792 
 PHE793  MET794  SER795  GLU796  ALA797  LYS798  CYS799  TRP800  GLU811  SER814 

> <Gold.Protein.RotatedAtoms>
  150.7314  134.0194  159.3695 H   0  0  0  0  0  0  0  0  0  0  0  0  # atno 6907 bound_to 6896
  151.8158  135.0665  160.0428 H   0  0  0  0  0  0  0  0  0  0  0  0  # atno 6908 bound_to 6896
  152.3040  133.5648  159.5673 H   0  0  0  0  0  0  0  0  0  0  0  0  # atno 6909 bound_to 6896
  145.5536  139.2297  143.2499 H   0  0  0  0  0  0  0  0  0  0  0  0  # atno 7974 bound_to 7965
  155.8772  140.1003  157.1510 H   0  0  0  0  0  0  0  0  0  0  0  0  # atno 8008 bound_to 7997
  154.4002  140.1336  156.4214 H   0  0  0  0  0  0  0  0  0  0  0  0  # atno 8009 bound_to 7997
  155.7684  140.3461  155.5236 H   0  0  0  0  0  0  0  0  0  0  0  0  # atno 8010 bound_to 7997
  140.3131  143.3093  152.0127 H   0  0  0  0  0  0  0  0  0  0  0  0  # atno 10167 bound_to 10162
  157.5335  131.1098  150.8972 H   0  0  0  0  0  0  0  0  0  0  0  0  # atno 10718 bound_to 10713
  154.1662  135.2807  155.3094 H   0  0  0  0  0  0  0  0  0  0  0  0  # atno 10763 bound_to 10752
  154.6110  135.5499  153.7476 H   0  0  0  0  0  0  0  0  0  0  0  0  # atno 10764 bound_to 10752
  153.0178  135.6415  154.1803 H   0  0  0  0  0  0  0  0  0  0  0  0  # atno 10765 bound_to 10752
  140.1518  134.8669  157.2464 H   0  0  0  0  0  0  0  0  0  0  0  0  # atno 11005 bound_to 11000
  146.1900  140.6360  142.9150 LP  0  0  0  0  0  0  0  0  0  0  0  0  # atno 17320 bound_to 7965
  144.7517  140.5207  143.6797 LP  0  0  0  0  0  0  0  0  0  0  0  0  # atno 17321 bound_to 7965
  139.4889  144.6369  151.6957 LP  0  0  0  0  0  0  0  0  0  0  0  0  # atno 17342 bound_to 10162
  140.5550  144.0362  150.6144 LP  0  0  0  0  0  0  0  0  0  0  0  0  # atno 17343 bound_to 10162
  156.9546  130.5432  149.5283 LP  0  0  0  0  0  0  0  0  0  0  0  0  # atno 17370 bound_to 10713
  156.0440  130.5519  150.8838 LP  0  0  0  0  0  0  0  0  0  0  0  0  # atno 17371 bound_to 10713
  140.2595  134.3587  155.7412 LP  0  0  0  0  0  0  0  0  0  0  0  0  # atno 17394 bound_to 11000
  141.2200  133.7361  156.9059 LP  0  0  0  0  0  0  0  0  0  0  0  0  # atno 17395 bound_to 11000

$$$$
