AV-unprocessed.smi:855|AV-procd|sdf|3958|dock6
  -GOLD-   22720 1433D 1   1.00000     0.00000
 Structure written by MMmdl.
 35 36  0  0  0  0  0  0  0  0  3 V2000
  153.3466  142.6252  161.1823 C   0  0  0  0  0  0  0  0  0  0  0  0
  152.9356  141.8599  159.9716 C   0  0  0  0  0  0  0  0  0  0  0  0
  152.0527  142.1198  158.9615 C   0  0  0  0  0  0  0  0  0  0  0  0
  152.1541  140.9647  158.1410 C   0  0  0  0  0  0  0  0  0  0  0  0
  151.3719  140.8435  156.9619 N   0  0  0  0  0  0  0  0  0  0  0  0
  151.5926  140.0747  155.8797 C   0  0  0  0  0  0  0  0  0  0  0  0
  152.5967  139.3554  155.8186 O   0  0  0  0  0  0  0  0  0  0  0  0
  150.6114  140.2081  154.9456 N   0  5  0  0  0  0  0  0  0  0  0  0
  149.9957  139.0916  154.2267 C   0  0  0  0  0  0  0  0  0  0  0  0
  148.6837  139.5573  153.5638 C   0  0  0  0  0  0  0  0  0  0  0  0
  147.8132  138.4256  153.1451 N   0  3  0  0  0  0  0  0  0  0  0  0
  147.1256  137.7326  154.2611 C   0  0  0  0  0  0  0  0  0  0  0  0
  145.6997  137.4205  153.7872 C   0  0  0  0  0  0  0  0  0  0  0  0
  145.7361  137.6401  152.2788 C   0  0  0  0  0  0  0  0  0  0  0  0
  146.7876  138.7325  152.1206 C   0  0  0  0  0  0  0  0  0  0  0  0
  153.0228  140.0806  158.6088 N   0  0  0  0  0  0  0  0  0  0  0  0
  153.5280  140.6498  159.7836 O   0  0  0  0  0  0  0  0  0  0  0  0
  152.7277  143.5133  161.3109 H   0  0  0  0  0  0  0  0  0  0  0  0
  154.3855  142.9450  161.1020 H   0  0  0  0  0  0  0  0  0  0  0  0
  153.2485  142.0126  162.0785 H   0  0  0  0  0  0  0  0  0  0  0  0
  151.4339  142.9954  158.8328 H   0  0  0  0  0  0  0  0  0  0  0  0
  150.5354  141.4070  156.9358 H   0  0  0  0  0  0  0  0  0  0  0  0
  150.6569  138.6971  153.4548 H   0  0  0  0  0  0  0  0  0  0  0  0
  149.7769  138.2530  154.8891 H   0  0  0  0  0  0  0  0  0  0  0  0
  148.1442  140.1724  154.2861 H   0  0  0  0  0  0  0  0  0  0  0  0
  148.8917  140.2048  152.7114 H   0  0  0  0  0  0  0  0  0  0  0  0
  147.6734  136.8193  154.4953 H   0  0  0  0  0  0  0  0  0  0  0  0
  147.0956  138.3422  155.1656 H   0  0  0  0  0  0  0  0  0  0  0  0
  145.3774  136.4142  154.0564 H   0  0  0  0  0  0  0  0  0  0  0  0
  145.0012  138.1247  154.2410 H   0  0  0  0  0  0  0  0  0  0  0  0
  146.0678  136.7296  151.7781 H   0  0  0  0  0  0  0  0  0  0  0  0
  144.7666  137.9199  151.8658 H   0  0  0  0  0  0  0  0  0  0  0  0
  146.3369  139.7052  152.3245 H   0  0  0  0  0  0  0  0  0  0  0  0
  147.2091  138.7583  151.1153 H   0  0  0  0  0  0  0  0  0  0  0  0
  148.4316  137.7380  152.7371 H   0  0  0  0  0  0  0  0  0  0  0  0
  1  2  1  0  0  0  0
  1 18  1  0  0  0  0
  1 19  1  0  0  0  0
  1 20  1  0  0  0  0
  2 17  1  0  0  0  0
  2  3  2  0  0  0  0
  3  4  1  0  0  0  0
  3 21  1  0  0  0  0
  4  5  1  0  0  0  0
  4 16  2  0  0  0  0
  5  6  1  0  0  0  0
  5 22  1  0  0  0  0
  6  7  2  0  0  0  0
  6  8  1  0  0  0  0
  8  9  1  0  0  0  0
  9 10  1  0  0  0  0
  9 23  1  0  0  0  0
  9 24  1  0  0  0  0
 10 11  1  0  0  0  0
 10 25  1  0  0  0  0
 10 26  1  0  0  0  0
 11 15  1  0  0  0  0
 11 12  1  0  0  0  0
 11 35  1  0  0  0  0
 12 13  1  0  0  0  0
 12 27  1  0  0  0  0
 12 28  1  0  0  0  0
 13 14  1  0  0  0  0
 13 29  1  0  0  0  0
 13 30  1  0  0  0  0
 14 15  1  0  0  0  0
 14 31  1  0  0  0  0
 14 32  1  0  0  0  0
 15 33  1  0  0  0  0
 15 34  1  0  0  0  0
 16 17  1  0  0  0  0
M  CHG  1   8  -1
M  CHG  1  11   1
M  END
> <s_m_source_file>
AV-unprocessed.smi

> <i_m_source_file_index>
855

> <i_lp_mmshare_version>
43012

> <i_f3d_flags>
0

> <s_epik_input>
W0NIM11jMVtjSF1jKG5vMSlbTkhdQyg9TylbTkhdW0NIMl1bQ0gyXU4yW0NIMl1bQ0gyXVtDSDJdW0NIMl0y

> <s_epik_cmdline>
J2VwaWtfcHl0aG9uJywgJy1waCcsICc3LjAnLCAnLXRuJywgJzgnLCAnLW1hJywgJzIwMCcsICctbWV0YWxfYmluZGluZycsICctaW1hZScsICc8aW5maWxlLm1hZT4nLCAnLW9tYWUnLCAnPG91dGZpbGUubWFlPic=

> <r_epik_Ionization_Penalty>
6.76467

> <r_epik_Ionization_Penalty_Charging>
6.76466

> <r_epik_Ionization_Penalty_Neutral>
5.76722e-06

> <r_epik_State_Penalty>
6.79042

> <r_epik_Charging_Adjusted_Penalty>
13.5551

> <i_epik_Tot_Q>
0

> <i_epik_Tot_abs_Q>
2

> <r_epik_Metal_State_Penalty>
2.72416

> <b_epik_Metal_Only>
1

> <s_lp_Force_Field>
OPLS_2005

> <r_lp_Energy>
21.5232

> <b_lp_Chiralities_Consistent>
1

> <s_lp_Variant>
AV-unprocessed.smi:855-3

> <Gold.Version>
5.8.1

> <Gold.Id.Protein>
6NUR|6NUR_protein|mol2

> <Gold.PLP.Fitness>
39.3140

> <Gold.PLP.PLP>
-29.2501

> <Gold.PLP.part.hbond>
-4.3878

> <Gold.PLP.part.metal>
0.0000

> <Gold.PLP.part.buried>
-0.3557

> <Gold.PLP.part.nonpolar>
-25.5915

> <Gold.PLP.part.repulsive>
0.1963

> <Gold.PLP.ligand.clash>
0.0000

> <Gold.PLP.ligand.torsion>
0.7764

> <Gold.PLP.Chemscore.Hbond>
3.8500

> <Gold.PLP.Chemscore.CHOScore>
0.0000

> <Gold.PLP.Chemscore.Metal>
0.0000

> <Gold.Chemscore.Hbonds>
donor molecule, donor type, donor heavy atom, donor atom, acceptor molecule, acceptor atom, score
      L1  H    11    35       P1  7948  2.00
      P1  H  7989  7998       L1     8  0.85
      P1  H  7997  8008       L1     7  1.00

> <Gold.PLP.Chemscore.Internal.Correction>
0.0667

> <Gold.Rescore>
     Score         DG    S(hbond)    S(metal)    S(lipo)     H(rot)  DE(clash)    DE(int)     intcor
     12.67     -16.18       2.02        0.00      68.17       1.57       1.51       2.00       ----

> <Gold.Chemscore.Fitness>
12.6738

> <Gold.Chemscore.DG>
-16.1822

> <Gold.Chemscore.ZeroCoef>
-5.4800

> <Gold.Chemscore.Hbond>
2.0221

> <Gold.Chemscore.Metal>
0.0000

> <Gold.Chemscore.Lipo>
68.1664

> <Gold.Chemscore.Internal_Hbond>
0.0000

> <Gold.Chemscore.DEClash>
1.5117

> <Gold.Chemscore.DEInternal>
1.9967

> <Gold.Chemscore.Rot>
1.5731

> <Gold.Chemscore.Internal.Correction>
   9.000000E+99

> <Gold.Chemscore.Hbonds>
donor molecule, donor type, donor heavy atom, donor atom, acceptor molecule, acceptor atom, score
      L1  H    11    35       P1  7948  1.00
      P1  H  7989  7998       L1     8  0.04
      P1  H  7997  8008       L1     7  0.95

> <Gold.Chemscore.Hbond.Weighted>
-6.7538

> <Gold.Chemscore.Metal.Weighted>
-0.0000

> <Gold.Chemscore.Lipo.Weighted>
-7.9755

> <Gold.Chemscore.Internal_Hbond.Weighted>
0.0000

> <Gold.Chemscore.DEClash.Weighted>
1.5117

> <Gold.Chemscore.DEInternal.Weighted>
1.9967

> <Gold.Chemscore.Rot.Weighted>
4.0271

> <Gold.Chemscore.Internal.Correction.Weighted>
   9.000000E+99

> <Gold.Protein.RotatedTorsions>
[ 6907 6896 6895 6894 ] final  107.36 input  -60.11 | X-H torsion
[ 7974 7965 7964 7962 ] final   33.87 input  175.53 | X-H torsion
[ 8008 7997 7996 7995 ] final  -44.16 input   59.86 | X-H torsion
[ 10167 10162 10161 10158 ] final  -57.42 input  -65.29 | X-H torsion
[ 10718 10713 10712 10709 ] final -171.70 input   66.30 | X-H torsion
[ 10763 10752 10751 10750 ] final  131.56 input  -60.55 | X-H torsion
[ 11005 11000 10999 10996 ] final  -16.86 input  -57.11 | X-H torsion

> <Gold.Protein.ActiveResidues>
 VAL166  LYS551  ARG553  GLY616  TRP617  ASP618  TYR619  PRO620  LYS621  CYS622 
 ASP623  PHE694  ASN695  SER759  ASP760  ASP761  ALA762  ILE779  LEU786  VAL792 
 PHE793  MET794  SER795  GLU796  ALA797  LYS798  CYS799  TRP800  GLU811  SER814 

> <Gold.Protein.RotatedAtoms>
  152.5157  133.9245  159.7550 H   0  0  0  0  0  0  0  0  0  0  0  0  # atno 6907 bound_to 6896
  150.9610  133.6437  159.2761 H   0  0  0  0  0  0  0  0  0  0  0  0  # atno 6908 bound_to 6896
  151.3682  135.0923  159.9510 H   0  0  0  0  0  0  0  0  0  0  0  0  # atno 6909 bound_to 6896
  146.1391  139.6341  142.9175 H   0  0  0  0  0  0  0  0  0  0  0  0  # atno 7974 bound_to 7965
  154.3997  140.1429  156.3637 H   0  0  0  0  0  0  0  0  0  0  0  0  # atno 8008 bound_to 7997
  155.8157  140.3471  155.5463 H   0  0  0  0  0  0  0  0  0  0  0  0  # atno 8009 bound_to 7997
  155.8340  140.0916  157.1765 H   0  0  0  0  0  0  0  0  0  0  0  0  # atno 8010 bound_to 7997
  140.6259  143.2438  151.5365 H   0  0  0  0  0  0  0  0  0  0  0  0  # atno 10167 bound_to 10162
  156.7448  130.9356  151.3112 H   0  0  0  0  0  0  0  0  0  0  0  0  # atno 10718 bound_to 10713
  153.7764  135.3175  155.3359 H   0  0  0  0  0  0  0  0  0  0  0  0  # atno 10763 bound_to 10752
  154.8178  135.4624  154.0694 H   0  0  0  0  0  0  0  0  0  0  0  0  # atno 10764 bound_to 10752
  153.1969  135.6917  153.8365 H   0  0  0  0  0  0  0  0  0  0  0  0  # atno 10765 bound_to 10752
  140.8110  133.8140  155.9563 H   0  0  0  0  0  0  0  0  0  0  0  0  # atno 11005 bound_to 11000
  145.5088  141.0436  143.2499 LP  0  0  0  0  0  0  0  0  0  0  0  0  # atno 17320 bound_to 7965
  144.7772  139.6603  143.7169 LP  0  0  0  0  0  0  0  0  0  0  0  0  # atno 17321 bound_to 7965
  139.5479  144.2472  152.1477 LP  0  0  0  0  0  0  0  0  0  0  0  0  # atno 17342 bound_to 10162
  140.1703  144.4942  150.6583 LP  0  0  0  0  0  0  0  0  0  0  0  0  # atno 17343 bound_to 10162
  157.6803  130.9133  150.0250 LP  0  0  0  0  0  0  0  0  0  0  0  0  # atno 17370 bound_to 10713
  156.1441  130.3642  149.9538 LP  0  0  0  0  0  0  0  0  0  0  0  0  # atno 17371 bound_to 10713
  140.9197  134.2156  157.4934 LP  0  0  0  0  0  0  0  0  0  0  0  0  # atno 17394 bound_to 11000
  139.8714  134.9787  156.5007 LP  0  0  0  0  0  0  0  0  0  0  0  0  # atno 17395 bound_to 11000

$$$$
