AV-unprocessed.smi:3181|AV-procd|sdf|12140|dock5
  -GOLD-   2272017583D 1   1.00000     0.00000
 Structure written by MMmdl.
 42 43  0  0  0  0  0  0  0  0  2 V2000
  150.9284  137.1941  156.2168 C   0  0  0  0  0  0  0  0  0  0  0  0
  149.9480  137.1739  155.0325 C   0  0  1  0  0  0  0  0  0  0  0  0
  150.1771  138.3407  154.0479 C   0  0  0  0  0  0  0  0  0  0  0  0
  149.5870  139.5849  154.5049 N   0  0  0  0  0  0  0  0  0  0  0  0
  148.3113  139.9721  154.5542 C   0  0  0  0  0  0  0  0  0  0  0  0
  148.1416  141.1938  155.0393 N   0  0  0  0  0  0  0  0  0  0  0  0
  149.4445  141.5273  155.2805 C   0  0  0  0  0  0  0  0  0  0  0  0
  150.3509  140.5976  154.9770 N   0  0  0  0  0  0  0  0  0  0  0  0
  150.0627  135.8804  154.3209 N   0  3  0  0  0  0  0  0  0  0  0  0
  149.6330  134.6762  155.0729 C   0  0  2  0  0  0  0  0  0  0  0  0
  150.0800  133.3984  154.3435 C   0  0  0  0  0  0  0  0  0  0  0  0
  149.2798  133.1615  153.0526 C   0  0  0  0  0  0  0  0  0  0  0  0
  147.7587  133.1252  153.3056 C   0  0  2  0  0  0  0  0  0  0  0  0
  147.0150  132.8807  151.9805 C   0  0  0  0  0  0  0  0  0  0  0  0
  147.2928  134.4151  154.0307 C   0  0  1  0  0  0  0  0  0  0  0  0
  145.7900  134.4077  154.3623 C   0  0  0  0  0  0  0  0  0  0  0  0
  148.1107  134.6391  155.3213 C   0  0  0  0  0  0  0  0  0  0  0  0
  150.8174  138.0992  156.8145 H   0  0  0  0  0  0  0  0  0  0  0  0
  151.9635  137.1449  155.8773 H   0  0  0  0  0  0  0  0  0  0  0  0
  150.7554  136.3478  156.8824 H   0  0  0  0  0  0  0  0  0  0  0  0
  148.9432  137.2652  155.4482 H   0  0  0  0  0  0  0  0  0  0  0  0
  151.2454  138.4957  153.8871 H   0  0  0  0  0  0  0  0  0  0  0  0
  149.7501  138.1119  153.0715 H   0  0  0  0  0  0  0  0  0  0  0  0
  147.4910  139.3473  154.2325 H   0  0  0  0  0  0  0  0  0  0  0  0
  149.7336  142.4830  155.6922 H   0  0  0  0  0  0  0  0  0  0  0  0
  149.5452  135.9329  153.4550 H   0  0  0  0  0  0  0  0  0  0  0  0
  150.1448  134.7002  156.0362 H   0  0  0  0  0  0  0  0  0  0  0  0
  151.1469  133.4421  154.1205 H   0  0  0  0  0  0  0  0  0  0  0  0
  149.9452  132.5420  155.0059 H   0  0  0  0  0  0  0  0  0  0  0  0
  149.5141  133.9426  152.3280 H   0  0  0  0  0  0  0  0  0  0  0  0
  149.6021  132.2228  152.5999 H   0  0  0  0  0  0  0  0  0  0  0  0
  147.5522  132.2755  153.9583 H   0  0  0  0  0  0  0  0  0  0  0  0
  147.1186  133.7297  151.3040 H   0  0  0  0  0  0  0  0  0  0  0  0
  145.9513  132.7050  152.1392 H   0  0  0  0  0  0  0  0  0  0  0  0
  147.4064  132.0009  151.4691 H   0  0  0  0  0  0  0  0  0  0  0  0
  147.4728  135.2611  153.3662 H   0  0  0  0  0  0  0  0  0  0  0  0
  145.5188  133.5365  154.9592 H   0  0  0  0  0  0  0  0  0  0  0  0
  145.1767  134.4018  153.4617 H   0  0  0  0  0  0  0  0  0  0  0  0
  145.5099  135.2966  154.9284 H   0  0  0  0  0  0  0  0  0  0  0  0
  147.8934  133.8285  156.0184 H   0  0  0  0  0  0  0  0  0  0  0  0
  147.7832  135.5479  155.8261 H   0  0  0  0  0  0  0  0  0  0  0  0
  151.0389  135.7536  154.0949 H   0  0  0  0  0  0  0  0  0  0  0  0
  1  2  1  0  0  0  0
  1 18  1  0  0  0  0
  1 19  1  0  0  0  0
  1 20  1  0  0  0  0
  2  3  1  0  0  0  0
  2  9  1  0  0  0  0
  2 21  1  0  0  0  0
  3  4  1  0  0  0  0
  3 22  1  0  0  0  0
  3 23  1  0  0  0  0
  4  8  1  0  0  0  0
  4  5  1  0  0  0  0
  5  6  2  0  0  0  0
  5 24  1  0  0  0  0
  6  7  1  0  0  0  0
  7  8  2  0  0  0  0
  7 25  1  0  0  0  0
  9 10  1  0  0  0  0
  9 26  1  0  0  0  0
  9 42  1  0  0  0  0
 10 17  1  0  0  0  0
 10 11  1  0  0  0  0
 10 27  1  0  0  0  0
 11 12  1  0  0  0  0
 11 28  1  0  0  0  0
 11 29  1  0  0  0  0
 12 13  1  0  0  0  0
 12 30  1  0  0  0  0
 12 31  1  0  0  0  0
 13 14  1  0  0  0  0
 13 15  1  0  0  0  0
 13 32  1  0  0  0  0
 14 33  1  0  0  0  0
 14 34  1  0  0  0  0
 14 35  1  0  0  0  0
 15 16  1  0  0  0  0
 15 17  1  0  0  0  0
 15 36  1  0  0  0  0
 16 37  1  0  0  0  0
 16 38  1  0  0  0  0
 16 39  1  0  0  0  0
 17 40  1  0  0  0  0
 17 41  1  0  0  0  0
M  CHG  1   9   1
M  END
> <s_m_source_file>
AV-unprocessed.smi

> <i_m_source_file_index>
3181

> <i_lp_mmshare_version>
43012

> <i_f3d_flags>
0

> <s_epik_input>
bjFbY0hdbltjSF1uMVtDSDJdW0NAQEhdKFtDSDNdKVtOSF1bQ0BASF0yW0NIMl1bQ0gyXVtDQEBIXShbQ0gzXSlbQ0BASF0oW0NIM10pW0NIMl0y

> <s_epik_cmdline>
J2VwaWtfcHl0aG9uJywgJy1waCcsICc3LjAnLCAnLXRuJywgJzgnLCAnLW1hJywgJzIwMCcsICctbWV0YWxfYmluZGluZycsICctaW1hZScsICc8aW5maWxlLm1hZT4nLCAnLW9tYWUnLCAnPG91dGZpbGUubWFlPic=

> <r_lp_tautomer_probability>
1

> <r_epik_Ionization_Penalty>
0.000617007

> <r_epik_Ionization_Penalty_Charging>
0.000616215

> <r_epik_Ionization_Penalty_Neutral>
7.92544e-07

> <r_epik_State_Penalty>
0.000388807

> <r_epik_Charging_Adjusted_Penalty>
0.00100502

> <i_epik_Tot_Q>
1

> <i_epik_Tot_abs_Q>
1

> <r_epik_Metal_State_Penalty>
-0

> <b_epik_Metal_Only>
0

> <s_lp_Force_Field>
OPLS_2005

> <r_lp_Energy>
23.1218

> <b_lp_Chiralities_Consistent>
1

> <s_lp_Variant>
AV-unprocessed.smi:3181-6

> <Gold.Version>
5.8.1

> <Gold.Id.Protein>
6NUR|6NUR_protein|mol2

> <Gold.PLP.Fitness>
38.1426

> <Gold.PLP.PLP>
-27.0529

> <Gold.PLP.part.hbond>
-2.4272

> <Gold.PLP.part.metal>
0.0000

> <Gold.PLP.part.buried>
-2.3908

> <Gold.PLP.part.nonpolar>
-22.3874

> <Gold.PLP.part.repulsive>
0.2674

> <Gold.PLP.ligand.clash>
0.0000

> <Gold.PLP.ligand.torsion>
0.4659

> <Gold.PLP.Chemscore.Hbond>
3.0000

> <Gold.PLP.Chemscore.CHOScore>
1.0000

> <Gold.PLP.Chemscore.Metal>
0.0000

> <Gold.Chemscore.Hbonds>
donor molecule, donor type, donor heavy atom, donor atom, acceptor molecule, acceptor atom, score
      L1  H     9    26       P1  7948  2.00
      P1  H  7989  7998       L1     8  0.93
      L1  C     7    25       P1  8028  1.00

> <Gold.PLP.Chemscore.Internal.Correction>
0.0214

> <Gold.Rescore>
     Score         DG    S(hbond)    S(metal)    S(lipo)     H(rot)  DE(clash)    DE(int)     intcor
     10.97     -11.70       1.78        0.00      48.63       2.11       0.10       0.64       ----

> <Gold.Chemscore.Fitness>
10.9708

> <Gold.Chemscore.DG>
-11.7025

> <Gold.Chemscore.ZeroCoef>
-5.4800

> <Gold.Chemscore.Hbond>
1.7766

> <Gold.Chemscore.Metal>
0.0000

> <Gold.Chemscore.Lipo>
48.6253

> <Gold.Chemscore.Internal_Hbond>
0.0000

> <Gold.Chemscore.DEClash>
0.0963

> <Gold.Chemscore.DEInternal>
0.6354

> <Gold.Chemscore.Rot>
2.1095

> <Gold.Chemscore.Internal.Correction>
   9.000000E+99

> <Gold.Chemscore.Hbonds>
donor molecule, donor type, donor heavy atom, donor atom, acceptor molecule, acceptor atom, score
      L1  H     9    26       P1  7948  0.30
      P1  H  7989  7998       L1     8  0.30

> <Gold.Chemscore.Hbond.Weighted>
-5.9337

> <Gold.Chemscore.Metal.Weighted>
-0.0000

> <Gold.Chemscore.Lipo.Weighted>
-5.6892

> <Gold.Chemscore.Internal_Hbond.Weighted>
0.0000

> <Gold.Chemscore.DEClash.Weighted>
0.0963

> <Gold.Chemscore.DEInternal.Weighted>
0.6354

> <Gold.Chemscore.Rot.Weighted>
5.4003

> <Gold.Chemscore.Internal.Correction.Weighted>
   9.000000E+99

> <Gold.Protein.RotatedTorsions>
[ 6907 6896 6895 6894 ] final  128.37 input  -60.11 | X-H torsion
[ 7974 7965 7964 7962 ] final   28.82 input  175.53 | X-H torsion
[ 8008 7997 7996 7995 ] final  -26.92 input   59.86 | X-H torsion
[ 10167 10162 10161 10158 ] final -103.00 input  -65.29 | X-H torsion
[ 10718 10713 10712 10709 ] final  -43.51 input   66.30 | X-H torsion
[ 10763 10752 10751 10750 ] final  -39.29 input  -60.55 | X-H torsion
[ 11005 11000 10999 10996 ] final  108.51 input  -57.11 | X-H torsion

> <Gold.Protein.ActiveResidues>
 VAL166  LYS551  ARG553  GLY616  TRP617  ASP618  TYR619  PRO620  LYS621  CYS622 
 ASP623  PHE694  ASN695  SER759  ASP760  ASP761  ALA762  ILE779  LEU786  VAL792 
 PHE793  MET794  SER795  GLU796  ALA797  LYS798  CYS799  TRP800  GLU811  SER814 

> <Gold.Protein.RotatedAtoms>
  152.3725  133.6438  159.6097 H   0  0  0  0  0  0  0  0  0  0  0  0  # atno 6907 bound_to 6896
  150.7679  133.9246  159.3417 H   0  0  0  0  0  0  0  0  0  0  0  0  # atno 6908 bound_to 6896
  151.7067  135.0921  160.0311 H   0  0  0  0  0  0  0  0  0  0  0  0  # atno 6909 bound_to 6896
  146.1707  139.7005  142.8969 H   0  0  0  0  0  0  0  0  0  0  0  0  # atno 7974 bound_to 7965
  154.4402  140.1886  156.0850 H   0  0  0  0  0  0  0  0  0  0  0  0  # atno 8008 bound_to 7997
  156.0409  140.3320  155.7216 H   0  0  0  0  0  0  0  0  0  0  0  0  # atno 8009 bound_to 7997
  155.5701  140.0612  157.2799 H   0  0  0  0  0  0  0  0  0  0  0  0  # atno 8010 bound_to 7997
  140.2246  143.3651  152.0940 H   0  0  0  0  0  0  0  0  0  0  0  0  # atno 10167 bound_to 10162
  156.2482  130.4185  149.8680 H   0  0  0  0  0  0  0  0  0  0  0  0  # atno 10718 bound_to 10713
  153.9270  135.6776  153.4746 H   0  0  0  0  0  0  0  0  0  0  0  0  # atno 10763 bound_to 10752
  153.0999  135.4833  154.8845 H   0  0  0  0  0  0  0  0  0  0  0  0  # atno 10764 bound_to 10752
  154.7448  135.3169  154.8621 H   0  0  0  0  0  0  0  0  0  0  0  0  # atno 10765 bound_to 10752
  139.8845  134.9432  156.5983 H   0  0  0  0  0  0  0  0  0  0  0  0  # atno 11005 bound_to 11000
  145.4347  141.0418  143.2891 LP  0  0  0  0  0  0  0  0  0  0  0  0  # atno 17320 bound_to 7965
  144.8159  139.5878  143.7008 LP  0  0  0  0  0  0  0  0  0  0  0  0  # atno 17321 bound_to 7965
  139.5132  144.6928  151.5713 LP  0  0  0  0  0  0  0  0  0  0  0  0  # atno 17342 bound_to 10162
  140.6230  143.9223  150.6541 LP  0  0  0  0  0  0  0  0  0  0  0  0  # atno 17343 bound_to 10162
  156.6238  130.8637  151.3481 LP  0  0  0  0  0  0  0  0  0  0  0  0  # atno 17370 bound_to 10713
  157.7204  130.9551  150.1415 LP  0  0  0  0  0  0  0  0  0  0  0  0  # atno 17371 bound_to 10713
  140.7903  133.8588  155.8640 LP  0  0  0  0  0  0  0  0  0  0  0  0  # atno 17394 bound_to 11000
  140.9683  134.1565  157.4597 LP  0  0  0  0  0  0  0  0  0  0  0  0  # atno 17395 bound_to 11000

$$$$
