AV-unprocessed.smi:50|AV-procd|sdf|495|dock6
  -GOLD-   2262016363D 1   1.00000     0.00000
 Structure written by MMmdl.
 43 44  0  0  0  0  0  0  0  0  3 V2000
  144.7834  132.0406  150.3185 C   0  0  0  0  0  0  0  0  0  0  0  0
  145.4772  133.3204  150.8224 C   0  0  0  0  0  0  0  0  0  0  0  0
  146.1561  133.0293  152.1751 C   0  0  0  0  0  0  0  0  0  0  0  0
  144.4890  134.5190  150.8654 C   0  0  2  0  0  0  0  0  0  0  0  0
  143.9198  134.7847  149.5298 N   0  3  0  0  0  0  0  0  0  0  0  0
  145.1208  135.8376  151.3513 C   0  0  0  0  0  0  0  0  0  0  0  0
  146.1307  136.3504  150.8644 O   0  0  0  0  0  0  0  0  0  0  0  0
  144.4160  136.3402  152.3826 O   0  0  0  0  0  0  0  0  0  0  0  0
  145.0495  137.1145  153.3929 C   0  0  0  0  0  0  0  0  0  0  0  0
  145.9305  136.2170  154.2702 C   0  0  0  0  0  0  0  0  0  0  0  0
  147.2246  136.7919  154.3941 O   0  0  0  0  0  0  0  0  0  0  0  0
  147.8540  136.5646  155.6148 C   0  0  0  0  0  0  0  0  0  0  0  0
  149.2698  136.8481  155.4554 N   0  0  0  0  0  0  0  0  0  0  0  0
  150.2682  135.9436  155.4343 C   0  0  0  0  0  0  0  0  0  0  0  0
  151.4891  136.4425  155.2476 N   0  0  0  0  0  0  0  0  0  0  0  0
  151.2339  137.8048  155.1524 C   0  0  0  0  0  0  0  0  0  0  0  0
  152.1314  138.9565  154.8958 C   0  0  0  0  0  0  0  0  0  0  0  0
  153.3371  138.7564  154.7654 O   0  0  0  0  0  0  0  0  0  0  0  0
  151.5129  140.1707  154.7921 N   0  5  0  0  0  0  0  0  0  0  0  0
  150.1265  140.2789  154.9677 C   0  0  0  0  0  0  0  0  0  0  0  0
  149.6735  141.5755  154.8632 N   0  0  0  0  0  0  0  0  0  0  0  0
  149.2784  139.3094  155.2077 N   0  0  0  0  0  0  0  0  0  0  0  0
  149.8981  138.0760  155.2758 C   0  0  0  0  0  0  0  0  0  0  0  0
  143.6584  134.2666  151.5260 H   0  0  0  0  0  0  0  0  0  0  0  0
  143.9524  131.7622  150.9677 H   0  0  0  0  0  0  0  0  0  0  0  0
  145.4780  131.2003  150.2927 H   0  0  0  0  0  0  0  0  0  0  0  0
  144.3916  132.1585  149.3081 H   0  0  0  0  0  0  0  0  0  0  0  0
  146.2697  133.5595  150.1114 H   0  0  0  0  0  0  0  0  0  0  0  0
  145.4171  132.8694  152.9613 H   0  0  0  0  0  0  0  0  0  0  0  0
  146.8097  133.8438  152.4871 H   0  0  0  0  0  0  0  0  0  0  0  0
  146.7778  132.1351  152.1193 H   0  0  0  0  0  0  0  0  0  0  0  0
  144.4939  134.3368  148.8290 H   0  0  0  0  0  0  0  0  0  0  0  0
  143.9044  135.7804  149.3615 H   0  0  0  0  0  0  0  0  0  0  0  0
  145.6820  137.8419  152.8840 H   0  0  0  0  0  0  0  0  0  0  0  0
  144.3389  137.6865  153.9912 H   0  0  0  0  0  0  0  0  0  0  0  0
  145.4365  136.0433  155.2256 H   0  0  0  0  0  0  0  0  0  0  0  0
  146.0490  135.2397  153.8020 H   0  0  0  0  0  0  0  0  0  0  0  0
  147.4400  137.1563  156.4334 H   0  0  0  0  0  0  0  0  0  0  0  0
  147.7457  135.5089  155.8653 H   0  0  0  0  0  0  0  0  0  0  0  0
  150.0918  134.8839  155.5462 H   0  0  0  0  0  0  0  0  0  0  0  0
  150.2759  142.3643  154.6795 H   0  0  0  0  0  0  0  0  0  0  0  0
  148.6980  141.8264  154.9327 H   0  0  0  0  0  0  0  0  0  0  0  0
  142.9821  134.4137  149.4815 H   0  0  0  0  0  0  0  0  0  0  0  0
  1  2  1  0  0  0  0
  1 25  1  0  0  0  0
  1 26  1  0  0  0  0
  1 27  1  0  0  0  0
  2  3  1  0  0  0  0
  2  4  1  0  0  0  0
  2 28  1  0  0  0  0
  3 29  1  0  0  0  0
  3 30  1  0  0  0  0
  3 31  1  0  0  0  0
  4 24  1  0  0  0  0
  4  5  1  0  0  0  0
  4  6  1  0  0  0  0
  5 32  1  0  0  0  0
  5 33  1  0  0  0  0
  5 43  1  0  0  0  0
  6  7  2  0  0  0  0
  6  8  1  0  0  0  0
  8  9  1  0  0  0  0
  9 10  1  0  0  0  0
  9 34  1  0  0  0  0
  9 35  1  0  0  0  0
 10 11  1  0  0  0  0
 10 36  1  0  0  0  0
 10 37  1  0  0  0  0
 11 12  1  0  0  0  0
 12 13  1  0  0  0  0
 12 38  1  0  0  0  0
 12 39  1  0  0  0  0
 13 23  1  0  0  0  0
 13 14  1  0  0  0  0
 14 15  2  0  0  0  0
 14 40  1  0  0  0  0
 15 16  1  0  0  0  0
 16 23  2  0  0  0  0
 16 17  1  0  0  0  0
 17 18  2  0  0  0  0
 17 19  1  0  0  0  0
 19 20  1  0  0  0  0
 20 21  1  0  0  0  0
 20 22  2  0  0  0  0
 21 41  1  0  0  0  0
 21 42  1  0  0  0  0
 22 23  1  0  0  0  0
M  CHG  1   5   1
M  CHG  1  19  -1
M  END
> <s_m_source_file>
AV-unprocessed.smi

> <i_m_source_file_index>
50

> <i_lp_mmshare_version>
43012

> <i_f3d_flags>
0

> <s_epik_input>
W0NIM11bQ0hdKFtDSDNdKVtDQEhdKFtOSDJdKUMoPU8pT1tDSDJdW0NIMl1PW0NIMl1uKFtjSF1uMSljKGMxMiluYyhbTkgyXSlbbkhdYzI9Tw==

> <s_epik_cmdline>
J2VwaWtfcHl0aG9uJywgJy1waCcsICc3LjAnLCAnLXRuJywgJzgnLCAnLW1hJywgJzIwMCcsICctbWV0YWxfYmluZGluZycsICctaW1hZScsICc8aW5maWxlLm1hZT4nLCAnLW9tYWUnLCAnPG91dGZpbGUubWFlPic=

> <r_lp_tautomer_probability>
0.99994

> <r_epik_Ionization_Penalty>
3.77459

> <r_epik_Ionization_Penalty_Charging>
0.215994

> <r_epik_Ionization_Penalty_Neutral>
3.5586

> <r_epik_State_Penalty>
3.75449

> <r_epik_Charging_Adjusted_Penalty>
3.97048

> <i_epik_Tot_Q>
0

> <i_epik_Tot_abs_Q>
2

> <r_epik_Metal_State_Penalty>
0.723824

> <b_epik_Metal_Only>
1

> <s_epik_Chemistry_Notes>
This compound has an ester and may undergo hydrolysis at high or low pH. This compound contains an acetal/aminal-like group ( X-CH(R)-Y where X, Y are N, S, or O) that may be acid/base labile, releasing an aldehyde.

> <s_lp_Force_Field>
OPLS_2005

> <r_lp_Energy>
6.41072

> <b_lp_Chiralities_Consistent>
1

> <s_lp_Variant>
AV-unprocessed.smi:50-5

> <Gold.Version>
5.8.1

> <Gold.Id.Protein>
6NUR|6NUR_protein|mol2

> <Gold.PLP.Fitness>
47.5998

> <Gold.PLP.PLP>
-31.8013

> <Gold.PLP.part.hbond>
-5.0163

> <Gold.PLP.part.metal>
0.0000

> <Gold.PLP.part.buried>
-7.1645

> <Gold.PLP.part.nonpolar>
-22.2283

> <Gold.PLP.part.repulsive>
2.9218

> <Gold.PLP.ligand.clash>
0.0000

> <Gold.PLP.ligand.torsion>
1.2641

> <Gold.PLP.Chemscore.Hbond>
6.0000

> <Gold.PLP.Chemscore.CHOScore>
0.0000

> <Gold.PLP.Chemscore.Metal>
0.0000

> <Gold.Chemscore.Hbonds>
donor molecule, donor type, donor heavy atom, donor atom, acceptor molecule, acceptor atom, score
      L1  H     5    32       P1  7921  0.67
      L1  H     5    43       P1 10186  2.00
      P1  H  7989  7998       L1    19  0.84
      P1  H  7997  8009       L1    18  0.73
      P1  H 10752 10764       L1    15  1.00

> <Gold.PLP.Chemscore.Internal.Correction>
0.3268

> <Gold.Rescore>
     Score         DG    S(hbond)    S(metal)    S(lipo)     H(rot)  DE(clash)    DE(int)     intcor
      9.65     -13.03       4.59        0.00      39.15       4.83       1.82       1.56       ----

> <Gold.Chemscore.Fitness>
9.6488

> <Gold.Chemscore.DG>
-13.0258

> <Gold.Chemscore.ZeroCoef>
-5.4800

> <Gold.Chemscore.Hbond>
4.5909

> <Gold.Chemscore.Metal>
0.0000

> <Gold.Chemscore.Lipo>
39.1467

> <Gold.Chemscore.Internal_Hbond>
0.0000

> <Gold.Chemscore.DEClash>
1.8198

> <Gold.Chemscore.DEInternal>
1.5572

> <Gold.Chemscore.Rot>
4.8312

> <Gold.Chemscore.Internal.Correction>
   9.000000E+99

> <Gold.Chemscore.Hbonds>
donor molecule, donor type, donor heavy atom, donor atom, acceptor molecule, acceptor atom, score
      L1  H     5    32       P1  7921  0.65
      L1  H     5    43       P1 10186  0.96
      P1  H  7989  7998       L1    19  0.19
      P1  H  7997  8009       L1    18  0.52
      P1  H 10752 10764       L1    15  0.97

> <Gold.Chemscore.Hbond.Weighted>
-15.3335

> <Gold.Chemscore.Metal.Weighted>
-0.0000

> <Gold.Chemscore.Lipo.Weighted>
-4.5802

> <Gold.Chemscore.Internal_Hbond.Weighted>
0.0000

> <Gold.Chemscore.DEClash.Weighted>
1.8198

> <Gold.Chemscore.DEInternal.Weighted>
1.5572

> <Gold.Chemscore.Rot.Weighted>
12.3678

> <Gold.Chemscore.Internal.Correction.Weighted>
   9.000000E+99

> <Gold.Protein.RotatedTorsions>
[ 6907 6896 6895 6894 ] final  164.43 input  -60.11 | X-H torsion
[ 7974 7965 7964 7962 ] final  -34.33 input  175.53 | X-H torsion
[ 8008 7997 7996 7995 ] final -139.81 input   59.86 | X-H torsion
[ 10167 10162 10161 10158 ] final   85.73 input  -65.29 | X-H torsion
[ 10718 10713 10712 10709 ] final -141.51 input   66.30 | X-H torsion
[ 10763 10752 10751 10750 ] final  -72.65 input  -60.55 | X-H torsion
[ 11005 11000 10999 10996 ] final -153.32 input  -57.11 | X-H torsion

> <Gold.Protein.ActiveResidues>
 VAL166  LYS551  ARG553  GLY616  TRP617  ASP618  TYR619  PRO620  LYS621  CYS622 
 ASP623  PHE694  ASN695  SER759  ASP760  ASP761  ALA762  ILE779  LEU786  VAL792 
 PHE793  MET794  SER795  GLU796  ALA797  LYS798  CYS799  TRP800  GLU811  SER814 

> <Gold.Protein.RotatedAtoms>
  151.9099  133.3559  159.3859 H   0  0  0  0  0  0  0  0  0  0  0  0  # atno 6907 bound_to 6896
  150.7060  134.4742  159.5449 H   0  0  0  0  0  0  0  0  0  0  0  0  # atno 6908 bound_to 6896
  152.2346  134.8288  160.0519 H   0  0  0  0  0  0  0  0  0  0  0  0  # atno 6909 bound_to 6896
  146.0838  140.6025  142.8896 H   0  0  0  0  0  0  0  0  0  0  0  0  # atno 7974 bound_to 7965
  155.4510  140.0538  157.3001 H   0  0  0  0  0  0  0  0  0  0  0  0  # atno 8008 bound_to 7997
  154.4777  140.2068  155.9794 H   0  0  0  0  0  0  0  0  0  0  0  0  # atno 8009 bound_to 7997
  156.1158  140.3196  155.8141 H   0  0  0  0  0  0  0  0  0  0  0  0  # atno 8010 bound_to 7997
  139.8948  144.6364  150.8700 H   0  0  0  0  0  0  0  0  0  0  0  0  # atno 10167 bound_to 10162
  156.3349  130.7606  151.1731 H   0  0  0  0  0  0  0  0  0  0  0  0  # atno 10718 bound_to 10713
  154.4486  135.5923  153.6176 H   0  0  0  0  0  0  0  0  0  0  0  0  # atno 10763 bound_to 10752
  152.9811  135.6015  154.3633 H   0  0  0  0  0  0  0  0  0  0  0  0  # atno 10764 bound_to 10752
  154.3492  135.2841  155.2360 H   0  0  0  0  0  0  0  0  0  0  0  0  # atno 10765 bound_to 10752
  140.7094  134.3850  157.5200 H   0  0  0  0  0  0  0  0  0  0  0  0  # atno 11005 bound_to 11000
  144.7312  140.4675  143.6937 LP  0  0  0  0  0  0  0  0  0  0  0  0  # atno 17320 bound_to 7965
  145.6168  139.1519  143.3045 LP  0  0  0  0  0  0  0  0  0  0  0  0  # atno 17321 bound_to 7965
  140.7719  143.3482  151.2068 LP  0  0  0  0  0  0  0  0  0  0  0  0  # atno 17342 bound_to 10162
  139.7077  143.9427  152.2934 LP  0  0  0  0  0  0  0  0  0  0  0  0  # atno 17343 bound_to 10162
  157.7437  131.0471  150.4926 LP  0  0  0  0  0  0  0  0  0  0  0  0  # atno 17370 bound_to 10713
  156.5098  130.4136  149.6307 LP  0  0  0  0  0  0  0  0  0  0  0  0  # atno 17371 bound_to 10713
  139.8876  134.8879  156.2521 LP  0  0  0  0  0  0  0  0  0  0  0  0  # atno 17394 bound_to 11000
  141.0097  133.7102  156.1092 LP  0  0  0  0  0  0  0  0  0  0  0  0  # atno 17395 bound_to 11000

$$$$
