AV-unprocessed.smi:2894|AV-procd|sdf|11126|dock3
  -GOLD-   2272016 03D 1   1.00000     0.00000
 Structure written by MMmdl.
 35 36  0  0  0  0  0  0  0  0  1 V2000
  153.7059  141.5515  161.1211 C   0  0  0  0  0  0  0  0  0  0  0  0
  152.8714  142.2560  160.0927 C   0  0  0  0  0  0  0  0  0  0  0  0
  152.1191  141.6794  159.0283 C   0  0  0  0  0  0  0  0  0  0  0  0
  151.5690  142.7749  158.4207 C   0  0  0  0  0  0  0  0  0  0  0  0
  150.7468  142.8307  157.3393 N   0  0  0  0  0  0  0  0  0  0  0  0
  150.0829  141.8295  156.7358 C   0  0  0  0  0  0  0  0  0  0  0  0
  150.1107  140.6463  157.0758 O   0  0  0  0  0  0  0  0  0  0  0  0
  149.3721  142.2820  155.6928 N   0  0  0  0  0  0  0  0  0  0  0  0
  148.5142  141.4686  154.8334 C   0  0  2  0  0  0  0  0  0  0  0  0
  147.1419  141.2295  155.4913 C   0  0  0  0  0  0  0  0  0  0  0  0
  146.3313  140.2166  154.6777 C   0  0  0  0  0  0  0  0  0  0  0  0
  147.1000  138.8911  154.5512 C   0  0  0  0  0  0  0  0  0  0  0  0
  148.5087  139.0718  154.1976 N   0  0  0  0  0  0  0  0  0  0  0  0
  149.2350  140.1908  154.3676 C   0  0  0  0  0  0  0  0  0  0  0  0
  150.4401  140.2144  154.1222 O   0  0  0  0  0  0  0  0  0  0  0  0
  151.9764  143.9070  159.0908 N   0  0  0  0  0  0  0  0  0  0  0  0
  151.6575  145.2971  158.8293 C   0  0  0  0  0  0  0  0  0  0  0  0
  152.7822  143.5811  160.1244 N   0  0  0  0  0  0  0  0  0  0  0  0
  153.6113  140.4693  161.0310 H   0  0  0  0  0  0  0  0  0  0  0  0
  153.4022  141.8274  162.1312 H   0  0  0  0  0  0  0  0  0  0  0  0
  154.7608  141.8028  161.0086 H   0  0  0  0  0  0  0  0  0  0  0  0
  152.0141  140.6357  158.7734 H   0  0  0  0  0  0  0  0  0  0  0  0
  150.6261  143.7491  156.9383 H   0  0  0  0  0  0  0  0  0  0  0  0
  149.4032  143.2706  155.4893 H   0  0  0  0  0  0  0  0  0  0  0  0
  148.3389  142.0268  153.9116 H   0  0  0  0  0  0  0  0  0  0  0  0
  147.2734  140.8573  156.5085 H   0  0  0  0  0  0  0  0  0  0  0  0
  146.5909  142.1674  155.5715 H   0  0  0  0  0  0  0  0  0  0  0  0
  145.3591  140.0453  155.1407 H   0  0  0  0  0  0  0  0  0  0  0  0
  146.1354  140.6235  153.6847 H   0  0  0  0  0  0  0  0  0  0  0  0
  147.0630  138.3545  155.5001 H   0  0  0  0  0  0  0  0  0  0  0  0
  146.6244  138.2484  153.8101 H   0  0  0  0  0  0  0  0  0  0  0  0
  148.9926  138.2549  153.8534 H   0  0  0  0  0  0  0  0  0  0  0  0
  151.8730  145.5331  157.7868 H   0  0  0  0  0  0  0  0  0  0  0  0
  152.2496  145.9540  159.4681 H   0  0  0  0  0  0  0  0  0  0  0  0
  150.5991  145.4720  159.0241 H   0  0  0  0  0  0  0  0  0  0  0  0
  1  2  1  0  0  0  0
  1 19  1  0  0  0  0
  1 20  1  0  0  0  0
  1 21  1  0  0  0  0
  2 18  2  0  0  0  0
  2  3  1  0  0  0  0
  3  4  2  0  0  0  0
  3 22  1  0  0  0  0
  4  5  1  0  0  0  0
  4 16  1  0  0  0  0
  5  6  1  0  0  0  0
  5 23  1  0  0  0  0
  6  7  2  0  0  0  0
  6  8  1  0  0  0  0
  8  9  1  0  0  0  0
  8 24  1  0  0  0  0
  9 14  1  0  0  0  0
  9 10  1  0  0  0  0
  9 25  1  0  0  0  0
 10 11  1  0  0  0  0
 10 26  1  0  0  0  0
 10 27  1  0  0  0  0
 11 12  1  0  0  0  0
 11 28  1  0  0  0  0
 11 29  1  0  0  0  0
 12 13  1  0  0  0  0
 12 30  1  0  0  0  0
 12 31  1  0  0  0  0
 13 14  1  0  0  0  0
 13 32  1  0  0  0  0
 14 15  2  0  0  0  0
 16 17  1  0  0  0  0
 16 18  1  0  0  0  0
 17 33  1  0  0  0  0
 17 34  1  0  0  0  0
 17 35  1  0  0  0  0
M  END
> <s_m_source_file>
AV-unprocessed.smi

> <i_m_source_file_index>
2894

> <i_lp_mmshare_version>
43012

> <i_f3d_flags>
0

> <s_epik_input>
W0NIM11jMVtjSF1jKG4objEpW0NIM10pW05IXUMoPU8pW05IXVtDQEBIXTJbQ0gyXVtDSDJdW0NIMl1bTkhdQzI9Tw==

> <s_epik_cmdline>
J2VwaWtfcHl0aG9uJywgJy1waCcsICc3LjAnLCAnLXRuJywgJzgnLCAnLW1hJywgJzIwMCcsICctbWV0YWxfYmluZGluZycsICctaW1hZScsICc8aW5maWxlLm1hZT4nLCAnLW9tYWUnLCAnPG91dGZpbGUubWFlPic=

> <r_lp_tautomer_probability>
1

> <r_epik_Ionization_Penalty>
8.17286e-05

> <r_epik_Ionization_Penalty_Charging>
0

> <r_epik_Ionization_Penalty_Neutral>
8.17286e-05

> <r_epik_State_Penalty>
-0

> <r_epik_Charging_Adjusted_Penalty>
0

> <i_epik_Tot_Q>
0

> <i_epik_Tot_abs_Q>
0

> <r_epik_Metal_State_Penalty>
-0

> <b_epik_Metal_Only>
0

> <s_lp_Force_Field>
OPLS_2005

> <r_lp_Energy>
10.3718

> <b_lp_Chiralities_Consistent>
1

> <s_lp_Variant>
AV-unprocessed.smi:2894-1

> <Gold.Version>
5.8.1

> <Gold.Id.Protein>
6NUR|6NUR_protein|mol2

> <Gold.PLP.Fitness>
40.2496

> <Gold.PLP.PLP>
-34.3184

> <Gold.PLP.part.hbond>
-2.3627

> <Gold.PLP.part.metal>
0.0000

> <Gold.PLP.part.buried>
-6.5483

> <Gold.PLP.part.nonpolar>
-26.5494

> <Gold.PLP.part.repulsive>
0.5988

> <Gold.PLP.ligand.clash>
0.0000

> <Gold.PLP.ligand.torsion>
0.2472

> <Gold.PLP.Chemscore.Hbond>
2.1279

> <Gold.PLP.Chemscore.CHOScore>
0.0000

> <Gold.PLP.Chemscore.Metal>
0.0000

> <Gold.Chemscore.Hbonds>
donor molecule, donor type, donor heavy atom, donor atom, acceptor molecule, acceptor atom, score
      L1  H     5    23       P1  8028  0.13
      L1  H     8    24       P1  8028  1.00
      P1  H  7989  7998       L1    15  0.89

> <Gold.PLP.Chemscore.Internal.Correction>
0.0418

> <Gold.Rescore>
     Score         DG    S(hbond)    S(metal)    S(lipo)     H(rot)  DE(clash)    DE(int)     intcor
     16.42     -18.98       2.92        0.00      53.99       1.00       0.10       2.47       ----

> <Gold.Chemscore.Fitness>
16.4171

> <Gold.Chemscore.DG>
-18.9828

> <Gold.Chemscore.ZeroCoef>
-5.4800

> <Gold.Chemscore.Hbond>
2.9179

> <Gold.Chemscore.Metal>
0.0000

> <Gold.Chemscore.Lipo>
53.9910

> <Gold.Chemscore.Internal_Hbond>
0.0000

> <Gold.Chemscore.DEClash>
0.0987

> <Gold.Chemscore.DEInternal>
2.4670

> <Gold.Chemscore.Rot>
1.0000

> <Gold.Chemscore.Internal.Correction>
   9.000000E+99

> <Gold.Chemscore.Hbonds>
donor molecule, donor type, donor heavy atom, donor atom, acceptor molecule, acceptor atom, score
      L1  H     5    23       P1  8028  0.14
      L1  H     8    24       P1  8028  0.92
      P1  H  7989  7998       L1    15  0.84

> <Gold.Chemscore.Hbond.Weighted>
-9.7459

> <Gold.Chemscore.Metal.Weighted>
-0.0000

> <Gold.Chemscore.Lipo.Weighted>
-6.3169

> <Gold.Chemscore.Internal_Hbond.Weighted>
0.0000

> <Gold.Chemscore.DEClash.Weighted>
0.0987

> <Gold.Chemscore.DEInternal.Weighted>
2.4670

> <Gold.Chemscore.Rot.Weighted>
2.5600

> <Gold.Chemscore.Internal.Correction.Weighted>
   9.000000E+99

> <Gold.Protein.RotatedTorsions>
[ 6907 6896 6895 6894 ] final -111.12 input  -60.11 | X-H torsion
[ 7974 7965 7964 7962 ] final  154.66 input  175.53 | X-H torsion
[ 8008 7997 7996 7995 ] final  -40.37 input   59.86 | X-H torsion
[ 10167 10162 10161 10158 ] final   83.48 input  -65.29 | X-H torsion
[ 10718 10713 10712 10709 ] final  170.29 input   66.30 | X-H torsion
[ 10763 10752 10751 10750 ] final   -4.54 input  -60.55 | X-H torsion
[ 11005 11000 10999 10996 ] final  169.27 input  -57.11 | X-H torsion

> <Gold.Protein.ActiveResidues>
 VAL166  LYS551  ARG553  GLY616  TRP617  ASP618  TYR619  PRO620  LYS621  CYS622 
 ASP623  PHE694  ASN695  SER759  ASP760  ASP761  ALA762  ILE779  LEU786  VAL792 
 PHE793  MET794  SER795  GLU796  ALA797  LYS798  CYS799  TRP800  GLU811  SER814 

> <Gold.Protein.RotatedAtoms>
  150.7669  133.9282  159.3418 H   0  0  0  0  0  0  0  0  0  0  0  0  # atno 6907 bound_to 6896
  151.7178  135.0898  160.0288 H   0  0  0  0  0  0  0  0  0  0  0  0  # atno 6908 bound_to 6896
  152.3669  133.6330  159.6093 H   0  0  0  0  0  0  0  0  0  0  0  0  # atno 6909 bound_to 6896
  144.8074  139.6963  143.6156 H   0  0  0  0  0  0  0  0  0  0  0  0  # atno 7974 bound_to 7965
  154.4013  140.1527  156.3015 H   0  0  0  0  0  0  0  0  0  0  0  0  # atno 8008 bound_to 7997
  155.8696  140.3449  155.5790 H   0  0  0  0  0  0  0  0  0  0  0  0  # atno 8009 bound_to 7997
  155.7789  140.0840  157.2060 H   0  0  0  0  0  0  0  0  0  0  0  0  # atno 8010 bound_to 7997
  139.9179  144.6231  150.8470 H   0  0  0  0  0  0  0  0  0  0  0  0  # atno 10167 bound_to 10162
  157.0103  131.0202  151.2805 H   0  0  0  0  0  0  0  0  0  0  0  0  # atno 10718 bound_to 10713
  153.3862  135.7000  153.6528 H   0  0  0  0  0  0  0  0  0  0  0  0  # atno 10763 bound_to 10752
  153.5119  135.3630  155.2591 H   0  0  0  0  0  0  0  0  0  0  0  0  # atno 10764 bound_to 10752
  154.8698  135.4137  154.3170 H   0  0  0  0  0  0  0  0  0  0  0  0  # atno 10765 bound_to 10752
  140.2960  134.7635  157.3877 H   0  0  0  0  0  0  0  0  0  0  0  0  # atno 11005 bound_to 11000
  146.2368  139.5921  142.9518 LP  0  0  0  0  0  0  0  0  0  0  0  0  # atno 17320 bound_to 7965
  145.5405  141.0421  143.2333 LP  0  0  0  0  0  0  0  0  0  0  0  0  # atno 17321 bound_to 7965
  140.7669  143.3318  151.2394 LP  0  0  0  0  0  0  0  0  0  0  0  0  # atno 17342 bound_to 10162
  139.6886  143.9730  152.2847 LP  0  0  0  0  0  0  0  0  0  0  0  0  # atno 17343 bound_to 10162
  157.5325  130.8068  149.7934 LP  0  0  0  0  0  0  0  0  0  0  0  0  # atno 17370 bound_to 10713
  156.0139  130.3822  150.2175 LP  0  0  0  0  0  0  0  0  0  0  0  0  # atno 17371 bound_to 10713
  140.1152  134.5292  155.8231 LP  0  0  0  0  0  0  0  0  0  0  0  0  # atno 17394 bound_to 11000
  141.2137  133.6738  156.6764 LP  0  0  0  0  0  0  0  0  0  0  0  0  # atno 17395 bound_to 11000

$$$$
