#       Name:                AV-unprocessed.smi:160
#       Creating user name   scv26
#       Creation time:       Thu Mar 26 19:05:27 2020


#       File generated by GOLD software.
#

@<TRIPOS>MOLECULE
AV-unprocessed.smi:160
    41    42     1
SMALL
NO_CHARGES


@<TRIPOS>ATOM
      1 ****        -3.5186   1.3336   0.1159 N.am           1 S1                 0.0000
      2 ****        -3.7238   0.0966  -0.3485 C.2            1 S1                 0.0000
      3 ****        -4.8438  -0.3199  -0.6400 O.2            1 S1                 0.0000
      4 ****        -2.5031  -0.7690  -0.4952 C.2            1 S1                 0.0000
      5 ****        -2.5989  -2.0569  -0.9398 N.2            1 S1                 0.0000
      6 ****        -1.3139  -2.3856  -0.9031 C.2            1 S1                 0.0000
      7 ****        -0.5091  -1.4086  -0.4723 N.pl3          1 S1                 0.0000
      8 ****         0.9841  -1.3972  -0.3168 C.3            1 S1                 0.0000
      9 ****         1.4753  -0.3463  -1.0894 O.3            1 S1                 0.0000
     10 ****         1.9224   0.7376  -0.2730 C.3            1 S1                 0.0000
     11 ****         1.3091   2.0569  -0.7699 C.3            1 S1                 0.0000
     12 ****         2.0542   2.5591  -1.8587 O.3            1 S1                 0.0000
     13 ****         1.5193   0.3804   1.1671 C.3            1 S1                 0.0000
     14 ****         2.5155   0.8020   2.0776 O.3            1 S1                 0.0000
     15 ****         1.4299  -1.1379   1.1319 C.3            1 S1                 0.0000
     16 ****         0.5314  -1.6330   2.1083 O.3            1 S1                 0.0000
     17 ****        -1.2793  -0.3230  -0.2084 N.2            1 S1                 0.0000
     18 ****         1.3033  -2.3646  -0.7065 H              1 S1                 0.0000
     19 ****         3.0114   0.7695  -0.3450 H              1 S1                 0.0000
     20 ****         0.5579   0.8258   1.4269 H              1 S1                 0.0000
     21 ****         2.4156  -1.5872   1.2617 H              1 S1                 0.0000
     22 ****        -4.2994   1.9616   0.2381 H              1 S1                 0.0000
     23 ****        -2.5807   1.6304   0.3435 H              1 S1                 0.0000
     24 ****        -0.9517  -3.3602  -1.1961 H              1 S1                 0.0000
     25 ****         0.2635   1.9310  -1.0515 H              1 S1                 0.0000
     26 ****         1.3432   2.8074   0.0204 H              1 S1                 0.0000
     27 ****         1.6652   3.3733  -2.1395 H              1 S1                 0.0000
     28 ****         3.3348   0.3989   1.8349 H              1 S1                 0.0000
     29 ****         0.4866  -2.5734   2.0279 H              1 S1                 0.0000
     30 ****        -5.6415   0.2734  -0.5325 LP             1 S1                 0.0000
     31 ****        -4.9567  -1.2519  -0.9845 LP             1 S1                 0.0000
     32 ****        -3.3986  -2.5922  -1.2118 LP             1 S1                 0.0000
     33 ****         0.7487  -0.0199  -1.6940 LP             1 S1                 0.0000
     34 ****         2.2424  -0.6776  -1.6389 LP             1 S1                 0.0000
     35 ****         2.0374   1.9004  -2.6110 LP             1 S1                 0.0000
     36 ****         3.0000   2.7175  -1.5754 LP             1 S1                 0.0000
     37 ****         2.2644   0.5235   3.0046 LP             1 S1                 0.0000
     38 ****         2.6057   1.7972   2.0414 LP             1 S1                 0.0000
     39 ****        -0.3759  -1.2389   1.9618 LP             1 S1                 0.0000
     40 ****         0.8577  -1.3882   3.0213 LP             1 S1                 0.0000
     41 ****        -1.0006   0.5803   0.1177 LP             1 S1                 0.0000
@<TRIPOS>BOND
    1    1    2 am    
    2    1   22 1     
    3    1   23 1     
    4    2    3 2     
    5    2    4 1     
    6    4   17 2     
    7    4    5 1     
    8    5    6 2     
    9    6    7 1     
   10    6   24 1     
   11    7    8 1     
   12    7   17 1     
   13    8   18 1     
   14    8   15 1     
   15    8    9 1     
   16    9   10 1     
   17   10   19 1     
   18   10   11 1     
   19   10   13 1     
   20   11   12 1     
   21   11   25 1     
   22   11   26 1     
   23   12   27 1     
   24   13   20 1     
   25   13   14 1     
   26   13   15 1     
   27   14   28 1     
   28   15   21 1     
   29   15   16 1     
   30   16   29 1     
   31    3   30 1     
   32    3   31 1     
   33    5   32 1     
   34    9   33 1     
   35    9   34 1     
   36   12   35 1     
   37   12   36 1     
   38   14   37 1     
   39   14   38 1     
   40   16   39 1     
   41   16   40 1     
   42   17   41 1     
@<TRIPOS>SUBSTRUCTURE
      1 S1             1
@<TRIPOS>SET
LONE_PAIRS      STATIC     ATOMS    <user>   **** ""
12 30 31 32 33 34 35 36 37 38 39 40 41
DONOR_HYDROGENS      STATIC     ATOMS    <user>   **** ""
5 22 23 27 28 29
ATOM$BLUE        STATIC     ATOMS    COLORGROUP SYSTEM
12 30 31 32 33 34 35 36 37 38 39 40 41
ATOM$RED        STATIC     ATOMS    COLORGROUP SYSTEM
5 22 23 27 28 29
