AV-unprocessed.smi:21|AV-procd|sdf|138|dock2
  -GOLD-   2262015333D 1   1.00000     0.00000
 Structure written by MMmdl.
 62 65  0  0  0  0  0  0  0  0  2 V2000
  145.5955  129.4195  151.8841 C   0  0  0  0  0  0  0  0  0  0  0  0
  145.9460  130.6211  152.5526 O   0  0  0  0  0  0  0  0  0  0  0  0
  145.9739  131.7624  151.7050 C   0  0  2  0  0  0  0  0  0  0  0  0
  146.6816  132.8986  152.4315 C   0  0  0  0  0  0  0  0  0  0  0  0
  145.6021  133.4915  153.3475 C   0  0  1  0  0  0  0  0  0  0  0  0
  145.8599  134.9650  153.7507 C   0  0  0  0  0  0  0  0  0  0  0  0
  146.8260  135.0877  154.8439 N   0  0  0  0  0  0  0  0  0  0  0  0
  147.6646  133.9392  155.1622 C   0  0  0  0  0  0  0  0  0  0  0  0
  147.1940  136.3259  155.2730 C   0  0  0  0  0  0  0  0  0  0  0  0
  146.5208  137.3980  154.7786 N   0  0  0  0  0  0  0  0  0  0  0  0
  146.8356  138.6379  155.1623 C   0  0  0  0  0  0  0  0  0  0  0  0
  147.7826  139.0306  156.0142 N   0  0  0  0  0  0  0  0  0  0  0  0
  148.4718  137.9647  156.5110 C   0  0  0  0  0  0  0  0  0  0  0  0
  148.2468  136.5916  156.2007 C   0  0  0  0  0  0  0  0  0  0  0  0
  149.1619  135.8051  156.8936 N   0  0  0  0  0  0  0  0  0  0  0  0
  149.8711  136.6572  157.5809 C   0  0  0  0  0  0  0  0  0  0  0  0
  149.5217  137.9761  157.4125 N   0  0  0  0  0  0  0  0  0  0  0  0
  150.1432  139.1228  158.0507 C   0  0  0  0  0  0  0  0  0  0  0  0
  150.3453  140.3352  157.1039 C   0  0  2  0  0  0  0  0  0  0  0  0
  151.4036  140.0558  156.0058 C   0  0  0  0  0  0  0  0  0  0  0  0
  152.6230  139.5975  156.5530 O   0  0  0  0  0  0  0  0  0  0  0  0
  150.7140  141.6030  157.9178 C   0  0  2  0  0  0  0  0  0  0  0  0
  151.1361  142.8034  157.0858 C   0  0  0  0  0  0  0  0  0  0  0  0
  151.8629  143.6620  158.1119 C   0  0  0  0  0  0  0  0  0  0  0  0
  152.5366  142.7355  158.9525 O   0  0  0  0  0  0  0  0  0  0  0  0
  151.9390  141.4476  158.8315 C   0  0  0  0  0  0  0  0  0  0  0  0
  144.3035  133.2200  152.6640 N   0  3  1  0  0  0  0  0  0  0  0  0
  143.4433  134.3791  152.3279 C   0  0  0  0  0  0  0  0  0  0  0  0
  144.5675  132.3356  151.5048 C   0  0  0  0  0  0  0  0  0  0  0  0
  146.4720  131.5322  150.7613 H   0  0  0  0  0  0  0  0  0  0  0  0
  145.5710  132.8890  154.2565 H   0  0  0  0  0  0  0  0  0  0  0  0
  145.5915  128.5949  152.5967 H   0  0  0  0  0  0  0  0  0  0  0  0
  146.3167  129.1802  151.1017 H   0  0  0  0  0  0  0  0  0  0  0  0
  144.6031  129.4774  151.4370 H   0  0  0  0  0  0  0  0  0  0  0  0
  147.5662  132.5662  152.9761 H   0  0  0  0  0  0  0  0  0  0  0  0
  147.0023  133.6453  151.7035 H   0  0  0  0  0  0  0  0  0  0  0  0
  146.1653  135.5511  152.8839 H   0  0  0  0  0  0  0  0  0  0  0  0
  144.9313  135.4166  154.1002 H   0  0  0  0  0  0  0  0  0  0  0  0
  147.9967  133.9742  156.2003 H   0  0  0  0  0  0  0  0  0  0  0  0
  148.5401  133.9074  154.5133 H   0  0  0  0  0  0  0  0  0  0  0  0
  147.1106  133.0102  155.0248 H   0  0  0  0  0  0  0  0  0  0  0  0
  146.2437  139.4282  154.7244 H   0  0  0  0  0  0  0  0  0  0  0  0
  150.6722  136.3463  158.2358 H   0  0  0  0  0  0  0  0  0  0  0  0
  149.5137  139.3970  158.8970 H   0  0  0  0  0  0  0  0  0  0  0  0
  151.1006  138.8116  158.4702 H   0  0  0  0  0  0  0  0  0  0  0  0
  149.3938  140.5375  156.6092 H   0  0  0  0  0  0  0  0  0  0  0  0
  151.0680  139.2808  155.3183 H   0  0  0  0  0  0  0  0  0  0  0  0
  151.5834  140.9479  155.4052 H   0  0  0  0  0  0  0  0  0  0  0  0
  152.4320  138.9335  157.1979 H   0  0  0  0  0  0  0  0  0  0  0  0
  149.8608  141.8985  158.5308 H   0  0  0  0  0  0  0  0  0  0  0  0
  151.8249  142.5002  156.2959 H   0  0  0  0  0  0  0  0  0  0  0  0
  150.2978  143.3295  156.6280 H   0  0  0  0  0  0  0  0  0  0  0  0
  152.5566  144.3685  157.6558 H   0  0  0  0  0  0  0  0  0  0  0  0
  151.1473  144.2253  158.7126 H   0  0  0  0  0  0  0  0  0  0  0  0
  151.6735  141.0558  159.8137 H   0  0  0  0  0  0  0  0  0  0  0  0
  152.6742  140.7740  158.3894 H   0  0  0  0  0  0  0  0  0  0  0  0
  143.9466  135.0668  151.6470 H   0  0  0  0  0  0  0  0  0  0  0  0
  143.1457  134.9234  153.2240 H   0  0  0  0  0  0  0  0  0  0  0  0
  142.5292  134.0355  151.8425 H   0  0  0  0  0  0  0  0  0  0  0  0
  144.5622  132.9284  150.5883 H   0  0  0  0  0  0  0  0  0  0  0  0
  143.7943  131.5746  151.4020 H   0  0  0  0  0  0  0  0  0  0  0  0
  143.7739  132.6644  153.3210 H   0  0  0  0  0  0  0  0  0  0  0  0
  1  2  1  0  0  0  0
  1 32  1  0  0  0  0
  1 33  1  0  0  0  0
  1 34  1  0  0  0  0
  2  3  1  0  0  0  0
  3 30  1  0  0  0  0
  3 29  1  0  0  0  0
  3  4  1  0  0  0  0
  4  5  1  0  0  0  0
  4 35  1  0  0  0  0
  4 36  1  0  0  0  0
  5 31  1  0  0  0  0
  5  6  1  0  0  0  0
  5 27  1  0  0  0  0
  6  7  1  0  0  0  0
  6 37  1  0  0  0  0
  6 38  1  0  0  0  0
  7  8  1  0  0  0  0
  7  9  1  0  0  0  0
  8 39  1  0  0  0  0
  8 40  1  0  0  0  0
  8 41  1  0  0  0  0
  9 14  1  0  0  0  0
  9 10  2  0  0  0  0
 10 11  1  0  0  0  0
 11 12  2  0  0  0  0
 11 42  1  0  0  0  0
 12 13  1  0  0  0  0
 13 17  1  0  0  0  0
 13 14  2  0  0  0  0
 14 15  1  0  0  0  0
 15 16  2  0  0  0  0
 16 17  1  0  0  0  0
 16 43  1  0  0  0  0
 17 18  1  0  0  0  0
 18 19  1  0  0  0  0
 18 44  1  0  0  0  0
 18 45  1  0  0  0  0
 19 20  1  0  0  0  0
 19 22  1  0  0  0  0
 19 46  1  0  0  0  0
 20 21  1  0  0  0  0
 20 47  1  0  0  0  0
 20 48  1  0  0  0  0
 21 49  1  0  0  0  0
 22 26  1  0  0  0  0
 22 23  1  0  0  0  0
 22 50  1  0  0  0  0
 23 24  1  0  0  0  0
 23 51  1  0  0  0  0
 23 52  1  0  0  0  0
 24 25  1  0  0  0  0
 24 53  1  0  0  0  0
 24 54  1  0  0  0  0
 25 26  1  0  0  0  0
 26 55  1  0  0  0  0
 26 56  1  0  0  0  0
 27 28  1  0  0  0  0
 27 29  1  0  0  0  0
 27 62  1  0  0  0  0
 28 57  1  0  0  0  0
 28 58  1  0  0  0  0
 28 59  1  0  0  0  0
 29 60  1  0  0  0  0
 29 61  1  0  0  0  0
M  CHG  1  27   1
M  END
> <s_m_source_file>
AV-unprocessed.smi

> <i_m_source_file_index>
21

> <i_lp_mmshare_version>
43012

> <i_f3d_flags>
0

> <s_epik_input>
W0NIM11PW0NASF0xW0NIMl1bQ0BIXShOKFtDSDNdKVtDSDJdMSlbQ0gyXU4oW0NIM10pYyhuW2NIXW4yKWMoYzIzKW5bY0hdbjNbQ0gyXVtDQEhdKFtDSDJdW09IXSlbQ0BASF00W0NIMl1bQ0gyXU9bQ0gyXTQ=

> <s_epik_cmdline>
J2VwaWtfcHl0aG9uJywgJy1waCcsICc3LjAnLCAnLXRuJywgJzgnLCAnLW1hJywgJzIwMCcsICctbWV0YWxfYmluZGluZycsICctaW1hZScsICc8aW5maWxlLm1hZT4nLCAnLW9tYWUnLCAnPG91dGZpbGUubWFlPic=

> <r_lp_tautomer_probability>
1

> <r_epik_Ionization_Penalty>
0.0157465

> <r_epik_Ionization_Penalty_Charging>
0.015354

> <r_epik_Ionization_Penalty_Neutral>
0.000392529

> <r_epik_State_Penalty>
0.0120612

> <r_epik_Charging_Adjusted_Penalty>
0.0274152

> <i_epik_Tot_Q>
1

> <i_epik_Tot_abs_Q>
1

> <r_epik_Metal_State_Penalty>
0.0121253

> <b_epik_Metal_Only>
0

> <s_lp_Force_Field>
OPLS_2005

> <r_lp_Energy>
61.8504

> <b_lp_Chiralities_Consistent>
1

> <s_lp_Variant>
AV-unprocessed.smi:21-18

> <Gold.Version>
5.8.1

> <Gold.Id.Protein>
6NUR|6NUR_protein|mol2

> <Gold.PLP.Fitness>
40.9488

> <Gold.PLP.PLP>
-33.2749

> <Gold.PLP.part.hbond>
-1.9788

> <Gold.PLP.part.metal>
0.0000

> <Gold.PLP.part.buried>
-7.7127

> <Gold.PLP.part.nonpolar>
-25.3506

> <Gold.PLP.part.repulsive>
0.2451

> <Gold.PLP.ligand.clash>
0.0000

> <Gold.PLP.ligand.torsion>
0.9852

> <Gold.PLP.Chemscore.Hbond>
3.0000

> <Gold.PLP.Chemscore.CHOScore>
0.0000

> <Gold.PLP.Chemscore.Metal>
0.0000

> <Gold.Chemscore.Hbonds>
donor molecule, donor type, donor heavy atom, donor atom, acceptor molecule, acceptor atom, score
      L1  H    27    62       P1 10957  1.98
      P1  H  7997  8008       L1    21  1.00

> <Gold.PLP.Chemscore.Internal.Correction>
0.6443

> <Gold.Rescore>
     Score         DG    S(hbond)    S(metal)    S(lipo)     H(rot)  DE(clash)    DE(int)     intcor
     12.65     -14.92       1.98        0.00      91.38       3.08       0.11       2.16       ----

> <Gold.Chemscore.Fitness>
12.6509

> <Gold.Chemscore.DG>
-14.9215

> <Gold.Chemscore.ZeroCoef>
-5.4800

> <Gold.Chemscore.Hbond>
1.9833

> <Gold.Chemscore.Metal>
0.0000

> <Gold.Chemscore.Lipo>
91.3789

> <Gold.Chemscore.Internal_Hbond>
0.0000

> <Gold.Chemscore.DEClash>
0.1120

> <Gold.Chemscore.DEInternal>
2.1586

> <Gold.Chemscore.Rot>
3.0758

> <Gold.Chemscore.Internal.Correction>
   9.000000E+99

> <Gold.Chemscore.Hbonds>
donor molecule, donor type, donor heavy atom, donor atom, acceptor molecule, acceptor atom, score
      L1  H    27    62       P1 10957  0.37
      P1  H  7997  8008       L1    21  0.98

> <Gold.Chemscore.Hbond.Weighted>
-6.6243

> <Gold.Chemscore.Metal.Weighted>
-0.0000

> <Gold.Chemscore.Lipo.Weighted>
-10.6913

> <Gold.Chemscore.Internal_Hbond.Weighted>
0.0000

> <Gold.Chemscore.DEClash.Weighted>
0.1120

> <Gold.Chemscore.DEInternal.Weighted>
2.1586

> <Gold.Chemscore.Rot.Weighted>
7.8741

> <Gold.Chemscore.Internal.Correction.Weighted>
   9.000000E+99

> <Gold.Protein.RotatedTorsions>
[ 6907 6896 6895 6894 ] final  124.03 input  -60.11 | X-H torsion
[ 7974 7965 7964 7962 ] final  -17.64 input  175.53 | X-H torsion
[ 8008 7997 7996 7995 ] final  -39.24 input   59.86 | X-H torsion
[ 10167 10162 10161 10158 ] final   22.51 input  -65.29 | X-H torsion
[ 10718 10713 10712 10709 ] final   -3.74 input   66.30 | X-H torsion
[ 10763 10752 10751 10750 ] final  -38.95 input  -60.55 | X-H torsion
[ 11005 11000 10999 10996 ] final  -10.30 input  -57.11 | X-H torsion

> <Gold.Protein.ActiveResidues>
 VAL166  LYS551  ARG553  GLY616  TRP617  ASP618  TYR619  PRO620  LYS621  CYS622 
 ASP623  PHE694  ASN695  SER759  ASP760  ASP761  ALA762  ILE779  LEU786  VAL792 
 PHE793  MET794  SER795  GLU796  ALA797  LYS798  CYS799  TRP800  GLU811  SER814 

> <Gold.Protein.RotatedAtoms>
  152.4112  133.6966  159.6399 H   0  0  0  0  0  0  0  0  0  0  0  0  # atno 6907 bound_to 6896
  150.7992  133.8621  159.3243 H   0  0  0  0  0  0  0  0  0  0  0  0  # atno 6908 bound_to 6896
  151.6362  135.1019  160.0183 H   0  0  0  0  0  0  0  0  0  0  0  0  # atno 6909 bound_to 6896
  146.1931  140.3808  142.8450 H   0  0  0  0  0  0  0  0  0  0  0  0  # atno 7974 bound_to 7965
  154.4025  140.1556  156.2832 H   0  0  0  0  0  0  0  0  0  0  0  0  # atno 8008 bound_to 7997
  155.8851  140.3441  155.5894 H   0  0  0  0  0  0  0  0  0  0  0  0  # atno 8009 bound_to 7997
  155.7622  140.0819  157.2140 H   0  0  0  0  0  0  0  0  0  0  0  0  # atno 8010 bound_to 7997
  140.5343  143.9788  150.6482 H   0  0  0  0  0  0  0  0  0  0  0  0  # atno 10167 bound_to 10162
  156.7716  130.5302  149.5766 H   0  0  0  0  0  0  0  0  0  0  0  0  # atno 10718 bound_to 10713
  153.9214  135.6782  153.4747 H   0  0  0  0  0  0  0  0  0  0  0  0  # atno 10763 bound_to 10752
  153.1026  135.4820  154.8892 H   0  0  0  0  0  0  0  0  0  0  0  0  # atno 10764 bound_to 10752
  154.7476  135.3176  154.8573 H   0  0  0  0  0  0  0  0  0  0  0  0  # atno 10765 bound_to 10752
  140.7433  133.8653  155.8985 H   0  0  0  0  0  0  0  0  0  0  0  0  # atno 11005 bound_to 11000
  144.8526  140.7023  143.6159 LP  0  0  0  0  0  0  0  0  0  0  0  0  # atno 17320 bound_to 7965
  145.3730  139.1654  143.4322 LP  0  0  0  0  0  0  0  0  0  0  0  0  # atno 17321 bound_to 7965
  140.3171  143.3160  152.0821 LP  0  0  0  0  0  0  0  0  0  0  0  0  # atno 17342 bound_to 10162
  139.4965  144.6598  151.6490 LP  0  0  0  0  0  0  0  0  0  0  0  0  # atno 17343 bound_to 10162
  156.1274  130.6153  151.0284 LP  0  0  0  0  0  0  0  0  0  0  0  0  # atno 17370 bound_to 10713
  157.6688  131.0866  150.7663 LP  0  0  0  0  0  0  0  0  0  0  0  0  # atno 17371 bound_to 10713
  140.9817  134.1396  157.4488 LP  0  0  0  0  0  0  0  0  0  0  0  0  # atno 17394 bound_to 11000
  139.8802  135.0012  156.6057 LP  0  0  0  0  0  0  0  0  0  0  0  0  # atno 17395 bound_to 11000

$$$$
