AV-unprocessed.smi:1703|AV-procd|sdf|6876|dock2
  -GOLD-   22720 8 73D 1   1.00000     0.00000
 Structure written by MMmdl.
 50 52  0  0  0  0  0  0  0  0  3 V2000
  148.6280  141.6815  154.3185 C   0  0  0  0  0  0  0  0  0  0  0  0
  149.0561  140.2914  154.8006 C   0  0  1  0  0  0  0  0  0  0  0  0
  148.4468  139.1688  153.9334 C   0  0  0  0  0  0  0  0  0  0  0  0
  148.9563  137.8296  154.3284 N   0  3  2  0  0  0  0  0  0  0  0  0
  148.3526  137.2707  155.5684 C   0  0  0  0  0  0  0  0  0  0  0  0
  148.6118  135.7564  155.7391 C   0  0  1  0  0  0  0  0  0  0  0  0
  149.8755  135.5655  156.3415 O   0  0  0  0  0  0  0  0  0  0  0  0
  147.5653  135.0477  156.6222 C   0  0  0  0  0  0  0  0  0  0  0  0
  146.8478  133.9730  155.9131 N   0  0  0  0  0  0  0  0  0  0  0  0
  145.5111  133.6991  155.8631 C   0  0  0  0  0  0  0  0  0  0  0  0
  144.4122  134.4360  156.5553 C   0  0  0  0  0  0  0  0  0  0  0  0
  143.1526  133.8351  156.3457 O   0  0  0  0  0  0  0  0  0  0  0  0
  145.3522  132.5996  155.0746 N   0  3  0  0  0  0  0  0  0  0  0  0
  146.5943  132.1639  154.6139 C   0  0  0  0  0  0  0  0  0  0  0  0
  146.9326  131.0932  153.7921 C   0  0  0  0  0  0  0  0  0  0  0  0
  148.3036  130.9170  153.5144 C   0  0  0  0  0  0  0  0  0  0  0  0
  149.2771  131.7847  154.0493 C   0  0  0  0  0  0  0  0  0  0  0  0
  148.9220  132.8667  154.8817 C   0  0  0  0  0  0  0  0  0  0  0  0
  147.5626  133.0393  155.1490 C   0  0  0  0  0  0  0  0  0  0  0  0
  150.4394  137.8315  154.3446 C   0  0  0  0  0  0  0  0  0  0  0  0
  150.9893  138.9783  155.2185 C   0  0  1  0  0  0  0  0  0  0  0  0
  152.5195  139.0498  155.1796 C   0  0  0  0  0  0  0  0  0  0  0  0
  150.4761  140.2150  154.7340 O   0  0  0  0  0  0  0  0  0  0  0  0
  147.5443  141.7945  154.3623 H   0  0  0  0  0  0  0  0  0  0  0  0
  148.9420  141.8578  153.2892 H   0  0  0  0  0  0  0  0  0  0  0  0
  149.0682  142.4622  154.9391 H   0  0  0  0  0  0  0  0  0  0  0  0
  148.7401  140.1849  155.8392 H   0  0  0  0  0  0  0  0  0  0  0  0
  147.3593  139.2077  153.9677 H   0  0  0  0  0  0  0  0  0  0  0  0
  148.7189  139.3340  152.8899 H   0  0  0  0  0  0  0  0  0  0  0  0
  148.7540  137.7879  156.4413 H   0  0  0  0  0  0  0  0  0  0  0  0
  147.2852  137.4836  155.5663 H   0  0  0  0  0  0  0  0  0  0  0  0
  148.6281  135.2560  154.7727 H   0  0  0  0  0  0  0  0  0  0  0  0
  150.5158  136.0944  155.8907 H   0  0  0  0  0  0  0  0  0  0  0  0
  148.0511  134.5952  157.4876 H   0  0  0  0  0  0  0  0  0  0  0  0
  146.8507  135.7638  157.0253 H   0  0  0  0  0  0  0  0  0  0  0  0
  144.6135  134.4838  157.6255 H   0  0  0  0  0  0  0  0  0  0  0  0
  144.3815  135.4629  156.1900 H   0  0  0  0  0  0  0  0  0  0  0  0
  143.2707  133.0762  155.7940 H   0  0  0  0  0  0  0  0  0  0  0  0
  146.1886  130.4254  153.3825 H   0  0  0  0  0  0  0  0  0  0  0  0
  148.6145  130.0995  152.8796 H   0  0  0  0  0  0  0  0  0  0  0  0
  150.3188  131.6176  153.8151 H   0  0  0  0  0  0  0  0  0  0  0  0
  149.6835  133.5187  155.2823 H   0  0  0  0  0  0  0  0  0  0  0  0
  150.8190  136.8661  154.6817 H   0  0  0  0  0  0  0  0  0  0  0  0
  150.7906  137.9547  153.3191 H   0  0  0  0  0  0  0  0  0  0  0  0
  150.6802  138.8418  156.2560 H   0  0  0  0  0  0  0  0  0  0  0  0
  152.9656  138.1266  155.5502 H   0  0  0  0  0  0  0  0  0  0  0  0
  152.8874  139.8679  155.7993 H   0  0  0  0  0  0  0  0  0  0  0  0
  152.8822  139.2130  154.1644 H   0  0  0  0  0  0  0  0  0  0  0  0
  148.6909  137.1893  153.5938 H   0  0  0  0  0  0  0  0  0  0  0  0
  144.4553  132.1777  154.8698 H   0  0  0  0  0  0  0  0  0  0  0  0
  1  2  1  0  0  0  0
  1 24  1  0  0  0  0
  1 25  1  0  0  0  0
  1 26  1  0  0  0  0
  2 23  1  0  0  0  0
  2  3  1  0  0  0  0
  2 27  1  0  0  0  0
  3  4  1  0  0  0  0
  3 28  1  0  0  0  0
  3 29  1  0  0  0  0
  4  5  1  0  0  0  0
  4 20  1  0  0  0  0
  4 49  1  0  0  0  0
  5  6  1  0  0  0  0
  5 30  1  0  0  0  0
  5 31  1  0  0  0  0
  6  7  1  0  0  0  0
  6  8  1  0  0  0  0
  6 32  1  0  0  0  0
  7 33  1  0  0  0  0
  8  9  1  0  0  0  0
  8 34  1  0  0  0  0
  8 35  1  0  0  0  0
  9 19  1  0  0  0  0
  9 10  1  0  0  0  0
 10 11  1  0  0  0  0
 10 13  2  0  0  0  0
 11 12  1  0  0  0  0
 11 36  1  0  0  0  0
 11 37  1  0  0  0  0
 12 38  1  0  0  0  0
 13 14  1  0  0  0  0
 13 50  1  0  0  0  0
 14 19  2  0  0  0  0
 14 15  1  0  0  0  0
 15 16  2  0  0  0  0
 15 39  1  0  0  0  0
 16 17  1  0  0  0  0
 16 40  1  0  0  0  0
 17 18  2  0  0  0  0
 17 41  1  0  0  0  0
 18 19  1  0  0  0  0
 18 42  1  0  0  0  0
 20 21  1  0  0  0  0
 20 43  1  0  0  0  0
 20 44  1  0  0  0  0
 21 22  1  0  0  0  0
 21 23  1  0  0  0  0
 21 45  1  0  0  0  0
 22 46  1  0  0  0  0
 22 47  1  0  0  0  0
 22 48  1  0  0  0  0
M  CHG  1   4   1
M  CHG  1  13   1
M  END
> <s_m_source_file>
AV-unprocessed.smi

> <i_m_source_file_index>
1703

> <i_lp_mmshare_version>
43012

> <i_f3d_flags>
0

> <s_epik_input>
W0NIM11bQ0BASF0xW0NIMl1OKFtDSDJdW0NASF0oTzEpW0NIM10pW0NIMl1bQ0BIXShbT0hdKVtDSDJdbihjKG4yKVtDSDJdW09IXSljKGMyMylbY0hdW2NIXVtjSF1bY0hdMw==

> <s_epik_cmdline>
J2VwaWtfcHl0aG9uJywgJy1waCcsICc3LjAnLCAnLXRuJywgJzgnLCAnLW1hJywgJzIwMCcsICctbWV0YWxfYmluZGluZycsICctaW1hZScsICc8aW5maWxlLm1hZT4nLCAnLW9tYWUnLCAnPG91dGZpbGUubWFlPic=

> <r_epik_Ionization_Penalty>
2.22579

> <r_epik_Ionization_Penalty_Charging>
2.22492

> <r_epik_Ionization_Penalty_Neutral>
0.000870007

> <r_epik_State_Penalty>
2.3141

> <r_epik_Charging_Adjusted_Penalty>
4.53902

> <i_epik_Tot_Q>
2

> <i_epik_Tot_abs_Q>
2

> <r_epik_Metal_State_Penalty>
6.36517

> <b_epik_Metal_Only>
0

> <s_lp_Force_Field>
OPLS_2005

> <r_lp_Energy>
31.3011

> <b_lp_Chiralities_Consistent>
1

> <s_lp_Variant>
AV-unprocessed.smi:1703-24

> <Gold.Version>
5.8.1

> <Gold.Id.Protein>
6NUR|6NUR_protein|mol2

> <Gold.PLP.Fitness>
49.0590

> <Gold.PLP.PLP>
-30.5155

> <Gold.PLP.part.hbond>
-5.0000

> <Gold.PLP.part.metal>
0.0000

> <Gold.PLP.part.buried>
-3.0294

> <Gold.PLP.part.nonpolar>
-23.6362

> <Gold.PLP.part.repulsive>
0.0750

> <Gold.PLP.ligand.clash>
0.0000

> <Gold.PLP.ligand.torsion>
1.2511

> <Gold.PLP.Chemscore.Hbond>
6.9913

> <Gold.PLP.Chemscore.CHOScore>
0.0000

> <Gold.PLP.Chemscore.Metal>
0.0000

> <Gold.Chemscore.Hbonds>
donor molecule, donor type, donor heavy atom, donor atom, acceptor molecule, acceptor atom, score
      L1  H     4    49       P1  7948  2.00
      L1  H    12    38       P1 10957  1.00
      L1  H    13    50       P1 10957  2.00
      P1  H  7989  7998       L1    23  1.00
      P1  H 11000 11005       L1    12  0.94

> <Gold.PLP.Chemscore.Internal.Correction>
0.0719

> <Gold.Rescore>
     Score         DG    S(hbond)    S(metal)    S(lipo)     H(rot)  DE(clash)    DE(int)     intcor
     17.73     -18.98       3.81        0.00      72.95       3.04       0.06       1.19       ----

> <Gold.Chemscore.Fitness>
17.7271

> <Gold.Chemscore.DG>
-18.9784

> <Gold.Chemscore.ZeroCoef>
-5.4800

> <Gold.Chemscore.Hbond>
3.8144

> <Gold.Chemscore.Metal>
0.0000

> <Gold.Chemscore.Lipo>
72.9478

> <Gold.Chemscore.Internal_Hbond>
0.0000

> <Gold.Chemscore.DEClash>
0.0586

> <Gold.Chemscore.DEInternal>
1.1926

> <Gold.Chemscore.Rot>
3.0378

> <Gold.Chemscore.Internal.Correction>
   9.000000E+99

> <Gold.Chemscore.Hbonds>
donor molecule, donor type, donor heavy atom, donor atom, acceptor molecule, acceptor atom, score
      L1  H     4    49       P1  7948  0.94
      L1  H    12    38       P1 10957  0.96
      L1  H    13    50       P1 10957  0.65
      P1  H  7989  7998       L1    23  0.70
      P1  H 11000 11005       L1    12  0.23

> <Gold.Chemscore.Hbond.Weighted>
-12.7402

> <Gold.Chemscore.Metal.Weighted>
-0.0000

> <Gold.Chemscore.Lipo.Weighted>
-8.5349

> <Gold.Chemscore.Internal_Hbond.Weighted>
0.0000

> <Gold.Chemscore.DEClash.Weighted>
0.0586

> <Gold.Chemscore.DEInternal.Weighted>
1.1926

> <Gold.Chemscore.Rot.Weighted>
7.7767

> <Gold.Chemscore.Internal.Correction.Weighted>
   9.000000E+99

> <Gold.Protein.RotatedTorsions>
[ 6907 6896 6895 6894 ] final  113.96 input  -60.11 | X-H torsion
[ 7974 7965 7964 7962 ] final  159.44 input  175.53 | X-H torsion
[ 8008 7997 7996 7995 ] final    7.69 input   59.86 | X-H torsion
[ 10167 10162 10161 10158 ] final -142.80 input  -65.29 | X-H torsion
[ 10718 10713 10712 10709 ] final  178.06 input   66.30 | X-H torsion
[ 10763 10752 10751 10750 ] final -120.34 input  -60.55 | X-H torsion
[ 11005 11000 10999 10996 ] final  -74.54 input  -57.11 | X-H torsion

> <Gold.Protein.ActiveResidues>
 VAL166  LYS551  ARG553  GLY616  TRP617  ASP618  TYR619  PRO620  LYS621  CYS622 
 ASP623  PHE694  ASN695  SER759  ASP760  ASP761  ALA762  ILE779  LEU786  VAL792 
 PHE793  MET794  SER795  GLU796  ALA797  LYS798  CYS799  TRP800  GLU811  SER814 

> <Gold.Protein.RotatedAtoms>
  152.4830  133.8303  159.7099 H   0  0  0  0  0  0  0  0  0  0  0  0  # atno 6907 bound_to 6896
  150.8895  133.7253  159.2915 H   0  0  0  0  0  0  0  0  0  0  0  0  # atno 6908 bound_to 6896
  151.4730  135.1051  159.9809 H   0  0  0  0  0  0  0  0  0  0  0  0  # atno 6909 bound_to 6896
  144.7790  139.7618  143.6267 H   0  0  0  0  0  0  0  0  0  0  0  0  # atno 7974 bound_to 7965
  154.7571  140.2777  155.6244 H   0  0  0  0  0  0  0  0  0  0  0  0  # atno 8008 bound_to 7997
  156.2908  140.2667  156.2267 H   0  0  0  0  0  0  0  0  0  0  0  0  # atno 8009 bound_to 7997
  155.0064  140.0372  157.2371 H   0  0  0  0  0  0  0  0  0  0  0  0  # atno 8010 bound_to 7997
  139.8054  143.7775  152.2661 H   0  0  0  0  0  0  0  0  0  0  0  0  # atno 10167 bound_to 10162
  156.8962  130.9864  151.3042 H   0  0  0  0  0  0  0  0  0  0  0  0  # atno 10718 bound_to 10713
  154.8641  135.4206  154.2443 H   0  0  0  0  0  0  0  0  0  0  0  0  # atno 10763 bound_to 10752
  153.3402  135.6993  153.6879 H   0  0  0  0  0  0  0  0  0  0  0  0  # atno 10764 bound_to 10752
  153.5860  135.3564  155.2866 H   0  0  0  0  0  0  0  0  0  0  0  0  # atno 10765 bound_to 10752
  141.1636  133.6915  156.7381 H   0  0  0  0  0  0  0  0  0  0  0  0  # atno 11005 bound_to 11000
  146.1987  139.5269  142.9757 LP  0  0  0  0  0  0  0  0  0  0  0  0  # atno 17320 bound_to 7965
  145.6104  141.0340  143.1970 LP  0  0  0  0  0  0  0  0  0  0  0  0  # atno 17321 bound_to 7965
  139.7908  144.7411  150.9957 LP  0  0  0  0  0  0  0  0  0  0  0  0  # atno 17342 bound_to 10162
  140.7819  143.4444  151.0504 LP  0  0  0  0  0  0  0  0  0  0  0  0  # atno 17343 bound_to 10162
  157.6054  130.8543  149.8867 LP  0  0  0  0  0  0  0  0  0  0  0  0  # atno 17370 bound_to 10713
  156.0604  130.3701  150.0994 LP  0  0  0  0  0  0  0  0  0  0  0  0  # atno 17371 bound_to 10713
  140.2695  134.8403  157.3834 LP  0  0  0  0  0  0  0  0  0  0  0  0  # atno 17394 bound_to 11000
  140.1535  134.4820  155.7944 LP  0  0  0  0  0  0  0  0  0  0  0  0  # atno 17395 bound_to 11000

$$$$
