AV-unprocessed.smi:140|AV-procd|sdf|1186|dock7
  -GOLD-   2262018343D 1   1.00000     0.00000
 Structure written by MMmdl.
 52 55  0  0  0  0  0  0  0  0  1 V2000
  151.5022  139.1044  155.0466 C   0  0  0  0  0  0  0  0  0  0  0  0
  150.0516  138.9230  154.7322 C   0  0  0  0  0  0  0  0  0  0  0  0
  149.3304  137.7731  154.6043 C   0  0  0  0  0  0  0  0  0  0  0  0
  147.9836  138.1139  154.2989 C   0  0  0  0  0  0  0  0  0  0  0  0
  146.8360  137.2044  154.0531 C   0  0  0  0  0  0  0  0  0  0  0  0
  145.9934  137.4024  153.1763 O   0  0  0  0  0  0  0  0  0  0  0  0
  146.7552  135.9685  154.9689 C   0  0  0  0  0  0  0  0  0  0  0  0
  146.9614  134.7147  154.2553 N   0  0  0  0  0  0  0  0  0  0  0  0
  148.2056  134.0555  154.4181 C   0  0  0  0  0  0  0  0  0  0  0  0
  149.0986  134.5089  155.1360 O   0  0  0  0  0  0  0  0  0  0  0  0
  148.3371  132.8156  153.6610 C   0  0  0  0  0  0  0  0  0  0  0  0
  149.4712  132.1001  153.7504 F   0  0  0  0  0  0  0  0  0  0  0  0
  147.3372  132.3710  152.8692 C   0  0  0  0  0  0  0  0  0  0  0  0
  146.1368  133.0460  152.7163 N   0  0  0  0  0  0  0  0  0  0  0  0
  145.0348  132.5331  151.8147 C   0  0  1  0  0  0  0  0  0  0  0  0
  144.6658  133.5890  150.7564 C   0  0  0  0  0  0  0  0  0  0  0  0
  144.7104  132.7957  149.4659 C   0  0  0  0  0  0  0  0  0  0  0  0
  145.7664  131.7467  149.7802 C   0  0  0  0  0  0  0  0  0  0  0  0
  145.4736  131.3961  151.1267 O   0  0  0  0  0  0  0  0  0  0  0  0
  145.9190  134.2521  153.4167 C   0  0  0  0  0  0  0  0  0  0  0  0
  144.8627  134.8754  153.2854 O   0  0  0  0  0  0  0  0  0  0  0  0
  147.9071  139.4871  154.2581 C   0  0  0  0  0  0  0  0  0  0  0  0
  146.7374  140.3956  153.9972 C   0  0  0  0  0  0  0  0  0  0  0  0
  149.1863  139.9878  154.5091 N   0  0  0  0  0  0  0  0  0  0  0  0
  149.5637  141.3980  154.5420 C   0  0  0  0  0  0  0  0  0  0  0  0
  149.9760  141.8623  155.9039 C   0  0  0  0  0  0  0  0  0  0  0  0
  151.1996  142.3393  156.3033 C   0  0  0  0  0  0  0  0  0  0  0  0
  151.2420  142.6929  157.6836 C   0  0  0  0  0  0  0  0  0  0  0  0
  150.0486  142.4840  158.3215 C   0  0  0  0  0  0  0  0  0  0  0  0
  148.8454  141.8480  157.2342 S   0  0  0  0  0  0  0  0  0  0  0  0
  151.9638  138.1521  155.3085 H   0  0  0  0  0  0  0  0  0  0  0  0
  151.6413  139.7821  155.8890 H   0  0  0  0  0  0  0  0  0  0  0  0
  152.0388  139.5091  154.1883 H   0  0  0  0  0  0  0  0  0  0  0  0
  149.7378  136.7790  154.7164 H   0  0  0  0  0  0  0  0  0  0  0  0
  147.4925  136.0276  155.7708 H   0  0  0  0  0  0  0  0  0  0  0  0
  145.7876  135.9156  155.4703 H   0  0  0  0  0  0  0  0  0  0  0  0
  147.5025  131.4451  152.3401 H   0  0  0  0  0  0  0  0  0  0  0  0
  144.2121  132.2565  152.4765 H   0  0  0  0  0  0  0  0  0  0  0  0
  143.6881  134.0259  150.9618 H   0  0  0  0  0  0  0  0  0  0  0  0
  145.4133  134.3839  150.7399 H   0  0  0  0  0  0  0  0  0  0  0  0
  143.7479  132.3152  149.2861 H   0  0  0  0  0  0  0  0  0  0  0  0
  144.9586  133.4050  148.5965 H   0  0  0  0  0  0  0  0  0  0  0  0
  145.7131  130.8812  149.1197 H   0  0  0  0  0  0  0  0  0  0  0  0
  146.7680  132.1733  149.7106 H   0  0  0  0  0  0  0  0  0  0  0  0
  145.8635  140.0744  154.5638 H   0  0  0  0  0  0  0  0  0  0  0  0
  146.4744  140.3872  152.9395 H   0  0  0  0  0  0  0  0  0  0  0  0
  146.9258  141.4277  154.2855 H   0  0  0  0  0  0  0  0  0  0  0  0
  150.3728  141.5783  153.8353 H   0  0  0  0  0  0  0  0  0  0  0  0
  148.7261  141.9903  154.1728 H   0  0  0  0  0  0  0  0  0  0  0  0
  152.0602  142.4425  155.6591 H   0  0  0  0  0  0  0  0  0  0  0  0
  152.1338  143.0818  158.1528 H   0  0  0  0  0  0  0  0  0  0  0  0
  149.8036  142.6637  159.3580 H   0  0  0  0  0  0  0  0  0  0  0  0
  1  2  1  0  0  0  0
  1 31  1  0  0  0  0
  1 32  1  0  0  0  0
  1 33  1  0  0  0  0
  2 24  1  0  0  0  0
  2  3  2  0  0  0  0
  3  4  1  0  0  0  0
  3 34  1  0  0  0  0
  4  5  1  0  0  0  0
  4 22  2  0  0  0  0
  5  6  2  0  0  0  0
  5  7  1  0  0  0  0
  7  8  1  0  0  0  0
  7 35  1  0  0  0  0
  7 36  1  0  0  0  0
  8 20  1  0  0  0  0
  8  9  1  0  0  0  0
  9 10  2  0  0  0  0
  9 11  1  0  0  0  0
 11 12  1  0  0  0  0
 11 13  2  0  0  0  0
 13 14  1  0  0  0  0
 13 37  1  0  0  0  0
 14 15  1  0  0  0  0
 14 20  1  0  0  0  0
 15 19  1  0  0  0  0
 15 16  1  0  0  0  0
 15 38  1  0  0  0  0
 16 17  1  0  0  0  0
 16 39  1  0  0  0  0
 16 40  1  0  0  0  0
 17 18  1  0  0  0  0
 17 41  1  0  0  0  0
 17 42  1  0  0  0  0
 18 19  1  0  0  0  0
 18 43  1  0  0  0  0
 18 44  1  0  0  0  0
 20 21  2  0  0  0  0
 22 23  1  0  0  0  0
 22 24  1  0  0  0  0
 23 45  1  0  0  0  0
 23 46  1  0  0  0  0
 23 47  1  0  0  0  0
 24 25  1  0  0  0  0
 25 26  1  0  0  0  0
 25 48  1  0  0  0  0
 25 49  1  0  0  0  0
 26 30  1  0  0  0  0
 26 27  2  0  0  0  0
 27 28  1  0  0  0  0
 27 50  1  0  0  0  0
 28 29  2  0  0  0  0
 28 51  1  0  0  0  0
 29 30  1  0  0  0  0
 29 52  1  0  0  0  0
M  END
> <s_m_source_file>
AV-unprocessed.smi

> <i_m_source_file_index>
140

> <i_lp_mmshare_version>
43012

> <i_f3d_flags>
0

> <s_epik_input>
czFbY0hdW2NIXVtjSF1jMVtDSDJdbjJjKFtDSDNdKWMoW2NIXWMyW0NIM10pQyg9TylbQ0gyXW4zYyg9TyljKEYpW2NIXW4oYzM9TylbQ0BASF00W0NIMl1bQ0gyXVtDSDJdTzQ=

> <s_epik_cmdline>
J2VwaWtfcHl0aG9uJywgJy1waCcsICc3LjAnLCAnLXRuJywgJzgnLCAnLW1hJywgJzIwMCcsICctbWV0YWxfYmluZGluZycsICctaW1hZScsICc8aW5maWxlLm1hZT4nLCAnLW9tYWUnLCAnPG91dGZpbGUubWFlPic=

> <r_lp_tautomer_probability>
1

> <r_epik_Ionization_Penalty>
5.024e-09

> <r_epik_Ionization_Penalty_Charging>
5.01743e-09

> <r_epik_Ionization_Penalty_Neutral>
6.5712e-12

> <r_epik_State_Penalty>
-0

> <r_epik_Charging_Adjusted_Penalty>
5.01743e-09

> <i_epik_Tot_Q>
0

> <i_epik_Tot_abs_Q>
0

> <r_epik_Metal_State_Penalty>
-0

> <b_epik_Metal_Only>
0

> <s_epik_Chemistry_Notes>
This compound contains an acetal/aminal-like group ( X-CH(R)-Y where X, Y are N, S, or O) that may be acid/base labile, releasing an aldehyde.

> <s_lp_Force_Field>
OPLS_2005

> <r_lp_Energy>
38.6163

> <b_lp_Chiralities_Consistent>
1

> <s_lp_Variant>
AV-unprocessed.smi:140-2

> <Gold.Version>
5.8.1

> <Gold.Id.Protein>
6NUR|6NUR_protein|mol2

> <Gold.PLP.Fitness>
44.1347

> <Gold.PLP.PLP>
-42.9111

> <Gold.PLP.part.hbond>
0.0000

> <Gold.PLP.part.metal>
0.0000

> <Gold.PLP.part.buried>
-3.4384

> <Gold.PLP.part.nonpolar>
-39.1060

> <Gold.PLP.part.repulsive>
0.4542

> <Gold.PLP.ligand.clash>
0.0000

> <Gold.PLP.ligand.torsion>
0.9187

> <Gold.PLP.Chemscore.Hbond>
0.0000

> <Gold.PLP.Chemscore.CHOScore>
0.9969

> <Gold.PLP.Chemscore.Metal>
0.0000

> <Gold.Chemscore.Hbonds>
donor molecule, donor type, donor heavy atom, donor atom, acceptor molecule, acceptor atom, score
      L1  C    13    37       P1 10747  0.83

> <Gold.PLP.Chemscore.Internal.Correction>
0.0702

> <Gold.Rescore>
     Score         DG    S(hbond)    S(metal)    S(lipo)     H(rot)  DE(clash)    DE(int)     intcor
     10.19     -13.91       0.00        0.00     113.00       1.87       0.26       3.46       ----

> <Gold.Chemscore.Fitness>
10.1885

> <Gold.Chemscore.DG>
-13.9107

> <Gold.Chemscore.ZeroCoef>
-5.4800

> <Gold.Chemscore.Hbond>
0.0000

> <Gold.Chemscore.Metal>
0.0000

> <Gold.Chemscore.Lipo>
113.0013

> <Gold.Chemscore.Internal_Hbond>
0.0000

> <Gold.Chemscore.DEClash>
0.2645

> <Gold.Chemscore.DEInternal>
3.4577

> <Gold.Chemscore.Rot>
1.8713

> <Gold.Chemscore.Internal.Correction>
   9.000000E+99

> <Gold.Chemscore.Hbond.Weighted>
-0.0000

> <Gold.Chemscore.Metal.Weighted>
-0.0000

> <Gold.Chemscore.Lipo.Weighted>
-13.2212

> <Gold.Chemscore.Internal_Hbond.Weighted>
0.0000

> <Gold.Chemscore.DEClash.Weighted>
0.2645

> <Gold.Chemscore.DEInternal.Weighted>
3.4577

> <Gold.Chemscore.Rot.Weighted>
4.7905

> <Gold.Chemscore.Internal.Correction.Weighted>
   9.000000E+99

> <Gold.Protein.RotatedTorsions>
[ 6907 6896 6895 6894 ] final   76.80 input  -60.11 | X-H torsion
[ 7974 7965 7964 7962 ] final  -77.58 input  175.53 | X-H torsion
[ 8008 7997 7996 7995 ] final   33.16 input   59.86 | X-H torsion
[ 10167 10162 10161 10158 ] final  178.71 input  -65.29 | X-H torsion
[ 10718 10713 10712 10709 ] final  109.70 input   66.30 | X-H torsion
[ 10763 10752 10751 10750 ] final  147.39 input  -60.55 | X-H torsion
[ 11005 11000 10999 10996 ] final -137.06 input  -57.11 | X-H torsion

> <Gold.Protein.ActiveResidues>
 VAL166  LYS551  ARG553  GLY616  TRP617  ASP618  TYR619  PRO620  LYS621  CYS622 
 ASP623  PHE694  ASN695  SER759  ASP760  ASP761  ALA762  ILE779  LEU786  VAL792 
 PHE793  MET794  SER795  GLU796  ALA797  LYS798  CYS799  TRP800  GLU811  SER814 

> <Gold.Protein.RotatedAtoms>
  152.5089  134.3914  159.9385 H   0  0  0  0  0  0  0  0  0  0  0  0  # atno 6907 bound_to 6896
  151.3874  133.3794  159.2725 H   0  0  0  0  0  0  0  0  0  0  0  0  # atno 6908 bound_to 6896
  150.9458  134.8884  159.7700 H   0  0  0  0  0  0  0  0  0  0  0  0  # atno 6909 bound_to 6896
  145.5978  140.9415  143.1257 H   0  0  0  0  0  0  0  0  0  0  0  0  # atno 7974 bound_to 7965
  155.1341  140.3260  155.4467 H   0  0  0  0  0  0  0  0  0  0  0  0  # atno 8008 bound_to 7997
  156.2625  140.2005  156.6408 H   0  0  0  0  0  0  0  0  0  0  0  0  # atno 8009 bound_to 7997
  154.6591  140.0549  157.0028 H   0  0  0  0  0  0  0  0  0  0  0  0  # atno 8010 bound_to 7997
  139.5305  144.2648  152.0677 H   0  0  0  0  0  0  0  0  0  0  0  0  # atno 10167 bound_to 10162
  157.6529  131.0918  150.6492 H   0  0  0  0  0  0  0  0  0  0  0  0  # atno 10718 bound_to 10713
  154.0376  135.2892  155.3359 H   0  0  0  0  0  0  0  0  0  0  0  0  # atno 10763 bound_to 10752
  154.6949  135.5212  153.8447 H   0  0  0  0  0  0  0  0  0  0  0  0  # atno 10764 bound_to 10752
  153.0613  135.6615  154.0583 H   0  0  0  0  0  0  0  0  0  0  0  0  # atno 10765 bound_to 10752
  140.8747  134.2007  157.4629 H   0  0  0  0  0  0  0  0  0  0  0  0  # atno 11005 bound_to 11000
  144.7323  139.7689  143.7342 LP  0  0  0  0  0  0  0  0  0  0  0  0  # atno 17320 bound_to 7965
  146.1599  139.4709  142.9995 LP  0  0  0  0  0  0  0  0  0  0  0  0  # atno 17321 bound_to 7965
  140.2111  144.4562  150.6385 LP  0  0  0  0  0  0  0  0  0  0  0  0  # atno 17342 bound_to 10162
  140.6480  143.2218  151.6142 LP  0  0  0  0  0  0  0  0  0  0  0  0  # atno 17343 bound_to 10162
  156.6802  130.4565  149.5630 LP  0  0  0  0  0  0  0  0  0  0  0  0  # atno 17370 bound_to 10713
  156.1935  130.6575  151.1088 LP  0  0  0  0  0  0  0  0  0  0  0  0  # atno 17371 bound_to 10713
  139.8714  134.9790  156.5020 LP  0  0  0  0  0  0  0  0  0  0  0  0  # atno 17394 bound_to 11000
  140.8532  133.8116  155.9190 LP  0  0  0  0  0  0  0  0  0  0  0  0  # atno 17395 bound_to 11000

$$$$
