AV-unprocessed.smi:2820|AV-procd|sdf|10854|dock1
  -GOLD-   2272015293D 1   1.00000     0.00000
 Structure written by MMmdl.
 29 30  0  0  0  0  0  0  0  0  1 V2000
  147.5139  140.6815  153.7089 C   0  0  0  0  0  0  0  0  0  0  0  0
  148.9044  140.2632  153.6451 N   0  0  0  0  0  0  0  0  0  0  0  0
  149.7695  140.4710  154.7288 C   0  0  0  0  0  0  0  0  0  0  0  0
  150.7920  139.5639  155.0916 C   0  0  0  0  0  0  0  0  0  0  0  0
  151.6104  139.8637  156.1977 C   0  0  0  0  0  0  0  0  0  0  0  0
  151.3818  141.0602  156.9080 C   0  0  0  0  0  0  0  0  0  0  0  0
  152.1953  141.3644  158.0088 N   0  0  0  0  0  0  0  0  0  0  0  0
  151.8629  142.6352  158.6408 C   0  0  0  0  0  0  0  0  0  0  0  0
  152.8779  142.9512  159.7529 C   0  0  0  0  0  0  0  0  0  0  0  0
  152.9148  141.8754  160.6867 O   0  0  0  0  0  0  0  0  0  0  0  0
  153.3089  140.6498  160.0761 C   0  0  0  0  0  0  0  0  0  0  0  0
  152.3034  140.2763  158.9731 C   0  0  0  0  0  0  0  0  0  0  0  0
  150.4052  141.9339  156.5676 N   0  0  0  0  0  0  0  0  0  0  0  0
  149.6254  141.6395  155.5060 C   0  0  0  0  0  0  0  0  0  0  0  0
  147.0102  140.4365  152.7738 H   0  0  0  0  0  0  0  0  0  0  0  0
  147.4392  141.7584  153.8625 H   0  0  0  0  0  0  0  0  0  0  0  0
  146.9919  140.1716  154.5192 H   0  0  0  0  0  0  0  0  0  0  0  0
  149.2457  139.8211  152.8034 H   0  0  0  0  0  0  0  0  0  0  0  0
  150.9604  138.6495  154.5423 H   0  0  0  0  0  0  0  0  0  0  0  0
  152.3980  139.1862  156.4935 H   0  0  0  0  0  0  0  0  0  0  0  0
  151.8630  143.4311  157.8950 H   0  0  0  0  0  0  0  0  0  0  0  0
  150.8576  142.5864  159.0617 H   0  0  0  0  0  0  0  0  0  0  0  0
  153.8722  143.1188  159.3361 H   0  0  0  0  0  0  0  0  0  0  0  0
  152.5925  143.8648  160.2744 H   0  0  0  0  0  0  0  0  0  0  0  0
  154.3169  140.7419  159.6688 H   0  0  0  0  0  0  0  0  0  0  0  0
  153.3417  139.8686  160.8355 H   0  0  0  0  0  0  0  0  0  0  0  0
  151.3270  140.0768  159.4166 H   0  0  0  0  0  0  0  0  0  0  0  0
  152.6220  139.3640  158.4674 H   0  0  0  0  0  0  0  0  0  0  0  0
  148.8597  142.3643  155.2702 H   0  0  0  0  0  0  0  0  0  0  0  0
  1  2  1  0  0  0  0
  1 15  1  0  0  0  0
  1 16  1  0  0  0  0
  1 17  1  0  0  0  0
  2  3  1  0  0  0  0
  2 18  1  0  0  0  0
  3 14  1  0  0  0  0
  3  4  2  0  0  0  0
  4  5  1  0  0  0  0
  4 19  1  0  0  0  0
  5  6  2  0  0  0  0
  5 20  1  0  0  0  0
  6  7  1  0  0  0  0
  6 13  1  0  0  0  0
  7 12  1  0  0  0  0
  7  8  1  0  0  0  0
  8  9  1  0  0  0  0
  8 21  1  0  0  0  0
  8 22  1  0  0  0  0
  9 10  1  0  0  0  0
  9 23  1  0  0  0  0
  9 24  1  0  0  0  0
 10 11  1  0  0  0  0
 11 12  1  0  0  0  0
 11 25  1  0  0  0  0
 11 26  1  0  0  0  0
 12 27  1  0  0  0  0
 12 28  1  0  0  0  0
 13 14  2  0  0  0  0
 14 29  1  0  0  0  0
M  END
> <s_m_source_file>
AV-unprocessed.smi

> <i_m_source_file_index>
2820

> <i_lp_mmshare_version>
43012

> <i_f3d_flags>
0

> <s_epik_input>
W0NIM11bTkhdYzFbY0hdW2NIXWMobltjSF0xKU4yW0NIMl1bQ0gyXU9bQ0gyXVtDSDJdMg==

> <s_epik_cmdline>
J2VwaWtfcHl0aG9uJywgJy1waCcsICc3LjAnLCAnLXRuJywgJzgnLCAnLW1hJywgJzIwMCcsICctbWV0YWxfYmluZGluZycsICctaW1hZScsICc8aW5maWxlLm1hZT4nLCAnLW9tYWUnLCAnPG91dGZpbGUubWFlPic=

> <r_lp_tautomer_probability>
1

> <r_epik_Ionization_Penalty>
0.0411205

> <r_epik_Ionization_Penalty_Charging>
0

> <r_epik_Ionization_Penalty_Neutral>
0.0411205

> <r_epik_State_Penalty>
0.0346301

> <r_epik_Charging_Adjusted_Penalty>
0.0346301

> <i_epik_Tot_Q>
0

> <i_epik_Tot_abs_Q>
0

> <r_epik_Metal_State_Penalty>
3.56611e-05

> <b_epik_Metal_Only>
0

> <s_lp_Force_Field>
OPLS_2005

> <r_lp_Energy>
22.0638

> <b_lp_Chiralities_Consistent>
1

> <s_lp_Variant>
AV-unprocessed.smi:2820-1

> <Gold.Version>
5.8.1

> <Gold.Id.Protein>
6NUR|6NUR_protein|mol2

> <Gold.PLP.Fitness>
33.1687

> <Gold.PLP.PLP>
-27.7813

> <Gold.PLP.part.hbond>
-1.0000

> <Gold.PLP.part.metal>
0.0000

> <Gold.PLP.part.buried>
-1.4610

> <Gold.PLP.part.nonpolar>
-24.7483

> <Gold.PLP.part.repulsive>
0.2690

> <Gold.PLP.ligand.clash>
0.0000

> <Gold.PLP.ligand.torsion>
0.3367

> <Gold.PLP.Chemscore.Hbond>
0.9920

> <Gold.PLP.Chemscore.CHOScore>
0.9950

> <Gold.PLP.Chemscore.Metal>
0.0000

> <Gold.Chemscore.Hbonds>
donor molecule, donor type, donor heavy atom, donor atom, acceptor molecule, acceptor atom, score
      L1  H     2    18       P1  7957  0.91
      L1  C    14    29       P1  8028  0.98

> <Gold.PLP.Chemscore.Internal.Correction>
0.0999

> <Gold.Rescore>
     Score         DG    S(hbond)    S(metal)    S(lipo)     H(rot)  DE(clash)    DE(int)     intcor
     14.22     -14.82       0.99        0.00      73.55       1.00       0.05       0.55       ----

> <Gold.Chemscore.Fitness>
14.2172

> <Gold.Chemscore.DG>
-14.8154

> <Gold.Chemscore.ZeroCoef>
-5.4800

> <Gold.Chemscore.Hbond>
0.9852

> <Gold.Chemscore.Metal>
0.0000

> <Gold.Chemscore.Lipo>
73.5454

> <Gold.Chemscore.Internal_Hbond>
0.0000

> <Gold.Chemscore.DEClash>
0.0511

> <Gold.Chemscore.DEInternal>
0.5471

> <Gold.Chemscore.Rot>
1.0000

> <Gold.Chemscore.Internal.Correction>
   9.000000E+99

> <Gold.Chemscore.Hbonds>
donor molecule, donor type, donor heavy atom, donor atom, acceptor molecule, acceptor atom, score
      L1  H     2    18       P1  7957  0.90

> <Gold.Chemscore.Hbond.Weighted>
-3.2906

> <Gold.Chemscore.Metal.Weighted>
-0.0000

> <Gold.Chemscore.Lipo.Weighted>
-8.6048

> <Gold.Chemscore.Internal_Hbond.Weighted>
0.0000

> <Gold.Chemscore.DEClash.Weighted>
0.0511

> <Gold.Chemscore.DEInternal.Weighted>
0.5471

> <Gold.Chemscore.Rot.Weighted>
2.5600

> <Gold.Chemscore.Internal.Correction.Weighted>
   9.000000E+99

> <Gold.Protein.RotatedTorsions>
[ 6907 6896 6895 6894 ] final  163.55 input  -60.11 | X-H torsion
[ 7974 7965 7964 7962 ] final  -18.01 input  175.53 | X-H torsion
[ 8008 7997 7996 7995 ] final   -8.42 input   59.86 | X-H torsion
[ 10167 10162 10161 10158 ] final  107.33 input  -65.29 | X-H torsion
[ 10718 10713 10712 10709 ] final  -71.66 input   66.30 | X-H torsion
[ 10763 10752 10751 10750 ] final  103.72 input  -60.55 | X-H torsion
[ 11005 11000 10999 10996 ] final -177.36 input  -57.11 | X-H torsion

> <Gold.Protein.ActiveResidues>
 VAL166  LYS551  ARG553  GLY616  TRP617  ASP618  TYR619  PRO620  LYS621  CYS622 
 ASP623  PHE694  ASN695  SER759  ASP760  ASP761  ALA762  ILE779  LEU786  VAL792 
 PHE793  MET794  SER795  GLU796  ALA797  LYS798  CYS799  TRP800  GLU811  SER814 

> <Gold.Protein.RotatedAtoms>
  151.9235  133.3592  159.3905 H   0  0  0  0  0  0  0  0  0  0  0  0  # atno 6907 bound_to 6896
  150.7032  134.4610  159.5390 H   0  0  0  0  0  0  0  0  0  0  0  0  # atno 6908 bound_to 6896
  152.2238  134.8387  160.0533 H   0  0  0  0  0  0  0  0  0  0  0  0  # atno 6909 bound_to 6896
  146.1913  140.3861  142.8457 H   0  0  0  0  0  0  0  0  0  0  0  0  # atno 7974 bound_to 7965
  154.5743  140.2381  155.8146 H   0  0  0  0  0  0  0  0  0  0  0  0  # atno 8008 bound_to 7997
  156.2131  140.3020  155.9735 H   0  0  0  0  0  0  0  0  0  0  0  0  # atno 8009 bound_to 7997
  155.2655  140.0416  157.2992 H   0  0  0  0  0  0  0  0  0  0  0  0  # atno 8010 bound_to 7997
  139.6936  144.7104  151.1306 H   0  0  0  0  0  0  0  0  0  0  0  0  # atno 10167 bound_to 10162
  156.0353  130.4356  150.2477 H   0  0  0  0  0  0  0  0  0  0  0  0  # atno 10718 bound_to 10713
  153.3564  135.3967  155.1685 H   0  0  0  0  0  0  0  0  0  0  0  0  # atno 10763 bound_to 10752
  154.8671  135.3669  154.5155 H   0  0  0  0  0  0  0  0  0  0  0  0  # atno 10764 bound_to 10752
  153.5611  135.7081  153.5607 H   0  0  0  0  0  0  0  0  0  0  0  0  # atno 10765 bound_to 10752
  140.4418  134.6424  157.4761 H   0  0  0  0  0  0  0  0  0  0  0  0  # atno 11005 bound_to 11000
  144.8492  140.6976  143.6179 LP  0  0  0  0  0  0  0  0  0  0  0  0  # atno 17320 bound_to 7965
  145.3783  139.1642  143.4294 LP  0  0  0  0  0  0  0  0  0  0  0  0  # atno 17321 bound_to 7965
  140.7690  143.5524  150.9190 LP  0  0  0  0  0  0  0  0  0  0  0  0  # atno 17342 bound_to 10162
  139.9202  143.6614  152.3098 LP  0  0  0  0  0  0  0  0  0  0  0  0  # atno 17343 bound_to 10162
  157.0576  131.0081  151.3233 LP  0  0  0  0  0  0  0  0  0  0  0  0  # atno 17370 bound_to 10713
  157.5094  130.7929  149.7689 LP  0  0  0  0  0  0  0  0  0  0  0  0  # atno 17371 bound_to 10713
  140.0065  134.6756  155.9447 LP  0  0  0  0  0  0  0  0  0  0  0  0  # atno 17394 bound_to 11000
  141.1702  133.6537  156.4625 LP  0  0  0  0  0  0  0  0  0  0  0  0  # atno 17395 bound_to 11000

$$$$
