#       Name:                AV-unprocessed.smi:1753
#       Creating user name   scv26
#       Creation time:       Fri Mar 27 08:28:03 2020


#       File generated by GOLD software.
#

@<TRIPOS>MOLECULE
AV-unprocessed.smi:1753
    40    41     1
SMALL
NO_CHARGES


@<TRIPOS>ATOM
      1 ****        -5.8635  -0.4629  -0.7962 C.3            1 S1                 0.0000
      2 ****        -4.5170   0.1589  -1.0213 C.2            1 S1                 0.0000
      3 ****        -3.2343  -0.4360  -0.8415 C.2            1 S1                 0.0000
      4 ****        -2.3819   0.5762  -1.1888 C.2            1 S1                 0.0000
      5 ****        -1.0225   0.5816  -1.2063 N.am           1 S1                 0.0000
      6 ****        -0.1739  -0.4101  -0.8844 C.2            1 S1                 0.0000
      7 ****        -0.4993  -1.5391  -0.5168 O.2            1 S1                 0.0000
      8 ****         1.1010  -0.0152  -1.0104 N.am           1 S1                 0.0000
      9 ****         2.2676  -0.8453  -0.7279 C.3            1 S1                 0.0000
     10 ****         2.5416  -0.9837   0.7834 C.3            1 S1                 0.0000
     11 ****         2.7558   0.3672   1.4982 C.3            1 S1                 0.0000
     12 ****         3.3032   0.0948   2.9021 C.3            1 S1                 0.0000
     13 ****         4.3766  -1.3781   2.7321 S.o2           1 S1                 0.0000
     14 ****         5.7785  -0.9502   2.6113 O.2            1 S1                 0.0000
     15 ****         3.9746  -2.3829   3.7281 O.2            1 S1                 0.0000
     16 ****         3.7626  -1.8708   1.0758 C.3            1 S1                 0.0000
     17 ****        -3.1237   1.6802  -1.5457 N.pl3          1 S1                 0.0000
     18 ****        -2.6761   2.9878  -1.9837 C.3            1 S1                 0.0000
     19 ****        -4.4442   1.4174  -1.4403 N.2            1 S1                 0.0000
     20 ****        -5.7690  -1.4809  -0.4178 H              1 S1                 0.0000
     21 ****        -6.4356  -0.5057  -1.7232 H              1 S1                 0.0000
     22 ****        -6.4438   0.1076  -0.0706 H              1 S1                 0.0000
     23 ****        -3.0032  -1.4377  -0.5119 H              1 S1                 0.0000
     24 ****        -0.6009   1.4519  -1.4953 H              1 S1                 0.0000
     25 ****         1.2794   0.9284  -1.3217 H              1 S1                 0.0000
     26 ****         2.1359  -1.8299  -1.1799 H              1 S1                 0.0000
     27 ****         3.1274  -0.3935  -1.2231 H              1 S1                 0.0000
     28 ****         1.6808  -1.4627   1.2528 H              1 S1                 0.0000
     29 ****         3.4865   0.9557   0.9418 H              1 S1                 0.0000
     30 ****         1.8385   0.9553   1.5421 H              1 S1                 0.0000
     31 ****         3.8684   0.9312   3.3136 H              1 S1                 0.0000
     32 ****         2.4946  -0.1547   3.5896 H              1 S1                 0.0000
     33 ****         3.5243  -2.9345   1.0655 H              1 S1                 0.0000
     34 ****         4.5642  -1.6894   0.3592 H              1 S1                 0.0000
     35 ****        -2.0285   2.8809  -2.8545 H              1 S1                 0.0000
     36 ****        -2.1185   3.4711  -1.1810 H              1 S1                 0.0000
     37 ****        -3.5273   3.6156  -2.2520 H              1 S1                 0.0000
     38 ****        -1.4666  -1.7797  -0.4377 LP             1 S1                 0.0000
     39 ****         0.2038  -2.2155  -0.2974 LP             1 S1                 0.0000
     40 ****        -5.2041   2.0373  -1.6358 LP             1 S1                 0.0000
@<TRIPOS>BOND
    1    1    2 1     
    2    1   20 1     
    3    1   21 1     
    4    1   22 1     
    5    2   19 2     
    6    2    3 1     
    7    3    4 2     
    8    3   23 1     
    9    4    5 1     
   10    4   17 1     
   11    5    6 am    
   12    5   24 1     
   13    6    7 2     
   14    6    8 am    
   15    8    9 1     
   16    8   25 1     
   17    9   10 1     
   18    9   26 1     
   19    9   27 1     
   20   10   16 1     
   21   10   11 1     
   22   10   28 1     
   23   11   12 1     
   24   11   29 1     
   25   11   30 1     
   26   12   13 1     
   27   12   31 1     
   28   12   32 1     
   29   13   14 2     
   30   13   15 2     
   31   13   16 1     
   32   16   33 1     
   33   16   34 1     
   34   17   18 1     
   35   17   19 1     
   36   18   35 1     
   37   18   36 1     
   38   18   37 1     
   39    7   38 1     
   40    7   39 1     
   41   19   40 1     
@<TRIPOS>SUBSTRUCTURE
      1 S1             1
@<TRIPOS>SET
LONE_PAIRS      STATIC     ATOMS    <user>   **** ""
5 38 39 14 15 40
DONOR_HYDROGENS      STATIC     ATOMS    <user>   **** ""
2 24 25
ATOM$BLUE        STATIC     ATOMS    COLORGROUP SYSTEM
5 38 39 14 15 40
ATOM$RED        STATIC     ATOMS    COLORGROUP SYSTEM
2 24 25
