#       Name:                AV-unprocessed.smi:1723
#       Creating user name   scv26
#       Creation time:       Fri Mar 27 08:15:22 2020


#       File generated by GOLD software.
#

@<TRIPOS>MOLECULE
AV-unprocessed.smi:1723
    44    44     1
SMALL
NO_CHARGES


@<TRIPOS>ATOM
      1 ****        -5.4911   0.7201  -1.6474 C.3            1 S1                 0.0000
      2 ****        -3.9656   0.8677  -1.6474 C.3            1 S1                 0.0000
      3 ****        -3.2426  -0.4864  -1.6411 C.3            1 S1                 0.0000
      4 ****        -1.7170  -0.3406  -1.6158 C.3            1 S1                 0.0000
      5 ****        -1.1396  -1.6409  -1.6123 O.3            1 S1                 0.0000
      6 ****         0.2848  -1.6793  -1.6342 C.3            1 S1                 0.0000
      7 ****         0.7037  -3.1161  -1.9809 C.3            1 S1                 0.0000
      8 ****         0.8500  -1.2442  -0.2722 C.2            1 S1                 0.0000
      9 ****         0.6583  -1.9537   0.7148 O.2            1 S1                 0.0000
     10 ****         1.5032  -0.0650  -0.2682 N.am           1 S1                 0.0000
     11 ****         2.1268   0.6130   0.7933 C.2            1 S1                 0.0000
     12 ****         2.4186   0.0690   2.0040 C.2            1 S1                 0.0000
     13 ****         3.0754   0.8294   3.0541 C.2            1 S1                 0.0000
     14 ****         3.3179   0.2363   4.4335 C.3            1 S1                 0.0000
     15 ****         3.2921   1.1786   5.3770 F              1 S1                 0.0000
     16 ****         2.3942  -0.6782   4.7302 F              1 S1                 0.0000
     17 ****         4.5121  -0.3534   4.4688 F              1 S1                 0.0000
     18 ****         3.3784   2.1091   2.7689 C.2            1 S1                 0.0000
     19 ****         3.1039   2.6693   1.5196 N.am           1 S1                 0.0000
     20 ****         2.4958   2.0098   0.5082 C.2            1 S1                 0.0000
     21 ****         2.2842   2.5765  -0.5635 O.2            1 S1                 0.0000
     22 ****         3.3794   3.6304   1.3774 H              1 S1                 0.0000
     23 ****        -5.9759   1.6965  -1.6558 H              1 S1                 0.0000
     24 ****        -5.8348   0.1859  -0.7612 H              1 S1                 0.0000
     25 ****        -5.8342   0.1709  -2.5245 H              1 S1                 0.0000
     26 ****        -3.6593   1.4412  -2.5230 H              1 S1                 0.0000
     27 ****        -3.6624   1.4486  -0.7756 H              1 S1                 0.0000
     28 ****        -3.5618  -1.0658  -0.7739 H              1 S1                 0.0000
     29 ****        -3.5354  -1.0600  -2.5212 H              1 S1                 0.0000
     30 ****        -1.3789   0.2134  -2.4927 H              1 S1                 0.0000
     31 ****        -1.4180   0.2250  -0.7326 H              1 S1                 0.0000
     32 ****         0.6532  -1.0173  -2.4205 H              1 S1                 0.0000
     33 ****         1.7891  -3.2215  -1.9925 H              1 S1                 0.0000
     34 ****         0.3361  -3.3970  -2.9680 H              1 S1                 0.0000
     35 ****         0.3039  -3.8356  -1.2650 H              1 S1                 0.0000
     36 ****         1.5259   0.4298  -1.1486 H              1 S1                 0.0000
     37 ****         2.1881  -0.9601   2.2238 H              1 S1                 0.0000
     38 ****         3.8403   2.7943   3.4644 H              1 S1                 0.0000
     39 ****        -1.4734  -2.1285  -2.4190 LP             1 S1                 0.0000
     40 ****        -1.4479  -2.1128  -0.7863 LP             1 S1                 0.0000
     41 ****         0.1394  -2.8039   0.6262 LP             1 S1                 0.0000
     42 ****         1.0215  -1.6801   1.6054 LP             1 S1                 0.0000
     43 ****         1.8346   2.0845  -1.3090 LP             1 S1                 0.0000
     44 ****         2.5619   3.5290  -0.6888 LP             1 S1                 0.0000
@<TRIPOS>BOND
    1    1    2 1     
    2    1   23 1     
    3    1   24 1     
    4    1   25 1     
    5    2    3 1     
    6    2   26 1     
    7    2   27 1     
    8    3    4 1     
    9    3   28 1     
   10    3   29 1     
   11    4    5 1     
   12    4   30 1     
   13    4   31 1     
   14    5    6 1     
   15    6    7 1     
   16    6    8 1     
   17    6   32 1     
   18    7   33 1     
   19    7   34 1     
   20    7   35 1     
   21    8    9 2     
   22    8   10 am    
   23   10   11 1     
   24   10   36 1     
   25   11   20 1     
   26   11   12 2     
   27   12   13 1     
   28   12   37 1     
   29   13   14 1     
   30   13   18 2     
   31   14   15 1     
   32   14   16 1     
   33   14   17 1     
   34   18   19 1     
   35   18   38 1     
   36   19   22 1     
   37   19   20 am    
   38   20   21 2     
   39    5   39 1     
   40    5   40 1     
   41    9   41 1     
   42    9   42 1     
   43   21   43 1     
   44   21   44 1     
@<TRIPOS>SUBSTRUCTURE
      1 S1             1
@<TRIPOS>SET
LONE_PAIRS      STATIC     ATOMS    <user>   **** ""
6 39 40 41 42 43 44
DONOR_HYDROGENS      STATIC     ATOMS    <user>   **** ""
2 36 22
ATOM$BLUE        STATIC     ATOMS    COLORGROUP SYSTEM
6 39 40 41 42 43 44
ATOM$RED        STATIC     ATOMS    COLORGROUP SYSTEM
2 36 22
