AV-unprocessed.smi:1941|AV-procd|sdf|7846|dock10
  -GOLD-   22720 9593D 1   1.00000     0.00000
 Structure written by MMmdl.
 40 41  0  0  0  0  0  0  0  0  1 V2000
  154.6453  140.0598  160.2133 C   0  0  0  0  0  0  0  0  0  0  0  0
  153.8614  141.2742  160.5743 C   0  0  0  0  0  0  0  0  0  0  0  0
  153.3216  142.0983  159.6733 N   0  0  0  0  0  0  0  0  0  0  0  0
  152.6539  143.1762  160.2624 C   0  0  0  0  0  0  0  0  0  0  0  0
  152.0199  144.2260  159.3968 C   0  0  0  0  0  0  0  0  0  0  0  0
  152.2873  144.0321  157.8911 C   0  0  0  0  0  0  0  0  0  0  0  0
  151.1244  143.5024  157.1820 N   0  0  0  0  0  0  0  0  0  0  0  0
  150.9314  142.2154  156.8582 C   0  0  0  0  0  0  0  0  0  0  0  0
  151.7078  141.3053  157.1491 O   0  0  0  0  0  0  0  0  0  0  0  0
  149.7999  142.0456  156.1596 N   0  0  0  0  0  0  0  0  0  0  0  0
  149.3365  140.7813  155.5925 C   0  0  1  0  0  0  0  0  0  0  0  0
  149.4216  139.6963  156.6773 C   0  0  0  0  0  0  0  0  0  0  0  0
  147.9048  140.9504  155.0423 C   0  0  2  0  0  0  0  0  0  0  0  0
  147.7964  141.8589  153.8163 C   0  0  0  0  0  0  0  0  0  0  0  0
  146.3542  142.3037  153.8902 C   0  0  0  0  0  0  0  0  0  0  0  0
  146.1622  142.4814  155.3922 C   0  0  0  0  0  0  0  0  0  0  0  0
  147.0567  141.5625  156.0132 O   0  0  0  0  0  0  0  0  0  0  0  0
  152.6767  143.1425  161.6348 C   0  0  0  0  0  0  0  0  0  0  0  0
  153.5530  141.7626  162.2356 S   0  0  0  0  0  0  0  0  0  0  0  0
  154.9742  140.1120  159.1750 H   0  0  0  0  0  0  0  0  0  0  0  0
  154.0315  139.1684  160.3431 H   0  0  0  0  0  0  0  0  0  0  0  0
  155.5244  139.9790  160.8531 H   0  0  0  0  0  0  0  0  0  0  0  0
  150.9426  144.2412  159.5664 H   0  0  0  0  0  0  0  0  0  0  0  0
  152.3763  145.2126  159.6954 H   0  0  0  0  0  0  0  0  0  0  0  0
  152.6145  144.9728  157.4448 H   0  0  0  0  0  0  0  0  0  0  0  0
  153.1113  143.3314  157.7558 H   0  0  0  0  0  0  0  0  0  0  0  0
  150.4269  144.1723  156.8930 H   0  0  0  0  0  0  0  0  0  0  0  0
  149.2344  142.8597  155.9702 H   0  0  0  0  0  0  0  0  0  0  0  0
  149.9938  140.4818  154.7740 H   0  0  0  0  0  0  0  0  0  0  0  0
  149.1441  138.7182  156.2844 H   0  0  0  0  0  0  0  0  0  0  0  0
  148.7599  139.9186  157.5152 H   0  0  0  0  0  0  0  0  0  0  0  0
  150.4365  139.6112  157.0669 H   0  0  0  0  0  0  0  0  0  0  0  0
  147.4765  139.9760  154.8007 H   0  0  0  0  0  0  0  0  0  0  0  0
  148.4573  142.7213  153.9150 H   0  0  0  0  0  0  0  0  0  0  0  0
  148.0356  141.3477  152.8836 H   0  0  0  0  0  0  0  0  0  0  0  0
  146.1528  143.2129  153.3230 H   0  0  0  0  0  0  0  0  0  0  0  0
  145.6999  141.5143  153.5177 H   0  0  0  0  0  0  0  0  0  0  0  0
  146.4392  143.4908  155.6977 H   0  0  0  0  0  0  0  0  0  0  0  0
  145.1319  142.3048  155.7014 H   0  0  0  0  0  0  0  0  0  0  0  0
  152.2439  143.8503  162.3260 H   0  0  0  0  0  0  0  0  0  0  0  0
  1  2  1  0  0  0  0
  1 20  1  0  0  0  0
  1 21  1  0  0  0  0
  1 22  1  0  0  0  0
  2 19  1  0  0  0  0
  2  3  2  0  0  0  0
  3  4  1  0  0  0  0
  4  5  1  0  0  0  0
  4 18  2  0  0  0  0
  5  6  1  0  0  0  0
  5 23  1  0  0  0  0
  5 24  1  0  0  0  0
  6  7  1  0  0  0  0
  6 25  1  0  0  0  0
  6 26  1  0  0  0  0
  7  8  1  0  0  0  0
  7 27  1  0  0  0  0
  8  9  2  0  0  0  0
  8 10  1  0  0  0  0
 10 11  1  0  0  0  0
 10 28  1  0  0  0  0
 11 12  1  0  0  0  0
 11 13  1  0  0  0  0
 11 29  1  0  0  0  0
 12 30  1  0  0  0  0
 12 31  1  0  0  0  0
 12 32  1  0  0  0  0
 13 17  1  0  0  0  0
 13 14  1  0  0  0  0
 13 33  1  0  0  0  0
 14 15  1  0  0  0  0
 14 34  1  0  0  0  0
 14 35  1  0  0  0  0
 15 16  1  0  0  0  0
 15 36  1  0  0  0  0
 15 37  1  0  0  0  0
 16 17  1  0  0  0  0
 16 38  1  0  0  0  0
 16 39  1  0  0  0  0
 18 19  1  0  0  0  0
 18 40  1  0  0  0  0
M  END
> <s_m_source_file>
AV-unprocessed.smi

> <i_m_source_file_index>
1941

> <i_lp_mmshare_version>
43012

> <i_f3d_flags>
0

> <s_epik_input>
W0NIM11jMW5jKFtjSF1zMSlbQ0gyXVtDSDJdW05IXUMoPU8pW05IXVtDQEhdKFtDSDNdKVtDQEBIXTJbQ0gyXVtDSDJdW0NIMl1PMg==

> <s_epik_cmdline>
J2VwaWtfcHl0aG9uJywgJy1waCcsICc3LjAnLCAnLXRuJywgJzgnLCAnLW1hJywgJzIwMCcsICctbWV0YWxfYmluZGluZycsICctaW1hZScsICc8aW5maWxlLm1hZT4nLCAnLW9tYWUnLCAnPG91dGZpbGUubWFlPic=

> <r_epik_Ionization_Penalty>
0.00195486

> <r_epik_Ionization_Penalty_Charging>
0

> <r_epik_Ionization_Penalty_Neutral>
0.00195486

> <r_epik_State_Penalty>
0.00129472

> <r_epik_Charging_Adjusted_Penalty>
0.00129472

> <i_epik_Tot_Q>
0

> <i_epik_Tot_abs_Q>
0

> <r_epik_Metal_State_Penalty>
-0

> <b_epik_Metal_Only>
0

> <s_lp_Force_Field>
OPLS_2005

> <r_lp_Energy>
10.9889

> <b_lp_Chiralities_Consistent>
1

> <s_lp_Variant>
AV-unprocessed.smi:1941-2

> <Gold.Version>
5.8.1

> <Gold.Id.Protein>
6NUR|6NUR_protein|mol2

> <Gold.PLP.Fitness>
52.0097

> <Gold.PLP.PLP>
-47.3409

> <Gold.PLP.part.hbond>
-2.0000

> <Gold.PLP.part.metal>
0.0000

> <Gold.PLP.part.buried>
-5.9893

> <Gold.PLP.part.nonpolar>
-38.9893

> <Gold.PLP.part.repulsive>
0.2017

> <Gold.PLP.ligand.clash>
0.0000

> <Gold.PLP.ligand.torsion>
0.6767

> <Gold.PLP.Chemscore.Hbond>
2.0000

> <Gold.PLP.Chemscore.CHOScore>
0.0000

> <Gold.PLP.Chemscore.Metal>
0.0000

> <Gold.Chemscore.Hbonds>
donor molecule, donor type, donor heavy atom, donor atom, acceptor molecule, acceptor atom, score
      L1  H     7    27       P1  8028  1.00
      L1  H    10    28       P1  8028  1.00

> <Gold.PLP.Chemscore.Internal.Correction>
0.0221

> <Gold.Rescore>
     Score         DG    S(hbond)    S(metal)    S(lipo)     H(rot)  DE(clash)    DE(int)     intcor
     15.21     -19.01       1.95        0.00      97.04       1.69       0.02       3.78       ----

> <Gold.Chemscore.Fitness>
15.2068

> <Gold.Chemscore.DG>
-19.0136

> <Gold.Chemscore.ZeroCoef>
-5.4800

> <Gold.Chemscore.Hbond>
1.9498

> <Gold.Chemscore.Metal>
0.0000

> <Gold.Chemscore.Lipo>
97.0381

> <Gold.Chemscore.Internal_Hbond>
0.0000

> <Gold.Chemscore.DEClash>
0.0224

> <Gold.Chemscore.DEInternal>
3.7845

> <Gold.Chemscore.Rot>
1.6923

> <Gold.Chemscore.Internal.Correction>
   9.000000E+99

> <Gold.Chemscore.Hbonds>
donor molecule, donor type, donor heavy atom, donor atom, acceptor molecule, acceptor atom, score
      L1  H     7    27       P1  8028  0.88
      L1  H    10    28       P1  8028  0.98

> <Gold.Chemscore.Hbond.Weighted>
-6.5125

> <Gold.Chemscore.Metal.Weighted>
-0.0000

> <Gold.Chemscore.Lipo.Weighted>
-11.3535

> <Gold.Chemscore.Internal_Hbond.Weighted>
0.0000

> <Gold.Chemscore.DEClash.Weighted>
0.0224

> <Gold.Chemscore.DEInternal.Weighted>
3.7845

> <Gold.Chemscore.Rot.Weighted>
4.3323

> <Gold.Chemscore.Internal.Correction.Weighted>
   9.000000E+99

> <Gold.Protein.RotatedTorsions>
[ 6907 6896 6895 6894 ] final  123.83 input  -60.11 | X-H torsion
[ 7974 7965 7964 7962 ] final  -45.10 input  175.53 | X-H torsion
[ 8008 7997 7996 7995 ] final  130.11 input   59.86 | X-H torsion
[ 10167 10162 10161 10158 ] final  -18.69 input  -65.29 | X-H torsion
[ 10718 10713 10712 10709 ] final    7.71 input   66.30 | X-H torsion
[ 10763 10752 10751 10750 ] final  -17.20 input  -60.55 | X-H torsion
[ 11005 11000 10999 10996 ] final  101.63 input  -57.11 | X-H torsion

> <Gold.Protein.ActiveResidues>
 VAL166  LYS551  ARG553  GLY616  TRP617  ASP618  TYR619  PRO620  LYS621  CYS622 
 ASP623  PHE694  ASN695  SER759  ASP760  ASP761  ALA762  ILE779  LEU786  VAL792 
 PHE793  MET794  SER795  GLU796  ALA797  LYS798  CYS799  TRP800  GLU811  SER814 

> <Gold.Protein.RotatedAtoms>
  152.4129  133.6992  159.6413 H   0  0  0  0  0  0  0  0  0  0  0  0  # atno 6907 bound_to 6896
  150.8008  133.8592  159.3236 H   0  0  0  0  0  0  0  0  0  0  0  0  # atno 6908 bound_to 6896
  151.6330  135.1023  160.0177 H   0  0  0  0  0  0  0  0  0  0  0  0  # atno 6909 bound_to 6896
  145.9855  140.7238  142.9343 H   0  0  0  0  0  0  0  0  0  0  0  0  # atno 7974 bound_to 7965
  156.2949  140.2604  156.2709 H   0  0  0  0  0  0  0  0  0  0  0  0  # atno 8008 bound_to 7997
  154.9696  140.0391  157.2247 H   0  0  0  0  0  0  0  0  0  0  0  0  # atno 8009 bound_to 7997
  154.7871  140.2805  155.6024 H   0  0  0  0  0  0  0  0  0  0  0  0  # atno 8010 bound_to 7997
  140.7261  143.4892  151.0014 H   0  0  0  0  0  0  0  0  0  0  0  0  # atno 10167 bound_to 10162
  156.9410  130.5861  149.5652 H   0  0  0  0  0  0  0  0  0  0  0  0  # atno 10718 bound_to 10713
  153.5702  135.7007  153.5508 H   0  0  0  0  0  0  0  0  0  0  0  0  # atno 10763 bound_to 10752
  153.3351  135.4036  155.1527 H   0  0  0  0  0  0  0  0  0  0  0  0  # atno 10764 bound_to 10752
  154.8634  135.3728  154.5224 H   0  0  0  0  0  0  0  0  0  0  0  0  # atno 10765 bound_to 10752
  139.8774  134.9191  156.4936 H   0  0  0  0  0  0  0  0  0  0  0  0  # atno 11005 bound_to 11000
  144.6873  140.2980  143.7268 LP  0  0  0  0  0  0  0  0  0  0  0  0  # atno 17320 bound_to 7965
  145.7707  139.1856  143.2214 LP  0  0  0  0  0  0  0  0  0  0  0  0  # atno 17321 bound_to 7965
  139.8595  143.7333  152.3174 LP  0  0  0  0  0  0  0  0  0  0  0  0  # atno 17342 bound_to 10162
  139.7543  144.7525  151.0459 LP  0  0  0  0  0  0  0  0  0  0  0  0  # atno 17343 bound_to 10162
  156.0404  130.5487  150.8758 LP  0  0  0  0  0  0  0  0  0  0  0  0  # atno 17370 bound_to 10713
  157.5785  131.0946  150.9308 LP  0  0  0  0  0  0  0  0  0  0  0  0  # atno 17371 bound_to 10713
  140.8640  133.8038  155.9295 LP  0  0  0  0  0  0  0  0  0  0  0  0  # atno 17394 bound_to 11000
  140.9020  134.2366  157.5036 LP  0  0  0  0  0  0  0  0  0  0  0  0  # atno 17395 bound_to 11000

$$$$
