AV-unprocessed.smi:41|AV-procd|sdf|383|dock2
  -GOLD-   2262016243D 1   1.00000     0.00000
 Structure written by MMmdl.
 26 27  0  0  0  0  0  0  0  0  1 V2000
  148.6046  138.8085  153.6272 N   0  0  0  0  0  0  0  0  0  0  0  0
  149.3606  139.5392  154.4595 C   0  0  0  0  0  0  0  0  0  0  0  0
  150.4898  139.0301  154.9125 N   0  0  0  0  0  0  0  0  0  0  0  0
  151.3274  139.6980  155.7673 C   0  0  0  0  0  0  0  0  0  0  0  0
  152.3787  139.1786  156.1395 O   0  0  0  0  0  0  0  0  0  0  0  0
  150.9297  140.9887  156.2000 N   0  0  0  0  0  0  0  0  0  0  0  0
  151.7940  141.7844  157.0682 C   0  0  2  0  0  0  0  0  0  0  0  0
  152.1020  141.1251  158.4319 C   0  0  0  0  0  0  0  0  0  0  0  0
  152.3522  142.4656  159.6103 S   0  0  0  0  0  0  0  0  0  0  0  0
  151.9684  143.6628  158.3162 C   0  0  2  0  0  0  0  0  0  0  0  0
  151.1710  144.8506  158.8740 C   0  0  0  0  0  0  0  0  0  0  0  0
  149.7872  144.6278  158.7069 O   0  0  0  0  0  0  0  0  0  0  0  0
  151.2012  143.0198  157.3124 O   0  0  0  0  0  0  0  0  0  0  0  0
  149.7595  141.5448  155.6982 C   0  0  0  0  0  0  0  0  0  0  0  0
  148.9538  140.8691  154.8510 C   0  0  0  0  0  0  0  0  0  0  0  0
  147.8189  141.4193  154.3858 F   0  0  0  0  0  0  0  0  0  0  0  0
  152.7392  141.9911  156.5636 H   0  0  0  0  0  0  0  0  0  0  0  0
  152.9176  144.0001  157.8952 H   0  0  0  0  0  0  0  0  0  0  0  0
  147.7406  139.1881  153.2677 H   0  0  0  0  0  0  0  0  0  0  0  0
  148.8999  137.8798  153.3630 H   0  0  0  0  0  0  0  0  0  0  0  0
  151.2803  140.5076  158.7887 H   0  0  0  0  0  0  0  0  0  0  0  0
  152.9877  140.4954  158.3476 H   0  0  0  0  0  0  0  0  0  0  0  0
  151.4057  145.0296  159.9238 H   0  0  0  0  0  0  0  0  0  0  0  0
  151.4182  145.7613  158.3275 H   0  0  0  0  0  0  0  0  0  0  0  0
  149.5991  144.5839  157.7819 H   0  0  0  0  0  0  0  0  0  0  0  0
  149.4714  142.5490  155.9721 H   0  0  0  0  0  0  0  0  0  0  0  0
  1  2  1  0  0  0  0
  1 19  1  0  0  0  0
  1 20  1  0  0  0  0
  2 15  1  0  0  0  0
  2  3  2  0  0  0  0
  3  4  1  0  0  0  0
  4  5  2  0  0  0  0
  4  6  1  0  0  0  0
  6  7  1  0  0  0  0
  6 14  1  0  0  0  0
  7 17  1  0  0  0  0
  7 13  1  0  0  0  0
  7  8  1  0  0  0  0
  8  9  1  0  0  0  0
  8 21  1  0  0  0  0
  8 22  1  0  0  0  0
  9 10  1  0  0  0  0
 10 18  1  0  0  0  0
 10 11  1  0  0  0  0
 10 13  1  0  0  0  0
 11 12  1  0  0  0  0
 11 23  1  0  0  0  0
 11 24  1  0  0  0  0
 12 25  1  0  0  0  0
 14 15  2  0  0  0  0
 14 26  1  0  0  0  0
 15 16  1  0  0  0  0
M  END
> <s_m_source_file>
AV-unprocessed.smi

> <i_m_source_file_index>
41

> <i_lp_mmshare_version>
43012

> <i_f3d_flags>
0

> <s_epik_input>
W05IMl1jMW5jKD1PKW4oW2NIXWMxRilbQ0BASF0yW0NIMl1TW0NAQEhdKE8yKVtDSDJdW09IXQ==

> <s_epik_cmdline>
J2VwaWtfcHl0aG9uJywgJy1waCcsICc3LjAnLCAnLXRuJywgJzgnLCAnLW1hJywgJzIwMCcsICctbWV0YWxfYmluZGluZycsICctaW1hZScsICc8aW5maWxlLm1hZT4nLCAnLW9tYWUnLCAnPG91dGZpbGUubWFlPic=

> <r_lp_tautomer_probability>
1

> <r_epik_Ionization_Penalty>
0.000101883

> <r_epik_Ionization_Penalty_Charging>
1.48607e-08

> <r_epik_Ionization_Penalty_Neutral>
0.000101868

> <r_epik_State_Penalty>
-0

> <r_epik_Charging_Adjusted_Penalty>
1.48607e-08

> <i_epik_Tot_Q>
0

> <i_epik_Tot_abs_Q>
0

> <r_epik_Metal_State_Penalty>
-0

> <b_epik_Metal_Only>
0

> <s_epik_Chemistry_Notes>
This compound contains an acetal/aminal-like group ( X-CH(R)-Y where X, Y are N, S, or O) that may be acid/base labile, releasing an aldehyde.

> <s_lp_Force_Field>
OPLS_2005

> <r_lp_Energy>
14.7883

> <b_lp_Chiralities_Consistent>
1

> <s_lp_Variant>
AV-unprocessed.smi:41-1

> <Gold.Version>
5.8.1

> <Gold.Id.Protein>
6NUR|6NUR_protein|mol2

> <Gold.PLP.Fitness>
43.1767

> <Gold.PLP.PLP>
-33.7578

> <Gold.PLP.part.hbond>
-4.9919

> <Gold.PLP.part.metal>
0.0000

> <Gold.PLP.part.buried>
-3.9971

> <Gold.PLP.part.nonpolar>
-25.7033

> <Gold.PLP.part.repulsive>
0.3263

> <Gold.PLP.ligand.clash>
0.0000

> <Gold.PLP.ligand.torsion>
0.4788

> <Gold.PLP.Chemscore.Hbond>
2.4475

> <Gold.PLP.Chemscore.CHOScore>
1.0000

> <Gold.PLP.Chemscore.Metal>
0.0000

> <Gold.Chemscore.Hbonds>
donor molecule, donor type, donor heavy atom, donor atom, acceptor molecule, acceptor atom, score
      L1  H     1    20       P1  7948  0.55
      L1  H    12    25       P1  8028  0.26
      P1  H  7997  8008       L1     5  0.60
      L1  C    14    26       P1  8028  1.00

> <Gold.PLP.Chemscore.Internal.Correction>
0.0341

> <Gold.Rescore>
     Score         DG    S(hbond)    S(metal)    S(lipo)     H(rot)  DE(clash)    DE(int)     intcor
     11.09     -12.70       1.93        0.00      54.77       2.19       1.41       0.20       ----

> <Gold.Chemscore.Fitness>
11.0917

> <Gold.Chemscore.DG>
-12.7040

> <Gold.Chemscore.ZeroCoef>
-5.4800

> <Gold.Chemscore.Hbond>
1.9252

> <Gold.Chemscore.Metal>
0.0000

> <Gold.Chemscore.Lipo>
54.7657

> <Gold.Chemscore.Internal_Hbond>
0.0000

> <Gold.Chemscore.DEClash>
1.4130

> <Gold.Chemscore.DEInternal>
0.1994

> <Gold.Chemscore.Rot>
2.1929

> <Gold.Chemscore.Internal.Correction>
   9.000000E+99

> <Gold.Chemscore.Hbonds>
donor molecule, donor type, donor heavy atom, donor atom, acceptor molecule, acceptor atom, score
      L1  H     1    20       P1  7948  0.53
      L1  H    12    25       P1  8028  0.01
      P1  H  7997  8008       L1     5  0.60

> <Gold.Chemscore.Hbond.Weighted>
-6.4302

> <Gold.Chemscore.Metal.Weighted>
-0.0000

> <Gold.Chemscore.Lipo.Weighted>
-6.4076

> <Gold.Chemscore.Internal_Hbond.Weighted>
0.0000

> <Gold.Chemscore.DEClash.Weighted>
1.4130

> <Gold.Chemscore.DEInternal.Weighted>
0.1994

> <Gold.Chemscore.Rot.Weighted>
5.6137

> <Gold.Chemscore.Internal.Correction.Weighted>
   9.000000E+99

> <Gold.Protein.RotatedTorsions>
[ 6907 6896 6895 6894 ] final   76.41 input  -60.11 | X-H torsion
[ 7974 7965 7964 7962 ] final   65.35 input  175.53 | X-H torsion
[ 8008 7997 7996 7995 ] final  -48.97 input   59.86 | X-H torsion
[ 10167 10162 10161 10158 ] final  -77.06 input  -65.29 | X-H torsion
[ 10718 10713 10712 10709 ] final  -26.49 input   66.30 | X-H torsion
[ 10763 10752 10751 10750 ] final    7.72 input  -60.55 | X-H torsion
[ 11005 11000 10999 10996 ] final   11.86 input  -57.11 | X-H torsion

> <Gold.Protein.ActiveResidues>
 VAL166  LYS551  ARG553  GLY616  TRP617  ASP618  TYR619  PRO620  LYS621  CYS622 
 ASP623  PHE694  ASN695  SER759  ASP760  ASP761  ALA762  ILE779  LEU786  VAL792 
 PHE793  MET794  SER795  GLU796  ALA797  LYS798  CYS799  TRP800  GLU811  SER814 

> <Gold.Protein.RotatedAtoms>
  152.5071  134.3973  159.9404 H   0  0  0  0  0  0  0  0  0  0  0  0  # atno 6907 bound_to 6896
  151.3936  133.3774  159.2731 H   0  0  0  0  0  0  0  0  0  0  0  0  # atno 6908 bound_to 6896
  150.9414  134.8844  159.7673 H   0  0  0  0  0  0  0  0  0  0  0  0  # atno 6909 bound_to 6896
  145.8395  139.3187  143.0939 H   0  0  0  0  0  0  0  0  0  0  0  0  # atno 7974 bound_to 7965
  154.4036  140.1308  156.4425 H   0  0  0  0  0  0  0  0  0  0  0  0  # atno 8008 bound_to 7997
  155.7445  140.3489  155.5100 H   0  0  0  0  0  0  0  0  0  0  0  0  # atno 8009 bound_to 7997
  155.9008  140.1019  157.1341 H   0  0  0  0  0  0  0  0  0  0  0  0  # atno 8010 bound_to 7997
  140.4803  143.2404  151.8069 H   0  0  0  0  0  0  0  0  0  0  0  0  # atno 10167 bound_to 10162
  156.4506  130.4483  149.6992 H   0  0  0  0  0  0  0  0  0  0  0  0  # atno 10718 bound_to 10713
  153.2331  135.6895  153.7867 H   0  0  0  0  0  0  0  0  0  0  0  0  # atno 10763 bound_to 10752
  153.7025  135.3295  155.3229 H   0  0  0  0  0  0  0  0  0  0  0  0  # atno 10764 bound_to 10752
  154.8323  135.4571  154.1224 H   0  0  0  0  0  0  0  0  0  0  0  0  # atno 10765 bound_to 10752
  140.4985  134.0769  155.7788 H   0  0  0  0  0  0  0  0  0  0  0  0  # atno 11005 bound_to 11000
  145.9481  140.8930  143.0273 LP  0  0  0  0  0  0  0  0  0  0  0  0  # atno 17320 bound_to 7965
  144.6734  140.1641  143.7420 LP  0  0  0  0  0  0  0  0  0  0  0  0  # atno 17321 bound_to 7965
  139.4832  144.4781  151.9341 LP  0  0  0  0  0  0  0  0  0  0  0  0  # atno 17342 bound_to 10162
  140.3867  144.2668  150.5903 LP  0  0  0  0  0  0  0  0  0  0  0  0  # atno 17343 bound_to 10162
  156.3820  130.7584  151.2578 LP  0  0  0  0  0  0  0  0  0  0  0  0  # atno 17370 bound_to 10713
  157.7503  131.0293  150.4085 LP  0  0  0  0  0  0  0  0  0  0  0  0  # atno 17371 bound_to 10713
  141.1447  133.9075  157.2242 LP  0  0  0  0  0  0  0  0  0  0  0  0  # atno 17394 bound_to 11000
  139.9727  135.0123  156.9553 LP  0  0  0  0  0  0  0  0  0  0  0  0  # atno 17395 bound_to 11000

$$$$
