AV-unprocessed.smi:2206|AV-procd|sdf|8943|dock1
  -GOLD-   2272012163D 1   1.00000     0.00000
 Structure written by MMmdl.
 25 26  0  0  0  0  0  0  0  0  3 V2000
  152.3647  136.9666  156.2636 O   0  0  0  0  0  0  0  0  0  0  0  0
  152.3241  138.0409  155.6242 C   0  0  0  0  0  0  0  0  0  0  0  0
  153.0598  139.0328  155.8246 O   0  5  0  0  0  0  0  0  0  0  0  0
  151.2996  138.1490  154.4915 C   0  0  0  0  0  0  0  0  0  0  0  0
  150.3774  139.2996  154.7858 C   0  0  0  0  0  0  0  0  0  0  0  0
  149.3097  139.7206  154.0338 C   0  0  0  0  0  0  0  0  0  0  0  0
  148.5106  141.0883  154.7537 S   0  0  0  0  0  0  0  0  0  0  0  0
  149.6640  141.0460  156.0876 C   0  0  0  0  0  0  0  0  0  0  0  0
  149.6626  141.8980  157.1300 N   0  5  0  0  0  0  0  0  0  0  0  0
  150.8055  142.4237  157.6457 C   0  0  0  0  0  0  0  0  0  0  0  0
  151.6690  141.7430  158.1982 O   0  0  0  0  0  0  0  0  0  0  0  0
  150.9881  143.7542  157.5388 N   0  0  0  0  0  0  0  0  0  0  0  0
  152.1150  144.4985  158.0014 C   0  0  0  0  0  0  0  0  0  0  0  0
  152.6647  144.1601  159.3700 C   0  0  0  0  0  0  0  0  0  0  0  0
  151.8975  145.4374  159.1681 C   0  0  0  0  0  0  0  0  0  0  0  0
  150.5502  140.0525  155.9519 N   0  0  0  0  0  0  0  0  0  0  0  0
  151.8118  138.2983  153.5403 H   0  0  0  0  0  0  0  0  0  0  0  0
  150.7512  137.2096  154.4109 H   0  0  0  0  0  0  0  0  0  0  0  0
  148.9532  139.3131  153.0999 H   0  0  0  0  0  0  0  0  0  0  0  0
  150.2633  144.2796  157.0714 H   0  0  0  0  0  0  0  0  0  0  0  0
  152.8432  144.8230  157.2596 H   0  0  0  0  0  0  0  0  0  0  0  0
  152.1771  143.3650  159.9309 H   0  0  0  0  0  0  0  0  0  0  0  0
  153.7409  144.2367  159.5104 H   0  0  0  0  0  0  0  0  0  0  0  0
  152.4599  146.3687  159.1732 H   0  0  0  0  0  0  0  0  0  0  0  0
  150.8977  145.4948  159.5948 H   0  0  0  0  0  0  0  0  0  0  0  0
  1  2  2  0  0  0  0
  2  3  1  0  0  0  0
  2  4  1  0  0  0  0
  4  5  1  0  0  0  0
  4 17  1  0  0  0  0
  4 18  1  0  0  0  0
  5 16  1  0  0  0  0
  5  6  2  0  0  0  0
  6  7  1  0  0  0  0
  6 19  1  0  0  0  0
  7  8  1  0  0  0  0
  8  9  1  0  0  0  0
  8 16  2  0  0  0  0
  9 10  1  0  0  0  0
 10 11  2  0  0  0  0
 10 12  1  0  0  0  0
 12 13  1  0  0  0  0
 12 20  1  0  0  0  0
 13 15  1  0  0  0  0
 13 14  1  0  0  0  0
 13 21  1  0  0  0  0
 14 15  1  0  0  0  0
 14 22  1  0  0  0  0
 14 23  1  0  0  0  0
 15 24  1  0  0  0  0
 15 25  1  0  0  0  0
M  CHG  1   3  -1
M  CHG  1   9  -1
M  END
> <s_m_source_file>
AV-unprocessed.smi

> <i_m_source_file_index>
2206

> <i_lp_mmshare_version>
43012

> <i_f3d_flags>
0

> <s_epik_input>
Tz1DKFtPSF0pW0NIMl1jMVtjSF1zYyhuMSlbTkhdQyg9TylbTkhdW0NIXTJbQ0gyXVtDSDJdMg==

> <s_epik_cmdline>
J2VwaWtfcHl0aG9uJywgJy1waCcsICc3LjAnLCAnLXRuJywgJzgnLCAnLW1hJywgJzIwMCcsICctbWV0YWxfYmluZGluZycsICctaW1hZScsICc8aW5maWxlLm1hZT4nLCAnLW9tYWUnLCAnPG91dGZpbGUubWFlPic=

> <r_lp_tautomer_probability>
0.999

> <r_epik_Ionization_Penalty>
7.78494

> <r_epik_Ionization_Penalty_Charging>
6.1535

> <r_epik_Ionization_Penalty_Neutral>
1.63144

> <r_epik_State_Penalty>
6.15322

> <r_epik_Charging_Adjusted_Penalty>
12.3067

> <i_epik_Tot_Q>
-2

> <i_epik_Tot_abs_Q>
2

> <r_epik_Metal_State_Penalty>
2.09572

> <b_epik_Metal_Only>
1

> <s_lp_Force_Field>
OPLS_2005

> <r_lp_Energy>
21.0072

> <b_lp_Chiralities_Consistent>
1

> <s_lp_Variant>
AV-unprocessed.smi:2206-2

> <Gold.Version>
5.8.1

> <Gold.Id.Protein>
6NUR|6NUR_protein|mol2

> <Gold.PLP.Fitness>
49.7622

> <Gold.PLP.PLP>
-34.1446

> <Gold.PLP.part.hbond>
-3.0000

> <Gold.PLP.part.metal>
0.0000

> <Gold.PLP.part.buried>
-3.6349

> <Gold.PLP.part.nonpolar>
-29.7017

> <Gold.PLP.part.repulsive>
0.1347

> <Gold.PLP.ligand.clash>
0.0000

> <Gold.PLP.ligand.torsion>
1.0957

> <Gold.PLP.Chemscore.Hbond>
5.0000

> <Gold.PLP.Chemscore.CHOScore>
0.9097

> <Gold.PLP.Chemscore.Metal>
0.0000

> <Gold.Chemscore.Hbonds>
donor molecule, donor type, donor heavy atom, donor atom, acceptor molecule, acceptor atom, score
      L1  H    12    20       P1  8028  1.00
      P1  H  7997  8010       L1     3  2.00
      P1  H 10752 10764       L1     1  1.75
      L1  C     6    19       P1  7957  0.87

> <Gold.PLP.Chemscore.Internal.Correction>
0.0799

> <Gold.Rescore>
     Score         DG    S(hbond)    S(metal)    S(lipo)     H(rot)  DE(clash)    DE(int)     intcor
     13.37     -18.38       2.80        0.00      72.42       1.92       1.51       3.50       ----

> <Gold.Chemscore.Fitness>
13.3730

> <Gold.Chemscore.DG>
-18.3833

> <Gold.Chemscore.ZeroCoef>
-5.4800

> <Gold.Chemscore.Hbond>
2.8018

> <Gold.Chemscore.Metal>
0.0000

> <Gold.Chemscore.Lipo>
72.4197

> <Gold.Chemscore.Internal_Hbond>
0.0000

> <Gold.Chemscore.DEClash>
1.5096

> <Gold.Chemscore.DEInternal>
3.5007

> <Gold.Chemscore.Rot>
1.9249

> <Gold.Chemscore.Internal.Correction>
   9.000000E+99

> <Gold.Chemscore.Hbonds>
donor molecule, donor type, donor heavy atom, donor atom, acceptor molecule, acceptor atom, score
      L1  H    12    20       P1  8028  0.82
      P1  H  7997  8010       L1     3  0.99
      P1  H 10752 10764       L1     1  0.63

> <Gold.Chemscore.Hbond.Weighted>
-9.3581

> <Gold.Chemscore.Metal.Weighted>
-0.0000

> <Gold.Chemscore.Lipo.Weighted>
-8.4731

> <Gold.Chemscore.Internal_Hbond.Weighted>
0.0000

> <Gold.Chemscore.DEClash.Weighted>
1.5096

> <Gold.Chemscore.DEInternal.Weighted>
3.5007

> <Gold.Chemscore.Rot.Weighted>
4.9279

> <Gold.Chemscore.Internal.Correction.Weighted>
   9.000000E+99

> <Gold.Protein.RotatedTorsions>
[ 6907 6896 6895 6894 ] final   27.24 input  -60.11 | X-H torsion
[ 7974 7965 7964 7962 ] final  110.21 input  175.53 | X-H torsion
[ 8008 7997 7996 7995 ] final   95.58 input   59.86 | X-H torsion
[ 10167 10162 10161 10158 ] final  139.46 input  -65.29 | X-H torsion
[ 10718 10713 10712 10709 ] final -177.11 input   66.30 | X-H torsion
[ 10763 10752 10751 10750 ] final  -22.04 input  -60.55 | X-H torsion
[ 11005 11000 10999 10996 ] final   23.67 input  -57.11 | X-H torsion

> <Gold.Protein.ActiveResidues>
 VAL166  LYS551  ARG553  GLY616  TRP617  ASP618  TYR619  PRO620  LYS621  CYS622 
 ASP623  PHE694  ASN695  SER759  ASP760  ASP761  ALA762  ILE779  LEU786  VAL792 
 PHE793  MET794  SER795  GLU796  ALA797  LYS798  CYS799  TRP800  GLU811  SER814 

> <Gold.Protein.RotatedAtoms>
  151.9994  134.9937  160.0564 H   0  0  0  0  0  0  0  0  0  0  0  0  # atno 6907 bound_to 6896
  152.1534  133.4531  159.4833 H   0  0  0  0  0  0  0  0  0  0  0  0  # atno 6908 bound_to 6896
  150.6878  134.2079  159.4391 H   0  0  0  0  0  0  0  0  0  0  0  0  # atno 6909 bound_to 6896
  145.2579  139.2714  143.4032 H   0  0  0  0  0  0  0  0  0  0  0  0  # atno 7974 bound_to 7965
  156.0704  140.3284  155.7569 H   0  0  0  0  0  0  0  0  0  0  0  0  # atno 8008 bound_to 7997
  155.5314  140.0593  157.2905 H   0  0  0  0  0  0  0  0  0  0  0  0  # atno 8009 bound_to 7997
  154.4527  140.1927  156.0487 H   0  0  0  0  0  0  0  0  0  0  0  0  # atno 8010 bound_to 7997
  139.5078  144.6293  151.5858 H   0  0  0  0  0  0  0  0  0  0  0  0  # atno 10167 bound_to 10162
  156.8246  130.9632  151.3110 H   0  0  0  0  0  0  0  0  0  0  0  0  # atno 10718 bound_to 10713
  153.6456  135.6983  153.5226 H   0  0  0  0  0  0  0  0  0  0  0  0  # atno 10763 bound_to 10752
  153.2748  135.4204  155.1021 H   0  0  0  0  0  0  0  0  0  0  0  0  # atno 10764 bound_to 10752
  154.8489  135.3587  154.6000 H   0  0  0  0  0  0  0  0  0  0  0  0  # atno 10765 bound_to 10752
  140.3671  134.2063  155.7669 H   0  0  0  0  0  0  0  0  0  0  0  0  # atno 11005 bound_to 11000
  146.3284  140.2988  142.8619 LP  0  0  0  0  0  0  0  0  0  0  0  0  # atno 17320 bound_to 7965
  144.9444  140.8113  143.5610 LP  0  0  0  0  0  0  0  0  0  0  0  0  # atno 17321 bound_to 7965
  140.6020  143.9592  150.6393 LP  0  0  0  0  0  0  0  0  0  0  0  0  # atno 17342 bound_to 10162
  140.2807  143.3391  152.1154 LP  0  0  0  0  0  0  0  0  0  0  0  0  # atno 17343 bound_to 10162
  157.6439  130.8828  149.9500 LP  0  0  0  0  0  0  0  0  0  0  0  0  # atno 17370 bound_to 10713
  156.0969  130.3658  150.0290 LP  0  0  0  0  0  0  0  0  0  0  0  0  # atno 17371 bound_to 10713
  141.1966  133.8078  157.0663 LP  0  0  0  0  0  0  0  0  0  0  0  0  # atno 17394 bound_to 11000
  140.0581  134.9769  157.1256 LP  0  0  0  0  0  0  0  0  0  0  0  0  # atno 17395 bound_to 11000

$$$$
