AV-unprocessed.smi:3044|AV-procd|sdf|11605|dock10
  -GOLD-   2272016583D 1   1.00000     0.00000
 Structure written by MMmdl.
 41 42  0  0  0  0  0  0  0  0  1 V2000
  147.3023  141.9594  154.8256 C   0  0  0  0  0  0  0  0  0  0  0  0
  148.3048  140.8183  154.7867 C   0  0  0  0  0  0  0  0  0  0  0  0
  147.9803  139.7876  153.9745 N   0  0  0  0  0  0  0  0  0  0  0  0
  148.8330  138.7448  153.8949 C   0  0  0  0  0  0  0  0  0  0  0  0
  150.0443  138.6827  154.6089 C   0  0  0  0  0  0  0  0  0  0  0  0
  150.3807  139.7562  155.4548 C   0  0  0  0  0  0  0  0  0  0  0  0
  149.4894  140.8509  155.5632 C   0  0  0  0  0  0  0  0  0  0  0  0
  149.7458  141.9902  156.3740 N   0  0  0  0  0  0  0  0  0  0  0  0
  150.6884  142.1627  157.3197 C   0  0  0  0  0  0  0  0  0  0  0  0
  151.5409  141.3276  157.6183 O   0  0  0  0  0  0  0  0  0  0  0  0
  150.6649  143.5026  158.0585 C   0  0  0  0  0  0  0  0  0  0  0  0
  151.2371  143.3383  159.3502 O   0  0  0  0  0  0  0  0  0  0  0  0
  152.6101  143.6913  159.4514 C   0  0  2  0  0  0  0  0  0  0  0  0
  153.5176  142.4625  159.2371 C   0  0  0  0  0  0  0  0  0  0  0  0
  153.3238  141.4145  160.3449 C   0  0  0  0  0  0  0  0  0  0  0  0
  153.5445  142.0263  161.7374 C   0  0  0  0  0  0  0  0  0  0  0  0
  152.6321  143.2452  161.9715 C   0  0  1  0  0  0  0  0  0  0  0  0
  152.8603  143.8601  163.3595 C   0  0  0  0  0  0  0  0  0  0  0  0
  152.8289  144.2899  160.8531 C   0  0  0  0  0  0  0  0  0  0  0  0
  146.9355  142.1090  155.8416 H   0  0  0  0  0  0  0  0  0  0  0  0
  146.4428  141.7609  154.1839 H   0  0  0  0  0  0  0  0  0  0  0  0
  147.7679  142.8857  154.4881 H   0  0  0  0  0  0  0  0  0  0  0  0
  148.5446  137.9388  153.2369 H   0  0  0  0  0  0  0  0  0  0  0  0
  150.7028  137.8331  154.5057 H   0  0  0  0  0  0  0  0  0  0  0  0
  151.3173  139.7264  155.9896 H   0  0  0  0  0  0  0  0  0  0  0  0
  149.0701  142.7368  156.2969 H   0  0  0  0  0  0  0  0  0  0  0  0
  151.2171  144.2403  157.4761 H   0  0  0  0  0  0  0  0  0  0  0  0
  149.6320  143.8438  158.1409 H   0  0  0  0  0  0  0  0  0  0  0  0
  152.8447  144.4582  158.7111 H   0  0  0  0  0  0  0  0  0  0  0  0
  153.3416  142.0108  158.2613 H   0  0  0  0  0  0  0  0  0  0  0  0
  154.5591  142.7864  159.2319 H   0  0  0  0  0  0  0  0  0  0  0  0
  152.3179  140.9970  160.2834 H   0  0  0  0  0  0  0  0  0  0  0  0
  154.0123  140.5830  160.1923 H   0  0  0  0  0  0  0  0  0  0  0  0
  153.3607  141.2701  162.5013 H   0  0  0  0  0  0  0  0  0  0  0  0
  154.5894  142.3222  161.8419 H   0  0  0  0  0  0  0  0  0  0  0  0
  151.5973  142.9009  161.9362 H   0  0  0  0  0  0  0  0  0  0  0  0
  153.8802  144.2304  163.4663 H   0  0  0  0  0  0  0  0  0  0  0  0
  152.6878  143.1261  164.1472 H   0  0  0  0  0  0  0  0  0  0  0  0
  152.1824  144.6959  163.5343 H   0  0  0  0  0  0  0  0  0  0  0  0
  153.8379  144.6999  160.9130 H   0  0  0  0  0  0  0  0  0  0  0  0
  152.1492  145.1297  161.0020 H   0  0  0  0  0  0  0  0  0  0  0  0
  1  2  1  0  0  0  0
  1 20  1  0  0  0  0
  1 21  1  0  0  0  0
  1 22  1  0  0  0  0
  2  7  1  0  0  0  0
  2  3  2  0  0  0  0
  3  4  1  0  0  0  0
  4  5  2  0  0  0  0
  4 23  1  0  0  0  0
  5  6  1  0  0  0  0
  5 24  1  0  0  0  0
  6  7  2  0  0  0  0
  6 25  1  0  0  0  0
  7  8  1  0  0  0  0
  8  9  1  0  0  0  0
  8 26  1  0  0  0  0
  9 10  2  0  0  0  0
  9 11  1  0  0  0  0
 11 12  1  0  0  0  0
 11 27  1  0  0  0  0
 11 28  1  0  0  0  0
 12 13  1  0  0  0  0
 13 19  1  0  0  0  0
 13 14  1  0  0  0  0
 13 29  1  0  0  0  0
 14 15  1  0  0  0  0
 14 30  1  0  0  0  0
 14 31  1  0  0  0  0
 15 16  1  0  0  0  0
 15 32  1  0  0  0  0
 15 33  1  0  0  0  0
 16 17  1  0  0  0  0
 16 34  1  0  0  0  0
 16 35  1  0  0  0  0
 17 18  1  0  0  0  0
 17 19  1  0  0  0  0
 17 36  1  0  0  0  0
 18 37  1  0  0  0  0
 18 38  1  0  0  0  0
 18 39  1  0  0  0  0
 19 40  1  0  0  0  0
 19 41  1  0  0  0  0
M  END
> <s_m_source_file>
AV-unprocessed.smi

> <i_m_source_file_index>
3044

> <i_lp_mmshare_version>
43012

> <i_f3d_flags>
0

> <s_epik_input>
W0NIM11jMW5bY0hdW2NIXVtjSF1jMVtOSF1DKD1PKVtDSDJdT1tDQEBIXTJbQ0gyXVtDSDJdW0NIMl1bQ0BASF0oW0NIM10pW0NIMl0y

> <s_epik_cmdline>
J2VwaWtfcHl0aG9uJywgJy1waCcsICc3LjAnLCAnLXRuJywgJzgnLCAnLW1hJywgJzIwMCcsICctbWV0YWxfYmluZGluZycsICctaW1hZScsICc8aW5maWxlLm1hZT4nLCAnLW9tYWUnLCAnPG91dGZpbGUubWFlPic=

> <r_epik_Ionization_Penalty>
0.0077122

> <r_epik_Ionization_Penalty_Charging>
0

> <r_epik_Ionization_Penalty_Neutral>
0.0077122

> <r_epik_State_Penalty>
0.00577497

> <r_epik_Charging_Adjusted_Penalty>
0.00577497

> <i_epik_Tot_Q>
0

> <i_epik_Tot_abs_Q>
0

> <r_epik_Metal_State_Penalty>
-0

> <b_epik_Metal_Only>
0

> <s_lp_Force_Field>
OPLS_2005

> <r_lp_Energy>
17.2241

> <b_lp_Chiralities_Consistent>
1

> <s_lp_Variant>
AV-unprocessed.smi:3044-1

> <Gold.Version>
5.8.1

> <Gold.Id.Protein>
6NUR|6NUR_protein|mol2

> <Gold.PLP.Fitness>
41.4017

> <Gold.PLP.PLP>
-38.0244

> <Gold.PLP.part.hbond>
-1.0000

> <Gold.PLP.part.metal>
0.0000

> <Gold.PLP.part.buried>
0.7079

> <Gold.PLP.part.nonpolar>
-37.2243

> <Gold.PLP.part.repulsive>
0.9726

> <Gold.PLP.ligand.clash>
0.0000

> <Gold.PLP.ligand.torsion>
1.0915

> <Gold.PLP.Chemscore.Hbond>
0.8320

> <Gold.PLP.Chemscore.CHOScore>
1.0188

> <Gold.PLP.Chemscore.Metal>
0.0000

> <Gold.Chemscore.Hbonds>
donor molecule, donor type, donor heavy atom, donor atom, acceptor molecule, acceptor atom, score
      L1  H     8    26       P1  8028  0.72
      L1  C     4    23       P1  7948  1.00

> <Gold.PLP.Chemscore.Internal.Correction>
0.0081

> <Gold.Rescore>
     Score         DG    S(hbond)    S(metal)    S(lipo)     H(rot)  DE(clash)    DE(int)     intcor
     11.82     -17.73       0.00        0.00     133.28       1.31       2.14       3.77       ----

> <Gold.Chemscore.Fitness>
11.8230

> <Gold.Chemscore.DG>
-17.7299

> <Gold.Chemscore.ZeroCoef>
-5.4800

> <Gold.Chemscore.Hbond>
0.0000

> <Gold.Chemscore.Metal>
0.0000

> <Gold.Chemscore.Lipo>
133.2842

> <Gold.Chemscore.Internal_Hbond>
0.0000

> <Gold.Chemscore.DEClash>
2.1369

> <Gold.Chemscore.DEInternal>
3.7701

> <Gold.Chemscore.Rot>
1.3064

> <Gold.Chemscore.Internal.Correction>
   9.000000E+99

> <Gold.Chemscore.Hbonds>
donor molecule, donor type, donor heavy atom, donor atom, acceptor molecule, acceptor atom, score
      L1  H     8    26       P1  8028  0.70

> <Gold.Chemscore.Hbond.Weighted>
-0.0000

> <Gold.Chemscore.Metal.Weighted>
-0.0000

> <Gold.Chemscore.Lipo.Weighted>
-15.5942

> <Gold.Chemscore.Internal_Hbond.Weighted>
0.0000

> <Gold.Chemscore.DEClash.Weighted>
2.1369

> <Gold.Chemscore.DEInternal.Weighted>
3.7701

> <Gold.Chemscore.Rot.Weighted>
3.3443

> <Gold.Chemscore.Internal.Correction.Weighted>
   9.000000E+99

> <Gold.Protein.RotatedTorsions>
[ 6907 6896 6895 6894 ] final   81.94 input  -60.11 | X-H torsion
[ 7974 7965 7964 7962 ] final   67.10 input  175.53 | X-H torsion
[ 8008 7997 7996 7995 ] final -174.26 input   59.86 | X-H torsion
[ 10167 10162 10161 10158 ] final -143.49 input  -65.29 | X-H torsion
[ 10718 10713 10712 10709 ] final  -47.04 input   66.30 | X-H torsion
[ 10763 10752 10751 10750 ] final   32.11 input  -60.55 | X-H torsion
[ 11005 11000 10999 10996 ] final  170.10 input  -57.11 | X-H torsion

> <Gold.Protein.ActiveResidues>
 VAL166  LYS551  ARG553  GLY616  TRP617  ASP618  TYR619  PRO620  LYS621  CYS622 
 ASP623  PHE694  ASN695  SER759  ASP760  ASP761  ALA762  ILE779  LEU786  VAL792 
 PHE793  MET794  SER795  GLU796  ALA797  LYS798  CYS799  TRP800  GLU811  SER814 

> <Gold.Protein.RotatedAtoms>
  152.5284  134.3127  159.9119 H   0  0  0  0  0  0  0  0  0  0  0  0  # atno 6907 bound_to 6896
  151.3076  133.4088  159.2652 H   0  0  0  0  0  0  0  0  0  0  0  0  # atno 6908 bound_to 6896
  151.0066  134.9380  159.8041 H   0  0  0  0  0  0  0  0  0  0  0  0  # atno 6909 bound_to 6896
  145.8187  139.3072  143.1056 H   0  0  0  0  0  0  0  0  0  0  0  0  # atno 7974 bound_to 7965
  155.9679  140.1157  157.0838 H   0  0  0  0  0  0  0  0  0  0  0  0  # atno 8008 bound_to 7997
  154.4148  140.1169  156.5334 H   0  0  0  0  0  0  0  0  0  0  0  0  # atno 8009 bound_to 7997
  155.6635  140.3473  155.4794 H   0  0  0  0  0  0  0  0  0  0  0  0  # atno 8010 bound_to 7997
  139.7988  143.7862  152.2656 H   0  0  0  0  0  0  0  0  0  0  0  0  # atno 10167 bound_to 10162
  156.2123  130.4161  149.9098 H   0  0  0  0  0  0  0  0  0  0  0  0  # atno 10718 bound_to 10713
  153.0279  135.6421  154.1304 H   0  0  0  0  0  0  0  0  0  0  0  0  # atno 10763 bound_to 10752
  154.1030  135.2858  155.3249 H   0  0  0  0  0  0  0  0  0  0  0  0  # atno 10764 bound_to 10752
  154.6385  135.5468  153.7825 H   0  0  0  0  0  0  0  0  0  0  0  0  # atno 10765 bound_to 10752
  140.3048  134.7566  157.3944 H   0  0  0  0  0  0  0  0  0  0  0  0  # atno 11005 bound_to 11000
  145.9699  140.8769  143.0168 LP  0  0  0  0  0  0  0  0  0  0  0  0  # atno 17320 bound_to 7965
  144.6750  140.1931  143.7394 LP  0  0  0  0  0  0  0  0  0  0  0  0  # atno 17321 bound_to 7965
  139.7976  144.7386  150.9869 LP  0  0  0  0  0  0  0  0  0  0  0  0  # atno 17342 bound_to 10162
  140.7820  143.4378  151.0597 LP  0  0  0  0  0  0  0  0  0  0  0  0  # atno 17343 bound_to 10162
  156.6772  130.8844  151.3571 LP  0  0  0  0  0  0  0  0  0  0  0  0  # atno 17370 bound_to 10713
  157.7045  130.9370  150.0888 LP  0  0  0  0  0  0  0  0  0  0  0  0  # atno 17371 bound_to 10713
  140.1077  134.5387  155.8294 LP  0  0  0  0  0  0  0  0  0  0  0  0  # atno 17394 bound_to 11000
  141.2121  133.6714  156.6630 LP  0  0  0  0  0  0  0  0  0  0  0  0  # atno 17395 bound_to 11000

$$$$
