AV-unprocessed.smi:3232|AV-procd|sdf|12339|dock7
  -GOLD-   2272018203D 1   1.00000     0.00000
 Structure written by MMmdl.
 40 41  0  0  0  0  0  0  0  0  2 V2000
  152.2554  138.5960  154.3993 C   0  0  0  0  0  0  0  0  0  0  0  0
  151.2097  138.2341  155.4624 C   0  0  0  0  0  0  0  0  0  0  0  0
  150.0899  139.2056  155.5006 N   0  3  2  0  0  0  0  0  0  0  0  0
  149.3055  139.2956  154.2512 C   0  0  0  0  0  0  0  0  0  0  0  0
  148.6387  140.6635  154.3051 C   0  0  0  0  0  0  0  0  0  0  0  0
  149.7055  141.5358  154.9573 C   0  0  0  0  0  0  0  0  0  0  0  0
  150.4899  140.5838  155.8833 C   0  0  1  0  0  0  0  0  0  0  0  0
  150.2212  140.8235  157.3835 C   0  0  0  0  0  0  0  0  0  0  0  0
  151.1232  141.8172  157.9562 N   0  0  0  0  0  0  0  0  0  0  0  0
  150.7340  142.9535  158.5569 C   0  0  0  0  0  0  0  0  0  0  0  0
  149.5493  143.2614  158.6940 O   0  0  0  0  0  0  0  0  0  0  0  0
  151.8544  143.8636  159.0907 C   0  0  2  0  0  0  0  0  0  0  0  0
  152.8467  144.3063  157.9960 C   0  0  0  0  0  0  0  0  0  0  0  0
  152.5373  143.2358  160.2158 N   0  0  0  0  0  0  0  0  0  0  0  0
  152.5842  143.5942  161.5007 C   0  0  0  0  0  0  0  0  0  0  0  0
  153.2769  142.7635  162.2666 N   0  0  0  0  0  0  0  0  0  0  0  0
  153.6530  141.8464  161.3267 C   0  0  0  0  0  0  0  0  0  0  0  0
  153.2287  142.0762  160.0842 N   0  0  0  0  0  0  0  0  0  0  0  0
  153.0358  137.8361  154.3529 H   0  0  0  0  0  0  0  0  0  0  0  0
  152.7399  139.5477  154.6185 H   0  0  0  0  0  0  0  0  0  0  0  0
  151.8033  138.6672  153.4097 H   0  0  0  0  0  0  0  0  0  0  0  0
  150.8080  137.2462  155.2326 H   0  0  0  0  0  0  0  0  0  0  0  0
  151.6761  138.1615  156.4460 H   0  0  0  0  0  0  0  0  0  0  0  0
  149.9725  139.2474  153.3887 H   0  0  0  0  0  0  0  0  0  0  0  0
  148.5819  138.4843  154.1661 H   0  0  0  0  0  0  0  0  0  0  0  0
  148.3324  141.0267  153.3237 H   0  0  0  0  0  0  0  0  0  0  0  0
  147.7537  140.6204  154.9414 H   0  0  0  0  0  0  0  0  0  0  0  0
  150.3739  141.9256  154.1883 H   0  0  0  0  0  0  0  0  0  0  0  0
  149.2718  142.3929  155.4731 H   0  0  0  0  0  0  0  0  0  0  0  0
  151.5546  140.7183  155.6821 H   0  0  0  0  0  0  0  0  0  0  0  0
  149.1978  141.1711  157.5291 H   0  0  0  0  0  0  0  0  0  0  0  0
  150.3087  139.8895  157.9417 H   0  0  0  0  0  0  0  0  0  0  0  0
  152.1138  141.6357  157.8797 H   0  0  0  0  0  0  0  0  0  0  0  0
  151.3719  144.7650  159.4721 H   0  0  0  0  0  0  0  0  0  0  0  0
  152.3370  144.8411  157.1938 H   0  0  0  0  0  0  0  0  0  0  0  0
  153.3680  143.4584  157.5497 H   0  0  0  0  0  0  0  0  0  0  0  0
  153.6015  144.9780  158.4058 H   0  0  0  0  0  0  0  0  0  0  0  0
  152.0976  144.4787  161.8854 H   0  0  0  0  0  0  0  0  0  0  0  0
  154.2517  140.9801  161.5667 H   0  0  0  0  0  0  0  0  0  0  0  0
  149.4476  138.8973  156.2165 H   0  0  0  0  0  0  0  0  0  0  0  0
  1  2  1  0  0  0  0
  1 19  1  0  0  0  0
  1 20  1  0  0  0  0
  1 21  1  0  0  0  0
  2  3  1  0  0  0  0
  2 22  1  0  0  0  0
  2 23  1  0  0  0  0
  3  7  1  0  0  0  0
  3  4  1  0  0  0  0
  3 40  1  0  0  0  0
  4  5  1  0  0  0  0
  4 24  1  0  0  0  0
  4 25  1  0  0  0  0
  5  6  1  0  0  0  0
  5 26  1  0  0  0  0
  5 27  1  0  0  0  0
  6  7  1  0  0  0  0
  6 28  1  0  0  0  0
  6 29  1  0  0  0  0
  7  8  1  0  0  0  0
  7 30  1  0  0  0  0
  8  9  1  0  0  0  0
  8 31  1  0  0  0  0
  8 32  1  0  0  0  0
  9 10  1  0  0  0  0
  9 33  1  0  0  0  0
 10 11  2  0  0  0  0
 10 12  1  0  0  0  0
 12 13  1  0  0  0  0
 12 14  1  0  0  0  0
 12 34  1  0  0  0  0
 13 35  1  0  0  0  0
 13 36  1  0  0  0  0
 13 37  1  0  0  0  0
 14 18  1  0  0  0  0
 14 15  1  0  0  0  0
 15 16  2  0  0  0  0
 15 38  1  0  0  0  0
 16 17  1  0  0  0  0
 17 18  2  0  0  0  0
 17 39  1  0  0  0  0
M  CHG  1   3   1
M  END
> <s_m_source_file>
AV-unprocessed.smi

> <i_m_source_file_index>
3232

> <i_lp_mmshare_version>
43012

> <i_f3d_flags>
0

> <s_epik_input>
W0NIM11bQ0gyXU4xW0NIMl1bQ0gyXVtDSDJdW0NASF0xW0NIMl1bTkhdQyg9TylbQ0BIXShbQ0gzXSluMltjSF1uW2NIXW4y

> <s_epik_cmdline>
J2VwaWtfcHl0aG9uJywgJy1waCcsICc3LjAnLCAnLXRuJywgJzgnLCAnLW1hJywgJzIwMCcsICctbWV0YWxfYmluZGluZycsICctaW1hZScsICc8aW5maWxlLm1hZT4nLCAnLW9tYWUnLCAnPG91dGZpbGUubWFlPic=

> <r_lp_tautomer_probability>
1

> <r_epik_Ionization_Penalty>
0.00177695

> <r_epik_Ionization_Penalty_Charging>
0.00176881

> <r_epik_Ionization_Penalty_Neutral>
8.13528e-06

> <r_epik_State_Penalty>
0.00119827

> <r_epik_Charging_Adjusted_Penalty>
0.00296709

> <i_epik_Tot_Q>
1

> <i_epik_Tot_abs_Q>
1

> <r_epik_Metal_State_Penalty>
-0

> <b_epik_Metal_Only>
0

> <s_lp_Force_Field>
OPLS_2005

> <r_lp_Energy>
33.6963

> <b_lp_Chiralities_Consistent>
1

> <s_lp_Variant>
AV-unprocessed.smi:3232-1

> <Gold.Version>
5.8.1

> <Gold.Id.Protein>
6NUR|6NUR_protein|mol2

> <Gold.PLP.Fitness>
40.4817

> <Gold.PLP.PLP>
-41.2518

> <Gold.PLP.part.hbond>
-0.3902

> <Gold.PLP.part.metal>
0.0000

> <Gold.PLP.part.buried>
-6.0470

> <Gold.PLP.part.nonpolar>
-35.3540

> <Gold.PLP.part.repulsive>
0.3510

> <Gold.PLP.ligand.clash>
0.0000

> <Gold.PLP.ligand.torsion>
0.4485

> <Gold.PLP.Chemscore.Hbond>
0.0000

> <Gold.PLP.Chemscore.CHOScore>
0.0000

> <Gold.PLP.Chemscore.Metal>
0.0000

> <Gold.PLP.Chemscore.Internal.Correction>
0.1268

> <Gold.Rescore>
     Score         DG    S(hbond)    S(metal)    S(lipo)     H(rot)  DE(clash)    DE(int)     intcor
      6.13      -7.51       0.00        0.00      71.82       2.49       0.07       1.31       ----

> <Gold.Chemscore.Fitness>
6.1337

> <Gold.Chemscore.DG>
-7.5129

> <Gold.Chemscore.ZeroCoef>
-5.4800

> <Gold.Chemscore.Hbond>
0.0000

> <Gold.Chemscore.Metal>
0.0000

> <Gold.Chemscore.Lipo>
71.8173

> <Gold.Chemscore.Internal_Hbond>
0.0000

> <Gold.Chemscore.DEClash>
0.0651

> <Gold.Chemscore.DEInternal>
1.3141

> <Gold.Chemscore.Rot>
2.4882

> <Gold.Chemscore.Internal.Correction>
   9.000000E+99

> <Gold.Chemscore.Hbond.Weighted>
-0.0000

> <Gold.Chemscore.Metal.Weighted>
-0.0000

> <Gold.Chemscore.Lipo.Weighted>
-8.4026

> <Gold.Chemscore.Internal_Hbond.Weighted>
0.0000

> <Gold.Chemscore.DEClash.Weighted>
0.0651

> <Gold.Chemscore.DEInternal.Weighted>
1.3141

> <Gold.Chemscore.Rot.Weighted>
6.3697

> <Gold.Chemscore.Internal.Correction.Weighted>
   9.000000E+99

> <Gold.Protein.RotatedTorsions>
[ 6907 6896 6895 6894 ] final   95.50 input  -60.11 | X-H torsion
[ 7974 7965 7964 7962 ] final -162.33 input  175.53 | X-H torsion
[ 8008 7997 7996 7995 ] final  -38.35 input   59.86 | X-H torsion
[ 10167 10162 10161 10158 ] final  132.98 input  -65.29 | X-H torsion
[ 10718 10713 10712 10709 ] final   20.80 input   66.30 | X-H torsion
[ 10763 10752 10751 10750 ] final  162.38 input  -60.55 | X-H torsion
[ 11005 11000 10999 10996 ] final  -53.66 input  -57.11 | X-H torsion

> <Gold.Protein.ActiveResidues>
 VAL166  LYS551  ARG553  GLY616  TRP617  ASP618  TYR619  PRO620  LYS621  CYS622 
 ASP623  PHE694  ASN695  SER759  ASP760  ASP761  ALA762  ILE779  LEU786  VAL792 
 PHE793  MET794  SER795  GLU796  ALA797  LYS798  CYS799  TRP800  GLU811  SER814 

> <Gold.Protein.RotatedAtoms>
  152.5443  134.1030  159.8325 H   0  0  0  0  0  0  0  0  0  0  0  0  # atno 6907 bound_to 6896
  151.1106  133.5168  159.2613 H   0  0  0  0  0  0  0  0  0  0  0  0  # atno 6908 bound_to 6896
  151.1889  135.0403  159.8878 H   0  0  0  0  0  0  0  0  0  0  0  0  # atno 6909 bound_to 6896
  144.7361  140.3268  143.6160 H   0  0  0  0  0  0  0  0  0  0  0  0  # atno 7974 bound_to 7965
  154.4038  140.1580  156.2686 H   0  0  0  0  0  0  0  0  0  0  0  0  # atno 8008 bound_to 7997
  155.8973  140.3435  155.5978 H   0  0  0  0  0  0  0  0  0  0  0  0  # atno 8009 bound_to 7997
  155.7489  140.0802  157.2201 H   0  0  0  0  0  0  0  0  0  0  0  0  # atno 8010 bound_to 7997
  139.5316  144.6637  151.4930 H   0  0  0  0  0  0  0  0  0  0  0  0  # atno 10167 bound_to 10162
  157.1295  130.6584  149.5947 H   0  0  0  0  0  0  0  0  0  0  0  0  # atno 10718 bound_to 10713
  154.2775  135.2764  155.2712 H   0  0  0  0  0  0  0  0  0  0  0  0  # atno 10763 bound_to 10752
  154.5248  135.5746  153.6713 H   0  0  0  0  0  0  0  0  0  0  0  0  # atno 10764 bound_to 10752
  152.9934  135.6213  154.2932 H   0  0  0  0  0  0  0  0  0  0  0  0  # atno 10765 bound_to 10752
  141.0987  133.6621  156.4206 H   0  0  0  0  0  0  0  0  0  0  0  0  # atno 11005 bound_to 11000
  145.7512  139.1794  143.2320 LP  0  0  0  0  0  0  0  0  0  0  0  0  # atno 17320 bound_to 7965
  146.1059  140.7488  142.9527 LP  0  0  0  0  0  0  0  0  0  0  0  0  # atno 17321 bound_to 7965
  140.6498  143.8721  150.6774 LP  0  0  0  0  0  0  0  0  0  0  0  0  # atno 17342 bound_to 10162
  140.2081  143.3905  152.1739 LP  0  0  0  0  0  0  0  0  0  0  0  0  # atno 17343 bound_to 10162
  155.9811  130.4816  150.6809 LP  0  0  0  0  0  0  0  0  0  0  0  0  # atno 17370 bound_to 10713
  157.4405  131.0860  151.0948 LP  0  0  0  0  0  0  0  0  0  0  0  0  # atno 17371 bound_to 10713
  140.5075  134.6426  157.5272 LP  0  0  0  0  0  0  0  0  0  0  0  0  # atno 17394 bound_to 11000
  139.9832  134.7104  155.9822 LP  0  0  0  0  0  0  0  0  0  0  0  0  # atno 17395 bound_to 11000

$$$$
