AV-unprocessed.smi:395|AV-procd|sdf|2486|dock6
  -GOLD-   2262022423D 1   1.00000     0.00000
 Structure written by MMmdl.
 34 35  0  0  0  0  0  0  0  0  1 V2000
  145.6420  144.6653  153.5009 C   0  0  0  0  0  0  0  0  0  0  0  0
  146.1580  143.4418  153.2912 C   0  0  0  0  0  0  0  0  0  0  0  0
  146.6894  142.4820  154.3473 C   0  0  0  0  0  0  0  0  0  0  0  0
  148.1086  142.6518  154.6474 N   0  0  0  0  0  0  0  0  0  0  0  0
  149.0474  141.7041  154.5027 C   0  0  0  0  0  0  0  0  0  0  0  0
  148.8082  140.5798  154.0599 O   0  0  0  0  0  0  0  0  0  0  0  0
  150.4710  142.0962  154.9255 C   0  0  0  0  0  0  0  0  0  0  0  0
  151.0450  141.1790  155.9341 N   0  0  0  0  0  0  0  0  0  0  0  0
  151.2438  139.8174  155.5903 C   0  0  0  0  0  0  0  0  0  0  0  0
  150.9765  139.4006  154.4620 O   0  0  0  0  0  0  0  0  0  0  0  0
  151.7621  138.9683  156.6604 C   0  0  0  0  0  0  0  0  0  0  0  0
  151.9439  137.5858  156.3642 C   0  0  0  0  0  0  0  0  0  0  0  0
  152.0669  136.4597  156.1267 N   0  0  0  0  0  0  0  0  0  0  0  0
  152.0457  139.4778  157.8768 C   0  0  0  0  0  0  0  0  0  0  0  0
  151.8817  140.8121  158.1785 N   0  0  0  0  0  0  0  0  0  0  0  0
  152.0342  141.2998  159.5203 C   0  0  0  0  0  0  0  0  0  0  0  0
  152.7999  142.5807  159.7883 C   0  0  0  0  0  0  0  0  0  0  0  0
  153.4005  141.2491  160.1683 C   0  0  0  0  0  0  0  0  0  0  0  0
  151.3260  141.6917  157.2241 C   0  0  0  0  0  0  0  0  0  0  0  0
  151.0805  142.8677  157.5057 O   0  0  0  0  0  0  0  0  0  0  0  0
  145.5553  145.0922  154.4891 H   0  0  0  0  0  0  0  0  0  0  0  0
  145.2944  145.2627  152.6711 H   0  0  0  0  0  0  0  0  0  0  0  0
  146.2144  143.0805  152.2748 H   0  0  0  0  0  0  0  0  0  0  0  0
  146.0933  142.5871  155.2551 H   0  0  0  0  0  0  0  0  0  0  0  0
  146.5353  141.4630  153.9924 H   0  0  0  0  0  0  0  0  0  0  0  0
  148.3926  143.5487  155.0140 H   0  0  0  0  0  0  0  0  0  0  0  0
  151.0887  142.1506  154.0282 H   0  0  0  0  0  0  0  0  0  0  0  0
  150.4671  143.1191  155.3069 H   0  0  0  0  0  0  0  0  0  0  0  0
  152.4200  138.8171  158.6457 H   0  0  0  0  0  0  0  0  0  0  0  0
  151.1908  141.1069  160.1812 H   0  0  0  0  0  0  0  0  0  0  0  0
  153.2441  143.1024  158.9426 H   0  0  0  0  0  0  0  0  0  0  0  0
  152.4405  143.2193  160.5923 H   0  0  0  0  0  0  0  0  0  0  0  0
  153.4442  141.0011  161.2267 H   0  0  0  0  0  0  0  0  0  0  0  0
  154.2381  140.8927  159.5718 H   0  0  0  0  0  0  0  0  0  0  0  0
  1  2  2  0  0  0  0
  1 21  1  0  0  0  0
  1 22  1  0  0  0  0
  2  3  1  0  0  0  0
  2 23  1  0  0  0  0
  3  4  1  0  0  0  0
  3 24  1  0  0  0  0
  3 25  1  0  0  0  0
  4  5  1  0  0  0  0
  4 26  1  0  0  0  0
  5  6  2  0  0  0  0
  5  7  1  0  0  0  0
  7  8  1  0  0  0  0
  7 27  1  0  0  0  0
  7 28  1  0  0  0  0
  8 19  1  0  0  0  0
  8  9  1  0  0  0  0
  9 10  2  0  0  0  0
  9 11  1  0  0  0  0
 11 12  1  0  0  0  0
 11 14  2  0  0  0  0
 12 13  3  0  0  0  0
 14 15  1  0  0  0  0
 14 29  1  0  0  0  0
 15 16  1  0  0  0  0
 15 19  1  0  0  0  0
 16 18  1  0  0  0  0
 16 17  1  0  0  0  0
 16 30  1  0  0  0  0
 17 18  1  0  0  0  0
 17 31  1  0  0  0  0
 17 32  1  0  0  0  0
 18 33  1  0  0  0  0
 18 34  1  0  0  0  0
 19 20  2  0  0  0  0
M  END
> <s_m_source_file>
AV-unprocessed.smi

> <i_m_source_file_index>
395

> <i_lp_mmshare_version>
43012

> <i_f3d_flags>
0

> <s_epik_input>
W0NIMl09W0NIXVtDSDJdW05IXUMoPU8pW0NIMl1uMWMoPU8pYyhDI04pW2NIXW4oYzE9TylbQ0hdMltDSDJdW0NIMl0y

> <s_epik_cmdline>
J2VwaWtfcHl0aG9uJywgJy1waCcsICc3LjAnLCAnLXRuJywgJzgnLCAnLW1hJywgJzIwMCcsICctbWV0YWxfYmluZGluZycsICctaW1hZScsICc8aW5maWxlLm1hZT4nLCAnLW9tYWUnLCAnPG91dGZpbGUubWFlPic=

> <r_lp_tautomer_probability>
1

> <r_epik_Ionization_Penalty>
1.93471e-08

> <r_epik_Ionization_Penalty_Charging>
8.01404e-11

> <r_epik_Ionization_Penalty_Neutral>
1.9267e-08

> <r_epik_State_Penalty>
-0

> <r_epik_Charging_Adjusted_Penalty>
8.01404e-11

> <i_epik_Tot_Q>
0

> <i_epik_Tot_abs_Q>
0

> <r_epik_Metal_State_Penalty>
-0

> <b_epik_Metal_Only>
0

> <s_lp_Force_Field>
OPLS_2005

> <r_lp_Energy>
28.6083

> <b_lp_Chiralities_Consistent>
1

> <s_lp_Variant>
AV-unprocessed.smi:395-1

> <Gold.Version>
5.8.1

> <Gold.Id.Protein>
6NUR|6NUR_protein|mol2

> <Gold.PLP.Fitness>
45.3801

> <Gold.PLP.PLP>
-36.9382

> <Gold.PLP.part.hbond>
-2.7963

> <Gold.PLP.part.metal>
0.0000

> <Gold.PLP.part.buried>
-4.2014

> <Gold.PLP.part.nonpolar>
-31.3602

> <Gold.PLP.part.repulsive>
0.4887

> <Gold.PLP.ligand.clash>
0.0000

> <Gold.PLP.ligand.torsion>
0.3743

> <Gold.PLP.Chemscore.Hbond>
2.9920

> <Gold.PLP.Chemscore.CHOScore>
0.0000

> <Gold.PLP.Chemscore.Metal>
0.0000

> <Gold.Chemscore.Hbonds>
donor molecule, donor type, donor heavy atom, donor atom, acceptor molecule, acceptor atom, score
      L1  H     4    26       P1  8028  0.67
      P1  H  7989  7998       L1    10  0.90
      P1  H 10752 10763       L1    13  1.00

> <Gold.PLP.Chemscore.Internal.Correction>
0.2146

> <Gold.Rescore>
     Score         DG    S(hbond)    S(metal)    S(lipo)     H(rot)  DE(clash)    DE(int)     intcor
     10.56     -14.94       2.14        0.00      65.62       2.09       0.69       3.69       ----

> <Gold.Chemscore.Fitness>
10.5645

> <Gold.Chemscore.DG>
-14.9439

> <Gold.Chemscore.ZeroCoef>
-5.4800

> <Gold.Chemscore.Hbond>
2.1358

> <Gold.Chemscore.Metal>
0.0000

> <Gold.Chemscore.Lipo>
65.6170

> <Gold.Chemscore.Internal_Hbond>
0.0000

> <Gold.Chemscore.DEClash>
0.6905

> <Gold.Chemscore.DEInternal>
3.6889

> <Gold.Chemscore.Rot>
2.0886

> <Gold.Chemscore.Internal.Correction>
   9.000000E+99

> <Gold.Chemscore.Hbonds>
donor molecule, donor type, donor heavy atom, donor atom, acceptor molecule, acceptor atom, score
      L1  H     4    26       P1  8028  0.66
      P1  H  7989  7998       L1    10  0.18
      P1  H 10752 10763       L1    13  1.00

> <Gold.Chemscore.Hbond.Weighted>
-7.1336

> <Gold.Chemscore.Metal.Weighted>
-0.0000

> <Gold.Chemscore.Lipo.Weighted>
-7.6772

> <Gold.Chemscore.Internal_Hbond.Weighted>
0.0000

> <Gold.Chemscore.DEClash.Weighted>
0.6905

> <Gold.Chemscore.DEInternal.Weighted>
3.6889

> <Gold.Chemscore.Rot.Weighted>
5.3469

> <Gold.Chemscore.Internal.Correction.Weighted>
   9.000000E+99

> <Gold.Protein.RotatedTorsions>
[ 6907 6896 6895 6894 ] final -161.55 input  -60.11 | X-H torsion
[ 7974 7965 7964 7962 ] final   40.29 input  175.53 | X-H torsion
[ 8008 7997 7996 7995 ] final   13.41 input   59.86 | X-H torsion
[ 10167 10162 10161 10158 ] final  -32.35 input  -65.29 | X-H torsion
[ 10718 10713 10712 10709 ] final -160.03 input   66.30 | X-H torsion
[ 10763 10752 10751 10750 ] final   83.78 input  -60.55 | X-H torsion
[ 11005 11000 10999 10996 ] final  -64.08 input  -57.11 | X-H torsion

> <Gold.Protein.ActiveResidues>
 VAL166  LYS551  ARG553  GLY616  TRP617  ASP618  TYR619  PRO620  LYS621  CYS622 
 ASP623  PHE694  ASN695  SER759  ASP760  ASP761  ALA762  ILE779  LEU786  VAL792 
 PHE793  MET794  SER795  GLU796  ALA797  LYS798  CYS799  TRP800  GLU811  SER814 

> <Gold.Protein.RotatedAtoms>
  151.3664  133.3870  159.2694 H   0  0  0  0  0  0  0  0  0  0  0  0  # atno 6907 bound_to 6896
  150.9685  134.9063  159.7784 H   0  0  0  0  0  0  0  0  0  0  0  0  # atno 6908 bound_to 6896
  152.5176  134.3626  159.9342 H   0  0  0  0  0  0  0  0  0  0  0  0  # atno 6909 bound_to 6896
  146.0916  139.5550  142.9472 H   0  0  0  0  0  0  0  0  0  0  0  0  # atno 7974 bound_to 7965
  154.8341  140.2904  155.5703 H   0  0  0  0  0  0  0  0  0  0  0  0  # atno 8008 bound_to 7997
  156.3007  140.2526  156.3202 H   0  0  0  0  0  0  0  0  0  0  0  0  # atno 8009 bound_to 7997
  154.9199  140.0386  157.1981 H   0  0  0  0  0  0  0  0  0  0  0  0  # atno 8010 bound_to 7997
  140.7222  143.3701  151.1794 H   0  0  0  0  0  0  0  0  0  0  0  0  # atno 10167 bound_to 10162
  156.5764  130.8711  151.2852 H   0  0  0  0  0  0  0  0  0  0  0  0  # atno 10718 bound_to 10713
  153.1322  135.4678  154.9367 H   0  0  0  0  0  0  0  0  0  0  0  0  # atno 10763 bound_to 10752
  154.7674  135.3149  154.8260 H   0  0  0  0  0  0  0  0  0  0  0  0  # atno 10764 bound_to 10752
  153.8800  135.6895  153.4821 H   0  0  0  0  0  0  0  0  0  0  0  0  # atno 10765 bound_to 10752
  141.1414  133.6661  156.5779 H   0  0  0  0  0  0  0  0  0  0  0  0  # atno 11005 bound_to 11000
  145.6027  141.0352  143.2009 LP  0  0  0  0  0  0  0  0  0  0  0  0  # atno 17320 bound_to 7965
  144.7364  139.7572  143.7327 LP  0  0  0  0  0  0  0  0  0  0  0  0  # atno 17321 bound_to 7965
  139.7271  143.9131  152.3006 LP  0  0  0  0  0  0  0  0  0  0  0  0  # atno 17342 bound_to 10162
  139.8908  144.6967  150.8773 LP  0  0  0  0  0  0  0  0  0  0  0  0  # atno 17343 bound_to 10162
  157.7336  130.9734  150.1988 LP  0  0  0  0  0  0  0  0  0  0  0  0  # atno 17370 bound_to 10713
  156.2669  130.3717  149.8072 LP  0  0  0  0  0  0  0  0  0  0  0  0  # atno 17371 bound_to 10713
  140.3861  134.7481  157.4692 LP  0  0  0  0  0  0  0  0  0  0  0  0  # atno 17394 bound_to 11000
  140.0601  134.6008  155.8759 LP  0  0  0  0  0  0  0  0  0  0  0  0  # atno 17395 bound_to 11000

$$$$
