AV-unprocessed.smi:1672|AV-procd|sdf|6701|dock3
  -GOLD-   22720 7433D 1   1.00000     0.00000
 Structure written by MMmdl.
 48 50  0  0  0  0  0  0  0  0  2 V2000
  151.0966  135.5468  155.4899 C   0  0  0  0  0  0  0  0  0  0  0  0
  149.8022  134.7824  155.1787 C   0  0  2  0  0  0  0  0  0  0  0  0
  149.9708  133.8476  153.9693 C   0  0  0  0  0  0  0  0  0  0  0  0
  148.6615  133.1083  153.6502 C   0  0  0  0  0  0  0  0  0  0  0  0
  147.5494  134.0661  153.4092 N   0  3  1  0  0  0  0  0  0  0  0  0
  146.2954  133.4031  152.9696 C   0  0  0  0  0  0  0  0  0  0  0  0
  146.0143  133.6272  151.4671 C   0  0  2  0  0  0  0  0  0  0  0  0
  147.0882  133.0943  150.7192 O   0  0  0  0  0  0  0  0  0  0  0  0
  145.8549  135.1094  151.0710 C   0  0  0  0  0  0  0  0  0  0  0  0
  144.9428  135.8431  151.9395 N   0  0  0  0  0  0  0  0  0  0  0  0
  145.0970  137.0822  152.4741 C   0  0  0  0  0  0  0  0  0  0  0  0
  146.3039  137.9332  152.2202 C   0  0  0  0  0  0  0  0  0  0  0  0
  146.5045  138.1919  150.8470 O   0  0  0  0  0  0  0  0  0  0  0  0
  144.0928  137.5122  153.2382 N   0  0  0  0  0  0  0  0  0  0  0  0
  143.2060  136.4551  153.2023 C   0  0  0  0  0  0  0  0  0  0  0  0
  141.9433  136.2956  153.8162 C   0  0  0  0  0  0  0  0  0  0  0  0
  141.2042  135.1092  153.6305 C   0  0  0  0  0  0  0  0  0  0  0  0
  141.7155  134.0682  152.8290 C   0  0  0  0  0  0  0  0  0  0  0  0
  142.9717  134.2070  152.2079 C   0  0  0  0  0  0  0  0  0  0  0  0
  143.7072  135.3927  152.3981 C   0  0  0  0  0  0  0  0  0  0  0  0
  147.3400  134.9603  154.5764 C   0  0  0  0  0  0  0  0  0  0  0  0
  148.6234  135.7361  154.9199 C   0  0  0  0  0  0  0  0  0  0  0  0
  151.3896  136.1878  154.6579 H   0  0  0  0  0  0  0  0  0  0  0  0
  151.9204  134.8601  155.6873 H   0  0  0  0  0  0  0  0  0  0  0  0
  150.9771  136.1785  156.3707 H   0  0  0  0  0  0  0  0  0  0  0  0
  149.5606  134.1710  156.0497 H   0  0  0  0  0  0  0  0  0  0  0  0
  150.2876  134.4213  153.0968 H   0  0  0  0  0  0  0  0  0  0  0  0
  150.7616  133.1226  154.1652 H   0  0  0  0  0  0  0  0  0  0  0  0
  148.8171  132.4763  152.7768 H   0  0  0  0  0  0  0  0  0  0  0  0
  148.3983  132.4432  154.4744 H   0  0  0  0  0  0  0  0  0  0  0  0
  146.3674  132.3415  153.2084 H   0  0  0  0  0  0  0  0  0  0  0  0
  145.4460  133.7816  153.5406 H   0  0  0  0  0  0  0  0  0  0  0  0
  145.1157  133.0916  151.1689 H   0  0  0  0  0  0  0  0  0  0  0  0
  147.0603  132.1511  150.7782 H   0  0  0  0  0  0  0  0  0  0  0  0
  146.8257  135.6052  151.0994 H   0  0  0  0  0  0  0  0  0  0  0  0
  145.5095  135.1982  150.0406 H   0  0  0  0  0  0  0  0  0  0  0  0
  146.1796  138.8857  152.7365 H   0  0  0  0  0  0  0  0  0  0  0  0
  147.1977  137.4708  152.6367 H   0  0  0  0  0  0  0  0  0  0  0  0
  145.6638  138.3611  150.4495 H   0  0  0  0  0  0  0  0  0  0  0  0
  141.5427  137.0874  154.4318 H   0  0  0  0  0  0  0  0  0  0  0  0
  140.2405  134.9976  154.1058 H   0  0  0  0  0  0  0  0  0  0  0  0
  141.1426  133.1624  152.6926 H   0  0  0  0  0  0  0  0  0  0  0  0
  143.3618  133.4086  151.5944 H   0  0  0  0  0  0  0  0  0  0  0  0
  146.5427  135.6715  154.3565 H   0  0  0  0  0  0  0  0  0  0  0  0
  147.0130  134.3709  155.4344 H   0  0  0  0  0  0  0  0  0  0  0  0
  148.4499  136.3621  155.7960 H   0  0  0  0  0  0  0  0  0  0  0  0
  148.8690  136.4137  154.1009 H   0  0  0  0  0  0  0  0  0  0  0  0
  147.8331  134.6635  152.6454 H   0  0  0  0  0  0  0  0  0  0  0  0
  1  2  1  0  0  0  0
  1 23  1  0  0  0  0
  1 24  1  0  0  0  0
  1 25  1  0  0  0  0
  2 22  1  0  0  0  0
  2  3  1  0  0  0  0
  2 26  1  0  0  0  0
  3  4  1  0  0  0  0
  3 27  1  0  0  0  0
  3 28  1  0  0  0  0
  4  5  1  0  0  0  0
  4 29  1  0  0  0  0
  4 30  1  0  0  0  0
  5  6  1  0  0  0  0
  5 21  1  0  0  0  0
  5 48  1  0  0  0  0
  6  7  1  0  0  0  0
  6 31  1  0  0  0  0
  6 32  1  0  0  0  0
  7  8  1  0  0  0  0
  7  9  1  0  0  0  0
  7 33  1  0  0  0  0
  8 34  1  0  0  0  0
  9 10  1  0  0  0  0
  9 35  1  0  0  0  0
  9 36  1  0  0  0  0
 10 20  1  0  0  0  0
 10 11  1  0  0  0  0
 11 12  1  0  0  0  0
 11 14  2  0  0  0  0
 12 13  1  0  0  0  0
 12 37  1  0  0  0  0
 12 38  1  0  0  0  0
 13 39  1  0  0  0  0
 14 15  1  0  0  0  0
 15 20  2  0  0  0  0
 15 16  1  0  0  0  0
 16 17  2  0  0  0  0
 16 40  1  0  0  0  0
 17 18  1  0  0  0  0
 17 41  1  0  0  0  0
 18 19  2  0  0  0  0
 18 42  1  0  0  0  0
 19 20  1  0  0  0  0
 19 43  1  0  0  0  0
 21 22  1  0  0  0  0
 21 44  1  0  0  0  0
 21 45  1  0  0  0  0
 22 46  1  0  0  0  0
 22 47  1  0  0  0  0
M  CHG  1   5   1
M  END
> <s_m_source_file>
AV-unprocessed.smi

> <i_m_source_file_index>
1672

> <i_lp_mmshare_version>
43012

> <i_f3d_flags>
0

> <s_epik_input>
W0NIM11bQ0hdMVtDSDJdW0NIMl1OKFtDSDJdW0NIMl0xKVtDSDJdW0NASF0oW09IXSlbQ0gyXW4oYyhuMilbQ0gyXVtPSF0pYyhjMjMpW2NIXVtjSF1bY0hdW2NIXTM=

> <s_epik_cmdline>
J2VwaWtfcHl0aG9uJywgJy1waCcsICc3LjAnLCAnLXRuJywgJzgnLCAnLW1hJywgJzIwMCcsICctbWV0YWxfYmluZGluZycsICctaW1hZScsICc8aW5maWxlLm1hZT4nLCAnLW9tYWUnLCAnPG91dGZpbGUubWFlPic=

> <r_epik_Ionization_Penalty>
0.0498263

> <r_epik_Ionization_Penalty_Charging>
0.00181365

> <r_epik_Ionization_Penalty_Neutral>
0.0480127

> <r_epik_State_Penalty>
0.0408546

> <r_epik_Charging_Adjusted_Penalty>
0.0426682

> <i_epik_Tot_Q>
1

> <i_epik_Tot_abs_Q>
1

> <r_epik_Metal_State_Penalty>
4.22946e-05

> <b_epik_Metal_Only>
0

> <s_lp_Force_Field>
OPLS_2005

> <r_lp_Energy>
22.4872

> <b_lp_Chiralities_Consistent>
1

> <s_lp_Variant>
AV-unprocessed.smi:1672-1

> <Gold.Version>
5.8.1

> <Gold.Id.Protein>
6NUR|6NUR_protein|mol2

> <Gold.PLP.Fitness>
48.4720

> <Gold.PLP.PLP>
-38.0669

> <Gold.PLP.part.hbond>
-4.2236

> <Gold.PLP.part.metal>
0.0000

> <Gold.PLP.part.buried>
-3.2176

> <Gold.PLP.part.nonpolar>
-30.9211

> <Gold.PLP.part.repulsive>
1.1623

> <Gold.PLP.ligand.clash>
0.0000

> <Gold.PLP.ligand.torsion>
0.9624

> <Gold.PLP.Chemscore.Hbond>
4.0832

> <Gold.PLP.Chemscore.CHOScore>
0.0000

> <Gold.PLP.Chemscore.Metal>
0.0000

> <Gold.Chemscore.Hbonds>
donor molecule, donor type, donor heavy atom, donor atom, acceptor molecule, acceptor atom, score
      L1  H     5    48       P1  7948  1.95
      L1  H     8    34       P1 10747  0.07
      L1  H    13    39       P1 10171  1.00
      P1  H  7954  7966       L1    13  1.00

> <Gold.PLP.Chemscore.Internal.Correction>
0.0804

> <Gold.Rescore>
     Score         DG    S(hbond)    S(metal)    S(lipo)     H(rot)  DE(clash)    DE(int)     intcor
     17.10     -18.44       3.22        0.00      81.75       2.88       0.48       0.86       ----

> <Gold.Chemscore.Fitness>
17.0998

> <Gold.Chemscore.DG>
-18.4441

> <Gold.Chemscore.ZeroCoef>
-5.4800

> <Gold.Chemscore.Hbond>
3.2233

> <Gold.Chemscore.Metal>
0.0000

> <Gold.Chemscore.Lipo>
81.7541

> <Gold.Chemscore.Internal_Hbond>
0.0000

> <Gold.Chemscore.DEClash>
0.4808

> <Gold.Chemscore.DEInternal>
0.8634

> <Gold.Chemscore.Rot>
2.8778

> <Gold.Chemscore.Internal.Correction>
   9.000000E+99

> <Gold.Chemscore.Hbonds>
donor molecule, donor type, donor heavy atom, donor atom, acceptor molecule, acceptor atom, score
      L1  H     5    48       P1  7948  0.69
      L1  H     8    34       P1 10747  0.07
      L1  H    13    39       P1 10171  1.00
      P1  H  7954  7966       L1    13  0.96

> <Gold.Chemscore.Hbond.Weighted>
-10.7659

> <Gold.Chemscore.Metal.Weighted>
-0.0000

> <Gold.Chemscore.Lipo.Weighted>
-9.5652

> <Gold.Chemscore.Internal_Hbond.Weighted>
0.0000

> <Gold.Chemscore.DEClash.Weighted>
0.4808

> <Gold.Chemscore.DEInternal.Weighted>
0.8634

> <Gold.Chemscore.Rot.Weighted>
7.3671

> <Gold.Chemscore.Internal.Correction.Weighted>
   9.000000E+99

> <Gold.Protein.RotatedTorsions>
[ 6907 6896 6895 6894 ] final  -52.34 input  -60.11 | X-H torsion
[ 7974 7965 7964 7962 ] final -132.06 input  175.53 | X-H torsion
[ 8008 7997 7996 7995 ] final  146.80 input   59.86 | X-H torsion
[ 10167 10162 10161 10158 ] final    7.90 input  -65.29 | X-H torsion
[ 10718 10713 10712 10709 ] final  177.22 input   66.30 | X-H torsion
[ 10763 10752 10751 10750 ] final  163.88 input  -60.55 | X-H torsion
[ 11005 11000 10999 10996 ] final  140.61 input  -57.11 | X-H torsion

> <Gold.Protein.ActiveResidues>
 VAL166  LYS551  ARG553  GLY616  TRP617  ASP618  TYR619  PRO620  LYS621  CYS622 
 ASP623  PHE694  ASN695  SER759  ASP760  ASP761  ALA762  ILE779  LEU786  VAL792 
 PHE793  MET794  SER795  GLU796  ALA797  LYS798  CYS799  TRP800  GLU811  SER814 

> <Gold.Protein.RotatedAtoms>
  150.8527  134.7857  159.7021 H   0  0  0  0  0  0  0  0  0  0  0  0  # atno 6907 bound_to 6896
  152.4587  134.5230  159.9798 H   0  0  0  0  0  0  0  0  0  0  0  0  # atno 6908 bound_to 6896
  151.5348  133.3405  159.2960 H   0  0  0  0  0  0  0  0  0  0  0  0  # atno 6909 bound_to 6896
  144.9320  140.7140  143.4900 H   0  0  0  0  0  0  0  0  0  0  0  0  # atno 7974 bound_to 7965
  156.2844  140.2173  156.5435 H   0  0  0  0  0  0  0  0  0  0  0  0  # atno 8008 bound_to 7997
  154.7350  140.0492  157.0783 H   0  0  0  0  0  0  0  0  0  0  0  0  # atno 8009 bound_to 7997
  155.0304  140.3134  155.4763 H   0  0  0  0  0  0  0  0  0  0  0  0  # atno 8010 bound_to 7997
  140.6345  143.7918  150.7340 H   0  0  0  0  0  0  0  0  0  0  0  0  # atno 10167 bound_to 10162
  156.9086  130.9902  151.3024 H   0  0  0  0  0  0  0  0  0  0  0  0  # atno 10718 bound_to 10713
  154.3005  135.2759  155.2613 H   0  0  0  0  0  0  0  0  0  0  0  0  # atno 10763 bound_to 10752
  154.5052  135.5797  153.6565 H   0  0  0  0  0  0  0  0  0  0  0  0  # atno 10764 bound_to 10752
  152.9901  135.6167  154.3175 H   0  0  0  0  0  0  0  0  0  0  0  0  # atno 10765 bound_to 10752
  140.0340  134.9338  157.0718 H   0  0  0  0  0  0  0  0  0  0  0  0  # atno 11005 bound_to 11000
  145.3126  139.1814  143.4630 LP  0  0  0  0  0  0  0  0  0  0  0  0  # atno 17320 bound_to 7965
  146.3251  140.3132  142.8628 LP  0  0  0  0  0  0  0  0  0  0  0  0  # atno 17321 bound_to 7965
  140.1536  143.4336  152.2114 LP  0  0  0  0  0  0  0  0  0  0  0  0  # atno 17342 bound_to 10162
  139.5556  144.7370  151.4304 LP  0  0  0  0  0  0  0  0  0  0  0  0  # atno 17343 bound_to 10162
  157.5982  130.8493  149.8761 LP  0  0  0  0  0  0  0  0  0  0  0  0  # atno 17370 bound_to 10713
  156.0547  130.3711  150.1119 LP  0  0  0  0  0  0  0  0  0  0  0  0  # atno 17371 bound_to 10713
  140.4178  134.1913  155.7164 LP  0  0  0  0  0  0  0  0  0  0  0  0  # atno 17394 bound_to 11000
  141.1847  133.8338  157.1130 LP  0  0  0  0  0  0  0  0  0  0  0  0  # atno 17395 bound_to 11000

$$$$
