AV-unprocessed.smi:3330|AV-procd|sdf|12805|dock2
  -GOLD-   2272019173D 1   1.00000     0.00000
 Structure written by MMmdl.
 38 39  0  0  0  0  0  0  0  0  1 V2000
  151.8390  144.5951  157.5154 C   0  0  0  0  0  0  0  0  0  0  0  0
  151.1662  143.6393  158.5202 C   0  0  2  0  0  0  0  0  0  0  0  0
  149.8829  143.2118  157.9686 N   0  0  0  0  0  0  0  0  0  0  0  0
  149.9110  141.8367  157.4957 C   0  0  0  0  0  0  0  0  0  0  0  0
  151.1615  141.6268  156.6291 C   0  0  0  0  0  0  0  0  0  0  0  0
  151.0732  140.3789  155.8677 N   0  0  0  0  0  0  0  0  0  0  0  0
  151.9272  139.3551  155.9953 C   0  0  0  0  0  0  0  0  0  0  0  0
  152.9059  139.2829  156.7379 O   0  0  0  0  0  0  0  0  0  0  0  0
  151.4919  138.2488  155.0592 C   0  0  0  0  0  0  0  0  0  0  0  0
  150.3209  138.8752  154.4842 N   0  0  0  0  0  0  0  0  0  0  0  0
  150.1053  140.1027  154.9746 C   0  0  0  0  0  0  0  0  0  0  0  0
  149.1729  140.8389  154.6553 O   0  0  0  0  0  0  0  0  0  0  0  0
  150.9159  144.2932  159.9067 C   0  0  2  0  0  0  0  0  0  0  0  0
  151.2279  145.8021  159.9324 C   0  0  0  0  0  0  0  0  0  0  0  0
  151.6696  143.6137  160.9561 N   0  0  0  0  0  0  0  0  0  0  0  0
  151.6530  143.8620  162.3132 C   0  0  0  0  0  0  0  0  0  0  0  0
  152.4965  142.9654  162.9041 C   0  0  0  0  0  0  0  0  0  0  0  0
  152.9880  142.1951  161.8140 C   0  0  0  0  0  0  0  0  0  0  0  0
  152.4918  142.5833  160.6509 N   0  0  0  0  0  0  0  0  0  0  0  0
  152.8375  144.8801  157.8450 H   0  0  0  0  0  0  0  0  0  0  0  0
  151.2577  145.5086  157.3850 H   0  0  0  0  0  0  0  0  0  0  0  0
  151.9589  144.1363  156.5342 H   0  0  0  0  0  0  0  0  0  0  0  0
  151.8044  142.7661  158.6653 H   0  0  0  0  0  0  0  0  0  0  0  0
  149.5887  143.8384  157.2333 H   0  0  0  0  0  0  0  0  0  0  0  0
  149.9171  141.1461  158.3390 H   0  0  0  0  0  0  0  0  0  0  0  0
  149.0141  141.6334  156.9090 H   0  0  0  0  0  0  0  0  0  0  0  0
  151.2867  142.4678  155.9441 H   0  0  0  0  0  0  0  0  0  0  0  0
  152.0555  141.6193  157.2556 H   0  0  0  0  0  0  0  0  0  0  0  0
  152.2491  138.0394  154.3029 H   0  0  0  0  0  0  0  0  0  0  0  0
  151.2366  137.3380  155.6016 H   0  0  0  0  0  0  0  0  0  0  0  0
  149.7364  138.4235  153.7958 H   0  0  0  0  0  0  0  0  0  0  0  0
  149.8584  144.1798  160.1523 H   0  0  0  0  0  0  0  0  0  0  0  0
  150.5505  146.3644  159.2907 H   0  0  0  0  0  0  0  0  0  0  0  0
  152.2471  146.0061  159.6024 H   0  0  0  0  0  0  0  0  0  0  0  0
  151.1184  146.2056  160.9395 H   0  0  0  0  0  0  0  0  0  0  0  0
  151.0451  144.6453  162.7414 H   0  0  0  0  0  0  0  0  0  0  0  0
  152.7247  142.8716  163.9553 H   0  0  0  0  0  0  0  0  0  0  0  0
  153.6847  141.3702  161.8333 H   0  0  0  0  0  0  0  0  0  0  0  0
  1  2  1  0  0  0  0
  1 20  1  0  0  0  0
  1 21  1  0  0  0  0
  1 22  1  0  0  0  0
  2  3  1  0  0  0  0
  2 13  1  0  0  0  0
  2 23  1  0  0  0  0
  3  4  1  0  0  0  0
  3 24  1  0  0  0  0
  4  5  1  0  0  0  0
  4 25  1  0  0  0  0
  4 26  1  0  0  0  0
  5  6  1  0  0  0  0
  5 27  1  0  0  0  0
  5 28  1  0  0  0  0
  6 11  1  0  0  0  0
  6  7  1  0  0  0  0
  7  8  2  0  0  0  0
  7  9  1  0  0  0  0
  9 10  1  0  0  0  0
  9 29  1  0  0  0  0
  9 30  1  0  0  0  0
 10 11  1  0  0  0  0
 10 31  1  0  0  0  0
 11 12  2  0  0  0  0
 13 14  1  0  0  0  0
 13 15  1  0  0  0  0
 13 32  1  0  0  0  0
 14 33  1  0  0  0  0
 14 34  1  0  0  0  0
 14 35  1  0  0  0  0
 15 19  1  0  0  0  0
 15 16  1  0  0  0  0
 16 17  2  0  0  0  0
 16 36  1  0  0  0  0
 17 18  1  0  0  0  0
 17 37  1  0  0  0  0
 18 19  2  0  0  0  0
 18 38  1  0  0  0  0
M  END
> <s_m_source_file>
AV-unprocessed.smi

> <i_m_source_file_index>
3330

> <i_lp_mmshare_version>
43012

> <i_f3d_flags>
0

> <s_epik_input>
bjFbY0hdW2NIXVtjSF1uMVtDQEBIXShbQ0gzXSlbQ0BIXShbQ0gzXSlbTkhdW0NIMl1bQ0gyXU4yQyg9TylbQ0gyXVtOSF1DMj1P

> <s_epik_cmdline>
J2VwaWtfcHl0aG9uJywgJy1waCcsICc3LjAnLCAnLXRuJywgJzgnLCAnLW1hJywgJzIwMCcsICctbWV0YWxfYmluZGluZycsICctaW1hZScsICc8aW5maWxlLm1hZT4nLCAnLW9tYWUnLCAnPG91dGZpbGUubWFlPic=

> <r_lp_tautomer_probability>
1

> <r_epik_Ionization_Penalty>
2.2997

> <r_epik_Ionization_Penalty_Charging>
0

> <r_epik_Ionization_Penalty_Neutral>
2.2997

> <r_epik_State_Penalty>
2.44917

> <r_epik_Charging_Adjusted_Penalty>
2.44917

> <i_epik_Tot_Q>
0

> <i_epik_Tot_abs_Q>
0

> <r_epik_Metal_State_Penalty>
2.52438

> <b_epik_Metal_Only>
0

> <s_lp_Force_Field>
OPLS_2005

> <r_lp_Energy>
24.6484

> <b_lp_Chiralities_Consistent>
1

> <s_lp_Variant>
AV-unprocessed.smi:3330-5

> <Gold.Version>
5.8.1

> <Gold.Id.Protein>
6NUR|6NUR_protein|mol2

> <Gold.PLP.Fitness>
52.2518

> <Gold.PLP.PLP>
-50.6408

> <Gold.PLP.part.hbond>
-3.0000

> <Gold.PLP.part.metal>
0.0000

> <Gold.PLP.part.buried>
-6.5400

> <Gold.PLP.part.nonpolar>
-41.5800

> <Gold.PLP.part.repulsive>
0.2158

> <Gold.PLP.ligand.clash>
0.0000

> <Gold.PLP.ligand.torsion>
2.2541

> <Gold.PLP.Chemscore.Hbond>
2.0000

> <Gold.PLP.Chemscore.CHOScore>
0.0000

> <Gold.PLP.Chemscore.Metal>
0.0000

> <Gold.Chemscore.Hbonds>
donor molecule, donor type, donor heavy atom, donor atom, acceptor molecule, acceptor atom, score
      L1  H     3    24       P1  8028  1.00
      P1  H  7997  8010       L1     8  0.64

> <Gold.PLP.Chemscore.Internal.Correction>
0.1192

> <Gold.Rescore>
     Score         DG    S(hbond)    S(metal)    S(lipo)     H(rot)  DE(clash)    DE(int)     intcor
     15.40     -18.04       2.19        0.00     101.49       2.60       0.40       2.23       ----

> <Gold.Chemscore.Fitness>
15.4040

> <Gold.Chemscore.DG>
-18.0375

> <Gold.Chemscore.ZeroCoef>
-5.4800

> <Gold.Chemscore.Hbond>
2.1937

> <Gold.Chemscore.Metal>
0.0000

> <Gold.Chemscore.Lipo>
101.4894

> <Gold.Chemscore.Internal_Hbond>
0.0000

> <Gold.Chemscore.DEClash>
0.4020

> <Gold.Chemscore.DEInternal>
2.2314

> <Gold.Chemscore.Rot>
2.5952

> <Gold.Chemscore.Internal.Correction>
   9.000000E+99

> <Gold.Chemscore.Hbonds>
donor molecule, donor type, donor heavy atom, donor atom, acceptor molecule, acceptor atom, score
      L1  H     3    24       P1  8028  0.70
      P1  H  7997  8010       L1     8  0.52

> <Gold.Chemscore.Hbond.Weighted>
-7.3269

> <Gold.Chemscore.Metal.Weighted>
-0.0000

> <Gold.Chemscore.Lipo.Weighted>
-11.8743

> <Gold.Chemscore.Internal_Hbond.Weighted>
0.0000

> <Gold.Chemscore.DEClash.Weighted>
0.4020

> <Gold.Chemscore.DEInternal.Weighted>
2.2314

> <Gold.Chemscore.Rot.Weighted>
6.6437

> <Gold.Chemscore.Internal.Correction.Weighted>
   9.000000E+99

> <Gold.Protein.RotatedTorsions>
[ 6907 6896 6895 6894 ] final  146.09 input  -60.11 | X-H torsion
[ 7974 7965 7964 7962 ] final   64.08 input  175.53 | X-H torsion
[ 8008 7997 7996 7995 ] final   99.52 input   59.86 | X-H torsion
[ 10167 10162 10161 10158 ] final -156.48 input  -65.29 | X-H torsion
[ 10718 10713 10712 10709 ] final  153.95 input   66.30 | X-H torsion
[ 10763 10752 10751 10750 ] final   13.90 input  -60.55 | X-H torsion
[ 11005 11000 10999 10996 ] final -141.52 input  -57.11 | X-H torsion

> <Gold.Protein.ActiveResidues>
 VAL166  LYS551  ARG553  GLY616  TRP617  ASP618  TYR619  PRO620  LYS621  CYS622 
 ASP623  PHE694  ASN695  SER759  ASP760  ASP761  ALA762  ILE779  LEU786  VAL792 
 PHE793  MET794  SER795  GLU796  ALA797  LYS798  CYS799  TRP800  GLU811  SER814 

> <Gold.Protein.RotatedAtoms>
  152.1724  133.4652  159.4915 H   0  0  0  0  0  0  0  0  0  0  0  0  # atno 6907 bound_to 6896
  150.6922  134.1936  159.4304 H   0  0  0  0  0  0  0  0  0  0  0  0  # atno 6908 bound_to 6896
  151.9844  135.0011  160.0609 H   0  0  0  0  0  0  0  0  0  0  0  0  # atno 6909 bound_to 6896
  145.8544  139.3274  143.0856 H   0  0  0  0  0  0  0  0  0  0  0  0  # atno 7974 bound_to 7965
  156.1113  140.3227  155.8077 H   0  0  0  0  0  0  0  0  0  0  0  0  # atno 8008 bound_to 7997
  155.4667  140.0543  157.3001 H   0  0  0  0  0  0  0  0  0  0  0  0  # atno 8009 bound_to 7997
  154.4762  140.2033  155.9887 H   0  0  0  0  0  0  0  0  0  0  0  0  # atno 8010 bound_to 7997
  139.6846  143.9522  152.2355 H   0  0  0  0  0  0  0  0  0  0  0  0  # atno 10167 bound_to 10162
  157.2380  131.0753  151.1810 H   0  0  0  0  0  0  0  0  0  0  0  0  # atno 10718 bound_to 10713
  153.1675  135.6806  153.8654 H   0  0  0  0  0  0  0  0  0  0  0  0  # atno 10763 bound_to 10752
  153.8029  135.3153  155.3393 H   0  0  0  0  0  0  0  0  0  0  0  0  # atno 10764 bound_to 10752
  154.7976  135.4798  154.0288 H   0  0  0  0  0  0  0  0  0  0  0  0  # atno 10765 bound_to 10752
  140.8316  134.2510  157.4854 H   0  0  0  0  0  0  0  0  0  0  0  0  # atno 11005 bound_to 11000
  145.9321  140.9041  143.0351 LP  0  0  0  0  0  0  0  0  0  0  0  0  # atno 17320 bound_to 7965
  144.6728  140.1432  143.7435 LP  0  0  0  0  0  0  0  0  0  0  0  0  # atno 17321 bound_to 7965
  139.9322  144.6734  150.8351 LP  0  0  0  0  0  0  0  0  0  0  0  0  # atno 17342 bound_to 10162
  140.7663  143.3301  151.2429 LP  0  0  0  0  0  0  0  0  0  0  0  0  # atno 17343 bound_to 10162
  157.3408  130.7032  149.6380 LP  0  0  0  0  0  0  0  0  0  0  0  0  # atno 17370 bound_to 10713
  155.9671  130.4280  150.4770 LP  0  0  0  0  0  0  0  0  0  0  0  0  # atno 17371 bound_to 10713
  139.8705  134.9589  156.4315 LP  0  0  0  0  0  0  0  0  0  0  0  0  # atno 17394 bound_to 11000
  140.8992  133.7792  155.9660 LP  0  0  0  0  0  0  0  0  0  0  0  0  # atno 17395 bound_to 11000

$$$$
