AV-unprocessed.smi:2846|AV-procd|sdf|10951|dock3
  -GOLD-   2272015403D 1   1.00000     0.00000
 Structure written by MMmdl.
 48 50  0  0  0  0  0  0  0  0  1 V2000
  153.9384  139.6547  158.9018 O   0  0  0  0  0  0  0  0  0  0  0  0
  154.1430  139.5595  160.1124 C   0  0  0  0  0  0  0  0  0  0  0  0
  154.4215  140.8036  160.9595 C   0  0  0  0  0  0  0  0  0  0  0  0
  153.4671  141.9722  160.7758 C   0  0  0  0  0  0  0  0  0  0  0  0
  153.2699  142.5545  159.5769 C   0  0  0  0  0  0  0  0  0  0  0  0
  152.3185  143.7137  159.3395 C   0  0  0  0  0  0  0  0  0  0  0  0
  151.3493  143.9245  160.5150 C   0  0  0  0  0  0  0  0  0  0  0  0
  152.0796  143.8225  161.8602 C   0  0  0  0  0  0  0  0  0  0  0  0
  152.7513  142.4481  162.0342 C   0  0  0  0  0  0  0  0  0  0  0  0
  154.1328  138.3920  160.7726 N   0  0  0  0  0  0  0  0  0  0  0  0
  153.8738  137.0814  160.1794 C   0  0  0  0  0  0  0  0  0  0  0  0
  154.9614  136.0261  160.5255 C   0  0  0  0  0  0  0  0  0  0  0  0
  154.7878  135.5561  161.9780 C   0  0  0  0  0  0  0  0  0  0  0  0
  154.6960  136.4964  163.0299 C   0  0  0  0  0  0  0  0  0  0  0  0
  154.5152  136.0320  164.3477 C   0  0  0  0  0  0  0  0  0  0  0  0
  154.4161  134.7248  164.6664 N   0  0  0  0  0  0  0  0  0  0  0  0
  154.4922  133.8268  163.6625 C   0  0  0  0  0  0  0  0  0  0  0  0
  154.6716  134.1860  162.3121 C   0  0  0  0  0  0  0  0  0  0  0  0
  154.9719  134.8601  159.5108 C   0  0  0  0  0  0  0  0  0  0  0  0
  155.7112  135.3743  158.2726 C   0  0  0  0  0  0  0  0  0  0  0  0
  156.6494  136.4755  158.7781 C   0  0  0  0  0  0  0  0  0  0  0  0
  156.3637  136.6214  160.2785 C   0  0  0  0  0  0  0  0  0  0  0  0
  154.3878  140.4959  162.0058 H   0  0  0  0  0  0  0  0  0  0  0  0
  155.4413  141.1461  160.7792 H   0  0  0  0  0  0  0  0  0  0  0  0
  153.8168  142.2031  158.7141 H   0  0  0  0  0  0  0  0  0  0  0  0
  152.9159  144.6113  159.1773 H   0  0  0  0  0  0  0  0  0  0  0  0
  151.7564  143.5359  158.4224 H   0  0  0  0  0  0  0  0  0  0  0  0
  150.8552  144.8919  160.4222 H   0  0  0  0  0  0  0  0  0  0  0  0
  150.5619  143.1706  160.4780 H   0  0  0  0  0  0  0  0  0  0  0  0
  152.8370  144.6057  161.9148 H   0  0  0  0  0  0  0  0  0  0  0  0
  151.3877  144.0049  162.6828 H   0  0  0  0  0  0  0  0  0  0  0  0
  152.0052  141.6989  162.3006 H   0  0  0  0  0  0  0  0  0  0  0  0
  153.4607  142.4947  162.8612 H   0  0  0  0  0  0  0  0  0  0  0  0
  154.3073  138.4113  161.7672 H   0  0  0  0  0  0  0  0  0  0  0  0
  152.8774  136.7259  160.4455 H   0  0  0  0  0  0  0  0  0  0  0  0
  153.8485  137.2297  159.0993 H   0  0  0  0  0  0  0  0  0  0  0  0
  154.7570  137.5575  162.8393 H   0  0  0  0  0  0  0  0  0  0  0  0
  154.4438  136.7315  165.1674 H   0  0  0  0  0  0  0  0  0  0  0  0
  154.4017  132.7878  163.9426 H   0  0  0  0  0  0  0  0  0  0  0  0
  154.7099  133.4142  161.5584 H   0  0  0  0  0  0  0  0  0  0  0  0
  155.5536  134.0307  159.9167 H   0  0  0  0  0  0  0  0  0  0  0  0
  153.9834  134.4660  159.2761 H   0  0  0  0  0  0  0  0  0  0  0  0
  156.2508  134.5744  157.7648 H   0  0  0  0  0  0  0  0  0  0  0  0
  154.9998  135.7925  157.5592 H   0  0  0  0  0  0  0  0  0  0  0  0
  157.6966  136.2304  158.5988 H   0  0  0  0  0  0  0  0  0  0  0  0
  156.4395  137.4103  158.2572 H   0  0  0  0  0  0  0  0  0  0  0  0
  156.4641  137.6508  160.6239 H   0  0  0  0  0  0  0  0  0  0  0  0
  157.1065  136.0317  160.8187 H   0  0  0  0  0  0  0  0  0  0  0  0
  1  2  2  0  0  0  0
  2  3  1  0  0  0  0
  2 10  1  0  0  0  0
  3  4  1  0  0  0  0
  3 23  1  0  0  0  0
  3 24  1  0  0  0  0
  4  9  1  0  0  0  0
  4  5  2  0  0  0  0
  5  6  1  0  0  0  0
  5 25  1  0  0  0  0
  6  7  1  0  0  0  0
  6 26  1  0  0  0  0
  6 27  1  0  0  0  0
  7  8  1  0  0  0  0
  7 28  1  0  0  0  0
  7 29  1  0  0  0  0
  8  9  1  0  0  0  0
  8 30  1  0  0  0  0
  8 31  1  0  0  0  0
  9 32  1  0  0  0  0
  9 33  1  0  0  0  0
 10 11  1  0  0  0  0
 10 34  1  0  0  0  0
 11 12  1  0  0  0  0
 11 35  1  0  0  0  0
 11 36  1  0  0  0  0
 12 22  1  0  0  0  0
 12 13  1  0  0  0  0
 12 19  1  0  0  0  0
 13 18  1  0  0  0  0
 13 14  2  0  0  0  0
 14 15  1  0  0  0  0
 14 37  1  0  0  0  0
 15 16  2  0  0  0  0
 15 38  1  0  0  0  0
 16 17  1  0  0  0  0
 17 18  2  0  0  0  0
 17 39  1  0  0  0  0
 18 40  1  0  0  0  0
 19 20  1  0  0  0  0
 19 41  1  0  0  0  0
 19 42  1  0  0  0  0
 20 21  1  0  0  0  0
 20 43  1  0  0  0  0
 20 44  1  0  0  0  0
 21 22  1  0  0  0  0
 21 45  1  0  0  0  0
 21 46  1  0  0  0  0
 22 47  1  0  0  0  0
 22 48  1  0  0  0  0
M  END
> <s_m_source_file>
AV-unprocessed.smi

> <i_m_source_file_index>
2846

> <i_lp_mmshare_version>
43012

> <i_f3d_flags>
0

> <s_epik_input>
W0NIMl0xW0NIMl1bQ0gyXVtDSDJdW0NIXT1DMVtDSDJdQyg9TylbTkhdW0NIMl1DMihbQ0gyXVtDSDJdW0NIMl1bQ0gyXTIpYzNbY0hdW2NIXW5bY0hdW2NIXTM=

> <s_epik_cmdline>
J2VwaWtfcHl0aG9uJywgJy1waCcsICc3LjAnLCAnLXRuJywgJzgnLCAnLW1hJywgJzIwMCcsICctbWV0YWxfYmluZGluZycsICctaW1hZScsICc8aW5maWxlLm1hZT4nLCAnLW9tYWUnLCAnPG91dGZpbGUubWFlPic=

> <r_epik_Ionization_Penalty>
0.0617419

> <r_epik_Ionization_Penalty_Charging>
0

> <r_epik_Ionization_Penalty_Neutral>
0.0617419

> <r_epik_State_Penalty>
0.0536117

> <r_epik_Charging_Adjusted_Penalty>
0.0536117

> <i_epik_Tot_Q>
0

> <i_epik_Tot_abs_Q>
0

> <r_epik_Metal_State_Penalty>
0.0485218

> <b_epik_Metal_Only>
0

> <s_lp_Force_Field>
OPLS_2005

> <r_lp_Energy>
29.944

> <b_lp_Chiralities_Consistent>
1

> <s_lp_Variant>
AV-unprocessed.smi:2846-1

> <Gold.Version>
5.8.1

> <Gold.Id.Protein>
6NUR|6NUR_protein|mol2

> <Gold.PLP.Fitness>
46.3305

> <Gold.PLP.PLP>
-44.1660

> <Gold.PLP.part.hbond>
-1.0000

> <Gold.PLP.part.metal>
0.0000

> <Gold.PLP.part.buried>
-4.7576

> <Gold.PLP.part.nonpolar>
-38.0693

> <Gold.PLP.part.repulsive>
0.0979

> <Gold.PLP.ligand.clash>
0.0000

> <Gold.PLP.ligand.torsion>
0.4930

> <Gold.PLP.Chemscore.Hbond>
1.0000

> <Gold.PLP.Chemscore.CHOScore>
0.0000

> <Gold.PLP.Chemscore.Metal>
0.0000

> <Gold.Chemscore.Hbonds>
donor molecule, donor type, donor heavy atom, donor atom, acceptor molecule, acceptor atom, score
      P1  H  7997  8009       L1     1  1.00

> <Gold.PLP.Chemscore.Internal.Correction>
0.1506

> <Gold.Rescore>
     Score         DG    S(hbond)    S(metal)    S(lipo)     H(rot)  DE(clash)    DE(int)     intcor
     19.93     -20.68       1.00        0.00     131.62       1.38       0.03       0.71       ----

> <Gold.Chemscore.Fitness>
19.9303

> <Gold.Chemscore.DG>
-20.6763

> <Gold.Chemscore.ZeroCoef>
-5.4800

> <Gold.Chemscore.Hbond>
0.9961

> <Gold.Chemscore.Metal>
0.0000

> <Gold.Chemscore.Lipo>
131.6180

> <Gold.Chemscore.Internal_Hbond>
0.0000

> <Gold.Chemscore.DEClash>
0.0318

> <Gold.Chemscore.DEInternal>
0.7142

> <Gold.Chemscore.Rot>
1.3789

> <Gold.Chemscore.Internal.Correction>
   9.000000E+99

> <Gold.Chemscore.Hbonds>
donor molecule, donor type, donor heavy atom, donor atom, acceptor molecule, acceptor atom, score
      P1  H  7997  8009       L1     1  0.99

> <Gold.Chemscore.Hbond.Weighted>
-3.3270

> <Gold.Chemscore.Metal.Weighted>
-0.0000

> <Gold.Chemscore.Lipo.Weighted>
-15.3993

> <Gold.Chemscore.Internal_Hbond.Weighted>
0.0000

> <Gold.Chemscore.DEClash.Weighted>
0.0318

> <Gold.Chemscore.DEInternal.Weighted>
0.7142

> <Gold.Chemscore.Rot.Weighted>
3.5299

> <Gold.Chemscore.Internal.Correction.Weighted>
   9.000000E+99

> <Gold.Protein.RotatedTorsions>
[ 6907 6896 6895 6894 ] final  -71.30 input  -60.11 | X-H torsion
[ 7974 7965 7964 7962 ] final  134.49 input  175.53 | X-H torsion
[ 8008 7997 7996 7995 ] final  140.28 input   59.86 | X-H torsion
[ 10167 10162 10161 10158 ] final -161.49 input  -65.29 | X-H torsion
[ 10718 10713 10712 10709 ] final  177.79 input   66.30 | X-H torsion
[ 10763 10752 10751 10750 ] final   64.30 input  -60.55 | X-H torsion
[ 11005 11000 10999 10996 ] final -103.72 input  -57.11 | X-H torsion

> <Gold.Protein.ActiveResidues>
 VAL166  LYS551  ARG553  GLY616  TRP617  ASP618  TYR619  PRO620  LYS621  CYS622 
 ASP623  PHE694  ASN695  SER759  ASP760  ASP761  ALA762  ILE779  LEU786  VAL792 
 PHE793  MET794  SER795  GLU796  ALA797  LYS798  CYS799  TRP800  GLU811  SER814 

> <Gold.Protein.RotatedAtoms>
  150.7218  134.5328  159.5708 H   0  0  0  0  0  0  0  0  0  0  0  0  # atno 6907 bound_to 6896
  152.2857  134.7776  160.0397 H   0  0  0  0  0  0  0  0  0  0  0  0  # atno 6908 bound_to 6896
  151.8407  133.3388  159.3679 H   0  0  0  0  0  0  0  0  0  0  0  0  # atno 6909 bound_to 6896
  144.9758  139.4557  143.5410 H   0  0  0  0  0  0  0  0  0  0  0  0  # atno 7974 bound_to 7965
  156.2981  140.2345  156.4374 H   0  0  0  0  0  0  0  0  0  0  0  0  # atno 8008 bound_to 7997
  154.8216  140.0437  157.1435 H   0  0  0  0  0  0  0  0  0  0  0  0  # atno 8009 bound_to 7997
  154.9309  140.3016  155.5172 H   0  0  0  0  0  0  0  0  0  0  0  0  # atno 8010 bound_to 7997
  139.6461  144.0169  152.2128 H   0  0  0  0  0  0  0  0  0  0  0  0  # atno 10167 bound_to 10162
  156.9002  130.9876  151.3037 H   0  0  0  0  0  0  0  0  0  0  0  0  # atno 10718 bound_to 10713
  153.0050  135.5398  154.6489 H   0  0  0  0  0  0  0  0  0  0  0  0  # atno 10763 bound_to 10752
  154.5726  135.2843  155.0815 H   0  0  0  0  0  0  0  0  0  0  0  0  # atno 10764 bound_to 10752
  154.1975  135.6489  153.5130 H   0  0  0  0  0  0  0  0  0  0  0  0  # atno 10765 bound_to 10752
  141.1133  133.8664  157.1522 H   0  0  0  0  0  0  0  0  0  0  0  0  # atno 11005 bound_to 11000
  146.3395  139.8999  142.8796 LP  0  0  0  0  0  0  0  0  0  0  0  0  # atno 17320 bound_to 7965
  145.2492  141.0038  143.3891 LP  0  0  0  0  0  0  0  0  0  0  0  0  # atno 17321 bound_to 7965
  139.9871  144.6387  150.7848 LP  0  0  0  0  0  0  0  0  0  0  0  0  # atno 17342 bound_to 10162
  140.7515  143.2974  151.3169 LP  0  0  0  0  0  0  0  0  0  0  0  0  # atno 17343 bound_to 10162
  157.6031  130.8527  149.8832 LP  0  0  0  0  0  0  0  0  0  0  0  0  # atno 17370 bound_to 10713
  156.0586  130.3704  150.1034 LP  0  0  0  0  0  0  0  0  0  0  0  0  # atno 17371 bound_to 10713
  140.0039  135.0016  157.0251 LP  0  0  0  0  0  0  0  0  0  0  0  0  # atno 17394 bound_to 11000
  140.4716  134.1381  155.7204 LP  0  0  0  0  0  0  0  0  0  0  0  0  # atno 17395 bound_to 11000

$$$$
