#       Name:                AV-unprocessed.smi:1662
#       Creating user name   scv26
#       Creation time:       Fri Mar 27 07:37:06 2020


#       File generated by GOLD software.
#

@<TRIPOS>MOLECULE
AV-unprocessed.smi:1662
    53    54     1
SMALL
NO_CHARGES


@<TRIPOS>ATOM
      1 ****        -1.7198   1.5108  -3.2406 C.3            1 S1                 0.0000
      2 ****        -1.3123   0.1748  -2.6807 C.2            1 S1                 0.0000
      3 ****        -0.0505  -0.1034  -2.7034 N.2            1 S1                 0.0000
      4 ****         0.4325  -1.2975  -2.2034 N.am           1 S1                 0.0000
      5 ****         1.9017  -1.4071  -2.2307 C.3            1 S1                 0.0000
      6 ****         2.5943  -0.9445  -0.9361 C.2            1 S1                 0.0000
      7 ****         3.8146  -1.0565  -0.8286 O.2            1 S1                 0.0000
      8 ****         1.8187  -0.4285   0.0308 N.am           1 S1                 0.0000
      9 ****         2.2508   0.0655   1.3347 C.3            1 S1                 0.0000
     10 ****         2.7167   1.5309   1.2308 C.3            1 S1                 0.0000
     11 ****         1.5480   2.4780   0.9205 C.3            1 S1                 0.0000
     12 ****         0.4292   2.3274   1.9600 C.3            1 S1                 0.0000
     13 ****        -0.0712   0.8722   2.0730 C.3            1 S1                 0.0000
     14 ****        -1.1968   0.7884   3.1191 C.3            1 S1                 0.0000
     15 ****         1.1107  -0.0932   2.3742 C.3            1 S1                 0.0000
     16 ****         0.6675  -1.5662   2.4928 C.3            1 S1                 0.0000
     17 ****        -0.3420  -2.2830  -1.6638 C.2            1 S1                 0.0000
     18 ****         0.1326  -3.3277  -1.2162 O.2            1 S1                 0.0000
     19 ****        -1.7709  -1.9638  -1.6477 C.2            1 S1                 0.0000
     20 ****        -2.6161  -2.9657  -1.0829 C.1            1 S1                 0.0000
     21 ****        -3.3163  -3.7639  -0.6219 N.1            1 S1                 0.0000
     22 ****        -2.2556  -0.7905  -2.1258 C.2            1 S1                 0.0000
     23 ****        -3.7289  -0.4072  -2.1237 C.3            1 S1                 0.0000
     24 ****        -2.4390   1.3896  -4.0505 H              1 S1                 0.0000
     25 ****        -0.8668   2.0624  -3.6388 H              1 S1                 0.0000
     26 ****        -2.1790   2.1287  -2.4692 H              1 S1                 0.0000
     27 ****         2.2056  -2.4332  -2.4444 H              1 S1                 0.0000
     28 ****         2.2994  -0.8121  -3.0549 H              1 S1                 0.0000
     29 ****         0.8277  -0.3768  -0.1552 H              1 S1                 0.0000
     30 ****         3.0974  -0.5383   1.6668 H              1 S1                 0.0000
     31 ****         3.1788   1.8282   2.1730 H              1 S1                 0.0000
     32 ****         3.4913   1.6320   0.4696 H              1 S1                 0.0000
     33 ****         1.9023   3.5089   0.9034 H              1 S1                 0.0000
     34 ****         1.1553   2.2723  -0.0762 H              1 S1                 0.0000
     35 ****         0.7922   2.6665   2.9313 H              1 S1                 0.0000
     36 ****        -0.3982   2.9866   1.6953 H              1 S1                 0.0000
     37 ****        -0.5052   0.5956   1.1107 H              1 S1                 0.0000
     38 ****        -0.8209   0.9838   4.1237 H              1 S1                 0.0000
     39 ****        -1.6736  -0.1913   3.1229 H              1 S1                 0.0000
     40 ****        -1.9790   1.5189   2.9109 H              1 S1                 0.0000
     41 ****         1.5252   0.1888   3.3434 H              1 S1                 0.0000
     42 ****         0.1156  -1.8951   1.6116 H              1 S1                 0.0000
     43 ****         0.0297  -1.7250   3.3617 H              1 S1                 0.0000
     44 ****         1.5285  -2.2248   2.6088 H              1 S1                 0.0000
     45 ****        -4.3553  -1.1766  -1.6731 H              1 S1                 0.0000
     46 ****        -4.0843  -0.2506  -3.1427 H              1 S1                 0.0000
     47 ****        -3.8846   0.5128  -1.5591 H              1 S1                 0.0000
     48 ****         0.5899   0.5596  -3.0910 LP             1 S1                 0.0000
     49 ****         4.3490  -1.4457  -1.5789 LP             1 S1                 0.0000
     50 ****         4.2722  -0.7584   0.0091 LP             1 S1                 0.0000
     51 ****         1.1209  -3.4784  -1.2400 LP             1 S1                 0.0000
     52 ****        -0.4704  -4.0252  -0.8290 LP             1 S1                 0.0000
     53 ****        -3.9212  -4.4535  -0.2236 LP             1 S1                 0.0000
@<TRIPOS>BOND
    1    1    2 1     
    2    1   24 1     
    3    1   25 1     
    4    1   26 1     
    5    2   22 1     
    6    2    3 2     
    7    3    4 1     
    8    4    5 1     
    9    4   17 am    
   10    5    6 1     
   11    5   27 1     
   12    5   28 1     
   13    6    7 2     
   14    6    8 am    
   15    8    9 1     
   16    8   29 1     
   17    9   15 1     
   18    9   10 1     
   19    9   30 1     
   20   10   11 1     
   21   10   31 1     
   22   10   32 1     
   23   11   12 1     
   24   11   33 1     
   25   11   34 1     
   26   12   13 1     
   27   12   35 1     
   28   12   36 1     
   29   13   14 1     
   30   13   15 1     
   31   13   37 1     
   32   14   38 1     
   33   14   39 1     
   34   14   40 1     
   35   15   16 1     
   36   15   41 1     
   37   16   42 1     
   38   16   43 1     
   39   16   44 1     
   40   17   18 2     
   41   17   19 1     
   42   19   20 1     
   43   19   22 2     
   44   20   21 3     
   45   22   23 1     
   46   23   45 1     
   47   23   46 1     
   48   23   47 1     
   49    3   48 1     
   50    7   49 1     
   51    7   50 1     
   52   18   51 1     
   53   18   52 1     
   54   21   53 1     
@<TRIPOS>SUBSTRUCTURE
      1 S1             1
@<TRIPOS>SET
LONE_PAIRS      STATIC     ATOMS    <user>   **** ""
6 48 49 50 51 52 53
DONOR_HYDROGENS      STATIC     ATOMS    <user>   **** ""
1 29
ATOM$BLUE        STATIC     ATOMS    COLORGROUP SYSTEM
6 48 49 50 51 52 53
ATOM$RED        STATIC     ATOMS    COLORGROUP SYSTEM
1 29
