AV-unprocessed.smi:1680|AV-procd|sdf|6737|dock9
  -GOLD-   22720 7483D 1   1.00000     0.00000
 Structure written by MMmdl.
 38 39  0  0  0  0  0  0  0  0  1 V2000
  151.7172  141.4544  158.1568 C   0  0  0  0  0  0  0  0  0  0  0  0
  151.8938  140.4373  157.0274 C   0  0  0  0  0  0  0  0  0  0  0  0
  152.7035  139.5246  157.1925 O   0  0  0  0  0  0  0  0  0  0  0  0
  151.1638  140.5732  155.8949 N   0  0  0  0  0  0  0  0  0  0  0  0
  150.1361  141.5901  155.6501 C   0  0  0  0  0  0  0  0  0  0  0  0
  148.7716  140.8915  155.4924 C   0  0  0  0  0  0  0  0  0  0  0  0
  148.8175  139.9395  154.3791 N   0  0  0  0  0  0  0  0  0  0  0  0
  147.5046  139.3149  154.2158 C   0  0  0  0  0  0  0  0  0  0  0  0
  147.0208  139.2955  152.7506 C   0  0  0  0  0  0  0  0  0  0  0  0
  147.0058  137.9417  152.2040 N   0  0  0  0  0  0  0  0  0  0  0  0
  145.9348  137.1354  152.1594 C   0  0  0  0  0  0  0  0  0  0  0  0
  144.8150  137.4689  152.5483 O   0  0  0  0  0  0  0  0  0  0  0  0
  146.2528  135.9344  151.6450 N   0  0  0  0  0  0  0  0  0  0  0  0
  145.4149  134.8010  151.4734 C   0  0  0  0  0  0  0  0  0  0  0  0
  145.8407  133.6274  150.9804 N   0  0  0  0  0  0  0  0  0  0  0  0
  144.8182  132.6900  150.9135 N   0  0  0  0  0  0  0  0  0  0  0  0
  143.6627  133.1930  151.3571 C   0  0  0  0  0  0  0  0  0  0  0  0
  143.7117  134.8600  151.9040 S   0  0  0  0  0  0  0  0  0  0  0  0
  149.8642  138.9384  154.6190 C   0  0  0  0  0  0  0  0  0  0  0  0
  151.2320  139.6302  154.7751 C   0  0  0  0  0  0  0  0  0  0  0  0
  150.6920  141.4457  158.5277 H   0  0  0  0  0  0  0  0  0  0  0  0
  151.9637  142.4597  157.8137 H   0  0  0  0  0  0  0  0  0  0  0  0
  152.3755  141.2179  158.9935 H   0  0  0  0  0  0  0  0  0  0  0  0
  150.0677  142.3397  156.4369 H   0  0  0  0  0  0  0  0  0  0  0  0
  150.3848  142.1396  154.7405 H   0  0  0  0  0  0  0  0  0  0  0  0
  148.4986  140.3788  156.4164 H   0  0  0  0  0  0  0  0  0  0  0  0
  148.0027  141.6409  155.3004 H   0  0  0  0  0  0  0  0  0  0  0  0
  147.5262  138.3021  154.6206 H   0  0  0  0  0  0  0  0  0  0  0  0
  146.7700  139.8656  154.8053 H   0  0  0  0  0  0  0  0  0  0  0  0
  146.0545  139.7858  152.6302 H   0  0  0  0  0  0  0  0  0  0  0  0
  147.7175  139.8765  152.1463 H   0  0  0  0  0  0  0  0  0  0  0  0
  147.8845  137.5837  151.8595 H   0  0  0  0  0  0  0  0  0  0  0  0
  147.2136  135.8082  151.3630 H   0  0  0  0  0  0  0  0  0  0  0  0
  142.7753  132.5776  151.3630 H   0  0  0  0  0  0  0  0  0  0  0  0
  149.6313  138.3572  155.5126 H   0  0  0  0  0  0  0  0  0  0  0  0
  149.9196  138.2379  153.7869 H   0  0  0  0  0  0  0  0  0  0  0  0
  151.4899  140.1683  153.8615 H   0  0  0  0  0  0  0  0  0  0  0  0
  152.0079  138.8749  154.9071 H   0  0  0  0  0  0  0  0  0  0  0  0
  1  2  1  0  0  0  0
  1 21  1  0  0  0  0
  1 22  1  0  0  0  0
  1 23  1  0  0  0  0
  2  3  2  0  0  0  0
  2  4  1  0  0  0  0
  4 20  1  0  0  0  0
  4  5  1  0  0  0  0
  5  6  1  0  0  0  0
  5 24  1  0  0  0  0
  5 25  1  0  0  0  0
  6  7  1  0  0  0  0
  6 26  1  0  0  0  0
  6 27  1  0  0  0  0
  7  8  1  0  0  0  0
  7 19  1  0  0  0  0
  8  9  1  0  0  0  0
  8 28  1  0  0  0  0
  8 29  1  0  0  0  0
  9 10  1  0  0  0  0
  9 30  1  0  0  0  0
  9 31  1  0  0  0  0
 10 11  1  0  0  0  0
 10 32  1  0  0  0  0
 11 12  2  0  0  0  0
 11 13  1  0  0  0  0
 13 14  1  0  0  0  0
 13 33  1  0  0  0  0
 14 18  1  0  0  0  0
 14 15  2  0  0  0  0
 15 16  1  0  0  0  0
 16 17  2  0  0  0  0
 17 18  1  0  0  0  0
 17 34  1  0  0  0  0
 19 20  1  0  0  0  0
 19 35  1  0  0  0  0
 19 36  1  0  0  0  0
 20 37  1  0  0  0  0
 20 38  1  0  0  0  0
M  END
> <s_m_source_file>
AV-unprocessed.smi

> <i_m_source_file_index>
1680

> <i_lp_mmshare_version>
43012

> <i_f3d_flags>
0

> <s_epik_input>
W0NIM11DKD1PKU4xW0NIMl1bQ0gyXU4oW0NIMl1bQ0gyXTEpW0NIMl1bQ0gyXVtOSF1DKD1PKVtOSF1jMm5uW2NIXXMy

> <s_epik_cmdline>
J2VwaWtfcHl0aG9uJywgJy1waCcsICc3LjAnLCAnLXRuJywgJzgnLCAnLW1hJywgJzIwMCcsICctbWV0YWxfYmluZGluZycsICctaW1hZScsICc8aW5maWxlLm1hZT4nLCAnLW9tYWUnLCAnPG91dGZpbGUubWFlPic=

> <r_lp_tautomer_probability>
1

> <r_epik_Ionization_Penalty>
0.229992

> <r_epik_Ionization_Penalty_Charging>
0

> <r_epik_Ionization_Penalty_Neutral>
0.229992

> <r_epik_State_Penalty>
0.219013

> <r_epik_Charging_Adjusted_Penalty>
0.219013

> <i_epik_Tot_Q>
0

> <i_epik_Tot_abs_Q>
0

> <r_epik_Metal_State_Penalty>
0.556868

> <b_epik_Metal_Only>
0

> <s_lp_Force_Field>
OPLS_2005

> <r_lp_Energy>
36.5244

> <b_lp_Chiralities_Consistent>
1

> <s_lp_Variant>
AV-unprocessed.smi:1680-1

> <Gold.Version>
5.8.1

> <Gold.Id.Protein>
6NUR|6NUR_protein|mol2

> <Gold.PLP.Fitness>
38.1807

> <Gold.PLP.PLP>
-31.7987

> <Gold.PLP.part.hbond>
-3.0000

> <Gold.PLP.part.metal>
0.0000

> <Gold.PLP.part.buried>
-3.4263

> <Gold.PLP.part.nonpolar>
-26.3592

> <Gold.PLP.part.repulsive>
0.8320

> <Gold.PLP.ligand.clash>
0.0000

> <Gold.PLP.ligand.torsion>
1.1860

> <Gold.PLP.Chemscore.Hbond>
2.9120

> <Gold.PLP.Chemscore.CHOScore>
0.0000

> <Gold.PLP.Chemscore.Metal>
0.0000

> <Gold.Chemscore.Hbonds>
donor molecule, donor type, donor heavy atom, donor atom, acceptor molecule, acceptor atom, score
      L1  H    10    32       P1  7948  0.93
      L1  H    13    33       P1  7948  0.88
      P1  H  7997  8009       L1     3  1.00

> <Gold.PLP.Chemscore.Internal.Correction>
0.0179

> <Gold.Rescore>
     Score         DG    S(hbond)    S(metal)    S(lipo)     H(rot)  DE(clash)    DE(int)     intcor
     13.95     -16.66       2.82        0.00      54.30       1.79       0.29       2.42       ----

> <Gold.Chemscore.Fitness>
13.9545

> <Gold.Chemscore.DG>
-16.6645

> <Gold.Chemscore.ZeroCoef>
-5.4800

> <Gold.Chemscore.Hbond>
2.8206

> <Gold.Chemscore.Metal>
0.0000

> <Gold.Chemscore.Lipo>
54.2977

> <Gold.Chemscore.Internal_Hbond>
0.0000

> <Gold.Chemscore.DEClash>
0.2946

> <Gold.Chemscore.DEInternal>
2.4155

> <Gold.Chemscore.Rot>
1.7926

> <Gold.Chemscore.Internal.Correction>
   9.000000E+99

> <Gold.Chemscore.Hbonds>
donor molecule, donor type, donor heavy atom, donor atom, acceptor molecule, acceptor atom, score
      L1  H    10    32       P1  7948  0.90
      L1  H    13    33       P1  7948  0.86
      P1  H  7997  8009       L1     3  0.78

> <Gold.Chemscore.Hbond.Weighted>
-9.4207

> <Gold.Chemscore.Metal.Weighted>
-0.0000

> <Gold.Chemscore.Lipo.Weighted>
-6.3528

> <Gold.Chemscore.Internal_Hbond.Weighted>
0.0000

> <Gold.Chemscore.DEClash.Weighted>
0.2946

> <Gold.Chemscore.DEInternal.Weighted>
2.4155

> <Gold.Chemscore.Rot.Weighted>
4.5890

> <Gold.Chemscore.Internal.Correction.Weighted>
   9.000000E+99

> <Gold.Protein.RotatedTorsions>
[ 6907 6896 6895 6894 ] final    8.30 input  -60.11 | X-H torsion
[ 7974 7965 7964 7962 ] final  -64.97 input  175.53 | X-H torsion
[ 8008 7997 7996 7995 ] final  174.01 input   59.86 | X-H torsion
[ 10167 10162 10161 10158 ] final  -60.27 input  -65.29 | X-H torsion
[ 10718 10713 10712 10709 ] final  -42.56 input   66.30 | X-H torsion
[ 10763 10752 10751 10750 ] final  -73.89 input  -60.55 | X-H torsion
[ 11005 11000 10999 10996 ] final  115.09 input  -57.11 | X-H torsion

> <Gold.Protein.ActiveResidues>
 VAL166  LYS551  ARG553  GLY616  TRP617  ASP618  TYR619  PRO620  LYS621  CYS622 
 ASP623  PHE694  ASN695  SER759  ASP760  ASP761  ALA762  ILE779  LEU786  VAL792 
 PHE793  MET794  SER795  GLU796  ALA797  LYS798  CYS799  TRP800  GLU811  SER814 

> <Gold.Protein.RotatedAtoms>
  151.7038  135.0925  160.0255 H   0  0  0  0  0  0  0  0  0  0  0  0  # atno 6907 bound_to 6896
  152.3704  133.6407  159.6091 H   0  0  0  0  0  0  0  0  0  0  0  0  # atno 6908 bound_to 6896
  150.7669  133.9195  159.3435 H   0  0  0  0  0  0  0  0  0  0  0  0  # atno 6909 bound_to 6896
  145.7601  140.8865  143.0434 H   0  0  0  0  0  0  0  0  0  0  0  0  # atno 7974 bound_to 7965
  156.1017  140.1445  156.9458 H   0  0  0  0  0  0  0  0  0  0  0  0  # atno 8008 bound_to 7997
  154.4707  140.0911  156.7182 H   0  0  0  0  0  0  0  0  0  0  0  0  # atno 8009 bound_to 7997
  155.4748  140.3443  155.4333 H   0  0  0  0  0  0  0  0  0  0  0  0  # atno 8010 bound_to 7997
  140.6082  143.2379  151.5772 H   0  0  0  0  0  0  0  0  0  0  0  0  # atno 10167 bound_to 10162
  156.2583  130.4194  149.8571 H   0  0  0  0  0  0  0  0  0  0  0  0  # atno 10718 bound_to 10713
  154.4657  135.5882  153.6286 H   0  0  0  0  0  0  0  0  0  0  0  0  # atno 10763 bound_to 10752
  152.9828  135.6054  154.3431 H   0  0  0  0  0  0  0  0  0  0  0  0  # atno 10764 bound_to 10752
  154.3307  135.2842  155.2452 H   0  0  0  0  0  0  0  0  0  0  0  0  # atno 10765 bound_to 10752
  139.8999  134.9578  156.6992 H   0  0  0  0  0  0  0  0  0  0  0  0  # atno 11005 bound_to 11000
  144.6832  139.9711  143.7482 LP  0  0  0  0  0  0  0  0  0  0  0  0  # atno 17320 bound_to 7965
  146.0272  139.3303  143.0777 LP  0  0  0  0  0  0  0  0  0  0  0  0  # atno 17321 bound_to 7965
  139.5341  144.2832  152.1212 LP  0  0  0  0  0  0  0  0  0  0  0  0  # atno 17342 bound_to 10162
  140.2026  144.4643  150.6424 LP  0  0  0  0  0  0  0  0  0  0  0  0  # atno 17343 bound_to 10162
  156.6096  130.8581  151.3451 LP  0  0  0  0  0  0  0  0  0  0  0  0  # atno 17370 bound_to 10713
  157.7241  130.9598  150.1559 LP  0  0  0  0  0  0  0  0  0  0  0  0  # atno 17371 bound_to 10713
  140.7164  133.9179  155.8118 LP  0  0  0  0  0  0  0  0  0  0  0  0  # atno 17394 bound_to 11000
  141.0261  134.0821  157.4067 LP  0  0  0  0  0  0  0  0  0  0  0  0  # atno 17395 bound_to 11000

$$$$
