AV-unprocessed.smi:890|AV-procd|sdf|4058|dock5
  -GOLD-   22720 1543D 1   1.00000     0.00000
 Structure written by MMmdl.
 52 55  0  0  0  0  0  0  0  0  2 V2000
  149.7722  135.8523  158.2875 O   0  0  0  0  0  0  0  0  0  0  0  0
  149.5317  136.9151  158.8600 C   0  0  0  0  0  0  0  0  0  0  0  0
  149.9741  138.1240  158.4750 N   0  0  0  0  0  0  0  0  0  0  0  0
  150.8102  138.4509  157.3684 C   0  0  0  0  0  0  0  0  0  0  0  0
  150.8418  137.6776  156.1818 C   0  0  0  0  0  0  0  0  0  0  0  0
  151.6699  138.0809  155.1197 C   0  0  0  0  0  0  0  0  0  0  0  0
  152.4322  139.2512  155.2758 C   0  0  0  0  0  0  0  0  0  0  0  0
  152.4016  140.0075  156.3914 N   0  0  0  0  0  0  0  0  0  0  0  0
  151.6033  139.6297  157.4199 C   0  0  0  0  0  0  0  0  0  0  0  0
  151.6132  140.4283  158.5831 N   0  0  0  0  0  0  0  0  0  0  0  0
  152.8985  140.4354  159.2770 C   0  0  0  0  0  0  0  0  0  0  0  0
  153.0846  141.8496  159.8297 C   0  0  0  0  0  0  0  0  0  0  0  0
  152.2804  142.7057  158.8594 C   0  0  0  0  0  0  0  0  0  0  0  0
  151.1007  141.7967  158.5194 C   0  0  0  0  0  0  0  0  0  0  0  0
  148.7953  136.9999  159.9774 N   0  0  0  0  0  0  0  0  0  0  0  0
  148.1605  135.8687  160.6480 C   0  0  2  0  0  0  0  0  0  0  0  0
  146.9711  135.3615  159.8161 C   0  0  0  0  0  0  0  0  0  0  0  0
  146.2451  134.2073  160.5337 C   0  0  0  0  0  0  0  0  0  0  0  0
  145.8131  134.5818  161.9053 N   0  3  2  0  0  0  0  0  0  0  0  0
  144.6292  135.4726  161.9247 C   0  0  0  0  0  0  0  0  0  0  0  0
  143.5253  134.9928  162.8387 C   0  0  0  0  0  0  0  0  0  0  0  0
  143.3873  134.8411  161.3404 C   0  0  0  0  0  0  0  0  0  0  0  0
  146.9407  135.0845  162.7321 C   0  0  0  0  0  0  0  0  0  0  0  0
  147.6773  136.2570  162.0581 C   0  0  0  0  0  0  0  0  0  0  0  0
  149.7638  138.8933  159.0942 H   0  0  0  0  0  0  0  0  0  0  0  0
  150.2356  136.7934  156.0588 H   0  0  0  0  0  0  0  0  0  0  0  0
  151.7149  137.5089  154.2050 H   0  0  0  0  0  0  0  0  0  0  0  0
  153.0795  139.5930  154.4818 H   0  0  0  0  0  0  0  0  0  0  0  0
  152.9198  139.6923  160.0745 H   0  0  0  0  0  0  0  0  0  0  0  0
  153.7041  140.1992  158.5797 H   0  0  0  0  0  0  0  0  0  0  0  0
  152.6496  141.9182  160.8277 H   0  0  0  0  0  0  0  0  0  0  0  0
  154.1318  142.1448  159.8958 H   0  0  0  0  0  0  0  0  0  0  0  0
  151.9723  143.6617  159.2834 H   0  0  0  0  0  0  0  0  0  0  0  0
  152.8685  142.9035  157.9621 H   0  0  0  0  0  0  0  0  0  0  0  0
  150.6428  142.0664  157.5676 H   0  0  0  0  0  0  0  0  0  0  0  0
  150.3260  141.8949  159.2805 H   0  0  0  0  0  0  0  0  0  0  0  0
  148.6524  137.9130  160.3842 H   0  0  0  0  0  0  0  0  0  0  0  0
  148.8872  135.0579  160.7316 H   0  0  0  0  0  0  0  0  0  0  0  0
  146.2725  136.1776  159.6256 H   0  0  0  0  0  0  0  0  0  0  0  0
  147.3177  135.0228  158.8390 H   0  0  0  0  0  0  0  0  0  0  0  0
  145.3853  133.8765  159.9497 H   0  0  0  0  0  0  0  0  0  0  0  0
  146.9138  133.3487  160.6074 H   0  0  0  0  0  0  0  0  0  0  0  0
  144.8129  136.5379  161.8003 H   0  0  0  0  0  0  0  0  0  0  0  0
  143.6930  134.0885  163.4213 H   0  0  0  0  0  0  0  0  0  0  0  0
  142.9098  135.7487  163.3220 H   0  0  0  0  0  0  0  0  0  0  0  0
  142.6798  135.4967  160.8368 H   0  0  0  0  0  0  0  0  0  0  0  0
  143.4634  133.8360  160.9291 H   0  0  0  0  0  0  0  0  0  0  0  0
  146.5790  135.3788  163.7180 H   0  0  0  0  0  0  0  0  0  0  0  0
  147.6395  134.2630  162.8953 H   0  0  0  0  0  0  0  0  0  0  0  0
  148.5232  136.5547  162.6785 H   0  0  0  0  0  0  0  0  0  0  0  0
  147.0206  137.1262  162.0025 H   0  0  0  0  0  0  0  0  0  0  0  0
  145.5060  133.7256  162.3446 H   0  0  0  0  0  0  0  0  0  0  0  0
  1  2  2  0  0  0  0
  2  3  1  0  0  0  0
  2 15  1  0  0  0  0
  3  4  1  0  0  0  0
  3 25  1  0  0  0  0
  4  9  1  0  0  0  0
  4  5  2  0  0  0  0
  5  6  1  0  0  0  0
  5 26  1  0  0  0  0
  6  7  2  0  0  0  0
  6 27  1  0  0  0  0
  7  8  1  0  0  0  0
  7 28  1  0  0  0  0
  8  9  2  0  0  0  0
  9 10  1  0  0  0  0
 10 14  1  0  0  0  0
 10 11  1  0  0  0  0
 11 12  1  0  0  0  0
 11 29  1  0  0  0  0
 11 30  1  0  0  0  0
 12 13  1  0  0  0  0
 12 31  1  0  0  0  0
 12 32  1  0  0  0  0
 13 14  1  0  0  0  0
 13 33  1  0  0  0  0
 13 34  1  0  0  0  0
 14 35  1  0  0  0  0
 14 36  1  0  0  0  0
 15 16  1  0  0  0  0
 15 37  1  0  0  0  0
 16 24  1  0  0  0  0
 16 17  1  0  0  0  0
 16 38  1  0  0  0  0
 17 18  1  0  0  0  0
 17 39  1  0  0  0  0
 17 40  1  0  0  0  0
 18 19  1  0  0  0  0
 18 41  1  0  0  0  0
 18 42  1  0  0  0  0
 19 20  1  0  0  0  0
 19 23  1  0  0  0  0
 19 52  1  0  0  0  0
 20 22  1  0  0  0  0
 20 21  1  0  0  0  0
 20 43  1  0  0  0  0
 21 22  1  0  0  0  0
 21 44  1  0  0  0  0
 21 45  1  0  0  0  0
 22 46  1  0  0  0  0
 22 47  1  0  0  0  0
 23 24  1  0  0  0  0
 23 48  1  0  0  0  0
 23 49  1  0  0  0  0
 24 50  1  0  0  0  0
 24 51  1  0  0  0  0
M  CHG  1  19   1
M  END
> <s_m_source_file>
AV-unprocessed.smi

> <i_m_source_file_index>
890

> <i_lp_mmshare_version>
43012

> <i_f3d_flags>
0

> <s_epik_input>
W0NIMl0xW0NIMl1bQ0hdMU4oW0NIMl1bQ0gyXTIpW0NIMl1bQ0gyXVtDSF0yW05IXUMoPU8pW05IXWMzW2NIXVtjSF1bY0hdbmMzTjRbQ0gyXVtDSDJdW0NIMl1bQ0gyXTQ=

> <s_epik_cmdline>
J2VwaWtfcHl0aG9uJywgJy1waCcsICc3LjAnLCAnLXRuJywgJzgnLCAnLW1hJywgJzIwMCcsICctbWV0YWxfYmluZGluZycsICctaW1hZScsICc8aW5maWxlLm1hZT4nLCAnLW9tYWUnLCAnPG91dGZpbGUubWFlPic=

> <r_lp_tautomer_probability>
1

> <r_epik_Ionization_Penalty>
0.193768

> <r_epik_Ionization_Penalty_Charging>
0.115549

> <r_epik_Ionization_Penalty_Neutral>
0.078219

> <r_epik_State_Penalty>
0.174811

> <r_epik_Charging_Adjusted_Penalty>
0.29036

> <i_epik_Tot_Q>
1

> <i_epik_Tot_abs_Q>
1

> <r_epik_Metal_State_Penalty>
0.169761

> <b_epik_Metal_Only>
0

> <s_lp_Force_Field>
OPLS_2005

> <r_lp_Energy>
56.2334

> <b_lp_Chiralities_Consistent>
1

> <s_lp_Variant>
AV-unprocessed.smi:890-2

> <Gold.Version>
5.8.1

> <Gold.Id.Protein>
6NUR|6NUR_protein|mol2

> <Gold.PLP.Fitness>
44.7838

> <Gold.PLP.PLP>
-39.4800

> <Gold.PLP.part.hbond>
-2.0000

> <Gold.PLP.part.metal>
0.0000

> <Gold.PLP.part.buried>
-6.3533

> <Gold.PLP.part.nonpolar>
-32.1904

> <Gold.PLP.part.repulsive>
1.4049

> <Gold.PLP.ligand.clash>
0.0000

> <Gold.PLP.ligand.torsion>
1.0425

> <Gold.PLP.Chemscore.Hbond>
2.0000

> <Gold.PLP.Chemscore.CHOScore>
0.0000

> <Gold.PLP.Chemscore.Metal>
0.0000

> <Gold.Chemscore.Hbonds>
donor molecule, donor type, donor heavy atom, donor atom, acceptor molecule, acceptor atom, score
      P1  H  6896  6907       L1     1  1.00
      P1  H  7997  8009       L1     8  0.80

> <Gold.PLP.Chemscore.Internal.Correction>
1.3889

> <Gold.Rescore>
     Score         DG    S(hbond)    S(metal)    S(lipo)     H(rot)  DE(clash)    DE(int)     intcor
     16.69     -20.10       1.54        0.00     110.18       1.33       1.27       2.14       ----

> <Gold.Chemscore.Fitness>
16.6924

> <Gold.Chemscore.DG>
-20.1025

> <Gold.Chemscore.ZeroCoef>
-5.4800

> <Gold.Chemscore.Hbond>
1.5372

> <Gold.Chemscore.Metal>
0.0000

> <Gold.Chemscore.Lipo>
110.1828

> <Gold.Chemscore.Internal_Hbond>
0.0000

> <Gold.Chemscore.DEClash>
1.2693

> <Gold.Chemscore.DEInternal>
2.1407

> <Gold.Chemscore.Rot>
1.3294

> <Gold.Chemscore.Internal.Correction>
   9.000000E+99

> <Gold.Chemscore.Hbonds>
donor molecule, donor type, donor heavy atom, donor atom, acceptor molecule, acceptor atom, score
      P1  H  6896  6907       L1     1  0.42
      P1  H  7997  8009       L1     8  0.11

> <Gold.Chemscore.Hbond.Weighted>
-5.1342

> <Gold.Chemscore.Metal.Weighted>
-0.0000

> <Gold.Chemscore.Lipo.Weighted>
-12.8914

> <Gold.Chemscore.Internal_Hbond.Weighted>
0.0000

> <Gold.Chemscore.DEClash.Weighted>
1.2693

> <Gold.Chemscore.DEInternal.Weighted>
2.1407

> <Gold.Chemscore.Rot.Weighted>
3.4032

> <Gold.Chemscore.Internal.Correction.Weighted>
   9.000000E+99

> <Gold.Protein.RotatedTorsions>
[ 6907 6896 6895 6894 ] final  -55.70 input  -60.11 | X-H torsion
[ 7974 7965 7964 7962 ] final  -87.86 input  175.53 | X-H torsion
[ 8008 7997 7996 7995 ] final  179.88 input   59.86 | X-H torsion
[ 10167 10162 10161 10158 ] final   78.08 input  -65.29 | X-H torsion
[ 10718 10713 10712 10709 ] final  -18.98 input   66.30 | X-H torsion
[ 10763 10752 10751 10750 ] final  127.57 input  -60.55 | X-H torsion
[ 11005 11000 10999 10996 ] final   48.40 input  -57.11 | X-H torsion

> <Gold.Protein.ActiveResidues>
 VAL166  LYS551  ARG553  GLY616  TRP617  ASP618  TYR619  PRO620  LYS621  CYS622 
 ASP623  PHE694  ASN695  SER759  ASP760  ASP761  ALA762  ILE779  LEU786  VAL792 
 PHE793  MET794  SER795  GLU796  ALA797  LYS798  CYS799  TRP800  GLU811  SER814 

> <Gold.Protein.RotatedAtoms>
  150.8230  134.7447  159.6788 H   0  0  0  0  0  0  0  0  0  0  0  0  # atno 6907 bound_to 6896
  152.4343  134.5713  159.9931 H   0  0  0  0  0  0  0  0  0  0  0  0  # atno 6908 bound_to 6896
  151.5892  133.3331  159.3060 H   0  0  0  0  0  0  0  0  0  0  0  0  # atno 6909 bound_to 6896
  145.4609  140.9561  143.1970 H   0  0  0  0  0  0  0  0  0  0  0  0  # atno 7974 bound_to 7965
  156.0383  140.1297  157.0183 H   0  0  0  0  0  0  0  0  0  0  0  0  # atno 8008 bound_to 7997
  154.4380  140.1035  156.6270 H   0  0  0  0  0  0  0  0  0  0  0  0  # atno 8009 bound_to 7997
  155.5704  140.3466  155.4516 H   0  0  0  0  0  0  0  0  0  0  0  0  # atno 8010 bound_to 7997
  139.9748  144.5869  150.7953 H   0  0  0  0  0  0  0  0  0  0  0  0  # atno 10167 bound_to 10162
  156.5521  130.4704  149.6447 H   0  0  0  0  0  0  0  0  0  0  0  0  # atno 10718 bound_to 10713
  153.7115  135.3267  155.3247 H   0  0  0  0  0  0  0  0  0  0  0  0  # atno 10763 bound_to 10752
  154.8383  135.4478  154.1309 H   0  0  0  0  0  0  0  0  0  0  0  0  # atno 10764 bound_to 10752
  153.2404  135.6970  153.7869 H   0  0  0  0  0  0  0  0  0  0  0  0  # atno 10765 bound_to 10752
  140.1194  134.4850  155.8610 H   0  0  0  0  0  0  0  0  0  0  0  0  # atno 11005 bound_to 11000
  144.8003  139.6153  143.7074 LP  0  0  0  0  0  0  0  0  0  0  0  0  # atno 17320 bound_to 7965
  146.2452  139.6082  142.9465 LP  0  0  0  0  0  0  0  0  0  0  0  0  # atno 17321 bound_to 7965
  140.7509  143.2964  151.3193 LP  0  0  0  0  0  0  0  0  0  0  0  0  # atno 17342 bound_to 10162
  139.6454  144.0461  152.2586 LP  0  0  0  0  0  0  0  0  0  0  0  0  # atno 17343 bound_to 10162
  156.2875  130.7106  151.1946 LP  0  0  0  0  0  0  0  0  0  0  0  0  # atno 17370 bound_to 10713
  157.7385  131.0539  150.5288 LP  0  0  0  0  0  0  0  0  0  0  0  0  # atno 17371 bound_to 10713
  141.2148  133.6755  156.6858 LP  0  0  0  0  0  0  0  0  0  0  0  0  # atno 17394 bound_to 11000
  140.2986  134.8182  157.4078 LP  0  0  0  0  0  0  0  0  0  0  0  0  # atno 17395 bound_to 11000

$$$$
