#       Name:                AV-unprocessed.smi:686
#       Creating user name   scv26
#       Creation time:       Fri Mar 27 00:32:43 2020


#       File generated by GOLD software.
#

@<TRIPOS>MOLECULE
AV-unprocessed.smi:686
    44    45     1
SMALL
NO_CHARGES


@<TRIPOS>ATOM
      1 ****        -1.7961   1.2285   2.5942 C.3            1 S1                 0.0000
      2 ****        -1.1419   0.3211   1.5339 C.3            1 S1                 0.0000
      3 ****        -2.0854  -0.7715   1.0010 C.3            1 S1                 0.0000
      4 ****        -1.8133  -0.9205  -0.4518 N.4            1 S1                 1.0000
      5 ****        -1.7816  -2.3225  -0.9568 C.3            1 S1                 0.0000
      6 ****        -1.4459  -2.3787  -2.4596 C.3            1 S1                 0.0000
      7 ****        -3.1238  -3.0345  -0.7032 C.3            1 S1                 0.0000
      8 ****        -0.6149  -0.1074  -0.7495 C.3            1 S1                 0.0000
      9 ****        -0.6478   1.0346   0.2668 C.3            1 S1                 0.0000
     10 ****         0.6660   1.6265   0.4700 N.pl3          1 S1                -1.0000
     11 ****         1.3690   2.4709  -0.7246 S.o2           1 S1                 0.0000
     12 ****         1.7302   1.6266  -1.8756 O.2            1 S1                 0.0000
     13 ****         0.6520   3.7238  -1.0105 O.2            1 S1                 0.0000
     14 ****         2.9531   2.9667   0.0844 C.3            1 S1                 0.0000
     15 ****         3.9114   1.8072   0.1245 C.2            1 S1                 0.0000
     16 ****         3.9211   0.6993   1.0172 C.2            1 S1                 0.0000
     17 ****         4.9950  -0.0348   0.6046 C.2            1 S1                 0.0000
     18 ****         5.6053   0.5665  -0.4473 O.3            1 S1                 0.0000
     19 ****         4.9090   1.7438  -0.7441 N.2            1 S1                 0.0000
     20 ****        -2.6763   1.7465   2.2087 H              1 S1                 0.0000
     21 ****        -1.1014   1.9829   2.9678 H              1 S1                 0.0000
     22 ****        -2.1186   0.6391   3.4528 H              1 S1                 0.0000
     23 ****        -0.2933  -0.1860   1.9981 H              1 S1                 0.0000
     24 ****        -1.9129  -1.7005   1.5468 H              1 S1                 0.0000
     25 ****        -3.1361  -0.5070   1.1326 H              1 S1                 0.0000
     26 ****        -1.0001  -2.8591  -0.4164 H              1 S1                 0.0000
     27 ****        -1.4757  -3.4044  -2.8284 H              1 S1                 0.0000
     28 ****        -0.4462  -1.9985  -2.6705 H              1 S1                 0.0000
     29 ****        -2.1569  -1.7963  -3.0470 H              1 S1                 0.0000
     30 ****        -3.1062  -4.0514  -1.0965 H              1 S1                 0.0000
     31 ****        -3.9478  -2.5083  -1.1865 H              1 S1                 0.0000
     32 ****        -3.3557  -3.1110   0.3589 H              1 S1                 0.0000
     33 ****         0.2818  -0.7159  -0.6137 H              1 S1                 0.0000
     34 ****        -0.6284   0.2582  -1.7767 H              1 S1                 0.0000
     35 ****        -1.3944   1.7665  -0.0451 H              1 S1                 0.0000
     36 ****         3.3714   3.7933  -0.4902 H              1 S1                 0.0000
     37 ****         2.7342   3.3430   1.0833 H              1 S1                 0.0000
     38 ****         3.2419   0.4776   1.8271 H              1 S1                 0.0000
     39 ****         5.4340  -0.9623   0.9418 H              1 S1                 0.0000
     40 ****        -2.5754  -0.4536  -0.9221 H              1 S1                 0.0000
     41 ****         1.1356   1.5130   1.3456 LP             1 S1                 0.0000
     42 ****         5.5921  -0.0432  -1.2397 LP             1 S1                 0.0000
     43 ****         6.5520   0.7842  -0.2099 LP             1 S1                 0.0000
     44 ****         5.1216   2.4031  -1.4653 LP             1 S1                 0.0000
@<TRIPOS>BOND
    1    1    2 1     
    2    1   20 1     
    3    1   21 1     
    4    1   22 1     
    5    2    9 1     
    6    2    3 1     
    7    2   23 1     
    8    3    4 1     
    9    3   24 1     
   10    3   25 1     
   11    4    5 1     
   12    4    8 1     
   13    4   40 1     
   14    5    6 1     
   15    5    7 1     
   16    5   26 1     
   17    6   27 1     
   18    6   28 1     
   19    6   29 1     
   20    7   30 1     
   21    7   31 1     
   22    7   32 1     
   23    8    9 1     
   24    8   33 1     
   25    8   34 1     
   26    9   10 1     
   27    9   35 1     
   28   10   11 1     
   29   11   12 2     
   30   11   13 2     
   31   11   14 1     
   32   14   15 1     
   33   14   36 1     
   34   14   37 1     
   35   15   19 2     
   36   15   16 1     
   37   16   17 2     
   38   16   38 1     
   39   17   18 1     
   40   17   39 1     
   41   18   19 1     
   42   10   41 1     
   43   18   42 1     
   44   18   43 1     
   45   19   44 1     
@<TRIPOS>SUBSTRUCTURE
      1 S1             1
@<TRIPOS>SET
LONE_PAIRS      STATIC     ATOMS    <user>   **** ""
6 41 12 13 42 43 44
DONOR_HYDROGENS      STATIC     ATOMS    <user>   **** ""
1 40
ATOM$BLUE        STATIC     ATOMS    COLORGROUP SYSTEM
6 41 12 13 42 43 44
ATOM$RED        STATIC     ATOMS    COLORGROUP SYSTEM
1 40
