#       Name:                AV-unprocessed.smi:3335
#       Creating user name   scv26
#       Creation time:       Fri Mar 27 19:22:43 2020


#       File generated by GOLD software.
#

@<TRIPOS>MOLECULE
AV-unprocessed.smi:3335
    50    51     1
SMALL
NO_CHARGES


@<TRIPOS>ATOM
      1 ****        -3.7358  -1.9792  -2.0220 C.3            1 S1                 0.0000
      2 ****        -3.3165  -0.6965  -1.3632 C.2            1 S1                 0.0000
      3 ****        -3.3101   0.6128  -1.9208 C.2            1 S1                 0.0000
      4 ****        -2.8754   1.5291  -1.0719 N.2            1 S1                 0.0000
      5 ****        -2.5993   0.8459   0.0619 N.pl3          1 S1                 0.0000
      6 ****        -2.0538   1.5244   1.2362 C.3            1 S1                 0.0000
      7 ****        -2.7788   2.8546   1.5220 C.3            1 S1                 0.0000
      8 ****        -0.5095   1.6774   1.1791 C.3            1 S1                 0.0000
      9 ****        -0.0037   2.4529  -0.0565 C.3            1 S1                 0.0000
     10 ****         0.1131   0.3325   1.2541 N.4            1 S1                 1.0000
     11 ****         1.5604   0.2600   1.5616 C.3            1 S1                 0.0000
     12 ****         1.8338   0.5969   3.0421 C.3            1 S1                 0.0000
     13 ****         2.0681  -1.1492   1.2035 C.2            1 S1                 0.0000
     14 ****         2.0753  -2.0234   2.0712 O.2            1 S1                 0.0000
     15 ****         2.4681  -1.4011  -0.0620 N.am           1 S1                 0.0000
     16 ****         2.9600  -2.7063  -0.5007 C.3            1 S1                 0.0000
     17 ****         3.5129  -2.4907  -1.9092 C.3            1 S1                 0.0000
     18 ****         2.7389  -1.2888  -2.4306 C.3            1 S1                 0.0000
     19 ****         2.4554  -0.4568  -1.1799 C.3            1 S1                 0.0000
     20 ****        -2.8520  -0.5021  -0.0936 C.2            1 S1                 0.0000
     21 ****        -4.0317  -1.8250  -3.0600 H              1 S1                 0.0000
     22 ****        -4.5845  -2.4341  -1.5113 H              1 S1                 0.0000
     23 ****        -2.9300  -2.7134  -2.0239 H              1 S1                 0.0000
     24 ****        -3.6025   0.9217  -2.9137 H              1 S1                 0.0000
     25 ****        -2.2793   0.8826   2.0897 H              1 S1                 0.0000
     26 ****        -2.4177   3.3049   2.4471 H              1 S1                 0.0000
     27 ****        -3.8518   2.6959   1.6345 H              1 S1                 0.0000
     28 ****        -2.6386   3.5846   0.7250 H              1 S1                 0.0000
     29 ****        -0.2155   2.2321   2.0695 H              1 S1                 0.0000
     30 ****        -0.5221   3.4043  -0.1699 H              1 S1                 0.0000
     31 ****        -0.1473   1.8870  -0.9769 H              1 S1                 0.0000
     32 ****         1.0568   2.6889   0.0192 H              1 S1                 0.0000
     33 ****        -0.3704  -0.2025   1.9614 H              1 S1                 0.0000
     34 ****         2.1093   0.9826   0.9610 H              1 S1                 0.0000
     35 ****         2.8833   0.4388   3.2942 H              1 S1                 0.0000
     36 ****         1.2350  -0.0188   3.7148 H              1 S1                 0.0000
     37 ****         1.6121   1.6401   3.2652 H              1 S1                 0.0000
     38 ****         3.7243  -3.1048   0.1689 H              1 S1                 0.0000
     39 ****         2.1270  -3.4109  -0.5209 H              1 S1                 0.0000
     40 ****         4.5737  -2.2435  -1.8516 H              1 S1                 0.0000
     41 ****         3.4089  -3.3707  -2.5446 H              1 S1                 0.0000
     42 ****         3.2840  -0.7327  -3.1939 H              1 S1                 0.0000
     43 ****         1.7980  -1.6242  -2.8692 H              1 S1                 0.0000
     44 ****         1.5037   0.0671  -1.2714 H              1 S1                 0.0000
     45 ****         3.2430   0.2836  -1.0317 H              1 S1                 0.0000
     46 ****        -2.6805  -1.2084   0.7055 H              1 S1                 0.0000
     47 ****        -0.0391  -0.1183   0.3631 H              1 S1                 0.0000
     48 ****        -2.7734   2.5108  -1.2330 LP             1 S1                 0.0000
     49 ****         1.7541  -1.8139   2.9947 LP             1 S1                 0.0000
     50 ****         2.4024  -2.9426   1.8521 LP             1 S1                 0.0000
@<TRIPOS>BOND
    1    1    2 1     
    2    1   21 1     
    3    1   22 1     
    4    1   23 1     
    5    2   20 2     
    6    2    3 1     
    7    3    4 2     
    8    3   24 1     
    9    4    5 1     
   10    5    6 1     
   11    5   20 1     
   12    6    7 1     
   13    6    8 1     
   14    6   25 1     
   15    7   26 1     
   16    7   27 1     
   17    7   28 1     
   18    8    9 1     
   19    8   10 1     
   20    8   29 1     
   21    9   30 1     
   22    9   31 1     
   23    9   32 1     
   24   10   11 1     
   25   10   33 1     
   26   10   47 1     
   27   11   12 1     
   28   11   13 1     
   29   11   34 1     
   30   12   35 1     
   31   12   36 1     
   32   12   37 1     
   33   13   14 2     
   34   13   15 am    
   35   15   19 1     
   36   15   16 1     
   37   16   17 1     
   38   16   38 1     
   39   16   39 1     
   40   17   18 1     
   41   17   40 1     
   42   17   41 1     
   43   18   19 1     
   44   18   42 1     
   45   18   43 1     
   46   19   44 1     
   47   19   45 1     
   48   20   46 1     
   49    4   48 1     
   50   14   49 1     
   51   14   50 1     
@<TRIPOS>SUBSTRUCTURE
      1 S1             1
@<TRIPOS>SET
LONE_PAIRS      STATIC     ATOMS    <user>   **** ""
3 48 49 50
DONOR_HYDROGENS      STATIC     ATOMS    <user>   **** ""
2 33 47
ATOM$BLUE        STATIC     ATOMS    COLORGROUP SYSTEM
3 48 49 50
ATOM$RED        STATIC     ATOMS    COLORGROUP SYSTEM
2 33 47
