AV-unprocessed.smi:232|AV-procd|sdf|1781|dock6
  -GOLD-   2262020333D 1   1.00000     0.00000
 Structure written by MMmdl.
 52 55  0  0  0  0  0  0  0  0  1 V2000
  151.4868  144.0804  157.6866 C   0  0  0  0  0  0  0  0  0  0  0  0
  151.0910  142.6038  157.5693 C   0  0  0  0  0  0  0  0  0  0  0  0
  151.6298  141.7380  158.7269 C   0  0  2  0  0  0  0  0  0  0  0  0
  152.2958  142.5402  159.8536 C   0  0  0  0  0  0  0  0  0  0  0  0
  153.3867  141.6121  160.4018 C   0  0  0  0  0  0  0  0  0  0  0  0
  153.3019  140.3528  159.5298 C   0  0  2  0  0  0  0  0  0  0  0  0
  154.6637  139.6782  159.2944 C   0  0  0  0  0  0  0  0  0  0  0  0
  152.6584  140.7959  158.2996 N   0  0  0  0  0  0  0  0  0  0  0  0
  152.2474  139.8016  157.4782 C   0  0  0  0  0  0  0  0  0  0  0  0
  152.7597  139.6838  156.2241 N   0  0  0  0  0  0  0  0  0  0  0  0
  152.3501  138.6922  155.4270 C   0  0  0  0  0  0  0  0  0  0  0  0
  151.4574  137.7317  155.6795 N   0  0  0  0  0  0  0  0  0  0  0  0
  150.9417  137.8537  156.9365 C   0  0  0  0  0  0  0  0  0  0  0  0
  151.2776  138.8523  157.8915 C   0  0  0  0  0  0  0  0  0  0  0  0
  150.5529  138.6603  159.0608 N   0  0  0  0  0  0  0  0  0  0  0  0
  149.8287  137.6027  158.8118 C   0  0  0  0  0  0  0  0  0  0  0  0
  150.0020  137.0543  157.5607 N   0  0  0  0  0  0  0  0  0  0  0  0
  149.3380  135.8808  157.0233 C   0  0  0  0  0  0  0  0  0  0  0  0
  150.3115  134.9527  156.2719 C   0  0  1  0  0  0  0  0  0  0  0  0
  151.3025  134.4526  157.1507 O   0  0  0  0  0  0  0  0  0  0  0  0
  149.5923  133.7973  155.5473 C   0  0  1  0  0  0  0  0  0  0  0  0
  148.7762  134.1707  154.2994 C   0  0  0  0  0  0  0  0  0  0  0  0
  149.0759  133.0473  153.3155 C   0  0  0  0  0  0  0  0  0  0  0  0
  149.8206  132.0104  154.1522 C   0  0  0  0  0  0  0  0  0  0  0  0
  150.5019  132.7944  155.1166 O   0  0  0  0  0  0  0  0  0  0  0  0
  151.0573  144.6611  156.8701 H   0  0  0  0  0  0  0  0  0  0  0  0
  152.5688  144.2078  157.6489 H   0  0  0  0  0  0  0  0  0  0  0  0
  151.1299  144.5091  158.6232 H   0  0  0  0  0  0  0  0  0  0  0  0
  150.0024  142.5461  157.5430 H   0  0  0  0  0  0  0  0  0  0  0  0
  151.4379  142.2056  156.6149 H   0  0  0  0  0  0  0  0  0  0  0  0
  150.8017  141.1737  159.1597 H   0  0  0  0  0  0  0  0  0  0  0  0
  152.7554  143.4501  159.4652 H   0  0  0  0  0  0  0  0  0  0  0  0
  151.5764  142.8330  160.6188 H   0  0  0  0  0  0  0  0  0  0  0  0
  154.3601  142.0946  160.3025 H   0  0  0  0  0  0  0  0  0  0  0  0
  153.2396  141.3770  161.4562 H   0  0  0  0  0  0  0  0  0  0  0  0
  152.6403  139.6398  160.0255 H   0  0  0  0  0  0  0  0  0  0  0  0
  155.1270  139.3996  160.2408 H   0  0  0  0  0  0  0  0  0  0  0  0
  155.3500  140.3440  158.7701 H   0  0  0  0  0  0  0  0  0  0  0  0
  154.5623  138.7696  158.7003 H   0  0  0  0  0  0  0  0  0  0  0  0
  152.8029  138.6641  154.4469 H   0  0  0  0  0  0  0  0  0  0  0  0
  149.1484  137.1859  159.5405 H   0  0  0  0  0  0  0  0  0  0  0  0
  148.8533  135.3490  157.8433 H   0  0  0  0  0  0  0  0  0  0  0  0
  148.5435  136.2153  156.3551 H   0  0  0  0  0  0  0  0  0  0  0  0
  150.8354  135.5415  155.5177 H   0  0  0  0  0  0  0  0  0  0  0  0
  152.0801  134.2630  156.6483 H   0  0  0  0  0  0  0  0  0  0  0  0
  148.9184  133.3157  156.2584 H   0  0  0  0  0  0  0  0  0  0  0  0
  147.7133  134.2245  154.5376 H   0  0  0  0  0  0  0  0  0  0  0  0
  149.0640  135.1313  153.8722 H   0  0  0  0  0  0  0  0  0  0  0  0
  148.1787  132.6397  152.8488 H   0  0  0  0  0  0  0  0  0  0  0  0
  149.7280  133.4181  152.5235 H   0  0  0  0  0  0  0  0  0  0  0  0
  149.1210  131.3404  154.6549 H   0  0  0  0  0  0  0  0  0  0  0  0
  150.5102  131.4073  153.5612 H   0  0  0  0  0  0  0  0  0  0  0  0
  1  2  1  0  0  0  0
  1 26  1  0  0  0  0
  1 27  1  0  0  0  0
  1 28  1  0  0  0  0
  2  3  1  0  0  0  0
  2 29  1  0  0  0  0
  2 30  1  0  0  0  0
  3  8  1  0  0  0  0
  3  4  1  0  0  0  0
  3 31  1  0  0  0  0
  4  5  1  0  0  0  0
  4 32  1  0  0  0  0
  4 33  1  0  0  0  0
  5  6  1  0  0  0  0
  5 34  1  0  0  0  0
  5 35  1  0  0  0  0
  6  7  1  0  0  0  0
  6  8  1  0  0  0  0
  6 36  1  0  0  0  0
  7 37  1  0  0  0  0
  7 38  1  0  0  0  0
  7 39  1  0  0  0  0
  8  9  1  0  0  0  0
  9 14  1  0  0  0  0
  9 10  2  0  0  0  0
 10 11  1  0  0  0  0
 11 12  2  0  0  0  0
 11 40  1  0  0  0  0
 12 13  1  0  0  0  0
 13 17  1  0  0  0  0
 13 14  2  0  0  0  0
 14 15  1  0  0  0  0
 15 16  2  0  0  0  0
 16 17  1  0  0  0  0
 16 41  1  0  0  0  0
 17 18  1  0  0  0  0
 18 19  1  0  0  0  0
 18 42  1  0  0  0  0
 18 43  1  0  0  0  0
 19 20  1  0  0  0  0
 19 21  1  0  0  0  0
 19 44  1  0  0  0  0
 20 45  1  0  0  0  0
 21 25  1  0  0  0  0
 21 22  1  0  0  0  0
 21 46  1  0  0  0  0
 22 23  1  0  0  0  0
 22 47  1  0  0  0  0
 22 48  1  0  0  0  0
 23 24  1  0  0  0  0
 23 49  1  0  0  0  0
 23 50  1  0  0  0  0
 24 25  1  0  0  0  0
 24 51  1  0  0  0  0
 24 52  1  0  0  0  0
M  END
> <s_m_source_file>
AV-unprocessed.smi

> <i_m_source_file_index>
232

> <i_lp_mmshare_version>
43012

> <i_f3d_flags>
0

> <s_epik_input>
W0NIM11bQ0gyXVtDQEBIXTFbQ0gyXVtDSDJdW0NAQEhdKFtDSDNdKU4xYyhuW2NIXW4yKWMoYzIzKW5bY0hdbjNbQ0gyXVtDQEhdKFtPSF0pW0NAQEhdNFtDSDJdW0NIMl1bQ0gyXU80

> <s_epik_cmdline>
J2VwaWtfcHl0aG9uJywgJy1waCcsICc3LjAnLCAnLXRuJywgJzgnLCAnLW1hJywgJzIwMCcsICctbWV0YWxfYmluZGluZycsICctaW1hZScsICc8aW5maWxlLm1hZT4nLCAnLW9tYWUnLCAnPG91dGZpbGUubWFlPic=

> <r_lp_tautomer_probability>
1

> <r_epik_Ionization_Penalty>
0.00258048

> <r_epik_Ionization_Penalty_Charging>
0

> <r_epik_Ionization_Penalty_Neutral>
0.00258048

> <r_epik_State_Penalty>
0.00168551

> <r_epik_Charging_Adjusted_Penalty>
0.00168551

> <i_epik_Tot_Q>
0

> <i_epik_Tot_abs_Q>
0

> <r_epik_Metal_State_Penalty>
-0

> <b_epik_Metal_Only>
0

> <s_lp_Force_Field>
OPLS_2005

> <r_lp_Energy>
54.2714

> <b_lp_Chiralities_Consistent>
1

> <s_lp_Variant>
AV-unprocessed.smi:232-15

> <Gold.Version>
5.8.1

> <Gold.Id.Protein>
6NUR|6NUR_protein|mol2

> <Gold.PLP.Fitness>
42.9193

> <Gold.PLP.PLP>
-41.3788

> <Gold.PLP.part.hbond>
-3.2210

> <Gold.PLP.part.metal>
0.0000

> <Gold.PLP.part.buried>
-5.2181

> <Gold.PLP.part.nonpolar>
-33.9193

> <Gold.PLP.part.repulsive>
0.0171

> <Gold.PLP.ligand.clash>
0.0000

> <Gold.PLP.ligand.torsion>
1.1683

> <Gold.PLP.Chemscore.Hbond>
1.2560

> <Gold.PLP.Chemscore.CHOScore>
0.0000

> <Gold.PLP.Chemscore.Metal>
0.0000

> <Gold.Chemscore.Hbonds>
donor molecule, donor type, donor heavy atom, donor atom, acceptor molecule, acceptor atom, score
      P1  H  6896  6907       L1    20  0.10
      P1  H  7997  8008       L1    10  1.00

> <Gold.PLP.Chemscore.Internal.Correction>
0.1092

> <Gold.Rescore>
     Score         DG    S(hbond)    S(metal)    S(lipo)     H(rot)  DE(clash)    DE(int)     intcor
     13.44     -14.44       1.25        0.00      93.95       2.43       0.05       0.96       ----

> <Gold.Chemscore.Fitness>
13.4353

> <Gold.Chemscore.DG>
-14.4421

> <Gold.Chemscore.ZeroCoef>
-5.4800

> <Gold.Chemscore.Hbond>
1.2516

> <Gold.Chemscore.Metal>
0.0000

> <Gold.Chemscore.Lipo>
93.9532

> <Gold.Chemscore.Internal_Hbond>
0.0000

> <Gold.Chemscore.DEClash>
0.0515

> <Gold.Chemscore.DEInternal>
0.9553

> <Gold.Chemscore.Rot>
2.4260

> <Gold.Chemscore.Internal.Correction>
   9.000000E+99

> <Gold.Chemscore.Hbonds>
donor molecule, donor type, donor heavy atom, donor atom, acceptor molecule, acceptor atom, score
      P1  H  6896  6907       L1    20  0.09
      P1  H  7997  8008       L1    10  0.39

> <Gold.Chemscore.Hbond.Weighted>
-4.1803

> <Gold.Chemscore.Metal.Weighted>
-0.0000

> <Gold.Chemscore.Lipo.Weighted>
-10.9925

> <Gold.Chemscore.Internal_Hbond.Weighted>
0.0000

> <Gold.Chemscore.DEClash.Weighted>
0.0515

> <Gold.Chemscore.DEInternal.Weighted>
0.9553

> <Gold.Chemscore.Rot.Weighted>
6.2107

> <Gold.Chemscore.Internal.Correction.Weighted>
   9.000000E+99

> <Gold.Protein.RotatedTorsions>
[ 6907 6896 6895 6894 ] final -108.08 input  -60.11 | X-H torsion
[ 7974 7965 7964 7962 ] final  129.77 input  175.53 | X-H torsion
[ 8008 7997 7996 7995 ] final  -48.22 input   59.86 | X-H torsion
[ 10167 10162 10161 10158 ] final -152.35 input  -65.29 | X-H torsion
[ 10718 10713 10712 10709 ] final   57.85 input   66.30 | X-H torsion
[ 10763 10752 10751 10750 ] final   46.55 input  -60.55 | X-H torsion
[ 11005 11000 10999 10996 ] final  -52.29 input  -57.11 | X-H torsion

> <Gold.Protein.ActiveResidues>
 VAL166  LYS551  ARG553  GLY616  TRP617  ASP618  TYR619  PRO620  LYS621  CYS622 
 ASP623  PHE694  ASN695  SER759  ASP760  ASP761  ALA762  ILE779  LEU786  VAL792 
 PHE793  MET794  SER795  GLU796  ALA797  LYS798  CYS799  TRP800  GLU811  SER814 

> <Gold.Protein.RotatedAtoms>
  150.7481  133.9731  159.3551 H   0  0  0  0  0  0  0  0  0  0  0  0  # atno 6907 bound_to 6896
  151.7666  135.0795  160.0363 H   0  0  0  0  0  0  0  0  0  0  0  0  # atno 6908 bound_to 6896
  152.3367  133.5983  159.5883 H   0  0  0  0  0  0  0  0  0  0  0  0  # atno 6909 bound_to 6896
  145.0250  139.4097  143.5178 H   0  0  0  0  0  0  0  0  0  0  0  0  # atno 7974 bound_to 7965
  154.4026  140.1327  156.4304 H   0  0  0  0  0  0  0  0  0  0  0  0  # atno 8008 bound_to 7997
  155.7556  140.3487  155.5152 H   0  0  0  0  0  0  0  0  0  0  0  0  # atno 8009 bound_to 7997
  155.8907  140.1003  157.1410 H   0  0  0  0  0  0  0  0  0  0  0  0  # atno 8010 bound_to 7997
  139.7189  143.8989  152.2496 H   0  0  0  0  0  0  0  0  0  0  0  0  # atno 10167 bound_to 10162
  157.5549  130.8792  149.9020 H   0  0  0  0  0  0  0  0  0  0  0  0  # atno 10718 bound_to 10713
  152.9809  135.6004  154.3619 H   0  0  0  0  0  0  0  0  0  0  0  0  # atno 10763 bound_to 10752
  154.3299  135.2768  155.2479 H   0  0  0  0  0  0  0  0  0  0  0  0  # atno 10764 bound_to 10752
  154.4607  135.5966  153.6309 H   0  0  0  0  0  0  0  0  0  0  0  0  # atno 10765 bound_to 10752
  141.0916  133.6631  156.4002 H   0  0  0  0  0  0  0  0  0  0  0  0  # atno 11005 bound_to 11000
  146.3491  139.9769  142.8700 LP  0  0  0  0  0  0  0  0  0  0  0  0  # atno 17320 bound_to 7965
  145.1845  140.9783  143.4247 LP  0  0  0  0  0  0  0  0  0  0  0  0  # atno 17321 bound_to 7965
  139.8879  144.6982  150.8803 LP  0  0  0  0  0  0  0  0  0  0  0  0  # atno 17342 bound_to 10162
  140.7749  143.3609  151.1830 LP  0  0  0  0  0  0  0  0  0  0  0  0  # atno 17343 bound_to 10162
  156.0609  130.3700  150.0984 LP  0  0  0  0  0  0  0  0  0  0  0  0  # atno 17370 bound_to 10713
  156.9154  130.9665  151.3557 LP  0  0  0  0  0  0  0  0  0  0  0  0  # atno 17371 bound_to 10713
  140.5238  134.6279  157.5327 LP  0  0  0  0  0  0  0  0  0  0  0  0  # atno 17394 bound_to 11000
  139.9743  134.7240  155.9979 LP  0  0  0  0  0  0  0  0  0  0  0  0  # atno 17395 bound_to 11000

$$$$
