AV-unprocessed.smi:2207|AV-procd|sdf|8944|dock6
  -GOLD-   2272012163D 1   1.00000     0.00000
 Structure written by MMmdl.
 18 18  0  0  0  0  0  0  0  0  1 V2000
  142.1997  132.2502  147.9645 N   0  0  0  0  0  0  0  0  0  0  0  0
  143.3808  132.6671  148.4286 C   0  0  0  0  0  0  0  0  0  0  0  0
  144.0841  133.4669  147.8151 O   0  0  0  0  0  0  0  0  0  0  0  0
  143.8415  132.1023  149.7735 C   0  0  0  0  0  0  0  0  0  0  0  0
  144.8963  132.9156  150.3521 N   0  0  0  0  0  0  0  0  0  0  0  0
  146.2137  132.5689  150.5872 C   0  0  0  0  0  0  0  0  0  0  0  0
  146.8325  133.6539  151.1407 C   0  0  0  0  0  0  0  0  0  0  0  0
  145.7903  134.6175  151.1999 C   0  0  0  0  0  0  0  0  0  0  0  0
  145.9685  135.9028  151.7043 N   0  0  0  0  0  0  0  0  0  0  0  0
  144.6329  134.1868  150.7326 N   0  0  0  0  0  0  0  0  0  0  0  0
  141.8542  132.6015  147.0832 H   0  0  0  0  0  0  0  0  0  0  0  0
  141.6541  131.5895  148.4990 H   0  0  0  0  0  0  0  0  0  0  0  0
  142.9999  132.0443  150.4657 H   0  0  0  0  0  0  0  0  0  0  0  0
  144.2173  131.0869  149.6408 H   0  0  0  0  0  0  0  0  0  0  0  0
  146.5958  131.5888  150.3414 H   0  0  0  0  0  0  0  0  0  0  0  0
  147.8632  133.7410  151.4513 H   0  0  0  0  0  0  0  0  0  0  0  0
  146.8622  136.2134  152.0569 H   0  0  0  0  0  0  0  0  0  0  0  0
  145.2059  136.5638  151.7392 H   0  0  0  0  0  0  0  0  0  0  0  0
  1  2  1  0  0  0  0
  1 11  1  0  0  0  0
  1 12  1  0  0  0  0
  2  3  2  0  0  0  0
  2  4  1  0  0  0  0
  4  5  1  0  0  0  0
  4 13  1  0  0  0  0
  4 14  1  0  0  0  0
  5 10  1  0  0  0  0
  5  6  1  0  0  0  0
  6  7  2  0  0  0  0
  6 15  1  0  0  0  0
  7  8  1  0  0  0  0
  7 16  1  0  0  0  0
  8  9  1  0  0  0  0
  8 10  2  0  0  0  0
  9 17  1  0  0  0  0
  9 18  1  0  0  0  0
M  END
> <s_m_source_file>
AV-unprocessed.smi

> <i_m_source_file_index>
2207

> <i_lp_mmshare_version>
43012

> <i_f3d_flags>
0

> <s_epik_input>
W05IMl1DKD1PKVtDSDJdbjFbY0hdW2NIXWMobjEpW05IMl0=

> <s_epik_cmdline>
J2VwaWtfcHl0aG9uJywgJy1waCcsICc3LjAnLCAnLXRuJywgJzgnLCAnLW1hJywgJzIwMCcsICctbWV0YWxfYmluZGluZycsICctaW1hZScsICc8aW5maWxlLm1hZT4nLCAnLW9tYWUnLCAnPG91dGZpbGUubWFlPic=

> <r_lp_tautomer_probability>
1

> <r_epik_Ionization_Penalty>
0.000204489

> <r_epik_Ionization_Penalty_Charging>
0

> <r_epik_Ionization_Penalty_Neutral>
0.000204489

> <r_epik_State_Penalty>
-0

> <r_epik_Charging_Adjusted_Penalty>
0

> <i_epik_Tot_Q>
0

> <i_epik_Tot_abs_Q>
0

> <r_epik_Metal_State_Penalty>
-0

> <b_epik_Metal_Only>
0

> <s_lp_Force_Field>
OPLS_2005

> <r_lp_Energy>
0.150193

> <b_lp_Chiralities_Consistent>
1

> <s_lp_Variant>
AV-unprocessed.smi:2207-1

> <Gold.Version>
5.8.1

> <Gold.Id.Protein>
6NUR|6NUR_protein|mol2

> <Gold.PLP.Fitness>
33.7383

> <Gold.PLP.PLP>
-20.7230

> <Gold.PLP.part.hbond>
-5.0000

> <Gold.PLP.part.metal>
0.0000

> <Gold.PLP.part.buried>
-3.7677

> <Gold.PLP.part.nonpolar>
-15.6275

> <Gold.PLP.part.repulsive>
5.0967

> <Gold.PLP.ligand.clash>
0.0000

> <Gold.PLP.ligand.torsion>
0.2720

> <Gold.PLP.Chemscore.Hbond>
3.6503

> <Gold.PLP.Chemscore.CHOScore>
0.8695

> <Gold.PLP.Chemscore.Metal>
0.0000

> <Gold.Chemscore.Hbonds>
donor molecule, donor type, donor heavy atom, donor atom, acceptor molecule, acceptor atom, score
      L1  H     1    11       P1 10195  1.00
      L1  H     1    12       P1 10952  1.00
      L1  H     9    17       P1  7948  0.83
      P1  H  7918  7932       L1     3  0.62
      L1  C     6    15       P1 10747  0.96

> <Gold.PLP.Chemscore.Internal.Correction>
0.0001

> <Gold.Rescore>
     Score         DG    S(hbond)    S(metal)    S(lipo)     H(rot)  DE(clash)    DE(int)     intcor
     14.14     -16.13       3.54        0.00      26.65       1.67       1.71       0.29       ----

> <Gold.Chemscore.Fitness>
14.1383

> <Gold.Chemscore.DG>
-16.1329

> <Gold.Chemscore.ZeroCoef>
-5.4800

> <Gold.Chemscore.Hbond>
3.5371

> <Gold.Chemscore.Metal>
0.0000

> <Gold.Chemscore.Lipo>
26.6536

> <Gold.Chemscore.Internal_Hbond>
0.0000

> <Gold.Chemscore.DEClash>
1.7095

> <Gold.Chemscore.DEInternal>
0.2851

> <Gold.Chemscore.Rot>
1.6716

> <Gold.Chemscore.Internal.Correction>
   9.000000E+99

> <Gold.Chemscore.Hbonds>
donor molecule, donor type, donor heavy atom, donor atom, acceptor molecule, acceptor atom, score
      L1  H     1    11       P1 10195  0.97
      L1  H     1    12       P1 10952  1.00
      L1  H     9    17       P1  7948  0.78
      P1  H  7918  7932       L1     3  0.59

> <Gold.Chemscore.Hbond.Weighted>
-11.8138

> <Gold.Chemscore.Metal.Weighted>
-0.0000

> <Gold.Chemscore.Lipo.Weighted>
-3.1185

> <Gold.Chemscore.Internal_Hbond.Weighted>
0.0000

> <Gold.Chemscore.DEClash.Weighted>
1.7095

> <Gold.Chemscore.DEInternal.Weighted>
0.2851

> <Gold.Chemscore.Rot.Weighted>
4.2794

> <Gold.Chemscore.Internal.Correction.Weighted>
   9.000000E+99

> <Gold.Protein.RotatedTorsions>
[ 6907 6896 6895 6894 ] final  139.45 input  -60.11 | X-H torsion
[ 7974 7965 7964 7962 ] final    2.49 input  175.53 | X-H torsion
[ 8008 7997 7996 7995 ] final  162.85 input   59.86 | X-H torsion
[ 10167 10162 10161 10158 ] final  172.32 input  -65.29 | X-H torsion
[ 10718 10713 10712 10709 ] final  -42.72 input   66.30 | X-H torsion
[ 10763 10752 10751 10750 ] final  -28.90 input  -60.55 | X-H torsion
[ 11005 11000 10999 10996 ] final -124.73 input  -57.11 | X-H torsion

> <Gold.Protein.ActiveResidues>
 VAL166  LYS551  ARG553  GLY616  TRP617  ASP618  TYR619  PRO620  LYS621  CYS622 
 ASP623  PHE694  ASN695  SER759  ASP760  ASP761  ALA762  ILE779  LEU786  VAL792 
 PHE793  MET794  SER795  GLU796  ALA797  LYS798  CYS799  TRP800  GLU811  SER814 

> <Gold.Protein.RotatedAtoms>
  152.2548  133.5246  159.5346 H   0  0  0  0  0  0  0  0  0  0  0  0  # atno 6907 bound_to 6896
  150.7105  134.0910  159.3941 H   0  0  0  0  0  0  0  0  0  0  0  0  # atno 6908 bound_to 6896
  151.8829  135.0446  160.0541 H   0  0  0  0  0  0  0  0  0  0  0  0  # atno 6909 bound_to 6896
  146.2444  140.0828  142.8356 H   0  0  0  0  0  0  0  0  0  0  0  0  # atno 7974 bound_to 7965
  156.2000  140.1739  156.7918 H   0  0  0  0  0  0  0  0  0  0  0  0  # atno 8008 bound_to 7997
  154.5580  140.0705  156.8805 H   0  0  0  0  0  0  0  0  0  0  0  0  # atno 8009 bound_to 7997
  155.2902  140.3355  155.4255 H   0  0  0  0  0  0  0  0  0  0  0  0  # atno 8010 bound_to 7997
  139.5073  144.3387  152.0040 H   0  0  0  0  0  0  0  0  0  0  0  0  # atno 10167 bound_to 10162
  156.2566  130.4193  149.8590 H   0  0  0  0  0  0  0  0  0  0  0  0  # atno 10718 bound_to 10713
  153.7559  135.6922  153.4935 H   0  0  0  0  0  0  0  0  0  0  0  0  # atno 10763 bound_to 10752
  153.1971  135.4450  155.0220 H   0  0  0  0  0  0  0  0  0  0  0  0  # atno 10764 bound_to 10752
  154.8170  135.3404  154.7077 H   0  0  0  0  0  0  0  0  0  0  0  0  # atno 10765 bound_to 10752
  140.9818  134.0663  157.3756 H   0  0  0  0  0  0  0  0  0  0  0  0  # atno 11005 bound_to 11000
  145.0718  140.9161  143.4877 LP  0  0  0  0  0  0  0  0  0  0  0  0  # atno 17320 bound_to 7965
  145.0963  139.2854  143.5709 LP  0  0  0  0  0  0  0  0  0  0  0  0  # atno 17321 bound_to 7965
  140.2825  144.3844  150.6114 LP  0  0  0  0  0  0  0  0  0  0  0  0  # atno 17342 bound_to 10162
  140.6007  143.2167  151.7077 LP  0  0  0  0  0  0  0  0  0  0  0  0  # atno 17343 bound_to 10162
  156.6120  130.8590  151.3456 LP  0  0  0  0  0  0  0  0  0  0  0  0  # atno 17370 bound_to 10713
  157.7235  130.9590  150.1535 LP  0  0  0  0  0  0  0  0  0  0  0  0  # atno 17371 bound_to 10713
  139.8953  135.0140  156.6996 LP  0  0  0  0  0  0  0  0  0  0  0  0  # atno 17394 bound_to 11000
  140.7175  133.9169  155.8125 LP  0  0  0  0  0  0  0  0  0  0  0  0  # atno 17395 bound_to 11000

$$$$
