AV-unprocessed.smi:701|AV-procd|sdf|3409|dock3
  -GOLD-   22720 0393D 1   1.00000     0.00000
 Structure written by MMmdl.
 49 51  0  0  0  0  0  0  0  0  1 V2000
  150.5744  141.8849  156.0457 C   0  0  0  0  0  0  0  0  0  0  0  0
  151.0366  140.4871  155.6126 C   0  0  0  0  0  0  0  0  0  0  0  0
  150.4697  140.0816  154.3738 O   0  0  0  0  0  0  0  0  0  0  0  0
  149.0593  140.2259  154.2855 C   0  0  1  0  0  0  0  0  0  0  0  0
  148.4670  139.7010  152.9741 C   0  0  0  0  0  0  0  0  0  0  0  0
  147.2993  139.2053  153.8240 C   0  0  1  0  0  0  0  0  0  0  0  0
  146.7763  137.9241  153.3634 N   0  0  0  0  0  0  0  0  0  0  0  0
  146.2103  137.7230  152.1649 C   0  0  0  0  0  0  0  0  0  0  0  0
  146.0736  138.6160  151.3275 O   0  0  0  0  0  0  0  0  0  0  0  0
  145.6984  136.3023  151.8897 C   0  0  0  0  0  0  0  0  0  0  0  0
  144.4976  135.9658  152.6678 N   0  0  0  0  0  0  0  0  0  0  0  0
  143.5415  136.9355  152.9347 C   0  0  0  0  0  0  0  0  0  0  0  0
  142.4073  136.6916  153.6329 C   0  0  0  0  0  0  0  0  0  0  0  0
  142.1320  135.3559  154.1515 C   0  0  0  0  0  0  0  0  0  0  0  0
  141.1352  135.0368  154.7955 O   0  0  0  0  0  0  0  0  0  0  0  0
  143.1163  134.4076  153.8599 N   0  0  0  0  0  0  0  0  0  0  0  0
  144.2860  134.6517  153.1390 C   0  0  0  0  0  0  0  0  0  0  0  0
  145.0872  133.7407  152.9334 O   0  0  0  0  0  0  0  0  0  0  0  0
  148.2631  139.1241  155.0401 C   0  0  0  0  0  0  0  0  0  0  0  0
  148.9785  137.7667  155.2713 C   0  0  0  0  0  0  0  0  0  0  0  0
  149.9965  137.7832  156.4283 C   0  0  0  0  0  0  0  0  0  0  0  0
  149.3645  138.2868  157.7309 C   0  0  0  0  0  0  0  0  0  0  0  0
  148.6670  139.6351  157.5190 C   0  0  0  0  0  0  0  0  0  0  0  0
  147.6398  139.5470  156.3800 C   0  0  0  0  0  0  0  0  0  0  0  0
  142.9681  133.4674  154.1967 H   0  0  0  0  0  0  0  0  0  0  0  0
  151.1150  142.2105  156.9346 H   0  0  0  0  0  0  0  0  0  0  0  0
  149.5127  141.9000  156.2888 H   0  0  0  0  0  0  0  0  0  0  0  0
  150.7537  142.6186  155.2595 H   0  0  0  0  0  0  0  0  0  0  0  0
  152.1192  140.4989  155.4843 H   0  0  0  0  0  0  0  0  0  0  0  0
  150.8275  139.7491  156.3883 H   0  0  0  0  0  0  0  0  0  0  0  0
  148.7031  141.2274  154.5400 H   0  0  0  0  0  0  0  0  0  0  0  0
  148.2015  140.4694  152.2483 H   0  0  0  0  0  0  0  0  0  0  0  0
  149.0593  138.9034  152.5225 H   0  0  0  0  0  0  0  0  0  0  0  0
  146.5369  139.9796  153.9411 H   0  0  0  0  0  0  0  0  0  0  0  0
  146.8456  137.1426  153.9989 H   0  0  0  0  0  0  0  0  0  0  0  0
  145.5043  136.1771  150.8223 H   0  0  0  0  0  0  0  0  0  0  0  0
  146.5044  135.6037  152.1184 H   0  0  0  0  0  0  0  0  0  0  0  0
  143.7016  137.9386  152.5655 H   0  0  0  0  0  0  0  0  0  0  0  0
  141.6993  137.4888  153.8077 H   0  0  0  0  0  0  0  0  0  0  0  0
  148.2397  136.9941  155.4873 H   0  0  0  0  0  0  0  0  0  0  0  0
  149.4870  137.4371  154.3649 H   0  0  0  0  0  0  0  0  0  0  0  0
  150.3995  136.7812  156.5786 H   0  0  0  0  0  0  0  0  0  0  0  0
  150.8484  138.4129  156.1744 H   0  0  0  0  0  0  0  0  0  0  0  0
  148.6383  137.5563  158.0889 H   0  0  0  0  0  0  0  0  0  0  0  0
  150.1250  138.3744  158.5073 H   0  0  0  0  0  0  0  0  0  0  0  0
  148.1751  139.9460  158.4411 H   0  0  0  0  0  0  0  0  0  0  0  0
  149.4077  140.4018  157.2877 H   0  0  0  0  0  0  0  0  0  0  0  0
  147.1434  140.5126  156.2787 H   0  0  0  0  0  0  0  0  0  0  0  0
  146.8541  138.8445  156.6612 H   0  0  0  0  0  0  0  0  0  0  0  0
  1  2  1  0  0  0  0
  1 26  1  0  0  0  0
  1 27  1  0  0  0  0
  1 28  1  0  0  0  0
  2  3  1  0  0  0  0
  2 29  1  0  0  0  0
  2 30  1  0  0  0  0
  3  4  1  0  0  0  0
  4 19  1  0  0  0  0
  4  5  1  0  0  0  0
  4 31  1  0  0  0  0
  5  6  1  0  0  0  0
  5 32  1  0  0  0  0
  5 33  1  0  0  0  0
  6  7  1  0  0  0  0
  6 19  1  0  0  0  0
  6 34  1  0  0  0  0
  7  8  1  0  0  0  0
  7 35  1  0  0  0  0
  8  9  2  0  0  0  0
  8 10  1  0  0  0  0
 10 11  1  0  0  0  0
 10 36  1  0  0  0  0
 10 37  1  0  0  0  0
 11 17  1  0  0  0  0
 11 12  1  0  0  0  0
 12 13  2  0  0  0  0
 12 38  1  0  0  0  0
 13 14  1  0  0  0  0
 13 39  1  0  0  0  0
 14 15  2  0  0  0  0
 14 16  1  0  0  0  0
 16 25  1  0  0  0  0
 16 17  1  0  0  0  0
 17 18  2  0  0  0  0
 19 24  1  0  0  0  0
 19 20  1  0  0  0  0
 20 21  1  0  0  0  0
 20 40  1  0  0  0  0
 20 41  1  0  0  0  0
 21 22  1  0  0  0  0
 21 42  1  0  0  0  0
 21 43  1  0  0  0  0
 22 23  1  0  0  0  0
 22 44  1  0  0  0  0
 22 45  1  0  0  0  0
 23 24  1  0  0  0  0
 23 46  1  0  0  0  0
 23 47  1  0  0  0  0
 24 48  1  0  0  0  0
 24 49  1  0  0  0  0
M  END
> <s_m_source_file>
AV-unprocessed.smi

> <i_m_source_file_index>
701

> <i_lp_mmshare_version>
43012

> <i_f3d_flags>
0

> <s_epik_input>
W0NIMl0xW0NIMl1bQ0gyXVtDSDJdW0NIMl1DMTJbQ0BIXShPW0NIMl1bQ0gzXSlbQ0gyXVtDQEhdMltOSF1DKD1PKVtDSDJdbjNbY0hdW2NIXWMoPU8pW25IXWMzPU8=

> <s_epik_cmdline>
J2VwaWtfcHl0aG9uJywgJy1waCcsICc3LjAnLCAnLXRuJywgJzgnLCAnLW1hJywgJzIwMCcsICctbWV0YWxfYmluZGluZycsICctaW1hZScsICc8aW5maWxlLm1hZT4nLCAnLW9tYWUnLCAnPG91dGZpbGUubWFlPic=

> <r_lp_tautomer_probability>
0.999537

> <r_epik_Ionization_Penalty>
0.00304597

> <r_epik_Ionization_Penalty_Charging>
0.00304595

> <r_epik_Ionization_Penalty_Neutral>
1.88422e-08

> <r_epik_State_Penalty>
0.00214084

> <r_epik_Charging_Adjusted_Penalty>
0.00518679

> <i_epik_Tot_Q>
0

> <i_epik_Tot_abs_Q>
0

> <r_epik_Metal_State_Penalty>
0.361872

> <b_epik_Metal_Only>
0

> <s_lp_Force_Field>
OPLS_2005

> <r_lp_Energy>
28.8847

> <b_lp_Chiralities_Consistent>
1

> <s_lp_Variant>
AV-unprocessed.smi:701-2

> <Gold.Version>
5.8.1

> <Gold.Id.Protein>
6NUR|6NUR_protein|mol2

> <Gold.PLP.Fitness>
40.5956

> <Gold.PLP.PLP>
-27.1686

> <Gold.PLP.part.hbond>
-3.9788

> <Gold.PLP.part.metal>
0.0000

> <Gold.PLP.part.buried>
-0.4624

> <Gold.PLP.part.nonpolar>
-26.7456

> <Gold.PLP.part.repulsive>
3.4829

> <Gold.PLP.ligand.clash>
0.0000

> <Gold.PLP.ligand.torsion>
0.6937

> <Gold.PLP.Chemscore.Hbond>
2.9913

> <Gold.PLP.Chemscore.CHOScore>
1.8402

> <Gold.PLP.Chemscore.Metal>
0.0000

> <Gold.Chemscore.Hbonds>
donor molecule, donor type, donor heavy atom, donor atom, acceptor molecule, acceptor atom, score
      L1  H    16    25       P1 10957  1.00
      P1  H  7989  7998       L1     3  0.65
      P1  H 11000 11005       L1    15  0.54
      L1  C    12    38       P1 10171  0.24
      L1  C    12    38       P1 10175  1.00

> <Gold.PLP.Chemscore.Internal.Correction>
0.3201

> <Gold.Rescore>
     Score         DG    S(hbond)    S(metal)    S(lipo)     H(rot)  DE(clash)    DE(int)     intcor
      9.70     -14.19       2.30        0.00      54.54       2.09       3.97       0.52       ----

> <Gold.Chemscore.Fitness>
9.7034

> <Gold.Chemscore.DG>
-14.1905

> <Gold.Chemscore.ZeroCoef>
-5.4800

> <Gold.Chemscore.Hbond>
2.3018

> <Gold.Chemscore.Metal>
0.0000

> <Gold.Chemscore.Lipo>
54.5394

> <Gold.Chemscore.Internal_Hbond>
0.0000

> <Gold.Chemscore.DEClash>
3.9668

> <Gold.Chemscore.DEInternal>
0.5203

> <Gold.Chemscore.Rot>
2.0933

> <Gold.Chemscore.Internal.Correction>
   9.000000E+99

> <Gold.Chemscore.Hbonds>
donor molecule, donor type, donor heavy atom, donor atom, acceptor molecule, acceptor atom, score
      L1  H    16    25       P1 10957  1.00
      P1  H  7989  7998       L1     3  0.06
      P1  H 11000 11005       L1    15  0.54

> <Gold.Chemscore.Hbond.Weighted>
-7.6881

> <Gold.Chemscore.Metal.Weighted>
-0.0000

> <Gold.Chemscore.Lipo.Weighted>
-6.3811

> <Gold.Chemscore.Internal_Hbond.Weighted>
0.0000

> <Gold.Chemscore.DEClash.Weighted>
3.9668

> <Gold.Chemscore.DEInternal.Weighted>
0.5203

> <Gold.Chemscore.Rot.Weighted>
5.3588

> <Gold.Chemscore.Internal.Correction.Weighted>
   9.000000E+99

> <Gold.Protein.RotatedTorsions>
[ 6907 6896 6895 6894 ] final  -86.35 input  -60.11 | X-H torsion
[ 7974 7965 7964 7962 ] final  108.65 input  175.53 | X-H torsion
[ 8008 7997 7996 7995 ] final  145.48 input   59.86 | X-H torsion
[ 10167 10162 10161 10158 ] final -105.08 input  -65.29 | X-H torsion
[ 10718 10713 10712 10709 ] final  178.68 input   66.30 | X-H torsion
[ 10763 10752 10751 10750 ] final   34.39 input  -60.55 | X-H torsion
[ 11005 11000 10999 10996 ] final   20.99 input  -57.11 | X-H torsion

> <Gold.Protein.ActiveResidues>
 VAL166  LYS551  ARG553  GLY616  TRP617  ASP618  TYR619  PRO620  LYS621  CYS622 
 ASP623  PHE694  ASN695  SER759  ASP760  ASP761  ALA762  ILE779  LEU786  VAL792 
 PHE793  MET794  SER795  GLU796  ALA797  LYS798  CYS799  TRP800  GLU811  SER814 

> <Gold.Protein.RotatedAtoms>
  150.6867  134.3064  159.4727 H   0  0  0  0  0  0  0  0  0  0  0  0  # atno 6907 bound_to 6896
  152.0955  134.9375  160.0580 H   0  0  0  0  0  0  0  0  0  0  0  0  # atno 6908 bound_to 6896
  152.0675  133.4056  159.4481 H   0  0  0  0  0  0  0  0  0  0  0  0  # atno 6909 bound_to 6896
  145.2780  139.2643  143.3931 H   0  0  0  0  0  0  0  0  0  0  0  0  # atno 7974 bound_to 7965
  156.2882  140.2208  156.5222 H   0  0  0  0  0  0  0  0  0  0  0  0  # atno 8008 bound_to 7997
  154.7519  140.0480  157.0922 H   0  0  0  0  0  0  0  0  0  0  0  0  # atno 8009 bound_to 7997
  155.0099  140.3112  155.4837 H   0  0  0  0  0  0  0  0  0  0  0  0  # atno 8010 bound_to 7997
  140.2024  143.3809  152.1119 H   0  0  0  0  0  0  0  0  0  0  0  0  # atno 10167 bound_to 10162
  156.8869  130.9834  151.3054 H   0  0  0  0  0  0  0  0  0  0  0  0  # atno 10718 bound_to 10713
  153.0166  135.6362  154.1661 H   0  0  0  0  0  0  0  0  0  0  0  0  # atno 10763 bound_to 10752
  154.1399  135.2835  155.3165 H   0  0  0  0  0  0  0  0  0  0  0  0  # atno 10764 bound_to 10752
  154.6132  135.5549  153.7557 H   0  0  0  0  0  0  0  0  0  0  0  0  # atno 10765 bound_to 10752
  140.3965  134.1763  155.7663 H   0  0  0  0  0  0  0  0  0  0  0  0  # atno 11005 bound_to 11000
  146.3225  140.3240  142.8635 LP  0  0  0  0  0  0  0  0  0  0  0  0  # atno 17320 bound_to 7965
  144.9278  140.7941  143.5708 LP  0  0  0  0  0  0  0  0  0  0  0  0  # atno 17321 bound_to 7965
  139.5212  144.7043  151.5401 LP  0  0  0  0  0  0  0  0  0  0  0  0  # atno 17342 bound_to 10162
  140.6381  143.8943  150.6666 LP  0  0  0  0  0  0  0  0  0  0  0  0  # atno 17343 bound_to 10162
  157.6107  130.8580  149.8947 LP  0  0  0  0  0  0  0  0  0  0  0  0  # atno 17370 bound_to 10713
  156.0648  130.3694  150.0902 LP  0  0  0  0  0  0  0  0  0  0  0  0  # atno 17371 bound_to 10713
  141.1872  133.8286  157.1040 LP  0  0  0  0  0  0  0  0  0  0  0  0  # atno 17394 bound_to 11000
  140.0367  134.9874  157.0885 LP  0  0  0  0  0  0  0  0  0  0  0  0  # atno 17395 bound_to 11000

$$$$
