AV-unprocessed.smi:1331|AV-procd|sdf|5488|dock3
  -GOLD-   22720 5 63D 1   1.00000     0.00000
 Structure written by MMmdl.
 38 39  0  0  0  0  0  0  0  0  1 V2000
  147.1189  141.8180  155.3728 C   0  0  0  0  0  0  0  0  0  0  0  0
  148.4086  141.0350  155.6541 C   0  0  1  0  0  0  0  0  0  0  0  0
  148.9778  140.4081  154.3632 C   0  0  0  0  0  0  0  0  0  0  0  0
  150.0461  139.4591  154.6228 N   0  0  0  0  0  0  0  0  0  0  0  0
  150.0349  138.0897  154.4595 C   0  0  0  0  0  0  0  0  0  0  0  0
  151.2698  137.6284  154.8141 C   0  0  0  0  0  0  0  0  0  0  0  0
  151.9752  138.8059  155.1895 C   0  0  0  0  0  0  0  0  0  0  0  0
  151.2389  139.8996  155.0777 N   0  0  0  0  0  0  0  0  0  0  0  0
  149.3846  141.9350  156.2674 N   0  0  0  0  0  0  0  0  0  0  0  0
  150.0775  141.6944  157.3922 C   0  0  0  0  0  0  0  0  0  0  0  0
  149.9473  140.6698  158.0626 O   0  0  0  0  0  0  0  0  0  0  0  0
  151.0860  142.7703  157.8145 C   0  0  0  0  0  0  0  0  0  0  0  0
  152.0536  142.2236  158.8858 C   0  0  0  0  0  0  0  0  0  0  0  0
  153.0635  143.2963  159.3258 C   0  0  0  0  0  0  0  0  0  0  0  0
  152.3494  144.5609  159.8302 C   0  0  0  0  0  0  0  0  0  0  0  0
  151.3759  145.1085  158.7748 C   0  0  0  0  0  0  0  0  0  0  0  0
  150.3679  144.0337  158.3357 C   0  0  0  0  0  0  0  0  0  0  0  0
  146.3541  141.1710  154.9423 H   0  0  0  0  0  0  0  0  0  0  0  0
  147.2938  142.6365  154.6739 H   0  0  0  0  0  0  0  0  0  0  0  0
  146.7098  142.2435  156.2898 H   0  0  0  0  0  0  0  0  0  0  0  0
  148.1522  140.2345  156.3504 H   0  0  0  0  0  0  0  0  0  0  0  0
  148.1890  139.8862  153.8197 H   0  0  0  0  0  0  0  0  0  0  0  0
  149.3539  141.1833  153.6939 H   0  0  0  0  0  0  0  0  0  0  0  0
  149.1618  137.5653  154.1001 H   0  0  0  0  0  0  0  0  0  0  0  0
  151.6174  136.6059  154.8048 H   0  0  0  0  0  0  0  0  0  0  0  0
  152.9934  138.8980  155.5379 H   0  0  0  0  0  0  0  0  0  0  0  0
  149.5602  142.8053  155.7866 H   0  0  0  0  0  0  0  0  0  0  0  0
  151.6735  143.0524  156.9387 H   0  0  0  0  0  0  0  0  0  0  0  0
  151.4953  141.8780  159.7574 H   0  0  0  0  0  0  0  0  0  0  0  0
  152.5894  141.3552  158.5003 H   0  0  0  0  0  0  0  0  0  0  0  0
  153.7110  142.8987  160.1076 H   0  0  0  0  0  0  0  0  0  0  0  0
  153.7122  143.5526  158.4875 H   0  0  0  0  0  0  0  0  0  0  0  0
  151.8031  144.3311  160.7458 H   0  0  0  0  0  0  0  0  0  0  0  0
  153.0830  145.3243  160.0910 H   0  0  0  0  0  0  0  0  0  0  0  0
  150.8464  145.9747  159.1724 H   0  0  0  0  0  0  0  0  0  0  0  0
  151.9362  145.4601  157.9077 H   0  0  0  0  0  0  0  0  0  0  0  0
  149.7156  144.4407  157.5619 H   0  0  0  0  0  0  0  0  0  0  0  0
  149.7246  143.7809  159.1800 H   0  0  0  0  0  0  0  0  0  0  0  0
  1  2  1  0  0  0  0
  1 18  1  0  0  0  0
  1 19  1  0  0  0  0
  1 20  1  0  0  0  0
  2  3  1  0  0  0  0
  2  9  1  0  0  0  0
  2 21  1  0  0  0  0
  3  4  1  0  0  0  0
  3 22  1  0  0  0  0
  3 23  1  0  0  0  0
  4  8  1  0  0  0  0
  4  5  1  0  0  0  0
  5  6  2  0  0  0  0
  5 24  1  0  0  0  0
  6  7  1  0  0  0  0
  6 25  1  0  0  0  0
  7  8  2  0  0  0  0
  7 26  1  0  0  0  0
  9 10  1  0  0  0  0
  9 27  1  0  0  0  0
 10 11  2  0  0  0  0
 10 12  1  0  0  0  0
 12 17  1  0  0  0  0
 12 13  1  0  0  0  0
 12 28  1  0  0  0  0
 13 14  1  0  0  0  0
 13 29  1  0  0  0  0
 13 30  1  0  0  0  0
 14 15  1  0  0  0  0
 14 31  1  0  0  0  0
 14 32  1  0  0  0  0
 15 16  1  0  0  0  0
 15 33  1  0  0  0  0
 15 34  1  0  0  0  0
 16 17  1  0  0  0  0
 16 35  1  0  0  0  0
 16 36  1  0  0  0  0
 17 37  1  0  0  0  0
 17 38  1  0  0  0  0
M  END
> <s_m_source_file>
AV-unprocessed.smi

> <i_m_source_file_index>
1331

> <i_lp_mmshare_version>
43012

> <i_f3d_flags>
0

> <s_epik_input>
bjFbY0hdW2NIXVtjSF1uMVtDSDJdW0NAQEhdKFtDSDNdKVtOSF1DKD1PKVtDSF0yW0NIMl1bQ0gyXVtDSDJdW0NIMl1bQ0gyXTI=

> <s_epik_cmdline>
J2VwaWtfcHl0aG9uJywgJy1waCcsICc3LjAnLCAnLXRuJywgJzgnLCAnLW1hJywgJzIwMCcsICctbWV0YWxfYmluZGluZycsICctaW1hZScsICc8aW5maWxlLm1hZT4nLCAnLW9tYWUnLCAnPG91dGZpbGUubWFlPic=

> <r_lp_tautomer_probability>
1

> <r_epik_Ionization_Penalty>
0.000326658

> <r_epik_Ionization_Penalty_Charging>
0

> <r_epik_Ionization_Penalty_Neutral>
0.000326658

> <r_epik_State_Penalty>
-0

> <r_epik_Charging_Adjusted_Penalty>
0

> <i_epik_Tot_Q>
0

> <i_epik_Tot_abs_Q>
0

> <r_epik_Metal_State_Penalty>
-0

> <b_epik_Metal_Only>
0

> <s_lp_Force_Field>
OPLS_2005

> <r_lp_Energy>
10.1956

> <b_lp_Chiralities_Consistent>
1

> <s_lp_Variant>
AV-unprocessed.smi:1331-2

> <Gold.Version>
5.8.1

> <Gold.Id.Protein>
6NUR|6NUR_protein|mol2

> <Gold.PLP.Fitness>
46.4766

> <Gold.PLP.PLP>
-39.0611

> <Gold.PLP.part.hbond>
-2.0000

> <Gold.PLP.part.metal>
0.0000

> <Gold.PLP.part.buried>
-4.5527

> <Gold.PLP.part.nonpolar>
-33.8220

> <Gold.PLP.part.repulsive>
0.1154

> <Gold.PLP.ligand.clash>
0.0000

> <Gold.PLP.ligand.torsion>
0.5290

> <Gold.PLP.Chemscore.Hbond>
1.8500

> <Gold.PLP.Chemscore.CHOScore>
0.9622

> <Gold.PLP.Chemscore.Metal>
0.0000

> <Gold.Chemscore.Hbonds>
donor molecule, donor type, donor heavy atom, donor atom, acceptor molecule, acceptor atom, score
      L1  H     9    27       P1  8028  0.82
      P1  H  7989  7998       L1     8  0.70
      L1  C     5    24       P1  7948  0.77

> <Gold.PLP.Chemscore.Internal.Correction>
0.0370

> <Gold.Rescore>
     Score         DG    S(hbond)    S(metal)    S(lipo)     H(rot)  DE(clash)    DE(int)     intcor
     19.16     -19.89       1.94        0.00     100.47       1.49       0.00       0.73       ----

> <Gold.Chemscore.Fitness>
19.1552

> <Gold.Chemscore.DG>
-19.8912

> <Gold.Chemscore.ZeroCoef>
-5.4800

> <Gold.Chemscore.Hbond>
1.9376

> <Gold.Chemscore.Metal>
0.0000

> <Gold.Chemscore.Lipo>
100.4672

> <Gold.Chemscore.Internal_Hbond>
0.0000

> <Gold.Chemscore.DEClash>
0.0015

> <Gold.Chemscore.DEInternal>
0.7346

> <Gold.Chemscore.Rot>
1.4902

> <Gold.Chemscore.Internal.Correction>
   9.000000E+99

> <Gold.Chemscore.Hbonds>
donor molecule, donor type, donor heavy atom, donor atom, acceptor molecule, acceptor atom, score
      L1  H     9    27       P1  8028  0.77
      P1  H  7989  7998       L1     8  0.06

> <Gold.Chemscore.Hbond.Weighted>
-6.4714

> <Gold.Chemscore.Metal.Weighted>
-0.0000

> <Gold.Chemscore.Lipo.Weighted>
-11.7547

> <Gold.Chemscore.Internal_Hbond.Weighted>
0.0000

> <Gold.Chemscore.DEClash.Weighted>
0.0015

> <Gold.Chemscore.DEInternal.Weighted>
0.7346

> <Gold.Chemscore.Rot.Weighted>
3.8149

> <Gold.Chemscore.Internal.Correction.Weighted>
   9.000000E+99

> <Gold.Protein.RotatedTorsions>
[ 6907 6896 6895 6894 ] final  152.90 input  -60.11 | X-H torsion
[ 7974 7965 7964 7962 ] final  -76.99 input  175.53 | X-H torsion
[ 8008 7997 7996 7995 ] final  152.90 input   59.86 | X-H torsion
[ 10167 10162 10161 10158 ] final   49.90 input  -65.29 | X-H torsion
[ 10718 10713 10712 10709 ] final   67.30 input   66.30 | X-H torsion
[ 10763 10752 10751 10750 ] final   38.93 input  -60.55 | X-H torsion
[ 11005 11000 10999 10996 ] final   85.06 input  -57.11 | X-H torsion

> <Gold.Protein.ActiveResidues>
 VAL166  LYS551  ARG553  GLY616  TRP617  ASP618  TYR619  PRO620  LYS621  CYS622 
 ASP623  PHE694  ASN695  SER759  ASP760  ASP761  ALA762  ILE779  LEU786  VAL792 
 PHE793  MET794  SER795  GLU796  ALA797  LYS798  CYS799  TRP800  GLU811  SER814 

> <Gold.Protein.RotatedAtoms>
  152.0803  133.4149  159.4497 H   0  0  0  0  0  0  0  0  0  0  0  0  # atno 6907 bound_to 6896
  150.6862  134.2990  159.4707 H   0  0  0  0  0  0  0  0  0  0  0  0  # atno 6908 bound_to 6896
  152.0831  134.9457  160.0624 H   0  0  0  0  0  0  0  0  0  0  0  0  # atno 6909 bound_to 6896
  145.6056  140.9399  143.1217 H   0  0  0  0  0  0  0  0  0  0  0  0  # atno 7974 bound_to 7965
  156.2607  140.2008  156.6406 H   0  0  0  0  0  0  0  0  0  0  0  0  # atno 8008 bound_to 7997
  154.6612  140.0560  157.0089 H   0  0  0  0  0  0  0  0  0  0  0  0  # atno 8009 bound_to 7997
  155.1273  140.3230  155.4485 H   0  0  0  0  0  0  0  0  0  0  0  0  # atno 8010 bound_to 7997
  140.2780  144.3189  150.6272 H   0  0  0  0  0  0  0  0  0  0  0  0  # atno 10167 bound_to 10162
  157.6222  130.9314  150.0225 H   0  0  0  0  0  0  0  0  0  0  0  0  # atno 10718 bound_to 10713
  152.9984  135.6235  154.2383 H   0  0  0  0  0  0  0  0  0  0  0  0  # atno 10763 bound_to 10752
  154.2124  135.2799  155.2955 H   0  0  0  0  0  0  0  0  0  0  0  0  # atno 10764 bound_to 10752
  154.5595  135.5709  153.7053 H   0  0  0  0  0  0  0  0  0  0  0  0  # atno 10765 bound_to 10752
  139.8982  134.8260  156.2530 H   0  0  0  0  0  0  0  0  0  0  0  0  # atno 11005 bound_to 11000
  144.7291  139.7780  143.7354 LP  0  0  0  0  0  0  0  0  0  0  0  0  # atno 17320 bound_to 7965
  146.1543  139.4636  143.0028 LP  0  0  0  0  0  0  0  0  0  0  0  0  # atno 17321 bound_to 7965
  140.5835  143.2171  151.7385 LP  0  0  0  0  0  0  0  0  0  0  0  0  # atno 17342 bound_to 10162
  139.4970  144.4045  152.0146 LP  0  0  0  0  0  0  0  0  0  0  0  0  # atno 17343 bound_to 10162
  156.1374  130.3642  149.9636 LP  0  0  0  0  0  0  0  0  0  0  0  0  # atno 17370 bound_to 10713
  156.7684  130.9177  151.3643 LP  0  0  0  0  0  0  0  0  0  0  0  0  # atno 17371 bound_to 10713
  141.0212  133.7040  156.1271 LP  0  0  0  0  0  0  0  0  0  0  0  0  # atno 17394 bound_to 11000
  140.7231  134.4336  157.5573 LP  0  0  0  0  0  0  0  0  0  0  0  0  # atno 17395 bound_to 11000

$$$$
