AV-unprocessed.smi:1252|AV-procd|sdf|5267|dock2
  -GOLD-   22720 4383D 1   1.00000     0.00000
 Structure written by MMmdl.
 44 45  0  0  0  0  0  0  0  0  2 V2000
  152.9008  137.5356  154.2798 C   0  0  0  0  0  0  0  0  0  0  0  0
  151.3633  137.4350  154.2159 C   0  0  1  0  0  0  0  0  0  0  0  0
  150.8407  136.1027  154.7743 C   0  0  0  0  0  0  0  0  0  0  0  0
  151.1592  135.7280  155.9034 O   0  0  0  0  0  0  0  0  0  0  0  0
  150.0368  135.3929  153.9660 N   0  0  0  0  0  0  0  0  0  0  0  0
  149.4165  134.1096  154.2931 C   0  0  0  0  0  0  0  0  0  0  0  0
  147.8632  134.1792  154.4096 C   0  0  0  0  0  0  0  0  0  0  0  0
  147.3580  133.0418  155.3327 C   0  0  0  0  0  0  0  0  0  0  0  0
  147.4266  135.5038  155.0846 C   0  0  0  0  0  0  0  0  0  0  0  0
  147.2062  134.0713  153.0568 N   0  3  0  0  0  0  0  0  0  0  0  0
  147.4572  132.8036  152.3132 C   0  0  0  0  0  0  0  0  0  0  0  0
  146.8990  132.8953  150.8835 C   0  0  0  0  0  0  0  0  0  0  0  0
  145.5084  133.1801  150.9315 O   0  0  0  0  0  0  0  0  0  0  0  0
  145.2508  134.4290  151.5569 C   0  0  0  0  0  0  0  0  0  0  0  0
  145.7519  134.3953  153.0107 C   0  0  0  0  0  0  0  0  0  0  0  0
  150.7071  138.5515  154.8849 N   0  0  0  0  0  0  0  0  0  0  0  0
  149.8837  138.5563  155.9356 C   0  0  0  0  0  0  0  0  0  0  0  0
  149.5031  139.7674  156.3169 N   0  0  0  0  0  0  0  0  0  0  0  0
  150.1848  140.5190  155.4022 C   0  0  0  0  0  0  0  0  0  0  0  0
  150.9300  139.8416  154.5291 N   0  0  0  0  0  0  0  0  0  0  0  0
  153.3702  136.7277  153.7175 H   0  0  0  0  0  0  0  0  0  0  0  0
  153.2747  137.4854  155.3033 H   0  0  0  0  0  0  0  0  0  0  0  0
  153.2463  138.4760  153.8495 H   0  0  0  0  0  0  0  0  0  0  0  0
  151.0825  137.4856  153.1624 H   0  0  0  0  0  0  0  0  0  0  0  0
  149.8279  135.7770  153.0558 H   0  0  0  0  0  0  0  0  0  0  0  0
  149.7228  133.3614  153.5616 H   0  0  0  0  0  0  0  0  0  0  0  0
  149.8543  133.7935  155.2393 H   0  0  0  0  0  0  0  0  0  0  0  0
  147.6509  133.2040  156.3706 H   0  0  0  0  0  0  0  0  0  0  0  0
  147.7643  132.0697  155.0536 H   0  0  0  0  0  0  0  0  0  0  0  0
  146.2699  132.9693  155.3165 H   0  0  0  0  0  0  0  0  0  0  0  0
  147.6966  135.5292  156.1408 H   0  0  0  0  0  0  0  0  0  0  0  0
  146.3459  135.6406  155.0307 H   0  0  0  0  0  0  0  0  0  0  0  0
  147.8988  136.3752  154.6315 H   0  0  0  0  0  0  0  0  0  0  0  0
  148.5204  132.5833  152.2412 H   0  0  0  0  0  0  0  0  0  0  0  0
  146.9879  131.9641  152.8261 H   0  0  0  0  0  0  0  0  0  0  0  0
  147.4225  133.6606  150.3079 H   0  0  0  0  0  0  0  0  0  0  0  0
  147.0463  131.9492  150.3621 H   0  0  0  0  0  0  0  0  0  0  0  0
  145.7278  135.2360  150.9985 H   0  0  0  0  0  0  0  0  0  0  0  0
  144.1773  134.6184  151.5341 H   0  0  0  0  0  0  0  0  0  0  0  0
  145.1814  133.6547  153.5718 H   0  0  0  0  0  0  0  0  0  0  0  0
  145.5421  135.3670  153.4534 H   0  0  0  0  0  0  0  0  0  0  0  0
  149.5582  137.6549  156.4340 H   0  0  0  0  0  0  0  0  0  0  0  0
  150.1348  141.5977  155.3825 H   0  0  0  0  0  0  0  0  0  0  0  0
  147.6506  134.7907  152.5043 H   0  0  0  0  0  0  0  0  0  0  0  0
  1  2  1  0  0  0  0
  1 21  1  0  0  0  0
  1 22  1  0  0  0  0
  1 23  1  0  0  0  0
  2  3  1  0  0  0  0
  2 16  1  0  0  0  0
  2 24  1  0  0  0  0
  3  4  2  0  0  0  0
  3  5  1  0  0  0  0
  5  6  1  0  0  0  0
  5 25  1  0  0  0  0
  6  7  1  0  0  0  0
  6 26  1  0  0  0  0
  6 27  1  0  0  0  0
  7  8  1  0  0  0  0
  7  9  1  0  0  0  0
  7 10  1  0  0  0  0
  8 28  1  0  0  0  0
  8 29  1  0  0  0  0
  8 30  1  0  0  0  0
  9 31  1  0  0  0  0
  9 32  1  0  0  0  0
  9 33  1  0  0  0  0
 10 15  1  0  0  0  0
 10 11  1  0  0  0  0
 10 44  1  0  0  0  0
 11 12  1  0  0  0  0
 11 34  1  0  0  0  0
 11 35  1  0  0  0  0
 12 13  1  0  0  0  0
 12 36  1  0  0  0  0
 12 37  1  0  0  0  0
 13 14  1  0  0  0  0
 14 15  1  0  0  0  0
 14 38  1  0  0  0  0
 14 39  1  0  0  0  0
 15 40  1  0  0  0  0
 15 41  1  0  0  0  0
 16 20  1  0  0  0  0
 16 17  1  0  0  0  0
 17 18  2  0  0  0  0
 17 42  1  0  0  0  0
 18 19  1  0  0  0  0
 19 20  2  0  0  0  0
 19 43  1  0  0  0  0
M  CHG  1  10   1
M  END
> <s_m_source_file>
AV-unprocessed.smi

> <i_m_source_file_index>
1252

> <i_lp_mmshare_version>
43012

> <i_f3d_flags>
0

> <s_epik_input>
bjFbY0hdbltjSF1uMVtDQEhdKFtDSDNdKUMoPU8pW05IXVtDSDJdQyhbQ0gzXSkoW0NIM10pTjJbQ0gyXVtDSDJdT1tDSDJdW0NIMl0y

> <s_epik_cmdline>
J2VwaWtfcHl0aG9uJywgJy1waCcsICc3LjAnLCAnLXRuJywgJzgnLCAnLW1hJywgJzIwMCcsICctbWV0YWxfYmluZGluZycsICctaW1hZScsICc8aW5maWxlLm1hZT4nLCAnLW9tYWUnLCAnPG91dGZpbGUubWFlPic=

> <r_lp_tautomer_probability>
1

> <r_epik_Ionization_Penalty>
0.71326

> <r_epik_Ionization_Penalty_Charging>
0.713252

> <r_epik_Ionization_Penalty_Neutral>
8.22342e-06

> <r_epik_State_Penalty>
0.737017

> <r_epik_Charging_Adjusted_Penalty>
1.45027

> <i_epik_Tot_Q>
1

> <i_epik_Tot_abs_Q>
1

> <r_epik_Metal_State_Penalty>
0.73702

> <b_epik_Metal_Only>
0

> <s_lp_Force_Field>
OPLS_2005

> <r_lp_Energy>
31.3962

> <b_lp_Chiralities_Consistent>
1

> <s_lp_Variant>
AV-unprocessed.smi:1252-4

> <Gold.Version>
5.8.1

> <Gold.Id.Protein>
6NUR|6NUR_protein|mol2

> <Gold.PLP.Fitness>
40.4780

> <Gold.PLP.PLP>
-26.7696

> <Gold.PLP.part.hbond>
-3.7674

> <Gold.PLP.part.metal>
0.0000

> <Gold.PLP.part.buried>
-2.0711

> <Gold.PLP.part.nonpolar>
-21.2003

> <Gold.PLP.part.repulsive>
0.3288

> <Gold.PLP.ligand.clash>
0.0000

> <Gold.PLP.ligand.torsion>
0.7146

> <Gold.PLP.Chemscore.Hbond>
3.9600

> <Gold.PLP.Chemscore.CHOScore>
1.0000

> <Gold.PLP.Chemscore.Metal>
0.0000

> <Gold.Chemscore.Hbonds>
donor molecule, donor type, donor heavy atom, donor atom, acceptor molecule, acceptor atom, score
      L1  H     5    25       P1  7948  0.18
      L1  H    10    44       P1  7948  2.00
      P1  H  7989  7998       L1    20  1.00
      P1  H 10752 10765       L1     4  0.10

> <Gold.PLP.Chemscore.Internal.Correction>
0.2576

> <Gold.Rescore>
     Score         DG    S(hbond)    S(metal)    S(lipo)     H(rot)  DE(clash)    DE(int)     intcor
     12.11     -12.88       2.63        0.00      44.60       2.59       0.01       0.75       ----

> <Gold.Chemscore.Fitness>
12.1101

> <Gold.Chemscore.DG>
-12.8760

> <Gold.Chemscore.ZeroCoef>
-5.4800

> <Gold.Chemscore.Hbond>
2.6344

> <Gold.Chemscore.Metal>
0.0000

> <Gold.Chemscore.Lipo>
44.6004

> <Gold.Chemscore.Internal_Hbond>
0.0000

> <Gold.Chemscore.DEClash>
0.0130

> <Gold.Chemscore.DEInternal>
0.7528

> <Gold.Chemscore.Rot>
2.5864

> <Gold.Chemscore.Internal.Correction>
   9.000000E+99

> <Gold.Chemscore.Hbonds>
donor molecule, donor type, donor heavy atom, donor atom, acceptor molecule, acceptor atom, score
      L1  H    10    44       P1  7948  0.86
      P1  H  7989  7998       L1    20  0.74

> <Gold.Chemscore.Hbond.Weighted>
-8.7989

> <Gold.Chemscore.Metal.Weighted>
-0.0000

> <Gold.Chemscore.Lipo.Weighted>
-5.2182

> <Gold.Chemscore.Internal_Hbond.Weighted>
0.0000

> <Gold.Chemscore.DEClash.Weighted>
0.0130

> <Gold.Chemscore.DEInternal.Weighted>
0.7528

> <Gold.Chemscore.Rot.Weighted>
6.6211

> <Gold.Chemscore.Internal.Correction.Weighted>
   9.000000E+99

> <Gold.Protein.RotatedTorsions>
[ 6907 6896 6895 6894 ] final    8.53 input  -60.11 | X-H torsion
[ 7974 7965 7964 7962 ] final  136.65 input  175.53 | X-H torsion
[ 8008 7997 7996 7995 ] final   79.55 input   59.86 | X-H torsion
[ 10167 10162 10161 10158 ] final   91.74 input  -65.29 | X-H torsion
[ 10718 10713 10712 10709 ] final  -30.39 input   66.30 | X-H torsion
[ 10763 10752 10751 10750 ] final -154.34 input  -60.55 | X-H torsion
[ 11005 11000 10999 10996 ] final   62.61 input  -57.11 | X-H torsion

> <Gold.Protein.ActiveResidues>
 VAL166  LYS551  ARG553  GLY616  TRP617  ASP618  TYR619  PRO620  LYS621  CYS622 
 ASP623  PHE694  ASN695  SER759  ASP760  ASP761  ALA762  ILE779  LEU786  VAL792 
 PHE793  MET794  SER795  GLU796  ALA797  LYS798  CYS799  TRP800  GLU811  SER814 

> <Gold.Protein.RotatedAtoms>
  151.7076  135.0918  160.0261 H   0  0  0  0  0  0  0  0  0  0  0  0  # atno 6907 bound_to 6896
  152.3682  133.6379  159.6075 H   0  0  0  0  0  0  0  0  0  0  0  0  # atno 6908 bound_to 6896
  150.7653  133.9230  159.3445 H   0  0  0  0  0  0  0  0  0  0  0  0  # atno 6909 bound_to 6896
  144.9544  139.4781  143.5510 H   0  0  0  0  0  0  0  0  0  0  0  0  # atno 7974 bound_to 7965
  155.8713  140.3449  155.5823 H   0  0  0  0  0  0  0  0  0  0  0  0  # atno 8008 bound_to 7997
  155.7824  140.0860  157.2071 H   0  0  0  0  0  0  0  0  0  0  0  0  # atno 8009 bound_to 7997
  154.4017  140.1498  156.3055 H   0  0  0  0  0  0  0  0  0  0  0  0  # atno 8010 bound_to 7997
  139.8345  144.6671  150.9359 H   0  0  0  0  0  0  0  0  0  0  0  0  # atno 10167 bound_to 10162
  156.4004  130.4389  149.7327 H   0  0  0  0  0  0  0  0  0  0  0  0  # atno 10718 bound_to 10713
  154.7865  135.3192  154.7873 H   0  0  0  0  0  0  0  0  0  0  0  0  # atno 10763 bound_to 10752
  153.8572  135.6857  153.4790 H   0  0  0  0  0  0  0  0  0  0  0  0  # atno 10764 bound_to 10752
  153.1519  135.4696  154.9588 H   0  0  0  0  0  0  0  0  0  0  0  0  # atno 10765 bound_to 10752
  140.0080  134.6339  155.9824 H   0  0  0  0  0  0  0  0  0  0  0  0  # atno 11005 bound_to 11000
  146.3332  139.8652  142.8849 LP  0  0  0  0  0  0  0  0  0  0  0  0  # atno 17320 bound_to 7965
  145.2794  141.0134  143.3726 LP  0  0  0  0  0  0  0  0  0  0  0  0  # atno 17321 bound_to 7965
  140.7804  143.3970  151.1213 LP  0  0  0  0  0  0  0  0  0  0  0  0  # atno 17342 bound_to 10162
  139.7621  143.8619  152.3102 LP  0  0  0  0  0  0  0  0  0  0  0  0  # atno 17343 bound_to 10162
  156.4345  130.7831  151.2851 LP  0  0  0  0  0  0  0  0  0  0  0  0  # atno 17370 bound_to 10713
  157.7503  131.0144  150.3462 LP  0  0  0  0  0  0  0  0  0  0  0  0  # atno 17371 bound_to 10713
  141.1691  133.6537  156.4586 LP  0  0  0  0  0  0  0  0  0  0  0  0  # atno 17394 bound_to 11000
  140.4605  134.6845  157.5083 LP  0  0  0  0  0  0  0  0  0  0  0  0  # atno 17395 bound_to 11000

$$$$
