AV-unprocessed.smi:3278|AV-procd|sdf|12544|dock1
  -GOLD-   2272018463D 1   1.00000     0.00000
 Structure written by MMmdl.
 38 39  0  0  0  0  0  0  0  0  1 V2000
  145.5976  143.0174  154.5257 C   0  0  0  0  0  0  0  0  0  0  0  0
  146.7845  142.1899  154.4875 N   0  0  0  0  0  0  0  0  0  0  0  0
  147.7829  142.0732  155.4297 C   0  0  0  0  0  0  0  0  0  0  0  0
  148.6978  141.1732  154.9567 C   0  0  0  0  0  0  0  0  0  0  0  0
  149.9794  140.6997  155.6103 C   0  0  1  0  0  0  0  0  0  0  0  0
  149.6483  139.8892  156.8750 C   0  0  0  0  0  0  0  0  0  0  0  0
  150.7129  139.8204  154.7779 O   0  0  0  0  0  0  0  0  0  0  0  0
  150.9132  141.8775  155.9683 C   0  0  0  0  0  0  0  0  0  0  0  0
  150.2979  142.7970  156.9301 N   0  0  0  0  0  0  0  0  0  0  0  0
  151.1954  143.3636  157.9405 C   0  0  2  0  0  0  0  0  0  0  0  0
  151.7832  142.2141  158.7825 C   0  0  0  0  0  0  0  0  0  0  0  0
  152.8264  142.6905  159.8049 C   0  0  0  0  0  0  0  0  0  0  0  0
  152.2332  143.6647  160.8301 C   0  0  0  0  0  0  0  0  0  0  0  0
  151.6195  145.1648  160.0209 S   0  0  0  0  0  0  0  0  0  0  0  0
  150.4779  144.3959  158.8386 C   0  0  0  0  0  0  0  0  0  0  0  0
  148.1532  140.7938  153.6943 C   0  0  0  0  0  0  0  0  0  0  0  0
  147.0113  141.4022  153.4175 N   0  0  0  0  0  0  0  0  0  0  0  0
  145.5086  143.4991  155.4998 H   0  0  0  0  0  0  0  0  0  0  0  0
  144.7126  142.4047  154.3517 H   0  0  0  0  0  0  0  0  0  0  0  0
  145.6596  143.7854  153.7542 H   0  0  0  0  0  0  0  0  0  0  0  0
  147.7633  142.6357  156.3514 H   0  0  0  0  0  0  0  0  0  0  0  0
  149.1055  140.4929  157.6031 H   0  0  0  0  0  0  0  0  0  0  0  0
  150.5521  139.5236  157.3643 H   0  0  0  0  0  0  0  0  0  0  0  0
  149.0277  139.0235  156.6396 H   0  0  0  0  0  0  0  0  0  0  0  0
  150.1711  139.0716  154.5811 H   0  0  0  0  0  0  0  0  0  0  0  0
  151.8373  141.4848  156.3944 H   0  0  0  0  0  0  0  0  0  0  0  0
  151.1943  142.3990  155.0539 H   0  0  0  0  0  0  0  0  0  0  0  0
  149.8250  143.5428  156.4296 H   0  0  0  0  0  0  0  0  0  0  0  0
  152.0201  143.8638  157.4308 H   0  0  0  0  0  0  0  0  0  0  0  0
  150.9827  141.6823  159.2991 H   0  0  0  0  0  0  0  0  0  0  0  0
  152.2531  141.4852  158.1207 H   0  0  0  0  0  0  0  0  0  0  0  0
  153.2363  141.8261  160.3276 H   0  0  0  0  0  0  0  0  0  0  0  0
  153.6636  143.1611  159.2884 H   0  0  0  0  0  0  0  0  0  0  0  0
  151.4152  143.1929  161.3756 H   0  0  0  0  0  0  0  0  0  0  0  0
  152.9878  143.9470  161.5644 H   0  0  0  0  0  0  0  0  0  0  0  0
  150.0438  145.2041  158.2521 H   0  0  0  0  0  0  0  0  0  0  0  0
  149.6620  143.9250  159.3884 H   0  0  0  0  0  0  0  0  0  0  0  0
  148.5540  140.0969  152.9730 H   0  0  0  0  0  0  0  0  0  0  0  0
  1  2  1  0  0  0  0
  1 18  1  0  0  0  0
  1 19  1  0  0  0  0
  1 20  1  0  0  0  0
  2 17  1  0  0  0  0
  2  3  1  0  0  0  0
  3  4  2  0  0  0  0
  3 21  1  0  0  0  0
  4  5  1  0  0  0  0
  4 16  1  0  0  0  0
  5  6  1  0  0  0  0
  5  7  1  0  0  0  0
  5  8  1  0  0  0  0
  6 22  1  0  0  0  0
  6 23  1  0  0  0  0
  6 24  1  0  0  0  0
  7 25  1  0  0  0  0
  8  9  1  0  0  0  0
  8 26  1  0  0  0  0
  8 27  1  0  0  0  0
  9 10  1  0  0  0  0
  9 28  1  0  0  0  0
 10 15  1  0  0  0  0
 10 11  1  0  0  0  0
 10 29  1  0  0  0  0
 11 12  1  0  0  0  0
 11 30  1  0  0  0  0
 11 31  1  0  0  0  0
 12 13  1  0  0  0  0
 12 32  1  0  0  0  0
 12 33  1  0  0  0  0
 13 14  1  0  0  0  0
 13 34  1  0  0  0  0
 13 35  1  0  0  0  0
 14 15  1  0  0  0  0
 15 36  1  0  0  0  0
 15 37  1  0  0  0  0
 16 17  2  0  0  0  0
 16 38  1  0  0  0  0
M  END
> <s_m_source_file>
AV-unprocessed.smi

> <i_m_source_file_index>
3278

> <i_lp_mmshare_version>
43012

> <i_f3d_flags>
0

> <s_epik_input>
W0NIM11uMVtjSF1jKFtjSF1uMSlbQ0BAXShbQ0gzXSkoW09IXSlbQ0gyXVtOSF1bQ0BASF0yW0NIMl1bQ0gyXVtDSDJdU1tDSDJdMg==

> <s_epik_cmdline>
J2VwaWtfcHl0aG9uJywgJy1waCcsICc3LjAnLCAnLXRuJywgJzgnLCAnLW1hJywgJzIwMCcsICctbWV0YWxfYmluZGluZycsICctaW1hZScsICc8aW5maWxlLm1hZT4nLCAnLW9tYWUnLCAnPG91dGZpbGUubWFlPic=

> <r_lp_tautomer_probability>
1

> <r_epik_Ionization_Penalty>
2.06123

> <r_epik_Ionization_Penalty_Charging>
0

> <r_epik_Ionization_Penalty_Neutral>
2.06123

> <r_epik_State_Penalty>
2.1944

> <r_epik_Charging_Adjusted_Penalty>
2.1944

> <i_epik_Tot_Q>
0

> <i_epik_Tot_abs_Q>
0

> <r_epik_Metal_State_Penalty>
2.19434

> <b_epik_Metal_Only>
0

> <s_lp_Force_Field>
OPLS_2005

> <r_lp_Energy>
12.429

> <b_lp_Chiralities_Consistent>
1

> <s_lp_Variant>
AV-unprocessed.smi:3278-5

> <Gold.Version>
5.8.1

> <Gold.Id.Protein>
6NUR|6NUR_protein|mol2

> <Gold.PLP.Fitness>
47.2012

> <Gold.PLP.PLP>
-37.3860

> <Gold.PLP.part.hbond>
-2.0000

> <Gold.PLP.part.metal>
0.0000

> <Gold.PLP.part.buried>
-1.7979

> <Gold.PLP.part.nonpolar>
-32.7821

> <Gold.PLP.part.repulsive>
0.1894

> <Gold.PLP.ligand.clash>
0.0000

> <Gold.PLP.ligand.torsion>
0.3462

> <Gold.PLP.Chemscore.Hbond>
2.0000

> <Gold.PLP.Chemscore.CHOScore>
1.4904

> <Gold.PLP.Chemscore.Metal>
0.0000

> <Gold.Chemscore.Hbonds>
donor molecule, donor type, donor heavy atom, donor atom, acceptor molecule, acceptor atom, score
      L1  H     9    28       P1  8028  1.00
      P1  H  7989  7998       L1     7  1.00
      L1  C     3    21       P1  8028  0.43
      L1  C    16    38       P1  7957  1.00

> <Gold.PLP.Chemscore.Internal.Correction>
0.0367

> <Gold.Rescore>
     Score         DG    S(hbond)    S(metal)    S(lipo)     H(rot)  DE(clash)    DE(int)     intcor
     18.85     -19.48       1.97        0.00     105.63       1.93       0.05       0.58       ----

> <Gold.Chemscore.Fitness>
18.8462

> <Gold.Chemscore.DG>
-19.4816

> <Gold.Chemscore.ZeroCoef>
-5.4800

> <Gold.Chemscore.Hbond>
1.9735

> <Gold.Chemscore.Metal>
0.0000

> <Gold.Chemscore.Lipo>
105.6264

> <Gold.Chemscore.Internal_Hbond>
0.0000

> <Gold.Chemscore.DEClash>
0.0505

> <Gold.Chemscore.DEInternal>
0.5849

> <Gold.Chemscore.Rot>
1.9329

> <Gold.Chemscore.Internal.Correction>
   9.000000E+99

> <Gold.Chemscore.Hbonds>
donor molecule, donor type, donor heavy atom, donor atom, acceptor molecule, acceptor atom, score
      L1  H     9    28       P1  8028  1.00
      P1  H  7989  7998       L1     7  0.65

> <Gold.Chemscore.Hbond.Weighted>
-6.5916

> <Gold.Chemscore.Metal.Weighted>
-0.0000

> <Gold.Chemscore.Lipo.Weighted>
-12.3583

> <Gold.Chemscore.Internal_Hbond.Weighted>
0.0000

> <Gold.Chemscore.DEClash.Weighted>
0.0505

> <Gold.Chemscore.DEInternal.Weighted>
0.5849

> <Gold.Chemscore.Rot.Weighted>
4.9483

> <Gold.Chemscore.Internal.Correction.Weighted>
   9.000000E+99

> <Gold.Protein.RotatedTorsions>
[ 6907 6896 6895 6894 ] final  -26.81 input  -60.11 | X-H torsion
[ 7974 7965 7964 7962 ] final   54.68 input  175.53 | X-H torsion
[ 8008 7997 7996 7995 ] final  173.51 input   59.86 | X-H torsion
[ 10167 10162 10161 10158 ] final  -39.24 input  -65.29 | X-H torsion
[ 10718 10713 10712 10709 ] final   31.03 input   66.30 | X-H torsion
[ 10763 10752 10751 10750 ] final -151.08 input  -60.55 | X-H torsion
[ 11005 11000 10999 10996 ] final  156.31 input  -57.11 | X-H torsion

> <Gold.Protein.ActiveResidues>
 VAL166  LYS551  ARG553  GLY616  TRP617  ASP618  TYR619  PRO620  LYS621  CYS622 
 ASP623  PHE694  ASN695  SER759  ASP760  ASP761  ALA762  ILE779  LEU786  VAL792 
 PHE793  MET794  SER795  GLU796  ALA797  LYS798  CYS799  TRP800  GLU811  SER814 

> <Gold.Protein.RotatedAtoms>
  151.1558  135.0249  159.8688 H   0  0  0  0  0  0  0  0  0  0  0  0  # atno 6907 bound_to 6896
  152.5452  134.1336  159.8459 H   0  0  0  0  0  0  0  0  0  0  0  0  # atno 6908 bound_to 6896
  151.1426  133.4915  159.2629 H   0  0  0  0  0  0  0  0  0  0  0  0  # atno 6909 bound_to 6896
  145.9584  139.4036  143.0263 H   0  0  0  0  0  0  0  0  0  0  0  0  # atno 7974 bound_to 7965
  156.1068  140.1458  156.9393 H   0  0  0  0  0  0  0  0  0  0  0  0  # atno 8008 bound_to 7997
  154.4739  140.0901  156.7258 H   0  0  0  0  0  0  0  0  0  0  0  0  # atno 8009 bound_to 7997
  155.4665  140.3440  155.4322 H   0  0  0  0  0  0  0  0  0  0  0  0  # atno 8010 bound_to 7997
  140.7070  143.3227  151.2754 H   0  0  0  0  0  0  0  0  0  0  0  0  # atno 10167 bound_to 10162
  157.2672  130.7190  149.6485 H   0  0  0  0  0  0  0  0  0  0  0  0  # atno 10718 bound_to 10713
  154.8080  135.3269  154.7381 H   0  0  0  0  0  0  0  0  0  0  0  0  # atno 10763 bound_to 10752
  153.8035  135.6901  153.4856 H   0  0  0  0  0  0  0  0  0  0  0  0  # atno 10764 bound_to 10752
  153.1838  135.4576  155.0008 H   0  0  0  0  0  0  0  0  0  0  0  0  # atno 10765 bound_to 10752
  140.1663  134.8574  157.2636 H   0  0  0  0  0  0  0  0  0  0  0  0  # atno 11005 bound_to 11000
  145.8074  140.9742  143.0966 LP  0  0  0  0  0  0  0  0  0  0  0  0  # atno 17320 bound_to 7965
  144.6810  139.9878  143.7484 LP  0  0  0  0  0  0  0  0  0  0  0  0  # atno 17321 bound_to 7965
  139.6685  144.0062  152.2738 LP  0  0  0  0  0  0  0  0  0  0  0  0  # atno 17342 bound_to 10162
  139.9652  144.6531  150.8041 LP  0  0  0  0  0  0  0  0  0  0  0  0  # atno 17343 bound_to 10162
  155.9663  130.4379  150.5194 LP  0  0  0  0  0  0  0  0  0  0  0  0  # atno 17370 bound_to 10713
  157.3111  131.0664  151.2000 LP  0  0  0  0  0  0  0  0  0  0  0  0  # atno 17371 bound_to 10713
  140.2430  134.3773  155.7473 LP  0  0  0  0  0  0  0  0  0  0  0  0  # atno 17394 bound_to 11000
  141.2214  133.7275  156.8818 LP  0  0  0  0  0  0  0  0  0  0  0  0  # atno 17395 bound_to 11000

$$$$
