AV-unprocessed.smi:315|AV-procd|sdf|2321|dock1
  -GOLD-   2262022223D 1   1.00000     0.00000
 Structure written by MMmdl.
 47 49  0  0  0  0  0  0  0  0  2 V2000
  151.9647  138.9782  155.8303 C   0  0  0  0  0  0  0  0  0  0  0  0
  151.7777  138.5015  154.3878 C   0  0  0  0  0  0  0  0  0  0  0  0
  150.3855  138.3282  154.1475 O   0  0  0  0  0  0  0  0  0  0  0  0
  149.5519  139.4273  154.2331 C   0  0  0  0  0  0  0  0  0  0  0  0
  150.0724  140.6041  154.6619 N   0  0  0  0  0  0  0  0  0  0  0  0
  149.2553  141.6747  154.7426 C   0  0  0  0  0  0  0  0  0  0  0  0
  147.8918  141.6317  154.3970 C   0  0  0  0  0  0  0  0  0  0  0  0
  147.3501  140.4116  153.9514 C   0  0  0  0  0  0  0  0  0  0  0  0
  148.1926  139.2765  153.8755 C   0  0  0  0  0  0  0  0  0  0  0  0
  147.7653  137.9985  153.4261 N   0  0  0  0  0  0  0  0  0  0  0  0
  146.5625  137.4080  153.5574 C   0  0  0  0  0  0  0  0  0  0  0  0
  145.5692  137.9354  154.0518 O   0  0  0  0  0  0  0  0  0  0  0  0
  146.5260  136.1433  153.1017 N   0  0  0  0  0  0  0  0  0  0  0  0
  145.3856  135.2252  153.0940 C   0  0  1  0  0  0  0  0  0  0  0  0
  144.0135  135.9182  152.9607 C   0  0  0  0  0  0  0  0  0  0  0  0
  143.1793  135.0052  152.0411 C   0  0  0  0  0  0  0  0  0  0  0  0
  144.0305  133.8278  151.7850 N   0  3  1  0  0  0  0  0  0  0  0  0
  143.7670  133.0597  150.5486 C   0  0  0  0  0  0  0  0  0  0  0  0
  144.7004  131.8327  150.5047 C   0  0  0  0  0  0  0  0  0  0  0  0
  146.1803  132.2319  150.6795 C   0  0  0  0  0  0  0  0  0  0  0  0
  146.3760  133.1068  151.9328 C   0  0  0  0  0  0  0  0  0  0  0  0
  145.4179  134.3073  151.8731 C   0  0  2  0  0  0  0  0  0  0  0  0
  153.0205  139.1243  156.0588 H   0  0  0  0  0  0  0  0  0  0  0  0
  151.5665  138.2506  156.5379 H   0  0  0  0  0  0  0  0  0  0  0  0
  151.4519  139.9257  155.9981 H   0  0  0  0  0  0  0  0  0  0  0  0
  152.1955  139.2401  153.7017 H   0  0  0  0  0  0  0  0  0  0  0  0
  152.3095  137.5605  154.2393 H   0  0  0  0  0  0  0  0  0  0  0  0
  149.7030  142.5948  155.0877 H   0  0  0  0  0  0  0  0  0  0  0  0
  147.2760  142.5159  154.4680 H   0  0  0  0  0  0  0  0  0  0  0  0
  146.3106  140.3762  153.6661 H   0  0  0  0  0  0  0  0  0  0  0  0
  148.4975  137.4169  153.0460 H   0  0  0  0  0  0  0  0  0  0  0  0
  147.3872  135.7810  152.7181 H   0  0  0  0  0  0  0  0  0  0  0  0
  145.3953  134.6101  153.9964 H   0  0  0  0  0  0  0  0  0  0  0  0
  143.5422  136.0489  153.9355 H   0  0  0  0  0  0  0  0  0  0  0  0
  144.1095  136.9066  152.5087 H   0  0  0  0  0  0  0  0  0  0  0  0
  142.2342  134.7078  152.4967 H   0  0  0  0  0  0  0  0  0  0  0  0
  142.9578  135.5200  151.1048 H   0  0  0  0  0  0  0  0  0  0  0  0
  142.7241  132.7416  150.5297 H   0  0  0  0  0  0  0  0  0  0  0  0
  143.9279  133.6937  149.6753 H   0  0  0  0  0  0  0  0  0  0  0  0
  144.4205  131.1390  151.2987 H   0  0  0  0  0  0  0  0  0  0  0  0
  144.5668  131.2944  149.5660 H   0  0  0  0  0  0  0  0  0  0  0  0
  146.8051  131.3405  150.7423 H   0  0  0  0  0  0  0  0  0  0  0  0
  146.5132  132.7816  149.7981 H   0  0  0  0  0  0  0  0  0  0  0  0
  146.1856  132.5164  152.8303 H   0  0  0  0  0  0  0  0  0  0  0  0
  147.4098  133.4483  151.9948 H   0  0  0  0  0  0  0  0  0  0  0  0
  145.6360  134.9024  150.9828 H   0  0  0  0  0  0  0  0  0  0  0  0
  143.8948  133.2003  152.5647 H   0  0  0  0  0  0  0  0  0  0  0  0
  1  2  1  0  0  0  0
  1 23  1  0  0  0  0
  1 24  1  0  0  0  0
  1 25  1  0  0  0  0
  2  3  1  0  0  0  0
  2 26  1  0  0  0  0
  2 27  1  0  0  0  0
  3  4  1  0  0  0  0
  4  9  1  0  0  0  0
  4  5  2  0  0  0  0
  5  6  1  0  0  0  0
  6  7  2  0  0  0  0
  6 28  1  0  0  0  0
  7  8  1  0  0  0  0
  7 29  1  0  0  0  0
  8  9  2  0  0  0  0
  8 30  1  0  0  0  0
  9 10  1  0  0  0  0
 10 11  1  0  0  0  0
 10 31  1  0  0  0  0
 11 12  2  0  0  0  0
 11 13  1  0  0  0  0
 13 14  1  0  0  0  0
 13 32  1  0  0  0  0
 14 22  1  0  0  0  0
 14 15  1  0  0  0  0
 14 33  1  0  0  0  0
 15 16  1  0  0  0  0
 15 34  1  0  0  0  0
 15 35  1  0  0  0  0
 16 17  1  0  0  0  0
 16 36  1  0  0  0  0
 16 37  1  0  0  0  0
 17 22  1  0  0  0  0
 17 18  1  0  0  0  0
 17 47  1  0  0  0  0
 18 19  1  0  0  0  0
 18 38  1  0  0  0  0
 18 39  1  0  0  0  0
 19 20  1  0  0  0  0
 19 40  1  0  0  0  0
 19 41  1  0  0  0  0
 20 21  1  0  0  0  0
 20 42  1  0  0  0  0
 20 43  1  0  0  0  0
 21 22  1  0  0  0  0
 21 44  1  0  0  0  0
 21 45  1  0  0  0  0
 22 46  1  0  0  0  0
M  CHG  1  17   1
M  END
> <s_m_source_file>
AV-unprocessed.smi

> <i_m_source_file_index>
315

> <i_lp_mmshare_version>
43012

> <i_f3d_flags>
0

> <s_epik_input>
W0NIM11bQ0gyXU9jMW5bY0hdW2NIXVtjSF1jMVtOSF1DKD1PKVtOSF1bQ0BIXShbQ0gyXVtDSDJdMilbQ0BASF0oTjIzKVtDSDJdW0NIMl1bQ0gyXVtDSDJdMw==

> <s_epik_cmdline>
J2VwaWtfcHl0aG9uJywgJy1waCcsICc3LjAnLCAnLXRuJywgJzgnLCAnLW1hJywgJzIwMCcsICctbWV0YWxfYmluZGluZycsICctaW1hZScsICc8aW5maWxlLm1hZT4nLCAnLW9tYWUnLCAnPG91dGZpbGUubWFlPic=

> <r_lp_tautomer_probability>
1

> <r_epik_Ionization_Penalty>
0.00106455

> <r_epik_Ionization_Penalty_Charging>
0.000974069

> <r_epik_Ionization_Penalty_Neutral>
9.04821e-05

> <r_epik_State_Penalty>
0.000633842

> <r_epik_Charging_Adjusted_Penalty>
0.00160791

> <i_epik_Tot_Q>
1

> <i_epik_Tot_abs_Q>
1

> <r_epik_Metal_State_Penalty>
-0

> <b_epik_Metal_Only>
0

> <s_lp_Force_Field>
OPLS_2005

> <r_lp_Energy>
47.5767

> <b_lp_Chiralities_Consistent>
1

> <s_lp_Variant>
AV-unprocessed.smi:315-6

> <Gold.Version>
5.8.1

> <Gold.Id.Protein>
6NUR|6NUR_protein|mol2

> <Gold.PLP.Fitness>
46.9006

> <Gold.PLP.PLP>
-37.0007

> <Gold.PLP.part.hbond>
-3.0000

> <Gold.PLP.part.metal>
0.0000

> <Gold.PLP.part.buried>
-2.4313

> <Gold.PLP.part.nonpolar>
-31.2448

> <Gold.PLP.part.repulsive>
0.5017

> <Gold.PLP.ligand.clash>
0.0000

> <Gold.PLP.ligand.torsion>
0.6120

> <Gold.PLP.Chemscore.Hbond>
2.6880

> <Gold.PLP.Chemscore.CHOScore>
1.0000

> <Gold.PLP.Chemscore.Metal>
0.0000

> <Gold.Chemscore.Hbonds>
donor molecule, donor type, donor heavy atom, donor atom, acceptor molecule, acceptor atom, score
      L1  H    10    31       P1  7948  0.96
      L1  H    13    32       P1  7948  0.91
      P1  H  7989  7998       L1     5  0.86
      L1  C     6    28       P1  8028  1.00

> <Gold.PLP.Chemscore.Internal.Correction>
0.0601

> <Gold.Rescore>
     Score         DG    S(hbond)    S(metal)    S(lipo)     H(rot)  DE(clash)    DE(int)     intcor
     15.73     -20.05       2.25        0.00      90.34       1.38       0.31       4.01       ----

> <Gold.Chemscore.Fitness>
15.7301

> <Gold.Chemscore.DG>
-20.0519

> <Gold.Chemscore.ZeroCoef>
-5.4800

> <Gold.Chemscore.Hbond>
2.2538

> <Gold.Chemscore.Metal>
0.0000

> <Gold.Chemscore.Lipo>
90.3369

> <Gold.Chemscore.Internal_Hbond>
0.0000

> <Gold.Chemscore.DEClash>
0.3124

> <Gold.Chemscore.DEInternal>
4.0094

> <Gold.Chemscore.Rot>
1.3770

> <Gold.Chemscore.Internal.Correction>
   9.000000E+99

> <Gold.Chemscore.Hbonds>
donor molecule, donor type, donor heavy atom, donor atom, acceptor molecule, acceptor atom, score
      L1  H    10    31       P1  7948  0.92
      L1  H    13    32       P1  7948  0.88
      P1  H  7989  7998       L1     5  0.32

> <Gold.Chemscore.Hbond.Weighted>
-7.5276

> <Gold.Chemscore.Metal.Weighted>
-0.0000

> <Gold.Chemscore.Lipo.Weighted>
-10.5694

> <Gold.Chemscore.Internal_Hbond.Weighted>
0.0000

> <Gold.Chemscore.DEClash.Weighted>
0.3124

> <Gold.Chemscore.DEInternal.Weighted>
4.0094

> <Gold.Chemscore.Rot.Weighted>
3.5252

> <Gold.Chemscore.Internal.Correction.Weighted>
   9.000000E+99

> <Gold.Protein.RotatedTorsions>
[ 6907 6896 6895 6894 ] final  -59.12 input  -60.11 | X-H torsion
[ 7974 7965 7964 7962 ] final -152.78 input  175.53 | X-H torsion
[ 8008 7997 7996 7995 ] final  -42.44 input   59.86 | X-H torsion
[ 10167 10162 10161 10158 ] final   70.11 input  -65.29 | X-H torsion
[ 10718 10713 10712 10709 ] final  130.37 input   66.30 | X-H torsion
[ 10763 10752 10751 10750 ] final  130.90 input  -60.55 | X-H torsion
[ 11005 11000 10999 10996 ] final   51.02 input  -57.11 | X-H torsion

> <Gold.Protein.ActiveResidues>
 VAL166  LYS551  ARG553  GLY616  TRP617  ASP618  TYR619  PRO620  LYS621  CYS622 
 ASP623  PHE694  ASN695  SER759  ASP760  ASP761  ALA762  ILE779  LEU786  VAL792 
 PHE793  MET794  SER795  GLU796  ALA797  LYS798  CYS799  TRP800  GLU811  SER814 

> <Gold.Protein.RotatedAtoms>
  150.7954  134.7010  159.6549 H   0  0  0  0  0  0  0  0  0  0  0  0  # atno 6907 bound_to 6896
  152.4066  134.6193  160.0056 H   0  0  0  0  0  0  0  0  0  0  0  0  # atno 6908 bound_to 6896
  151.6449  133.3287  159.3174 H   0  0  0  0  0  0  0  0  0  0  0  0  # atno 6909 bound_to 6896
  144.7776  140.4616  143.5862 H   0  0  0  0  0  0  0  0  0  0  0  0  # atno 7974 bound_to 7965
  154.3999  140.1473  156.3356 H   0  0  0  0  0  0  0  0  0  0  0  0  # atno 8008 bound_to 7997
  155.8403  140.3462  155.5607 H   0  0  0  0  0  0  0  0  0  0  0  0  # atno 8009 bound_to 7997
  155.8093  140.0881  157.1903 H   0  0  0  0  0  0  0  0  0  0  0  0  # atno 8010 bound_to 7997
  140.0605  144.5237  150.7298 H   0  0  0  0  0  0  0  0  0  0  0  0  # atno 10167 bound_to 10162
  157.5068  131.1096  150.9350 H   0  0  0  0  0  0  0  0  0  0  0  0  # atno 10718 bound_to 10713
  153.7655  135.3189  155.3344 H   0  0  0  0  0  0  0  0  0  0  0  0  # atno 10763 bound_to 10752
  154.8215  135.4600  154.0796 H   0  0  0  0  0  0  0  0  0  0  0  0  # atno 10764 bound_to 10752
  153.2039  135.6926  153.8280 H   0  0  0  0  0  0  0  0  0  0  0  0  # atno 10765 bound_to 10752
  140.0968  134.5135  155.8800 H   0  0  0  0  0  0  0  0  0  0  0  0  # atno 11005 bound_to 11000
  145.6142  139.1516  143.3059 LP  0  0  0  0  0  0  0  0  0  0  0  0  # atno 17320 bound_to 7965
  146.1965  140.6256  142.9122 LP  0  0  0  0  0  0  0  0  0  0  0  0  # atno 17321 bound_to 7965
  140.7174  143.2557  151.4389 LP  0  0  0  0  0  0  0  0  0  0  0  0  # atno 17342 bound_to 10162
  139.5897  144.1526  152.2073 LP  0  0  0  0  0  0  0  0  0  0  0  0  # atno 17343 bound_to 10162
  157.0003  130.5597  149.5311 LP  0  0  0  0  0  0  0  0  0  0  0  0  # atno 17370 bound_to 10713
  156.0263  130.5357  150.8415 LP  0  0  0  0  0  0  0  0  0  0  0  0  # atno 17371 bound_to 10713
  141.2094  133.6684  156.6438 LP  0  0  0  0  0  0  0  0  0  0  0  0  # atno 17394 bound_to 11000
  140.3275  134.7956  157.4301 LP  0  0  0  0  0  0  0  0  0  0  0  0  # atno 17395 bound_to 11000

$$$$
