AV-unprocessed.smi:1184|AV-procd|sdf|4972|dock2
  -GOLD-   22720 3563D 1   1.00000     0.00000
 Structure written by MMmdl.
 43 44  0  0  0  0  0  0  0  0  2 V2000
  151.7287  144.0167  157.9639 C   0  0  0  0  0  0  0  0  0  0  0  0
  150.6559  142.9888  158.3522 C   0  0  0  0  0  0  0  0  0  0  0  0
  149.7731  142.6432  157.2136 N   0  3  2  0  0  0  0  0  0  0  0  0
  148.5635  141.8697  157.5825 C   0  0  0  0  0  0  0  0  0  0  0  0
  148.3951  140.7697  156.5234 C   0  0  0  0  0  0  0  0  0  0  0  0
  149.3060  141.1977  155.3740 C   0  0  2  0  0  0  0  0  0  0  0  0
  149.7565  140.0453  154.4543 C   0  0  0  0  0  0  0  0  0  0  0  0
  150.3934  138.9880  155.2317 N   0  0  0  0  0  0  0  0  0  0  0  0
  151.6980  138.9393  155.5438 C   0  0  0  0  0  0  0  0  0  0  0  0
  152.4772  139.8759  155.3700 O   0  0  0  0  0  0  0  0  0  0  0  0
  152.2197  137.5972  156.0510 C   0  0  0  0  0  0  0  0  0  0  0  0
  151.3555  137.1628  157.2085 C   0  0  0  0  0  0  0  0  0  0  0  0
  151.2397  137.7679  158.4931 C   0  0  0  0  0  0  0  0  0  0  0  0
  151.9613  138.9715  159.0280 C   0  0  0  0  0  0  0  0  0  0  0  0
  150.3542  137.1465  159.2536 N   0  0  0  0  0  0  0  0  0  0  0  0
  149.8549  136.0944  158.4803 O   0  0  0  0  0  0  0  0  0  0  0  0
  150.4665  136.1241  157.2693 C   0  0  0  0  0  0  0  0  0  0  0  0
  150.0484  135.0844  156.2855 C   0  0  0  0  0  0  0  0  0  0  0  0
  150.4354  141.9198  156.1109 C   0  0  0  0  0  0  0  0  0  0  0  0
  152.3166  144.3068  158.8351 H   0  0  0  0  0  0  0  0  0  0  0  0
  151.2795  144.9210  157.5519 H   0  0  0  0  0  0  0  0  0  0  0  0
  152.4211  143.6176  157.2221 H   0  0  0  0  0  0  0  0  0  0  0  0
  151.1225  142.0862  158.7492 H   0  0  0  0  0  0  0  0  0  0  0  0
  150.0436  143.4050  159.1531 H   0  0  0  0  0  0  0  0  0  0  0  0
  148.6465  141.4302  158.5779 H   0  0  0  0  0  0  0  0  0  0  0  0
  147.7062  142.5434  157.5894 H   0  0  0  0  0  0  0  0  0  0  0  0
  148.7332  139.8172  156.9341 H   0  0  0  0  0  0  0  0  0  0  0  0
  147.3582  140.6444  156.2098 H   0  0  0  0  0  0  0  0  0  0  0  0
  148.7712  141.9360  154.7738 H   0  0  0  0  0  0  0  0  0  0  0  0
  148.9133  139.6571  153.8804 H   0  0  0  0  0  0  0  0  0  0  0  0
  150.4780  140.4157  153.7256 H   0  0  0  0  0  0  0  0  0  0  0  0
  149.8316  138.1735  155.4338 H   0  0  0  0  0  0  0  0  0  0  0  0
  152.1954  136.8705  155.2383 H   0  0  0  0  0  0  0  0  0  0  0  0
  153.2662  137.6980  156.3410 H   0  0  0  0  0  0  0  0  0  0  0  0
  151.9931  139.7705  158.2873 H   0  0  0  0  0  0  0  0  0  0  0  0
  152.9889  138.7225  159.2925 H   0  0  0  0  0  0  0  0  0  0  0  0
  151.4760  139.3702  159.9196 H   0  0  0  0  0  0  0  0  0  0  0  0
  150.8558  134.8603  155.5882 H   0  0  0  0  0  0  0  0  0  0  0  0
  149.1895  135.4261  155.7081 H   0  0  0  0  0  0  0  0  0  0  0  0
  149.7722  134.1579  156.7894 H   0  0  0  0  0  0  0  0  0  0  0  0
  150.9843  142.6047  155.4642 H   0  0  0  0  0  0  0  0  0  0  0  0
  151.1424  141.1935  156.5159 H   0  0  0  0  0  0  0  0  0  0  0  0
  149.4361  143.5110  156.8216 H   0  0  0  0  0  0  0  0  0  0  0  0
  1  2  1  0  0  0  0
  1 20  1  0  0  0  0
  1 21  1  0  0  0  0
  1 22  1  0  0  0  0
  2  3  1  0  0  0  0
  2 23  1  0  0  0  0
  2 24  1  0  0  0  0
  3 19  1  0  0  0  0
  3  4  1  0  0  0  0
  3 43  1  0  0  0  0
  4  5  1  0  0  0  0
  4 25  1  0  0  0  0
  4 26  1  0  0  0  0
  5  6  1  0  0  0  0
  5 27  1  0  0  0  0
  5 28  1  0  0  0  0
  6  7  1  0  0  0  0
  6 19  1  0  0  0  0
  6 29  1  0  0  0  0
  7  8  1  0  0  0  0
  7 30  1  0  0  0  0
  7 31  1  0  0  0  0
  8  9  1  0  0  0  0
  8 32  1  0  0  0  0
  9 10  2  0  0  0  0
  9 11  1  0  0  0  0
 11 12  1  0  0  0  0
 11 33  1  0  0  0  0
 11 34  1  0  0  0  0
 12 17  2  0  0  0  0
 12 13  1  0  0  0  0
 13 14  1  0  0  0  0
 13 15  2  0  0  0  0
 14 35  1  0  0  0  0
 14 36  1  0  0  0  0
 14 37  1  0  0  0  0
 15 16  1  0  0  0  0
 16 17  1  0  0  0  0
 17 18  1  0  0  0  0
 18 38  1  0  0  0  0
 18 39  1  0  0  0  0
 18 40  1  0  0  0  0
 19 41  1  0  0  0  0
 19 42  1  0  0  0  0
M  CHG  1   3   1
M  END
> <s_m_source_file>
AV-unprocessed.smi

> <i_m_source_file_index>
1184

> <i_lp_mmshare_version>
43012

> <i_f3d_flags>
0

> <s_epik_input>
W0NIM11bQ0gyXU4xW0NIMl1bQ0gyXVtDQEhdKFtDSDJdMSlbQ0gyXVtOSF1DKD1PKVtDSDJdYzJjKFtDSDNdKW5vYzJbQ0gzXQ==

> <s_epik_cmdline>
J2VwaWtfcHl0aG9uJywgJy1waCcsICc3LjAnLCAnLXRuJywgJzgnLCAnLW1hJywgJzIwMCcsICctbWV0YWxfYmluZGluZycsICctaW1hZScsICc8aW5maWxlLm1hZT4nLCAnLW9tYWUnLCAnPG91dGZpbGUubWFlPic=

> <r_epik_Ionization_Penalty>
0.000590726

> <r_epik_Ionization_Penalty_Charging>
0.000590692

> <r_epik_Ionization_Penalty_Neutral>
3.44741e-08

> <r_epik_State_Penalty>
0.000371644

> <r_epik_Charging_Adjusted_Penalty>
0.000962336

> <i_epik_Tot_Q>
1

> <i_epik_Tot_abs_Q>
1

> <r_epik_Metal_State_Penalty>
-0

> <b_epik_Metal_Only>
0

> <s_lp_Force_Field>
OPLS_2005

> <r_lp_Energy>
20.136

> <b_lp_Chiralities_Consistent>
1

> <s_lp_Variant>
AV-unprocessed.smi:1184-4

> <Gold.Version>
5.8.1

> <Gold.Id.Protein>
6NUR|6NUR_protein|mol2

> <Gold.PLP.Fitness>
42.1698

> <Gold.PLP.PLP>
-29.5677

> <Gold.PLP.part.hbond>
-4.1865

> <Gold.PLP.part.metal>
0.0000

> <Gold.PLP.part.buried>
-2.3322

> <Gold.PLP.part.nonpolar>
-22.3219

> <Gold.PLP.part.repulsive>
0.0891

> <Gold.PLP.ligand.clash>
0.0000

> <Gold.PLP.ligand.torsion>
0.3707

> <Gold.PLP.Chemscore.Hbond>
4.4289

> <Gold.PLP.Chemscore.CHOScore>
0.0000

> <Gold.PLP.Chemscore.Metal>
0.0000

> <Gold.Chemscore.Hbonds>
donor molecule, donor type, donor heavy atom, donor atom, acceptor molecule, acceptor atom, score
      L1  H     3    43       P1  8028  2.00
      P1  H  6896  6909       L1    16  0.65
      P1  H  7989  7998       L1    10  0.28
      P1  H  7997  8009       L1    10  0.93

> <Gold.PLP.Chemscore.Internal.Correction>
0.0570

> <Gold.Rescore>
     Score         DG    S(hbond)    S(metal)    S(lipo)     H(rot)  DE(clash)    DE(int)     intcor
     18.68     -19.12       2.78        0.00      73.63       1.67       0.05       0.39       ----

> <Gold.Chemscore.Fitness>
18.6830

> <Gold.Chemscore.DG>
-19.1217

> <Gold.Chemscore.ZeroCoef>
-5.4800

> <Gold.Chemscore.Hbond>
2.7838

> <Gold.Chemscore.Metal>
0.0000

> <Gold.Chemscore.Lipo>
73.6335

> <Gold.Chemscore.Internal_Hbond>
0.0000

> <Gold.Chemscore.DEClash>
0.0494

> <Gold.Chemscore.DEInternal>
0.3893

> <Gold.Chemscore.Rot>
1.6684

> <Gold.Chemscore.Internal.Correction>
   9.000000E+99

> <Gold.Chemscore.Hbonds>
donor molecule, donor type, donor heavy atom, donor atom, acceptor molecule, acceptor atom, score
      L1  H     3    43       P1  8028  0.97
      P1  H  6896  6909       L1    16  0.04
      P1  H  7989  7998       L1    10  0.11
      P1  H  7997  8009       L1    10  0.88

> <Gold.Chemscore.Hbond.Weighted>
-9.2978

> <Gold.Chemscore.Metal.Weighted>
-0.0000

> <Gold.Chemscore.Lipo.Weighted>
-8.6151

> <Gold.Chemscore.Internal_Hbond.Weighted>
0.0000

> <Gold.Chemscore.DEClash.Weighted>
0.0494

> <Gold.Chemscore.DEInternal.Weighted>
0.3893

> <Gold.Chemscore.Rot.Weighted>
4.2712

> <Gold.Chemscore.Internal.Correction.Weighted>
   9.000000E+99

> <Gold.Protein.RotatedTorsions>
[ 6907 6896 6895 6894 ] final   58.40 input  -60.11 | X-H torsion
[ 7974 7965 7964 7962 ] final -148.38 input  175.53 | X-H torsion
[ 8008 7997 7996 7995 ] final -136.22 input   59.86 | X-H torsion
[ 10167 10162 10161 10158 ] final -117.55 input  -65.29 | X-H torsion
[ 10718 10713 10712 10709 ] final  171.64 input   66.30 | X-H torsion
[ 10763 10752 10751 10750 ] final -146.57 input  -60.55 | X-H torsion
[ 11005 11000 10999 10996 ] final  148.22 input  -57.11 | X-H torsion

> <Gold.Protein.ActiveResidues>
 VAL166  LYS551  ARG553  GLY616  TRP617  ASP618  TYR619  PRO620  LYS621  CYS622 
 ASP623  PHE694  ASN695  SER759  ASP760  ASP761  ALA762  ILE779  LEU786  VAL792 
 PHE793  MET794  SER795  GLU796  ALA797  LYS798  CYS799  TRP800  GLU811  SER814 

> <Gold.Protein.RotatedAtoms>
  152.3821  134.6574  160.0138 H   0  0  0  0  0  0  0  0  0  0  0  0  # atno 6907 bound_to 6896
  151.6834  133.3306  159.3233 H   0  0  0  0  0  0  0  0  0  0  0  0  # atno 6908 bound_to 6896
  150.7756  134.6697  159.6429 H   0  0  0  0  0  0  0  0  0  0  0  0  # atno 6909 bound_to 6896
  144.8033  140.5204  143.5692 H   0  0  0  0  0  0  0  0  0  0  0  0  # atno 7974 bound_to 7965
  155.3917  140.0500  157.3040 H   0  0  0  0  0  0  0  0  0  0  0  0  # atno 8008 bound_to 7997
  154.5033  140.2165  155.9263 H   0  0  0  0  0  0  0  0  0  0  0  0  # atno 8009 bound_to 7997
  156.1494  140.3139  155.8629 H   0  0  0  0  0  0  0  0  0  0  0  0  # atno 8010 bound_to 7997
  140.0672  143.4912  152.2000 H   0  0  0  0  0  0  0  0  0  0  0  0  # atno 10167 bound_to 10162
  156.9906  131.0146  151.2857 H   0  0  0  0  0  0  0  0  0  0  0  0  # atno 10718 bound_to 10713
  154.8329  135.3383  154.6682 H   0  0  0  0  0  0  0  0  0  0  0  0  # atno 10763 bound_to 10752
  153.7299  135.6952  153.4996 H   0  0  0  0  0  0  0  0  0  0  0  0  # atno 10764 bound_to 10752
  153.2319  135.4413  155.0557 H   0  0  0  0  0  0  0  0  0  0  0  0  # atno 10765 bound_to 10752
  140.0942  134.9023  157.1697 H   0  0  0  0  0  0  0  0  0  0  0  0  # atno 11005 bound_to 11000
  145.5499  139.1476  143.3400 LP  0  0  0  0  0  0  0  0  0  0  0  0  # atno 17320 bound_to 7965
  146.2319  140.5637  142.8971 LP  0  0  0  0  0  0  0  0  0  0  0  0  # atno 17321 bound_to 7965
  139.5858  144.7530  151.3524 LP  0  0  0  0  0  0  0  0  0  0  0  0  # atno 17342 bound_to 10162
  140.7143  143.7307  150.7626 LP  0  0  0  0  0  0  0  0  0  0  0  0  # atno 17343 bound_to 10162
  157.5461  130.8151  149.8088 LP  0  0  0  0  0  0  0  0  0  0  0  0  # atno 17370 bound_to 10713
  156.0208  130.3796  150.1967 LP  0  0  0  0  0  0  0  0  0  0  0  0  # atno 17371 bound_to 10713
  140.3310  134.2810  155.7228 LP  0  0  0  0  0  0  0  0  0  0  0  0  # atno 17394 bound_to 11000
  141.2087  133.7770  157.0043 LP  0  0  0  0  0  0  0  0  0  0  0  0  # atno 17395 bound_to 11000

$$$$
