#       Name:                AV-unprocessed.smi:2006
#       Creating user name   scv26
#       Creation time:       Fri Mar 27 10:36:42 2020


#       File generated by GOLD software.
#

@<TRIPOS>MOLECULE
AV-unprocessed.smi:2006
    37    38     1
SMALL
NO_CHARGES


@<TRIPOS>ATOM
      1 ****        -3.8689  -1.2529  -1.8656 C.3            1 S1                 0.0000
      2 ****        -3.2274  -0.5594  -0.6593 C.3            1 S1                 0.0000
      3 ****        -1.6898  -0.5345  -0.7568 C.3            1 S1                 0.0000
      4 ****        -1.1279   0.2125   0.3614 N.3            1 S1                 0.0000
      5 ****         0.2730   0.1817   0.4034 C.ar           1 S1                 0.0000
      6 ****         0.9099  -0.4530   1.4903 C.ar           1 S1                 0.0000
      7 ****         2.3170  -0.4864   1.5250 C.ar           1 S1                 0.0000
      8 ****         3.0386   0.1140   0.4732 C.ar           1 S1                 0.0000
      9 ****         4.5538   0.1039   0.4630 C.3            1 S1                 0.0000
     10 ****         5.1004  -1.2261   0.2809 N.3            1 S1                 0.0000
     11 ****         2.3110   0.7267  -0.5681 C.ar           1 S1                 0.0000
     12 ****         0.9619   0.7631  -0.6083 N.ar           1 S1                 0.0000
     13 ****        -1.6826   1.5557   0.4698 C.3            1 S1                 0.0000
     14 ****        -3.2175   1.4860   0.5350 C.3            1 S1                 0.0000
     15 ****        -3.7119   0.7808  -0.6004 O.3            1 S1                 0.0000
     16 ****        -3.5373  -2.2886  -1.9441 H              1 S1                 0.0000
     17 ****        -3.6092  -0.7469  -2.7959 H              1 S1                 0.0000
     18 ****        -4.9558  -1.2570  -1.7801 H              1 S1                 0.0000
     19 ****        -3.5299  -1.0878   0.2467 H              1 S1                 0.0000
     20 ****        -1.2966  -1.5520  -0.7517 H              1 S1                 0.0000
     21 ****        -1.3840  -0.0749  -1.6978 H              1 S1                 0.0000
     22 ****         0.3328  -0.9076   2.2823 H              1 S1                 0.0000
     23 ****         2.8320  -0.9661   2.3444 H              1 S1                 0.0000
     24 ****         4.9268   0.7529  -0.3299 H              1 S1                 0.0000
     25 ****         4.9190   0.5115   1.4061 H              1 S1                 0.0000
     26 ****         5.6790  -1.2392  -0.5470 H              1 S1                 0.0000
     27 ****         5.7150  -1.4436   1.0525 H              1 S1                 0.0000
     28 ****         2.8230   1.1998  -1.3932 H              1 S1                 0.0000
     29 ****        -1.2912   2.0472   1.3614 H              1 S1                 0.0000
     30 ****        -1.3764   2.1530  -0.3903 H              1 S1                 0.0000
     31 ****        -3.5469   0.9962   1.4527 H              1 S1                 0.0000
     32 ****        -3.6401   2.4908   0.5411 H              1 S1                 0.0000
     33 ****        -1.4185  -0.2701   1.1876 LP             1 S1                 0.0000
     34 ****         4.3428  -1.8755   0.2150 LP             1 S1                 0.0000
     35 ****         0.4833   1.2078  -1.3654 LP             1 S1                 0.0000
     36 ****        -4.7107   0.7599  -0.5560 LP             1 S1                 0.0000
     37 ****        -3.4251   1.2630  -1.4282 LP             1 S1                 0.0000
@<TRIPOS>BOND
    1    1    2 1     
    2    1   16 1     
    3    1   17 1     
    4    1   18 1     
    5    2   15 1     
    6    2    3 1     
    7    2   19 1     
    8    3    4 1     
    9    3   20 1     
   10    3   21 1     
   11    4    5 1     
   12    4   13 1     
   13    5   12 ar    
   14    5    6 ar    
   15    6    7 ar    
   16    6   22 1     
   17    7    8 ar    
   18    7   23 1     
   19    8    9 1     
   20    8   11 ar    
   21    9   10 1     
   22    9   24 1     
   23    9   25 1     
   24   10   26 1     
   25   10   27 1     
   26   11   12 ar    
   27   11   28 1     
   28   13   14 1     
   29   13   29 1     
   30   13   30 1     
   31   14   15 1     
   32   14   31 1     
   33   14   32 1     
   34    4   33 1     
   35   10   34 1     
   36   12   35 1     
   37   15   36 1     
   38   15   37 1     
@<TRIPOS>SUBSTRUCTURE
      1 S1             1
@<TRIPOS>SET
LONE_PAIRS      STATIC     ATOMS    <user>   **** ""
5 33 34 35 36 37
DONOR_HYDROGENS      STATIC     ATOMS    <user>   **** ""
2 26 27
ATOM$BLUE        STATIC     ATOMS    COLORGROUP SYSTEM
5 33 34 35 36 37
ATOM$RED        STATIC     ATOMS    COLORGROUP SYSTEM
2 26 27
