AV-unprocessed.smi:227|AV-procd|sdf|1734|dock9
  -GOLD-   2262020233D 1   1.00000     0.00000
 Structure written by MMmdl.
 54 58  0  0  0  0  0  0  0  0  1 V2000
  147.6657  138.1732  157.7143 O   0  0  0  0  0  0  0  0  0  0  0  0
  148.0111  138.4415  156.3709 C   0  0  0  0  0  0  0  0  0  0  0  0
  149.2255  137.5925  155.9136 C   0  0  1  0  0  0  0  0  0  0  0  0
  148.9606  136.0730  156.1325 C   0  0  0  0  0  0  0  0  0  0  0  0
  147.9446  135.5102  155.2541 N   0  0  0  0  0  0  0  0  0  0  0  0
  146.6340  135.9146  155.1493 C   0  0  0  0  0  0  0  0  0  0  0  0
  145.9162  135.2543  154.2837 N   0  0  0  0  0  0  0  0  0  0  0  0
  146.7887  134.3093  153.7556 C   0  0  0  0  0  0  0  0  0  0  0  0
  146.6778  133.2771  152.7757 C   0  0  0  0  0  0  0  0  0  0  0  0
  145.5477  132.9900  152.0702 N   0  0  0  0  0  0  0  0  0  0  0  0
  144.3353  133.7821  152.2223 C   0  0  1  0  0  0  0  0  0  0  0  0
  144.6613  135.1031  151.4984 C   0  0  0  0  0  0  0  0  0  0  0  0
  145.5547  134.6016  150.3535 C   0  0  0  0  0  0  0  0  0  0  0  0
  145.5589  133.0772  150.6151 C   0  0  2  0  0  0  0  0  0  0  0  0
  144.2001  132.4313  150.2609 C   0  0  2  0  0  0  0  0  0  0  0  0
  143.6574  132.6521  148.8361 C   0  0  0  0  0  0  0  0  0  0  0  0
  142.4479  131.9469  148.6552 O   0  0  0  0  0  0  0  0  0  0  0  0
  143.3114  132.9961  151.3829 C   0  0  0  0  0  0  0  0  0  0  0  0
  147.7810  132.5143  152.5530 N   0  0  0  0  0  0  0  0  0  0  0  0
  148.9167  132.7489  153.2142 C   0  0  0  0  0  0  0  0  0  0  0  0
  149.1669  133.6817  154.1324 N   0  0  0  0  0  0  0  0  0  0  0  0
  148.0657  134.4473  154.3746 C   0  0  0  0  0  0  0  0  0  0  0  0
  149.6454  137.9237  154.4463 C   0  0  2  0  0  0  0  0  0  0  0  0
  151.1101  137.6280  154.1348 C   0  0  0  0  0  0  0  0  0  0  0  0
  151.8449  138.8955  154.5719 C   0  0  0  0  0  0  0  0  0  0  0  0
  150.8645  139.9261  154.5995 O   0  0  0  0  0  0  0  0  0  0  0  0
  149.6420  139.4169  154.0874 C   0  0  0  0  0  0  0  0  0  0  0  0
  148.4213  138.3386  158.2575 H   0  0  0  0  0  0  0  0  0  0  0  0
  147.1452  138.2702  155.7320 H   0  0  0  0  0  0  0  0  0  0  0  0
  148.2259  139.5067  156.3278 H   0  0  0  0  0  0  0  0  0  0  0  0
  150.0600  137.8628  156.5620 H   0  0  0  0  0  0  0  0  0  0  0  0
  149.8745  135.4933  156.0155 H   0  0  0  0  0  0  0  0  0  0  0  0
  148.6521  135.8858  157.1612 H   0  0  0  0  0  0  0  0  0  0  0  0
  146.2254  136.7258  155.7345 H   0  0  0  0  0  0  0  0  0  0  0  0
  143.9854  133.9226  153.2431 H   0  0  0  0  0  0  0  0  0  0  0  0
  143.7691  135.6216  151.1459 H   0  0  0  0  0  0  0  0  0  0  0  0
  145.2132  135.7831  152.1487 H   0  0  0  0  0  0  0  0  0  0  0  0
  145.1915  134.8814  149.3662 H   0  0  0  0  0  0  0  0  0  0  0  0
  146.5603  135.0120  150.4543 H   0  0  0  0  0  0  0  0  0  0  0  0
  146.3919  132.5634  150.1344 H   0  0  0  0  0  0  0  0  0  0  0  0
  144.2947  131.3549  150.4173 H   0  0  0  0  0  0  0  0  0  0  0  0
  143.4626  133.7128  148.6757 H   0  0  0  0  0  0  0  0  0  0  0  0
  144.3736  132.3517  148.0723 H   0  0  0  0  0  0  0  0  0  0  0  0
  141.7332  132.5000  148.9313 H   0  0  0  0  0  0  0  0  0  0  0  0
  142.8678  132.1857  151.9628 H   0  0  0  0  0  0  0  0  0  0  0  0
  142.5015  133.6288  151.0178 H   0  0  0  0  0  0  0  0  0  0  0  0
  149.7428  132.0967  152.9722 H   0  0  0  0  0  0  0  0  0  0  0  0
  148.9917  137.3835  153.7606 H   0  0  0  0  0  0  0  0  0  0  0  0
  151.5171  136.7339  154.6020 H   0  0  0  0  0  0  0  0  0  0  0  0
  151.2256  137.4995  153.0574 H   0  0  0  0  0  0  0  0  0  0  0  0
  152.2628  138.7815  155.5726 H   0  0  0  0  0  0  0  0  0  0  0  0
  152.6586  139.1453  153.8905 H   0  0  0  0  0  0  0  0  0  0  0  0
  149.6542  139.5339  153.0023 H   0  0  0  0  0  0  0  0  0  0  0  0
  148.7887  139.9850  154.4497 H   0  0  0  0  0  0  0  0  0  0  0  0
  1  2  1  0  0  0  0
  1 28  1  0  0  0  0
  2  3  1  0  0  0  0
  2 29  1  0  0  0  0
  2 30  1  0  0  0  0
  3  4  1  0  0  0  0
  3 23  1  0  0  0  0
  3 31  1  0  0  0  0
  4  5  1  0  0  0  0
  4 32  1  0  0  0  0
  4 33  1  0  0  0  0
  5 22  1  0  0  0  0
  5  6  1  0  0  0  0
  6  7  2  0  0  0  0
  6 34  1  0  0  0  0
  7  8  1  0  0  0  0
  8 22  2  0  0  0  0
  8  9  1  0  0  0  0
  9 10  1  0  0  0  0
  9 19  2  0  0  0  0
 10 14  1  0  0  0  0
 10 11  1  0  0  0  0
 11 18  1  0  0  0  0
 11 12  1  0  0  0  0
 11 35  1  0  0  0  0
 12 13  1  0  0  0  0
 12 36  1  0  0  0  0
 12 37  1  0  0  0  0
 13 14  1  0  0  0  0
 13 38  1  0  0  0  0
 13 39  1  0  0  0  0
 14 15  1  0  0  0  0
 14 40  1  0  0  0  0
 15 16  1  0  0  0  0
 15 18  1  0  0  0  0
 15 41  1  0  0  0  0
 16 17  1  0  0  0  0
 16 42  1  0  0  0  0
 16 43  1  0  0  0  0
 17 44  1  0  0  0  0
 18 45  1  0  0  0  0
 18 46  1  0  0  0  0
 19 20  1  0  0  0  0
 20 21  2  0  0  0  0
 20 47  1  0  0  0  0
 21 22  1  0  0  0  0
 23 27  1  0  0  0  0
 23 24  1  0  0  0  0
 23 48  1  0  0  0  0
 24 25  1  0  0  0  0
 24 49  1  0  0  0  0
 24 50  1  0  0  0  0
 25 26  1  0  0  0  0
 25 51  1  0  0  0  0
 25 52  1  0  0  0  0
 26 27  1  0  0  0  0
 27 53  1  0  0  0  0
 27 54  1  0  0  0  0
M  END
> <s_m_source_file>
AV-unprocessed.smi

> <i_m_source_file_index>
227

> <i_lp_mmshare_version>
43012

> <i_f3d_flags>
0

> <s_epik_input>
W0NIMl0xT1tDSDJdW0NIMl1bQ0BIXTFbQ0BIXShbQ0gyXVtPSF0pW0NIMl1uKFtjSF1uMiljKGMyMyluW2NIXW5jM04oW0NASF00NSlbQ0BASF0oW0NIMl1bQ0gyXTQpW0NASF0oW0NIMl01KVtDSDJdW09IXQ==

> <s_epik_cmdline>
J2VwaWtfcHl0aG9uJywgJy1waCcsICc3LjAnLCAnLXRuJywgJzgnLCAnLW1hJywgJzIwMCcsICctbWV0YWxfYmluZGluZycsICctaW1hZScsICc8aW5maWxlLm1hZT4nLCAnLW9tYWUnLCAnPG91dGZpbGUubWFlPic=

> <r_lp_tautomer_probability>
1

> <r_epik_Ionization_Penalty>
0.0055791

> <r_epik_Ionization_Penalty_Charging>
0

> <r_epik_Ionization_Penalty_Neutral>
0.0055791

> <r_epik_State_Penalty>
0.00401299

> <r_epik_Charging_Adjusted_Penalty>
0.00401299

> <i_epik_Tot_Q>
0

> <i_epik_Tot_abs_Q>
0

> <r_epik_Metal_State_Penalty>
-0

> <b_epik_Metal_Only>
0

> <s_lp_Force_Field>
OPLS_2005

> <r_lp_Energy>
91.5897

> <b_lp_Chiralities_Consistent>
1

> <s_lp_Variant>
AV-unprocessed.smi:227-8

> <Gold.Version>
5.8.1

> <Gold.Id.Protein>
6NUR|6NUR_protein|mol2

> <Gold.PLP.Fitness>
49.8422

> <Gold.PLP.PLP>
-41.4800

> <Gold.PLP.part.hbond>
-4.0000

> <Gold.PLP.part.metal>
0.0000

> <Gold.PLP.part.buried>
-7.1168

> <Gold.PLP.part.nonpolar>
-32.0742

> <Gold.PLP.part.repulsive>
0.4808

> <Gold.PLP.ligand.clash>
0.0000

> <Gold.PLP.ligand.torsion>
0.3927

> <Gold.PLP.Chemscore.Hbond>
3.0000

> <Gold.PLP.Chemscore.CHOScore>
0.0000

> <Gold.PLP.Chemscore.Metal>
0.0000

> <Gold.Chemscore.Hbonds>
donor molecule, donor type, donor heavy atom, donor atom, acceptor molecule, acceptor atom, score
      L1  H    17    44       P1 10186  0.78
      P1  H  7989  7998       L1    26  0.75
      P1  H 10785 10796       L1    17  0.90

> <Gold.PLP.Chemscore.Internal.Correction>
0.1475

> <Gold.Rescore>
     Score         DG    S(hbond)    S(metal)    S(lipo)     H(rot)  DE(clash)    DE(int)     intcor
     10.15     -11.91       1.74        0.00      84.39       3.61       0.04       1.73       ----

> <Gold.Chemscore.Fitness>
10.1495

> <Gold.Chemscore.DG>
-11.9146

> <Gold.Chemscore.ZeroCoef>
-5.4800

> <Gold.Chemscore.Hbond>
1.7352

> <Gold.Chemscore.Metal>
0.0000

> <Gold.Chemscore.Lipo>
84.3855

> <Gold.Chemscore.Internal_Hbond>
0.0000

> <Gold.Chemscore.DEClash>
0.0351

> <Gold.Chemscore.DEInternal>
1.7300

> <Gold.Chemscore.Rot>
3.6071

> <Gold.Chemscore.Internal.Correction>
   9.000000E+99

> <Gold.Chemscore.Hbonds>
donor molecule, donor type, donor heavy atom, donor atom, acceptor molecule, acceptor atom, score
      L1  H    17    44       P1 10186  0.73
      P1  H  7989  7998       L1    26  0.07
      P1  H 10785 10796       L1    17  0.17

> <Gold.Chemscore.Hbond.Weighted>
-5.7957

> <Gold.Chemscore.Metal.Weighted>
-0.0000

> <Gold.Chemscore.Lipo.Weighted>
-9.8731

> <Gold.Chemscore.Internal_Hbond.Weighted>
0.0000

> <Gold.Chemscore.DEClash.Weighted>
0.0351

> <Gold.Chemscore.DEInternal.Weighted>
1.7300

> <Gold.Chemscore.Rot.Weighted>
9.2342

> <Gold.Chemscore.Internal.Correction.Weighted>
   9.000000E+99

> <Gold.Protein.RotatedTorsions>
[ 6907 6896 6895 6894 ] final  101.25 input  -60.11 | X-H torsion
[ 7974 7965 7964 7962 ] final   42.86 input  175.53 | X-H torsion
[ 8008 7997 7996 7995 ] final  147.18 input   59.86 | X-H torsion
[ 10167 10162 10161 10158 ] final  116.97 input  -65.29 | X-H torsion
[ 10718 10713 10712 10709 ] final  133.82 input   66.30 | X-H torsion
[ 10763 10752 10751 10750 ] final  160.16 input  -60.55 | X-H torsion
[ 11005 11000 10999 10996 ] final   73.97 input  -57.11 | X-H torsion

> <Gold.Protein.ActiveResidues>
 VAL166  LYS551  ARG553  GLY616  TRP617  ASP618  TYR619  PRO620  LYS621  CYS622 
 ASP623  PHE694  ASN695  SER759  ASP760  ASP761  ALA762  ILE779  LEU786  VAL792 
 PHE793  MET794  SER795  GLU796  ALA797  LYS798  CYS799  TRP800  GLU811  SER814 

> <Gold.Protein.RotatedAtoms>
  152.5354  134.0154  159.7957 H   0  0  0  0  0  0  0  0  0  0  0  0  # atno 6907 bound_to 6896
  151.0350  133.5749  159.2664 H   0  0  0  0  0  0  0  0  0  0  0  0  # atno 6908 bound_to 6896
  151.2740  135.0700  159.9198 H   0  0  0  0  0  0  0  0  0  0  0  0  # atno 6909 bound_to 6896
  146.0704  139.5252  142.9601 H   0  0  0  0  0  0  0  0  0  0  0  0  # atno 7974 bound_to 7965
  156.2833  140.2162  156.5496 H   0  0  0  0  0  0  0  0  0  0  0  0  # atno 8008 bound_to 7997
  154.7302  140.0496  157.0742 H   0  0  0  0  0  0  0  0  0  0  0  0  # atno 8009 bound_to 7997
  155.0364  140.3141  155.4743 H   0  0  0  0  0  0  0  0  0  0  0  0  # atno 8010 bound_to 7997
  139.6211  144.7101  151.2633 H   0  0  0  0  0  0  0  0  0  0  0  0  # atno 10167 bound_to 10162
  157.4735  131.1081  150.9773 H   0  0  0  0  0  0  0  0  0  0  0  0  # atno 10718 bound_to 10713
  154.2430  135.2774  155.2846 H   0  0  0  0  0  0  0  0  0  0  0  0  # atno 10763 bound_to 10752
  154.5529  135.5670  153.6941 H   0  0  0  0  0  0  0  0  0  0  0  0  # atno 10764 bound_to 10752
  152.9996  135.6279  154.2575 H   0  0  0  0  0  0  0  0  0  0  0  0  # atno 10765 bound_to 10752
  139.9414  134.7393  156.1091 H   0  0  0  0  0  0  0  0  0  0  0  0  # atno 11005 bound_to 11000
  145.6401  141.0286  143.1816 LP  0  0  0  0  0  0  0  0  0  0  0  0  # atno 17320 bound_to 7965
  144.7228  139.7973  143.7376 LP  0  0  0  0  0  0  0  0  0  0  0  0  # atno 17321 bound_to 7965
  140.7382  143.6654  150.8127 LP  0  0  0  0  0  0  0  0  0  0  0  0  # atno 17342 bound_to 10162
  140.0265  143.5488  152.2778 LP  0  0  0  0  0  0  0  0  0  0  0  0  # atno 17343 bound_to 10162
  157.0530  130.5795  149.5373 LP  0  0  0  0  0  0  0  0  0  0  0  0  # atno 17370 bound_to 10713
  156.0085  130.5174  150.7910 LP  0  0  0  0  0  0  0  0  0  0  0  0  # atno 17371 bound_to 10713
  141.1049  133.6663  156.2841 LP  0  0  0  0  0  0  0  0  0  0  0  0  # atno 17394 bound_to 11000
  140.5943  134.5619  157.5505 LP  0  0  0  0  0  0  0  0  0  0  0  0  # atno 17395 bound_to 11000

$$$$
