AV-unprocessed.smi:1503|AV-procd|sdf|6070|dock2
  -GOLD-   22720 6193D 1   1.00000     0.00000
 Structure written by MMmdl.
 43 44  0  0  0  0  0  0  0  0  2 V2000
  146.1131  134.5079  153.0032 C   0  0  0  0  0  0  0  0  0  0  0  0
  146.2199  134.7690  154.3172 C   0  0  0  0  0  0  0  0  0  0  0  0
  146.8488  135.9997  154.9554 C   0  0  0  0  0  0  0  0  0  0  0  0
  148.2849  136.1328  154.7220 N   0  0  0  0  0  0  0  0  0  0  0  0
  149.2251  136.1686  155.6794 C   0  0  0  0  0  0  0  0  0  0  0  0
  148.9644  136.1099  156.8816 O   0  0  0  0  0  0  0  0  0  0  0  0
  150.6733  136.2848  155.1937 C   0  0  0  0  0  0  0  0  0  0  0  0
  150.9655  137.6002  154.4461 C   0  0  0  0  0  0  0  0  0  0  0  0
  151.2394  138.7570  155.4052 C   0  0  0  0  0  0  0  0  0  0  0  0
  150.5424  139.9276  155.3841 C   0  0  0  0  0  0  0  0  0  0  0  0
  149.4323  140.2134  154.3884 C   0  0  0  0  0  0  0  0  0  0  0  0
  150.8243  140.9533  156.2990 N   0  0  0  0  0  0  0  0  0  0  0  0
  151.7592  140.7991  157.1881 C   0  0  0  0  0  0  0  0  0  0  0  0
  152.0647  141.7947  158.1222 N   0  0  0  0  0  0  0  0  0  0  0  0
  151.5525  143.1605  157.9796 C   0  0  0  0  0  0  0  0  0  0  0  0
  152.4410  144.1724  158.7218 C   0  0  0  0  0  0  0  0  0  0  0  0
  152.5606  143.7953  160.0869 O   0  0  0  0  0  0  0  0  0  0  0  0
  153.1756  142.5210  160.2175 C   0  0  0  0  0  0  0  0  0  0  0  0
  152.3135  141.4533  159.5235 C   0  0  0  0  0  0  0  0  0  0  0  0
  152.5088  139.6368  157.2810 N   0  5  0  0  0  0  0  0  0  0  0  0
  152.2951  138.6015  156.4206 C   0  0  0  0  0  0  0  0  0  0  0  0
  152.9556  137.5646  156.4713 O   0  0  0  0  0  0  0  0  0  0  0  0
  146.4837  135.1878  152.2504 H   0  0  0  0  0  0  0  0  0  0  0  0
  145.6459  133.5960  152.6617 H   0  0  0  0  0  0  0  0  0  0  0  0
  145.8278  134.0425  155.0139 H   0  0  0  0  0  0  0  0  0  0  0  0
  146.3230  136.8887  154.6037 H   0  0  0  0  0  0  0  0  0  0  0  0
  146.6829  135.9494  156.0315 H   0  0  0  0  0  0  0  0  0  0  0  0
  148.5878  136.1883  153.7602 H   0  0  0  0  0  0  0  0  0  0  0  0
  151.3303  136.1934  156.0593 H   0  0  0  0  0  0  0  0  0  0  0  0
  150.8976  135.4395  154.5413 H   0  0  0  0  0  0  0  0  0  0  0  0
  151.8150  137.4623  153.7768 H   0  0  0  0  0  0  0  0  0  0  0  0
  150.1313  137.8639  153.7939 H   0  0  0  0  0  0  0  0  0  0  0  0
  149.7656  140.0113  153.3702 H   0  0  0  0  0  0  0  0  0  0  0  0
  149.1188  141.2568  154.4351 H   0  0  0  0  0  0  0  0  0  0  0  0
  148.5635  139.5901  154.6006 H   0  0  0  0  0  0  0  0  0  0  0  0
  151.4820  143.4594  156.9337 H   0  0  0  0  0  0  0  0  0  0  0  0
  150.5387  143.1942  158.3806 H   0  0  0  0  0  0  0  0  0  0  0  0
  153.4276  144.2350  158.2593 H   0  0  0  0  0  0  0  0  0  0  0  0
  152.0003  145.1678  158.6672 H   0  0  0  0  0  0  0  0  0  0  0  0
  154.1812  142.5438  159.7940 H   0  0  0  0  0  0  0  0  0  0  0  0
  153.2820  142.2856  161.2765 H   0  0  0  0  0  0  0  0  0  0  0  0
  151.3566  141.3531  160.0372 H   0  0  0  0  0  0  0  0  0  0  0  0
  152.8184  140.4894  159.5988 H   0  0  0  0  0  0  0  0  0  0  0  0
  1  2  2  0  0  0  0
  1 23  1  0  0  0  0
  1 24  1  0  0  0  0
  2  3  1  0  0  0  0
  2 25  1  0  0  0  0
  3  4  1  0  0  0  0
  3 26  1  0  0  0  0
  3 27  1  0  0  0  0
  4  5  1  0  0  0  0
  4 28  1  0  0  0  0
  5  6  2  0  0  0  0
  5  7  1  0  0  0  0
  7  8  1  0  0  0  0
  7 29  1  0  0  0  0
  7 30  1  0  0  0  0
  8  9  1  0  0  0  0
  8 31  1  0  0  0  0
  8 32  1  0  0  0  0
  9 21  1  0  0  0  0
  9 10  2  0  0  0  0
 10 11  1  0  0  0  0
 10 12  1  0  0  0  0
 11 33  1  0  0  0  0
 11 34  1  0  0  0  0
 11 35  1  0  0  0  0
 12 13  2  0  0  0  0
 13 14  1  0  0  0  0
 13 20  1  0  0  0  0
 14 19  1  0  0  0  0
 14 15  1  0  0  0  0
 15 16  1  0  0  0  0
 15 36  1  0  0  0  0
 15 37  1  0  0  0  0
 16 17  1  0  0  0  0
 16 38  1  0  0  0  0
 16 39  1  0  0  0  0
 17 18  1  0  0  0  0
 18 19  1  0  0  0  0
 18 40  1  0  0  0  0
 18 41  1  0  0  0  0
 19 42  1  0  0  0  0
 19 43  1  0  0  0  0
 20 21  1  0  0  0  0
 21 22  2  0  0  0  0
M  CHG  1  20  -1
M  END
> <s_m_source_file>
AV-unprocessed.smi

> <i_m_source_file_index>
1503

> <i_lp_mmshare_version>
43012

> <i_f3d_flags>
0

> <s_epik_input>
W0NIMl09W0NIXVtDSDJdW05IXUMoPU8pW0NIMl1bQ0gyXWMxYyhbQ0gzXSluYyhbbkhdYzE9TylOMltDSDJdW0NIMl1PW0NIMl1bQ0gyXTI=

> <s_epik_cmdline>
J2VwaWtfcHl0aG9uJywgJy1waCcsICc3LjAnLCAnLXRuJywgJzgnLCAnLW1hJywgJzIwMCcsICctbWV0YWxfYmluZGluZycsICctaW1hZScsICc8aW5maWxlLm1hZT4nLCAnLW9tYWUnLCAnPG91dGZpbGUubWFlPic=

> <r_lp_tautomer_probability>
1

> <r_epik_Ionization_Penalty>
5.02457

> <r_epik_Ionization_Penalty_Charging>
9.64055e-08

> <r_epik_Ionization_Penalty_Neutral>
5.02457

> <r_epik_State_Penalty>
2.56428

> <r_epik_Charging_Adjusted_Penalty>
2.56428

> <i_epik_Tot_Q>
-1

> <i_epik_Tot_abs_Q>
1

> <r_epik_Metal_State_Penalty>
0.122481

> <b_epik_Metal_Only>
0

> <s_lp_Force_Field>
OPLS_2005

> <r_lp_Energy>
26.3767

> <b_lp_Chiralities_Consistent>
1

> <s_lp_Variant>
AV-unprocessed.smi:1503-3

> <Gold.Version>
5.8.1

> <Gold.Id.Protein>
6NUR|6NUR_protein|mol2

> <Gold.PLP.Fitness>
46.9234

> <Gold.PLP.PLP>
-38.6945

> <Gold.PLP.part.hbond>
-2.3180

> <Gold.PLP.part.metal>
0.0000

> <Gold.PLP.part.buried>
-4.8349

> <Gold.PLP.part.nonpolar>
-31.4413

> <Gold.PLP.part.repulsive>
0.0921

> <Gold.PLP.ligand.clash>
0.0000

> <Gold.PLP.ligand.torsion>
0.5390

> <Gold.PLP.Chemscore.Hbond>
3.0000

> <Gold.PLP.Chemscore.CHOScore>
0.0000

> <Gold.PLP.Chemscore.Metal>
0.0000

> <Gold.Chemscore.Hbonds>
donor molecule, donor type, donor heavy atom, donor atom, acceptor molecule, acceptor atom, score
      L1  H     4    28       P1  7948  1.00
      P1  H  7997  8010       L1    20  1.92

> <Gold.PLP.Chemscore.Internal.Correction>
0.3070

> <Gold.Rescore>
     Score         DG    S(hbond)    S(metal)    S(lipo)     H(rot)  DE(clash)    DE(int)     intcor
     14.31     -16.32       1.70        0.00      85.13       1.87       0.08       1.93       ----

> <Gold.Chemscore.Fitness>
14.3077

> <Gold.Chemscore.DG>
-16.3161

> <Gold.Chemscore.ZeroCoef>
-5.4800

> <Gold.Chemscore.Hbond>
1.6977

> <Gold.Chemscore.Metal>
0.0000

> <Gold.Chemscore.Lipo>
85.1273

> <Gold.Chemscore.Internal_Hbond>
0.0000

> <Gold.Chemscore.DEClash>
0.0816

> <Gold.Chemscore.DEInternal>
1.9268

> <Gold.Chemscore.Rot>
1.8727

> <Gold.Chemscore.Internal.Correction>
   9.000000E+99

> <Gold.Chemscore.Hbonds>
donor molecule, donor type, donor heavy atom, donor atom, acceptor molecule, acceptor atom, score
      L1  H     4    28       P1  7948  1.00
      P1  H  7997  8010       L1    20  0.16

> <Gold.Chemscore.Hbond.Weighted>
-5.6704

> <Gold.Chemscore.Metal.Weighted>
-0.0000

> <Gold.Chemscore.Lipo.Weighted>
-9.9599

> <Gold.Chemscore.Internal_Hbond.Weighted>
0.0000

> <Gold.Chemscore.DEClash.Weighted>
0.0816

> <Gold.Chemscore.DEInternal.Weighted>
1.9268

> <Gold.Chemscore.Rot.Weighted>
4.7942

> <Gold.Chemscore.Internal.Correction.Weighted>
   9.000000E+99

> <Gold.Protein.RotatedTorsions>
[ 6907 6896 6895 6894 ] final -154.51 input  -60.11 | X-H torsion
[ 7974 7965 7964 7962 ] final -155.52 input  175.53 | X-H torsion
[ 8008 7997 7996 7995 ] final   45.60 input   59.86 | X-H torsion
[ 10167 10162 10161 10158 ] final -106.42 input  -65.29 | X-H torsion
[ 10718 10713 10712 10709 ] final  178.93 input   66.30 | X-H torsion
[ 10763 10752 10751 10750 ] final   80.75 input  -60.55 | X-H torsion
[ 11005 11000 10999 10996 ] final  -21.33 input  -57.11 | X-H torsion

> <Gold.Protein.ActiveResidues>
 VAL166  LYS551  ARG553  GLY616  TRP617  ASP618  TYR619  PRO620  LYS621  CYS622 
 ASP623  PHE694  ASN695  SER759  ASP760  ASP761  ALA762  ILE779  LEU786  VAL792 
 PHE793  MET794  SER795  GLU796  ALA797  LYS798  CYS799  TRP800  GLU811  SER814 

> <Gold.Protein.RotatedAtoms>
  151.2586  133.4313  159.2614 H   0  0  0  0  0  0  0  0  0  0  0  0  # atno 6907 bound_to 6896
  151.0551  134.9699  159.8242 H   0  0  0  0  0  0  0  0  0  0  0  0  # atno 6908 bound_to 6896
  152.5389  134.2539  159.8962 H   0  0  0  0  0  0  0  0  0  0  0  0  # atno 6909 bound_to 6896
  144.7636  140.4237  143.5958 H   0  0  0  0  0  0  0  0  0  0  0  0  # atno 7974 bound_to 7965
  155.3386  140.3407  155.4239 H   0  0  0  0  0  0  0  0  0  0  0  0  # atno 8008 bound_to 7997
  156.1825  140.1669  156.8284 H   0  0  0  0  0  0  0  0  0  0  0  0  # atno 8009 bound_to 7997
  154.5349  140.0737  156.8393 H   0  0  0  0  0  0  0  0  0  0  0  0  # atno 8010 bound_to 7997
  140.1880  143.3914  152.1229 H   0  0  0  0  0  0  0  0  0  0  0  0  # atno 10167 bound_to 10162
  156.8832  130.9823  151.3059 H   0  0  0  0  0  0  0  0  0  0  0  0  # atno 10718 bound_to 10713
  153.1059  135.4791  154.8950 H   0  0  0  0  0  0  0  0  0  0  0  0  # atno 10763 bound_to 10752
  154.7429  135.3087  154.8698 H   0  0  0  0  0  0  0  0  0  0  0  0  # atno 10764 bound_to 10752
  153.9301  135.6845  153.4799 H   0  0  0  0  0  0  0  0  0  0  0  0  # atno 10765 bound_to 10752
  140.8551  133.7829  156.0010 H   0  0  0  0  0  0  0  0  0  0  0  0  # atno 11005 bound_to 11000
  145.6541  139.1570  143.2845 LP  0  0  0  0  0  0  0  0  0  0  0  0  # atno 17320 bound_to 7965
  146.1723  140.6627  142.9227 LP  0  0  0  0  0  0  0  0  0  0  0  0  # atno 17321 bound_to 7965
  139.5268  144.7112  151.5200 LP  0  0  0  0  0  0  0  0  0  0  0  0  # atno 17342 bound_to 10162
  140.6475  143.8764  150.6752 LP  0  0  0  0  0  0  0  0  0  0  0  0  # atno 17343 bound_to 10162
  157.6128  130.8595  149.8979 LP  0  0  0  0  0  0  0  0  0  0  0  0  # atno 17370 bound_to 10713
  156.0666  130.3691  150.0865 LP  0  0  0  0  0  0  0  0  0  0  0  0  # atno 17371 bound_to 10713
  140.8747  134.2684  157.5174 LP  0  0  0  0  0  0  0  0  0  0  0  0  # atno 17394 bound_to 11000
  139.8705  134.9585  156.4301 LP  0  0  0  0  0  0  0  0  0  0  0  0  # atno 17395 bound_to 11000

$$$$
