AV-unprocessed.smi:805|AV-procd|sdf|3797|dock7
  -GOLD-   22720 1233D 1   1.00000     0.00000
 Structure written by MMmdl.
 40 41  0  0  0  0  0  0  0  0  1 V2000
  153.7315  142.1520  162.4835 C   0  0  0  0  0  0  0  0  0  0  0  0
  152.6368  143.2180  162.3954 C   0  0  0  0  0  0  0  0  0  0  0  0
  151.7634  142.8919  161.3273 O   0  0  0  0  0  0  0  0  0  0  0  0
  152.3321  143.1428  160.0516 C   0  0  1  0  0  0  0  0  0  0  0  0
  151.9753  142.1091  158.9784 C   0  0  0  0  0  0  0  0  0  0  0  0
  151.8861  143.2975  158.0199 C   0  0  1  0  0  0  0  0  0  0  0  0
  150.8071  143.1571  157.0477 N   0  0  0  0  0  0  0  0  0  0  0  0
  150.5040  142.0159  156.4148 C   0  0  0  0  0  0  0  0  0  0  0  0
  151.1047  140.9581  156.6020 O   0  0  0  0  0  0  0  0  0  0  0  0
  149.4660  142.1865  155.5780 N   0  0  0  0  0  0  0  0  0  0  0  0
  148.8437  141.2297  154.7311 C   0  0  0  0  0  0  0  0  0  0  0  0
  147.7629  141.6592  153.9335 C   0  0  0  0  0  0  0  0  0  0  0  0
  147.1356  140.7385  153.0730 C   0  0  0  0  0  0  0  0  0  0  0  0
  147.6224  139.4178  153.0366 C   0  0  0  0  0  0  0  0  0  0  0  0
  148.6650  138.9931  153.7808 N   0  0  0  0  0  0  0  0  0  0  0  0
  149.2612  139.8811  154.6056 C   0  0  0  0  0  0  0  0  0  0  0  0
  151.5546  144.2050  159.2352 C   0  0  0  0  0  0  0  0  0  0  0  0
  150.0693  144.3811  159.5976 C   0  0  0  0  0  0  0  0  0  0  0  0
  152.1744  145.6019  159.2098 C   0  0  0  0  0  0  0  0  0  0  0  0
  154.4267  142.3725  163.2939 H   0  0  0  0  0  0  0  0  0  0  0  0
  154.3032  142.1012  161.5567 H   0  0  0  0  0  0  0  0  0  0  0  0
  153.3036  141.1665  162.6681 H   0  0  0  0  0  0  0  0  0  0  0  0
  152.0822  143.2604  163.3340 H   0  0  0  0  0  0  0  0  0  0  0  0
  153.0864  144.1985  162.2329 H   0  0  0  0  0  0  0  0  0  0  0  0
  153.4033  143.3550  160.0928 H   0  0  0  0  0  0  0  0  0  0  0  0
  152.7690  141.3975  158.7500 H   0  0  0  0  0  0  0  0  0  0  0  0
  151.0220  141.6095  159.1600 H   0  0  0  0  0  0  0  0  0  0  0  0
  152.8577  143.5256  157.5748 H   0  0  0  0  0  0  0  0  0  0  0  0
  150.2626  143.9821  156.8428 H   0  0  0  0  0  0  0  0  0  0  0  0
  149.0335  143.0984  155.5902 H   0  0  0  0  0  0  0  0  0  0  0  0
  147.4133  142.6804  153.9813 H   0  0  0  0  0  0  0  0  0  0  0  0
  146.3016  141.0372  152.4551 H   0  0  0  0  0  0  0  0  0  0  0  0
  147.1652  138.6847  152.3884 H   0  0  0  0  0  0  0  0  0  0  0  0
  150.1027  139.4879  155.1537 H   0  0  0  0  0  0  0  0  0  0  0  0
  149.5506  145.0095  158.8729 H   0  0  0  0  0  0  0  0  0  0  0  0
  149.9511  144.8493  160.5752 H   0  0  0  0  0  0  0  0  0  0  0  0
  149.5399  143.4289  159.6352 H   0  0  0  0  0  0  0  0  0  0  0  0
  151.6793  146.2461  158.4827 H   0  0  0  0  0  0  0  0  0  0  0  0
  153.2303  145.5660  158.9399 H   0  0  0  0  0  0  0  0  0  0  0  0
  152.1067  146.0874  160.1837 H   0  0  0  0  0  0  0  0  0  0  0  0
  1  2  1  0  0  0  0
  1 20  1  0  0  0  0
  1 21  1  0  0  0  0
  1 22  1  0  0  0  0
  2  3  1  0  0  0  0
  2 23  1  0  0  0  0
  2 24  1  0  0  0  0
  3  4  1  0  0  0  0
  4 17  1  0  0  0  0
  4  5  1  0  0  0  0
  4 25  1  0  0  0  0
  5  6  1  0  0  0  0
  5 26  1  0  0  0  0
  5 27  1  0  0  0  0
  6  7  1  0  0  0  0
  6 17  1  0  0  0  0
  6 28  1  0  0  0  0
  7  8  1  0  0  0  0
  7 29  1  0  0  0  0
  8  9  2  0  0  0  0
  8 10  1  0  0  0  0
 10 11  1  0  0  0  0
 10 30  1  0  0  0  0
 11 16  1  0  0  0  0
 11 12  2  0  0  0  0
 12 13  1  0  0  0  0
 12 31  1  0  0  0  0
 13 14  2  0  0  0  0
 13 32  1  0  0  0  0
 14 15  1  0  0  0  0
 14 33  1  0  0  0  0
 15 16  2  0  0  0  0
 16 34  1  0  0  0  0
 17 18  1  0  0  0  0
 17 19  1  0  0  0  0
 18 35  1  0  0  0  0
 18 36  1  0  0  0  0
 18 37  1  0  0  0  0
 19 38  1  0  0  0  0
 19 39  1  0  0  0  0
 19 40  1  0  0  0  0
M  END
> <s_m_source_file>
AV-unprocessed.smi

> <i_m_source_file_index>
805

> <i_lp_mmshare_version>
43012

> <i_f3d_flags>
0

> <s_epik_input>
W0NIM11bQ0gyXU9bQ0BASF0oQzEoW0NIM10pW0NIM10pW0NIMl1bQ0BIXTFbTkhdQyg9TylbTkhdYzJbY0hdW2NIXVtjSF1uW2NIXTI=

> <s_epik_cmdline>
J2VwaWtfcHl0aG9uJywgJy1waCcsICc3LjAnLCAnLXRuJywgJzgnLCAnLW1hJywgJzIwMCcsICctbWV0YWxfYmluZGluZycsICctaW1hZScsICc8aW5maWxlLm1hZT4nLCAnLW9tYWUnLCAnPG91dGZpbGUubWFlPic=

> <r_epik_Ionization_Penalty>
0.00485231

> <r_epik_Ionization_Penalty_Charging>
0

> <r_epik_Ionization_Penalty_Neutral>
0.00485231

> <r_epik_State_Penalty>
0.00349213

> <r_epik_Charging_Adjusted_Penalty>
0.00349213

> <i_epik_Tot_Q>
0

> <i_epik_Tot_abs_Q>
0

> <r_epik_Metal_State_Penalty>
-0

> <b_epik_Metal_Only>
0

> <s_lp_Force_Field>
OPLS_2005

> <r_lp_Energy>
21.475

> <b_lp_Chiralities_Consistent>
1

> <s_lp_Variant>
AV-unprocessed.smi:805-2

> <Gold.Version>
5.8.1

> <Gold.Id.Protein>
6NUR|6NUR_protein|mol2

> <Gold.PLP.Fitness>
50.4754

> <Gold.PLP.PLP>
-45.6290

> <Gold.PLP.part.hbond>
-3.0000

> <Gold.PLP.part.metal>
0.0000

> <Gold.PLP.part.buried>
-3.6447

> <Gold.PLP.part.nonpolar>
-38.5626

> <Gold.PLP.part.repulsive>
1.0448

> <Gold.PLP.ligand.clash>
0.0000

> <Gold.PLP.ligand.torsion>
0.9577

> <Gold.PLP.Chemscore.Hbond>
2.1533

> <Gold.PLP.Chemscore.CHOScore>
0.0000

> <Gold.PLP.Chemscore.Metal>
0.0000

> <Gold.Chemscore.Hbonds>
donor molecule, donor type, donor heavy atom, donor atom, acceptor molecule, acceptor atom, score
      L1  H     7    29       P1  8028  0.91
      L1  H    10    30       P1  8028  1.00
      P1  H  6933  6945       L1     3  0.24

> <Gold.PLP.Chemscore.Internal.Correction>
0.3019

> <Gold.Rescore>
     Score         DG    S(hbond)    S(metal)    S(lipo)     H(rot)  DE(clash)    DE(int)     intcor
     19.51     -23.26       2.08        0.00     122.24       1.36       0.15       3.59       ----

> <Gold.Chemscore.Fitness>
19.5131

> <Gold.Chemscore.DG>
-23.2567

> <Gold.Chemscore.ZeroCoef>
-5.4800

> <Gold.Chemscore.Hbond>
2.0790

> <Gold.Chemscore.Metal>
0.0000

> <Gold.Chemscore.Lipo>
122.2399

> <Gold.Chemscore.Internal_Hbond>
0.0000

> <Gold.Chemscore.DEClash>
0.1505

> <Gold.Chemscore.DEInternal>
3.5931

> <Gold.Chemscore.Rot>
1.3551

> <Gold.Chemscore.Internal.Correction>
   9.000000E+99

> <Gold.Chemscore.Hbonds>
donor molecule, donor type, donor heavy atom, donor atom, acceptor molecule, acceptor atom, score
      L1  H     7    29       P1  8028  0.87
      L1  H    10    30       P1  8028  0.99
      P1  H  6933  6945       L1     3  0.15

> <Gold.Chemscore.Hbond.Weighted>
-6.9437

> <Gold.Chemscore.Metal.Weighted>
-0.0000

> <Gold.Chemscore.Lipo.Weighted>
-14.3021

> <Gold.Chemscore.Internal_Hbond.Weighted>
0.0000

> <Gold.Chemscore.DEClash.Weighted>
0.1505

> <Gold.Chemscore.DEInternal.Weighted>
3.5931

> <Gold.Chemscore.Rot.Weighted>
3.4691

> <Gold.Chemscore.Internal.Correction.Weighted>
   9.000000E+99

> <Gold.Protein.RotatedTorsions>
[ 6907 6896 6895 6894 ] final -171.95 input  -60.11 | X-H torsion
[ 7974 7965 7964 7962 ] final -157.49 input  175.53 | X-H torsion
[ 8008 7997 7996 7995 ] final  122.66 input   59.86 | X-H torsion
[ 10167 10162 10161 10158 ] final   18.06 input  -65.29 | X-H torsion
[ 10718 10713 10712 10709 ] final  -66.46 input   66.30 | X-H torsion
[ 10763 10752 10751 10750 ] final    4.70 input  -60.55 | X-H torsion
[ 11005 11000 10999 10996 ] final  130.22 input  -57.11 | X-H torsion

> <Gold.Protein.ActiveResidues>
 VAL166  LYS551  ARG553  GLY616  TRP617  ASP618  TYR619  PRO620  LYS621  CYS622 
 ASP623  PHE694  ASN695  SER759  ASP760  ASP761  ALA762  ILE779  LEU786  VAL792 
 PHE793  MET794  SER795  GLU796  ALA797  LYS798  CYS799  TRP800  GLU811  SER814 

> <Gold.Protein.RotatedAtoms>
  151.5322  133.3447  159.2919 H   0  0  0  0  0  0  0  0  0  0  0  0  # atno 6907 bound_to 6896
  150.8587  134.7935  159.7076 H   0  0  0  0  0  0  0  0  0  0  0  0  # atno 6908 bound_to 6896
  152.4613  134.5187  159.9827 H   0  0  0  0  0  0  0  0  0  0  0  0  # atno 6909 bound_to 6896
  144.7546  140.3962  143.6022 H   0  0  0  0  0  0  0  0  0  0  0  0  # atno 7974 bound_to 7965
  156.2736  140.2781  156.1503 H   0  0  0  0  0  0  0  0  0  0  0  0  # atno 8008 bound_to 7997
  155.0861  140.0388  157.2672 H   0  0  0  0  0  0  0  0  0  0  0  0  # atno 8009 bound_to 7997
  154.6926  140.2632  155.6803 H   0  0  0  0  0  0  0  0  0  0  0  0  # atno 8010 bound_to 7997
  140.5681  143.9213  150.6691 H   0  0  0  0  0  0  0  0  0  0  0  0  # atno 10167 bound_to 10162
  156.0611  130.4262  150.1713 H   0  0  0  0  0  0  0  0  0  0  0  0  # atno 10718 bound_to 10713
  153.2681  135.6929  153.7509 H   0  0  0  0  0  0  0  0  0  0  0  0  # atno 10763 bound_to 10752
  153.6543  135.3371  155.3110 H   0  0  0  0  0  0  0  0  0  0  0  0  # atno 10764 bound_to 10752
  154.8454  135.4462  154.1694 H   0  0  0  0  0  0  0  0  0  0  0  0  # atno 10765 bound_to 10752
  139.9660  134.9590  156.9262 H   0  0  0  0  0  0  0  0  0  0  0  0  # atno 11005 bound_to 11000
  145.6824  139.1621  143.2693 LP  0  0  0  0  0  0  0  0  0  0  0  0  # atno 17320 bound_to 7965
  146.1540  140.6884  142.9308 LP  0  0  0  0  0  0  0  0  0  0  0  0  # atno 17321 bound_to 7965
  140.2681  143.3475  152.1262 LP  0  0  0  0  0  0  0  0  0  0  0  0  # atno 17342 bound_to 10162
  139.5103  144.6882  151.5831 LP  0  0  0  0  0  0  0  0  0  0  0  0  # atno 17343 bound_to 10162
  156.9781  130.9855  151.3444 LP  0  0  0  0  0  0  0  0  0  0  0  0  # atno 17370 bound_to 10713
  157.5620  130.8252  149.8278 LP  0  0  0  0  0  0  0  0  0  0  0  0  # atno 17371 bound_to 10713
  140.5397  134.0732  155.7338 LP  0  0  0  0  0  0  0  0  0  0  0  0  # atno 17394 bound_to 11000
  141.1339  133.9255  157.2476 LP  0  0  0  0  0  0  0  0  0  0  0  0  # atno 17395 bound_to 11000

$$$$
