AV-unprocessed.smi:2033|AV-procd|sdf|8260|dock2
  -GOLD-   2272010533D 1   1.00000     0.00000
 Structure written by MMmdl.
 33 34  0  0  0  0  0  0  0  0  1 V2000
  153.1159  143.4120  162.5024 C   0  0  0  0  0  0  0  0  0  0  0  0
  152.3619  143.1782  161.2380 C   0  0  0  0  0  0  0  0  0  0  0  0
  151.1412  143.6811  161.0160 N   0  0  0  0  0  0  0  0  0  0  0  0
  150.6452  143.3271  159.7690 N   0  0  0  0  0  0  0  0  0  0  0  0
  151.5097  142.5646  159.0857 C   0  0  0  0  0  0  0  0  0  0  0  0
  151.2590  142.0609  157.7822 N   0  0  0  0  0  0  0  0  0  0  0  0
  150.0979  141.6192  157.2679 C   0  0  0  0  0  0  0  0  0  0  0  0
  149.0228  141.5775  157.8670 O   0  0  0  0  0  0  0  0  0  0  0  0
  150.2532  141.2180  155.9978 N   0  0  0  0  0  0  0  0  0  0  0  0
  149.2093  140.6421  155.1481 C   0  0  1  0  0  0  0  0  0  0  0  0
  148.5634  141.7423  154.2764 C   0  0  0  0  0  0  0  0  0  0  0  0
  147.1519  141.3941  153.7770 C   0  0  0  0  0  0  0  0  0  0  0  0
  147.0796  140.1757  152.8448 C   0  0  0  0  0  0  0  0  0  0  0  0
  147.4614  138.8515  153.5284 C   0  0  0  0  0  0  0  0  0  0  0  0
  148.9035  138.6793  153.6510 N   0  0  0  0  0  0  0  0  0  0  0  0
  149.7565  139.4433  154.3504 C   0  0  0  0  0  0  0  0  0  0  0  0
  150.9621  139.1942  154.3489 O   0  0  0  0  0  0  0  0  0  0  0  0
  153.0158  142.2175  159.9176 S   0  0  0  0  0  0  0  0  0  0  0  0
  152.4901  143.9206  163.2366 H   0  0  0  0  0  0  0  0  0  0  0  0
  153.9927  144.0281  162.3034 H   0  0  0  0  0  0  0  0  0  0  0  0
  153.4433  142.4608  162.9223 H   0  0  0  0  0  0  0  0  0  0  0  0
  152.0609  142.0258  157.1705 H   0  0  0  0  0  0  0  0  0  0  0  0
  151.1734  141.2854  155.5876 H   0  0  0  0  0  0  0  0  0  0  0  0
  148.4458  140.2391  155.8164 H   0  0  0  0  0  0  0  0  0  0  0  0
  148.4823  142.6646  154.8533 H   0  0  0  0  0  0  0  0  0  0  0  0
  149.2114  141.9809  153.4318 H   0  0  0  0  0  0  0  0  0  0  0  0
  146.4930  141.2380  154.6321 H   0  0  0  0  0  0  0  0  0  0  0  0
  146.7501  142.2586  153.2477 H   0  0  0  0  0  0  0  0  0  0  0  0
  146.0543  140.0904  152.4833 H   0  0  0  0  0  0  0  0  0  0  0  0
  147.6951  140.3372  151.9588 H   0  0  0  0  0  0  0  0  0  0  0  0
  146.9815  138.7574  154.5038 H   0  0  0  0  0  0  0  0  0  0  0  0
  147.0929  138.0210  152.9258 H   0  0  0  0  0  0  0  0  0  0  0  0
  149.3004  137.9028  153.1421 H   0  0  0  0  0  0  0  0  0  0  0  0
  1  2  1  0  0  0  0
  1 19  1  0  0  0  0
  1 20  1  0  0  0  0
  1 21  1  0  0  0  0
  2 18  1  0  0  0  0
  2  3  2  0  0  0  0
  3  4  1  0  0  0  0
  4  5  2  0  0  0  0
  5  6  1  0  0  0  0
  5 18  1  0  0  0  0
  6  7  1  0  0  0  0
  6 22  1  0  0  0  0
  7  8  2  0  0  0  0
  7  9  1  0  0  0  0
  9 10  1  0  0  0  0
  9 23  1  0  0  0  0
 10 16  1  0  0  0  0
 10 11  1  0  0  0  0
 10 24  1  0  0  0  0
 11 12  1  0  0  0  0
 11 25  1  0  0  0  0
 11 26  1  0  0  0  0
 12 13  1  0  0  0  0
 12 27  1  0  0  0  0
 12 28  1  0  0  0  0
 13 14  1  0  0  0  0
 13 29  1  0  0  0  0
 13 30  1  0  0  0  0
 14 15  1  0  0  0  0
 14 31  1  0  0  0  0
 14 32  1  0  0  0  0
 15 16  1  0  0  0  0
 15 33  1  0  0  0  0
 16 17  2  0  0  0  0
M  END
> <s_m_source_file>
AV-unprocessed.smi

> <i_m_source_file_index>
2033

> <i_lp_mmshare_version>
43012

> <i_f3d_flags>
0

> <s_epik_input>
W0NIM11jMW5uYyhzMSlbTkhdQyg9TylbTkhdW0NAQEhdMltDSDJdW0NIMl1bQ0gyXVtDSDJdW05IXUMyPU8=

> <s_epik_cmdline>
J2VwaWtfcHl0aG9uJywgJy1waCcsICc3LjAnLCAnLXRuJywgJzgnLCAnLW1hJywgJzIwMCcsICctbWV0YWxfYmluZGluZycsICctaW1hZScsICc8aW5maWxlLm1hZT4nLCAnLW9tYWUnLCAnPG91dGZpbGUubWFlPic=

> <r_lp_tautomer_probability>
1

> <r_epik_Ionization_Penalty>
0.00079266

> <r_epik_Ionization_Penalty_Charging>
0

> <r_epik_Ionization_Penalty_Neutral>
0.00079266

> <r_epik_State_Penalty>
-0

> <r_epik_Charging_Adjusted_Penalty>
0

> <i_epik_Tot_Q>
0

> <i_epik_Tot_abs_Q>
0

> <r_epik_Metal_State_Penalty>
0.265831

> <b_epik_Metal_Only>
0

> <s_lp_Force_Field>
OPLS_2005

> <r_lp_Energy>
9.00356

> <b_lp_Chiralities_Consistent>
1

> <s_lp_Variant>
AV-unprocessed.smi:2033-2

> <Gold.Version>
5.8.1

> <Gold.Id.Protein>
6NUR|6NUR_protein|mol2

> <Gold.PLP.Fitness>
41.2694

> <Gold.PLP.PLP>
-35.9294

> <Gold.PLP.part.hbond>
-5.0000

> <Gold.PLP.part.metal>
0.0000

> <Gold.PLP.part.buried>
-2.6199

> <Gold.PLP.part.nonpolar>
-28.6793

> <Gold.PLP.part.repulsive>
0.5932

> <Gold.PLP.ligand.clash>
0.0000

> <Gold.PLP.ligand.torsion>
0.5593

> <Gold.PLP.Chemscore.Hbond>
2.1436

> <Gold.PLP.Chemscore.CHOScore>
0.0000

> <Gold.PLP.Chemscore.Metal>
0.0000

> <Gold.Chemscore.Hbonds>
donor molecule, donor type, donor heavy atom, donor atom, acceptor molecule, acceptor atom, score
      L1  H    15    33       P1  7948  0.80
      P1  H  7989  7998       L1    17  1.00

> <Gold.PLP.Chemscore.Internal.Correction>
0.0276

> <Gold.Rescore>
     Score         DG    S(hbond)    S(metal)    S(lipo)     H(rot)  DE(clash)    DE(int)     intcor
     15.08     -16.06       1.57        0.00      67.51       1.00       0.24       0.74       ----

> <Gold.Chemscore.Fitness>
15.0844

> <Gold.Chemscore.DG>
-16.0649

> <Gold.Chemscore.ZeroCoef>
-5.4800

> <Gold.Chemscore.Hbond>
1.5706

> <Gold.Chemscore.Metal>
0.0000

> <Gold.Chemscore.Lipo>
67.5146

> <Gold.Chemscore.Internal_Hbond>
0.0000

> <Gold.Chemscore.DEClash>
0.2359

> <Gold.Chemscore.DEInternal>
0.7446

> <Gold.Chemscore.Rot>
1.0000

> <Gold.Chemscore.Internal.Correction>
   9.000000E+99

> <Gold.Chemscore.Hbonds>
donor molecule, donor type, donor heavy atom, donor atom, acceptor molecule, acceptor atom, score
      L1  H    15    33       P1  7948  0.72
      P1  H  7989  7998       L1    17  0.25

> <Gold.Chemscore.Hbond.Weighted>
-5.2457

> <Gold.Chemscore.Metal.Weighted>
-0.0000

> <Gold.Chemscore.Lipo.Weighted>
-7.8992

> <Gold.Chemscore.Internal_Hbond.Weighted>
0.0000

> <Gold.Chemscore.DEClash.Weighted>
0.2359

> <Gold.Chemscore.DEInternal.Weighted>
0.7446

> <Gold.Chemscore.Rot.Weighted>
2.5600

> <Gold.Chemscore.Internal.Correction.Weighted>
   9.000000E+99

> <Gold.Protein.RotatedTorsions>
[ 6907 6896 6895 6894 ] final   63.83 input  -60.11 | X-H torsion
[ 7974 7965 7964 7962 ] final  174.53 input  175.53 | X-H torsion
[ 8008 7997 7996 7995 ] final -143.19 input   59.86 | X-H torsion
[ 10167 10162 10161 10158 ] final  -69.41 input  -65.29 | X-H torsion
[ 10718 10713 10712 10709 ] final   62.63 input   66.30 | X-H torsion
[ 10763 10752 10751 10750 ] final   59.55 input  -60.55 | X-H torsion
[ 11005 11000 10999 10996 ] final -154.03 input  -57.11 | X-H torsion

> <Gold.Protein.ActiveResidues>
 VAL166  LYS551  ARG553  GLY616  TRP617  ASP618  TYR619  PRO620  LYS621  CYS622 
 ASP623  PHE694  ASN695  SER759  ASP760  ASP761  ALA762  ILE779  LEU786  VAL792 
 PHE793  MET794  SER795  GLU796  ALA797  LYS798  CYS799  TRP800  GLU811  SER814 

> <Gold.Protein.RotatedAtoms>
  152.4284  134.5824  159.9951 H   0  0  0  0  0  0  0  0  0  0  0  0  # atno 6907 bound_to 6896
  151.5954  133.3356  159.3044 H   0  0  0  0  0  0  0  0  0  0  0  0  # atno 6908 bound_to 6896
  150.8175  134.7401  159.6808 H   0  0  0  0  0  0  0  0  0  0  0  0  # atno 6909 bound_to 6896
  144.7219  139.9811  143.6439 H   0  0  0  0  0  0  0  0  0  0  0  0  # atno 7974 bound_to 7965
  155.5066  140.0580  157.2930 H   0  0  0  0  0  0  0  0  0  0  0  0  # atno 8008 bound_to 7997
  154.4567  140.1976  156.0308 H   0  0  0  0  0  0  0  0  0  0  0  0  # atno 8009 bound_to 7997
  156.0813  140.3246  155.7701 H   0  0  0  0  0  0  0  0  0  0  0  0  # atno 8010 bound_to 7997
  140.5433  143.2314  151.7049 H   0  0  0  0  0  0  0  0  0  0  0  0  # atno 10167 bound_to 10162
  157.5914  130.9060  149.9612 H   0  0  0  0  0  0  0  0  0  0  0  0  # atno 10718 bound_to 10713
  152.9897  135.5568  154.5731 H   0  0  0  0  0  0  0  0  0  0  0  0  # atno 10763 bound_to 10752
  154.5127  135.2803  155.1331 H   0  0  0  0  0  0  0  0  0  0  0  0  # atno 10764 bound_to 10752
  154.2716  135.6362  153.5365 H   0  0  0  0  0  0  0  0  0  0  0  0  # atno 10765 bound_to 10752
  140.7018  134.3929  157.5209 H   0  0  0  0  0  0  0  0  0  0  0  0  # atno 11005 bound_to 11000
  146.0486  139.3490  143.0653 LP  0  0  0  0  0  0  0  0  0  0  0  0  # atno 17320 bound_to 7965
  145.8243  140.9663  143.0882 LP  0  0  0  0  0  0  0  0  0  0  0  0  # atno 17321 bound_to 7965
  139.4997  144.3934  152.0256 LP  0  0  0  0  0  0  0  0  0  0  0  0  # atno 17342 bound_to 10162
  140.3045  144.3608  150.6051 LP  0  0  0  0  0  0  0  0  0  0  0  0  # atno 17343 bound_to 10162
  156.0969  130.3658  150.0289 LP  0  0  0  0  0  0  0  0  0  0  0  0  # atno 17370 bound_to 10713
  156.8411  130.9426  151.3632 LP  0  0  0  0  0  0  0  0  0  0  0  0  # atno 17371 bound_to 10713
  139.8895  134.8829  156.2419 LP  0  0  0  0  0  0  0  0  0  0  0  0  # atno 17394 bound_to 11000
  141.0158  133.7069  156.1185 LP  0  0  0  0  0  0  0  0  0  0  0  0  # atno 17395 bound_to 11000

$$$$
