AV-unprocessed.smi:1053|AV-procd|sdf|4617|dock2
  -GOLD-   22720 3113D 1   1.00000     0.00000
 Structure written by MMmdl.
 38 39  0  0  0  0  0  0  0  0  2 V2000
  148.3448  133.9690  154.1965 C   0  0  0  0  0  0  0  0  0  0  0  0
  149.6421  134.5693  154.7562 C   0  0  0  0  0  0  0  0  0  0  0  0
  149.6401  136.0534  154.7347 N   0  3  1  0  0  0  0  0  0  0  0  0
  148.3790  136.6215  155.2670 C   0  0  0  0  0  0  0  0  0  0  0  0
  148.4036  138.1558  155.1858 C   0  0  0  0  0  0  0  0  0  0  0  0
  149.5384  138.6455  155.8869 O   0  0  0  0  0  0  0  0  0  0  0  0
  150.7642  138.1969  155.3178 C   0  0  1  0  0  0  0  0  0  0  0  0
  151.9331  138.8481  156.0764 C   0  0  0  0  0  0  0  0  0  0  0  0
  151.6705  140.2433  156.4044 N   0  0  0  0  0  0  0  0  0  0  0  0
  152.2088  140.9182  157.4852 C   0  0  0  0  0  0  0  0  0  0  0  0
  153.0810  140.2755  158.2701 N   0  0  0  0  0  0  0  0  0  0  0  0
  153.5889  140.9623  159.3159 C   0  0  0  0  0  0  0  0  0  0  0  0
  153.2207  142.2968  159.5756 C   0  0  0  0  0  0  0  0  0  0  0  0
  152.2929  142.8760  158.6813 C   0  0  0  0  0  0  0  0  0  0  0  0
  151.8041  144.3082  158.8374 C   0  0  0  0  0  0  0  0  0  0  0  0
  150.4714  144.3278  158.8622 F   0  0  0  0  0  0  0  0  0  0  0  0
  152.2561  144.8595  159.9644 F   0  0  0  0  0  0  0  0  0  0  0  0
  152.2268  145.0429  157.8084 F   0  0  0  0  0  0  0  0  0  0  0  0
  151.7915  142.1765  157.6364 N   0  0  0  0  0  0  0  0  0  0  0  0
  150.8094  136.6593  155.4196 C   0  0  0  0  0  0  0  0  0  0  0  0
  148.3424  132.8854  154.3174 H   0  0  0  0  0  0  0  0  0  0  0  0
  148.2235  134.1741  153.1332 H   0  0  0  0  0  0  0  0  0  0  0  0
  147.4713  134.3609  154.7184 H   0  0  0  0  0  0  0  0  0  0  0  0
  149.7486  134.2299  155.7875 H   0  0  0  0  0  0  0  0  0  0  0  0
  150.5080  134.1870  154.2140 H   0  0  0  0  0  0  0  0  0  0  0  0
  147.5292  136.2387  154.7005 H   0  0  0  0  0  0  0  0  0  0  0  0
  148.2438  136.3055  156.3027 H   0  0  0  0  0  0  0  0  0  0  0  0
  148.4244  138.4943  154.1485 H   0  0  0  0  0  0  0  0  0  0  0  0
  147.5030  138.5710  155.6382 H   0  0  0  0  0  0  0  0  0  0  0  0
  150.8131  138.4907  154.2673 H   0  0  0  0  0  0  0  0  0  0  0  0
  152.1816  138.2781  156.9725 H   0  0  0  0  0  0  0  0  0  0  0  0
  152.8245  138.8326  155.4491 H   0  0  0  0  0  0  0  0  0  0  0  0
  150.9564  140.7254  155.8778 H   0  0  0  0  0  0  0  0  0  0  0  0
  154.2926  140.4432  159.9497 H   0  0  0  0  0  0  0  0  0  0  0  0
  153.6317  142.8389  160.4143 H   0  0  0  0  0  0  0  0  0  0  0  0
  150.8181  136.3517  156.4667 H   0  0  0  0  0  0  0  0  0  0  0  0
  151.7352  136.2980  154.9728 H   0  0  0  0  0  0  0  0  0  0  0  0
  149.6882  136.3298  153.7642 H   0  0  0  0  0  0  0  0  0  0  0  0
  1  2  1  0  0  0  0
  1 21  1  0  0  0  0
  1 22  1  0  0  0  0
  1 23  1  0  0  0  0
  2  3  1  0  0  0  0
  2 24  1  0  0  0  0
  2 25  1  0  0  0  0
  3 20  1  0  0  0  0
  3  4  1  0  0  0  0
  3 38  1  0  0  0  0
  4  5  1  0  0  0  0
  4 26  1  0  0  0  0
  4 27  1  0  0  0  0
  5  6  1  0  0  0  0
  5 28  1  0  0  0  0
  5 29  1  0  0  0  0
  6  7  1  0  0  0  0
  7  8  1  0  0  0  0
  7 20  1  0  0  0  0
  7 30  1  0  0  0  0
  8  9  1  0  0  0  0
  8 31  1  0  0  0  0
  8 32  1  0  0  0  0
  9 10  1  0  0  0  0
  9 33  1  0  0  0  0
 10 19  1  0  0  0  0
 10 11  2  0  0  0  0
 11 12  1  0  0  0  0
 12 13  2  0  0  0  0
 12 34  1  0  0  0  0
 13 14  1  0  0  0  0
 13 35  1  0  0  0  0
 14 15  1  0  0  0  0
 14 19  2  0  0  0  0
 15 16  1  0  0  0  0
 15 17  1  0  0  0  0
 15 18  1  0  0  0  0
 20 36  1  0  0  0  0
 20 37  1  0  0  0  0
M  CHG  1   3   1
M  END
> <s_m_source_file>
AV-unprocessed.smi

> <i_m_source_file_index>
1053

> <i_lp_mmshare_version>
43012

> <i_f3d_flags>
0

> <s_epik_input>
W0NIM11bQ0gyXU4xW0NIMl1bQ0gyXU9bQ0BIXShbQ0gyXTEpW0NIMl1bTkhdYzJuW2NIXVtjSF1jKG4yKUMoRikoRilG

> <s_epik_cmdline>
J2VwaWtfcHl0aG9uJywgJy1waCcsICc3LjAnLCAnLXRuJywgJzgnLCAnLW1hJywgJzIwMCcsICctbWV0YWxfYmluZGluZycsICctaW1hZScsICc8aW5maWxlLm1hZT4nLCAnLW9tYWUnLCAnPG91dGZpbGUubWFlPic=

> <r_lp_tautomer_probability>
1

> <r_epik_Ionization_Penalty>
0.178506

> <r_epik_Ionization_Penalty_Charging>
0.178504

> <r_epik_Ionization_Penalty_Neutral>
2.47619e-06

> <r_epik_State_Penalty>
0.167974

> <r_epik_Charging_Adjusted_Penalty>
0.346478

> <i_epik_Tot_Q>
1

> <i_epik_Tot_abs_Q>
1

> <r_epik_Metal_State_Penalty>
0.167974

> <b_epik_Metal_Only>
0

> <s_lp_Force_Field>
OPLS_2005

> <r_lp_Energy>
10.9386

> <b_lp_Chiralities_Consistent>
1

> <s_lp_Variant>
AV-unprocessed.smi:1053-1

> <Gold.Version>
5.8.1

> <Gold.Id.Protein>
6NUR|6NUR_protein|mol2

> <Gold.PLP.Fitness>
44.6681

> <Gold.PLP.PLP>
-36.8060

> <Gold.PLP.part.hbond>
-2.0000

> <Gold.PLP.part.metal>
0.0000

> <Gold.PLP.part.buried>
-4.7770

> <Gold.PLP.part.nonpolar>
-29.4755

> <Gold.PLP.part.repulsive>
0.2054

> <Gold.PLP.ligand.clash>
0.0000

> <Gold.PLP.ligand.torsion>
0.5432

> <Gold.PLP.Chemscore.Hbond>
2.9760

> <Gold.PLP.Chemscore.CHOScore>
0.0000

> <Gold.PLP.Chemscore.Metal>
0.0000

> <Gold.Chemscore.Hbonds>
donor molecule, donor type, donor heavy atom, donor atom, acceptor molecule, acceptor atom, score
      L1  H     3    38       P1  7948  2.00
      P1  H  7997  8009       L1    11  0.93

> <Gold.PLP.Chemscore.Internal.Correction>
0.0205

> <Gold.Rescore>
     Score         DG    S(hbond)    S(metal)    S(lipo)     H(rot)  DE(clash)    DE(int)     intcor
     12.41     -12.89       0.98        0.00      69.46       1.55       0.12       0.36       ----

> <Gold.Chemscore.Fitness>
12.4082

> <Gold.Chemscore.DG>
-12.8888

> <Gold.Chemscore.ZeroCoef>
-5.4800

> <Gold.Chemscore.Hbond>
0.9769

> <Gold.Chemscore.Metal>
0.0000

> <Gold.Chemscore.Lipo>
69.4572

> <Gold.Chemscore.Internal_Hbond>
0.0000

> <Gold.Chemscore.DEClash>
0.1198

> <Gold.Chemscore.DEInternal>
0.3609

> <Gold.Chemscore.Rot>
1.5549

> <Gold.Chemscore.Internal.Correction>
   9.000000E+99

> <Gold.Chemscore.Hbonds>
donor molecule, donor type, donor heavy atom, donor atom, acceptor molecule, acceptor atom, score
      L1  H     3    38       P1  7948  0.41
      P1  H  7997  8009       L1    11  0.12

> <Gold.Chemscore.Hbond.Weighted>
-3.2629

> <Gold.Chemscore.Metal.Weighted>
-0.0000

> <Gold.Chemscore.Lipo.Weighted>
-8.1265

> <Gold.Chemscore.Internal_Hbond.Weighted>
0.0000

> <Gold.Chemscore.DEClash.Weighted>
0.1198

> <Gold.Chemscore.DEInternal.Weighted>
0.3609

> <Gold.Chemscore.Rot.Weighted>
3.9806

> <Gold.Chemscore.Internal.Correction.Weighted>
   9.000000E+99

> <Gold.Protein.RotatedTorsions>
[ 6907 6896 6895 6894 ] final -107.77 input  -60.11 | X-H torsion
[ 7974 7965 7964 7962 ] final   76.25 input  175.53 | X-H torsion
[ 8008 7997 7996 7995 ] final  153.45 input   59.86 | X-H torsion
[ 10167 10162 10161 10158 ] final -173.74 input  -65.29 | X-H torsion
[ 10718 10713 10712 10709 ] final  -78.47 input   66.30 | X-H torsion
[ 10763 10752 10751 10750 ] final  -44.37 input  -60.55 | X-H torsion
[ 11005 11000 10999 10996 ] final   36.82 input  -57.11 | X-H torsion

> <Gold.Protein.ActiveResidues>
 VAL166  LYS551  ARG553  GLY616  TRP617  ASP618  TYR619  PRO620  LYS621  CYS622 
 ASP623  PHE694  ASN695  SER759  ASP760  ASP761  ALA762  ILE779  LEU786  VAL792 
 PHE793  MET794  SER795  GLU796  ALA797  LYS798  CYS799  TRP800  GLU811  SER814 

> <Gold.Protein.RotatedAtoms>
  150.7463  133.9777  159.3565 H   0  0  0  0  0  0  0  0  0  0  0  0  # atno 6907 bound_to 6896
  151.7715  135.0783  160.0370 H   0  0  0  0  0  0  0  0  0  0  0  0  # atno 6908 bound_to 6896
  152.3335  133.5949  159.5862 H   0  0  0  0  0  0  0  0  0  0  0  0  # atno 6909 bound_to 6896
  145.7053  139.2596  143.1682 H   0  0  0  0  0  0  0  0  0  0  0  0  # atno 7974 bound_to 7965
  156.2580  140.1993  156.6493 H   0  0  0  0  0  0  0  0  0  0  0  0  # atno 8008 bound_to 7997
  154.6549  140.0567  157.0022 H   0  0  0  0  0  0  0  0  0  0  0  0  # atno 8009 bound_to 7997
  155.1362  140.3238  155.4465 H   0  0  0  0  0  0  0  0  0  0  0  0  # atno 8010 bound_to 7997
  139.5671  144.1729  152.1329 H   0  0  0  0  0  0  0  0  0  0  0  0  # atno 10167 bound_to 10162
  156.0117  130.4519  150.3501 H   0  0  0  0  0  0  0  0  0  0  0  0  # atno 10718 bound_to 10713
  154.0110  135.6681  153.4765 H   0  0  0  0  0  0  0  0  0  0  0  0  # atno 10763 bound_to 10752
  153.0621  135.5022  154.8113 H   0  0  0  0  0  0  0  0  0  0  0  0  # atno 10764 bound_to 10752
  154.6995  135.3076  154.9325 H   0  0  0  0  0  0  0  0  0  0  0  0  # atno 10765 bound_to 10752
  140.2288  134.3553  155.7973 H   0  0  0  0  0  0  0  0  0  0  0  0  # atno 11005 bound_to 11000
  146.0761  140.7815  142.9664 LP  0  0  0  0  0  0  0  0  0  0  0  0  # atno 17320 bound_to 7965
  144.6957  140.3417  143.7198 LP  0  0  0  0  0  0  0  0  0  0  0  0  # atno 17321 bound_to 7965
  140.1254  144.5336  150.6836 LP  0  0  0  0  0  0  0  0  0  0  0  0  # atno 17342 bound_to 10162
  140.6955  143.2401  151.5012 LP  0  0  0  0  0  0  0  0  0  0  0  0  # atno 17343 bound_to 10162
  157.1593  131.0341  151.2848 LP  0  0  0  0  0  0  0  0  0  0  0  0  # atno 17370 bound_to 10713
  157.4325  130.7498  149.7001 LP  0  0  0  0  0  0  0  0  0  0  0  0  # atno 17371 bound_to 10713
  141.2219  133.7234  156.8697 LP  0  0  0  0  0  0  0  0  0  0  0  0  # atno 17394 bound_to 11000
  140.1772  134.9058  157.2905 LP  0  0  0  0  0  0  0  0  0  0  0  0  # atno 17395 bound_to 11000

$$$$
