AV-unprocessed.smi:1830|AV-procd|sdf|7455|dock6
  -GOLD-   22720 9143D 1   1.00000     0.00000
 Structure written by MMmdl.
 53 56  0  0  0  0  0  0  0  0  2 V2000
  148.9136  136.9337  156.2867 O   0  0  0  0  0  0  0  0  0  0  0  0
  148.8601  136.5816  155.1086 C   0  0  0  0  0  0  0  0  0  0  0  0
  149.7399  136.9686  154.1749 N   0  0  0  0  0  0  0  0  0  0  0  0
  150.8929  137.8363  154.4020 C   0  0  0  0  0  0  0  0  0  0  0  0
  150.5732  138.9873  155.3728 C   0  0  1  0  0  0  0  0  0  0  0  0
  151.6716  139.2396  156.4351 C   0  0  0  0  0  0  0  0  0  0  0  0
  151.3185  140.3918  157.2410 N   0  0  0  0  0  0  0  0  0  0  0  0
  152.2809  140.8158  158.2313 C   0  0  0  0  0  0  0  0  0  0  0  0
  151.8373  142.2411  158.6053 C   0  0  0  0  0  0  0  0  0  0  0  0
  150.9615  142.6967  157.4170 C   0  0  0  0  0  0  0  0  0  0  0  0
  151.1303  141.5538  156.4143 C   0  0  2  0  0  0  0  0  0  0  0  0
  149.9999  141.3235  155.4004 C   0  0  0  0  0  0  0  0  0  0  0  0
  150.3356  140.1787  154.6117 O   0  0  0  0  0  0  0  0  0  0  0  0
  147.9207  135.7760  154.5859 N   0  0  0  0  0  0  0  0  0  0  0  0
  146.7913  135.2087  155.2411 C   0  0  0  0  0  0  0  0  0  0  0  0
  146.5504  135.4386  156.6203 C   0  0  0  0  0  0  0  0  0  0  0  0
  145.4649  134.8103  157.2589 C   0  0  0  0  0  0  0  0  0  0  0  0
  144.6446  133.9465  156.5135 C   0  0  0  0  0  0  0  0  0  0  0  0
  144.9078  133.7368  155.2072 N   0  3  0  0  0  0  0  0  0  0  0  0
  145.9280  134.3235  154.5321 C   0  0  0  0  0  0  0  0  0  0  0  0
  146.0746  134.0158  153.1601 N   0  0  0  0  0  0  0  0  0  0  0  0
  145.5704  132.7552  152.6278 C   0  0  0  0  0  0  0  0  0  0  0  0
  145.5817  132.9332  151.1121 C   0  0  0  0  0  0  0  0  0  0  0  0
  145.2289  134.4090  150.9528 C   0  0  0  0  0  0  0  0  0  0  0  0
  145.8775  135.0727  152.1725 C   0  0  0  0  0  0  0  0  0  0  0  0
  149.6177  136.6259  153.2332 H   0  0  0  0  0  0  0  0  0  0  0  0
  151.6951  137.2249  154.8158 H   0  0  0  0  0  0  0  0  0  0  0  0
  151.2751  138.2373  153.4620 H   0  0  0  0  0  0  0  0  0  0  0  0
  149.6450  138.7374  155.8899 H   0  0  0  0  0  0  0  0  0  0  0  0
  151.7903  138.3617  157.0709 H   0  0  0  0  0  0  0  0  0  0  0  0
  152.6337  139.4140  155.9524 H   0  0  0  0  0  0  0  0  0  0  0  0
  152.2998  140.1425  159.0887 H   0  0  0  0  0  0  0  0  0  0  0  0
  153.2819  140.8409  157.7975 H   0  0  0  0  0  0  0  0  0  0  0  0
  151.2548  142.2398  159.5272 H   0  0  0  0  0  0  0  0  0  0  0  0
  152.6981  142.8938  158.7534 H   0  0  0  0  0  0  0  0  0  0  0  0
  149.9201  142.7860  157.7297 H   0  0  0  0  0  0  0  0  0  0  0  0
  151.2764  143.6559  157.0051 H   0  0  0  0  0  0  0  0  0  0  0  0
  152.0495  141.7398  155.8545 H   0  0  0  0  0  0  0  0  0  0  0  0
  149.0454  141.1617  155.9035 H   0  0  0  0  0  0  0  0  0  0  0  0
  149.8831  142.1896  154.7488 H   0  0  0  0  0  0  0  0  0  0  0  0
  147.9570  135.6434  153.5857 H   0  0  0  0  0  0  0  0  0  0  0  0
  147.1977  136.0720  157.2079 H   0  0  0  0  0  0  0  0  0  0  0  0
  145.2735  134.9795  158.3085 H   0  0  0  0  0  0  0  0  0  0  0  0
  143.7952  133.4162  156.9194 H   0  0  0  0  0  0  0  0  0  0  0  0
  146.1897  131.9141  152.9410 H   0  0  0  0  0  0  0  0  0  0  0  0
  144.5491  132.5777  152.9676 H   0  0  0  0  0  0  0  0  0  0  0  0
  146.5825  132.7453  150.7207 H   0  0  0  0  0  0  0  0  0  0  0  0
  144.8854  132.2685  150.6001 H   0  0  0  0  0  0  0  0  0  0  0  0
  145.5735  134.8302  150.0080 H   0  0  0  0  0  0  0  0  0  0  0  0
  144.1460  134.5324  151.0000 H   0  0  0  0  0  0  0  0  0  0  0  0
  145.2601  135.8858  152.5567 H   0  0  0  0  0  0  0  0  0  0  0  0
  146.8497  135.4836  151.8991 H   0  0  0  0  0  0  0  0  0  0  0  0
  144.2954  133.1027  154.6938 H   0  0  0  0  0  0  0  0  0  0  0  0
  1  2  2  0  0  0  0
  2  3  1  0  0  0  0
  2 14  1  0  0  0  0
  3  4  1  0  0  0  0
  3 26  1  0  0  0  0
  4  5  1  0  0  0  0
  4 27  1  0  0  0  0
  4 28  1  0  0  0  0
  5 13  1  0  0  0  0
  5  6  1  0  0  0  0
  5 29  1  0  0  0  0
  6  7  1  0  0  0  0
  6 30  1  0  0  0  0
  6 31  1  0  0  0  0
  7 11  1  0  0  0  0
  7  8  1  0  0  0  0
  8  9  1  0  0  0  0
  8 32  1  0  0  0  0
  8 33  1  0  0  0  0
  9 10  1  0  0  0  0
  9 34  1  0  0  0  0
  9 35  1  0  0  0  0
 10 11  1  0  0  0  0
 10 36  1  0  0  0  0
 10 37  1  0  0  0  0
 11 12  1  0  0  0  0
 11 38  1  0  0  0  0
 12 13  1  0  0  0  0
 12 39  1  0  0  0  0
 12 40  1  0  0  0  0
 14 15  1  0  0  0  0
 14 41  1  0  0  0  0
 15 20  1  0  0  0  0
 15 16  2  0  0  0  0
 16 17  1  0  0  0  0
 16 42  1  0  0  0  0
 17 18  2  0  0  0  0
 17 43  1  0  0  0  0
 18 19  1  0  0  0  0
 18 44  1  0  0  0  0
 19 20  2  0  0  0  0
 19 53  1  0  0  0  0
 20 21  1  0  0  0  0
 21 25  1  0  0  0  0
 21 22  1  0  0  0  0
 22 23  1  0  0  0  0
 22 45  1  0  0  0  0
 22 46  1  0  0  0  0
 23 24  1  0  0  0  0
 23 47  1  0  0  0  0
 23 48  1  0  0  0  0
 24 25  1  0  0  0  0
 24 49  1  0  0  0  0
 24 50  1  0  0  0  0
 25 51  1  0  0  0  0
 25 52  1  0  0  0  0
M  CHG  1  19   1
M  END
> <s_m_source_file>
AV-unprocessed.smi

> <i_m_source_file_index>
1830

> <i_lp_mmshare_version>
43012

> <i_f3d_flags>
0

> <s_epik_input>
W0NIMl0xW0NIMl1bQ0gyXVtDQEhdKE4xMilbQ0gyXU9bQ0BASF0oW0NIMl0yKVtDSDJdW05IXUMoPU8pW05IXWMzW2NIXVtjSF1bY0hdbmMzTjRbQ0gyXVtDSDJdW0NIMl1bQ0gyXTQ=

> <s_epik_cmdline>
J2VwaWtfcHl0aG9uJywgJy1waCcsICc3LjAnLCAnLXRuJywgJzgnLCAnLW1hJywgJzIwMCcsICctbWV0YWxfYmluZGluZycsICctaW1hZScsICc8aW5maWxlLm1hZT4nLCAnLW9tYWUnLCAnPG91dGZpbGUubWFlPic=

> <r_epik_Ionization_Penalty>
2.19264

> <r_epik_Ionization_Penalty_Charging>
1.12452

> <r_epik_Ionization_Penalty_Neutral>
1.06812

> <r_epik_State_Penalty>
2.334

> <r_epik_Charging_Adjusted_Penalty>
3.45852

> <i_epik_Tot_Q>
1

> <i_epik_Tot_abs_Q>
1

> <r_epik_Metal_State_Penalty>
2.41144

> <b_epik_Metal_Only>
0

> <s_lp_Force_Field>
OPLS_2005

> <r_lp_Energy>
84.0052

> <b_lp_Chiralities_Consistent>
1

> <s_lp_Variant>
AV-unprocessed.smi:1830-24

> <Gold.Version>
5.8.1

> <Gold.Id.Protein>
6NUR|6NUR_protein|mol2

> <Gold.PLP.Fitness>
42.3236

> <Gold.PLP.PLP>
-31.1637

> <Gold.PLP.part.hbond>
-4.4647

> <Gold.PLP.part.metal>
0.0000

> <Gold.PLP.part.buried>
-4.8162

> <Gold.PLP.part.nonpolar>
-23.2098

> <Gold.PLP.part.repulsive>
0.2302

> <Gold.PLP.ligand.clash>
0.0000

> <Gold.PLP.ligand.torsion>
1.1278

> <Gold.PLP.Chemscore.Hbond>
4.3343

> <Gold.PLP.Chemscore.CHOScore>
0.0000

> <Gold.PLP.Chemscore.Metal>
0.0000

> <Gold.Chemscore.Hbonds>
donor molecule, donor type, donor heavy atom, donor atom, acceptor molecule, acceptor atom, score
      L1  H     3    26       P1  7948  1.00
      L1  H    14    41       P1  7948  0.80
      L1  H    19    53       P1 10957  1.51
      P1  H  7989  7998       L1    13  1.00

> <Gold.PLP.Chemscore.Internal.Correction>
0.4126

> <Gold.Rescore>
     Score         DG    S(hbond)    S(metal)    S(lipo)     H(rot)  DE(clash)    DE(int)     intcor
     16.93     -20.80       2.82        0.00      80.94       1.40       0.01       3.85       ----

> <Gold.Chemscore.Fitness>
16.9299

> <Gold.Chemscore.DG>
-20.7995

> <Gold.Chemscore.ZeroCoef>
-5.4800

> <Gold.Chemscore.Hbond>
2.8212

> <Gold.Chemscore.Metal>
0.0000

> <Gold.Chemscore.Lipo>
80.9417

> <Gold.Chemscore.Internal_Hbond>
0.0000

> <Gold.Chemscore.DEClash>
0.0149

> <Gold.Chemscore.DEInternal>
3.8547

> <Gold.Chemscore.Rot>
1.3959

> <Gold.Chemscore.Internal.Correction>
   9.000000E+99

> <Gold.Chemscore.Hbonds>
donor molecule, donor type, donor heavy atom, donor atom, acceptor molecule, acceptor atom, score
      L1  H     3    26       P1  7948  0.47
      L1  H    14    41       P1  7948  0.75
      L1  H    19    53       P1 10957  0.72
      P1  H  7989  7998       L1    13  0.29

> <Gold.Chemscore.Hbond.Weighted>
-9.4230

> <Gold.Chemscore.Metal.Weighted>
-0.0000

> <Gold.Chemscore.Lipo.Weighted>
-9.4702

> <Gold.Chemscore.Internal_Hbond.Weighted>
0.0000

> <Gold.Chemscore.DEClash.Weighted>
0.0149

> <Gold.Chemscore.DEInternal.Weighted>
3.8547

> <Gold.Chemscore.Rot.Weighted>
3.5736

> <Gold.Chemscore.Internal.Correction.Weighted>
   9.000000E+99

> <Gold.Protein.RotatedTorsions>
[ 6907 6896 6895 6894 ] final  114.06 input  -60.11 | X-H torsion
[ 7974 7965 7964 7962 ] final  -20.62 input  175.53 | X-H torsion
[ 8008 7997 7996 7995 ] final   43.71 input   59.86 | X-H torsion
[ 10167 10162 10161 10158 ] final  -45.44 input  -65.29 | X-H torsion
[ 10718 10713 10712 10709 ] final   54.15 input   66.30 | X-H torsion
[ 10763 10752 10751 10750 ] final  -61.08 input  -60.55 | X-H torsion
[ 11005 11000 10999 10996 ] final  100.65 input  -57.11 | X-H torsion

> <Gold.Protein.ActiveResidues>
 VAL166  LYS551  ARG553  GLY616  TRP617  ASP618  TYR619  PRO620  LYS621  CYS622 
 ASP623  PHE694  ASN695  SER759  ASP760  ASP761  ALA762  ILE779  LEU786  VAL792 
 PHE793  MET794  SER795  GLU796  ALA797  LYS798  CYS799  TRP800  GLU811  SER814 

> <Gold.Protein.RotatedAtoms>
  152.4825  133.8289  159.7092 H   0  0  0  0  0  0  0  0  0  0  0  0  # atno 6907 bound_to 6896
  150.8885  133.7266  159.2918 H   0  0  0  0  0  0  0  0  0  0  0  0  # atno 6908 bound_to 6896
  151.4747  135.1052  159.9813 H   0  0  0  0  0  0  0  0  0  0  0  0  # atno 6909 bound_to 6896
  146.1778  140.4227  142.8506 H   0  0  0  0  0  0  0  0  0  0  0  0  # atno 7974 bound_to 7965
  155.3073  140.3389  155.4245 H   0  0  0  0  0  0  0  0  0  0  0  0  # atno 8008 bound_to 7997
  156.1973  140.1719  156.8011 H   0  0  0  0  0  0  0  0  0  0  0  0  # atno 8009 bound_to 7997
  154.5514  140.0705  156.8658 H   0  0  0  0  0  0  0  0  0  0  0  0  # atno 8010 bound_to 7997
  140.6858  143.2880  151.3639 H   0  0  0  0  0  0  0  0  0  0  0  0  # atno 10167 bound_to 10162
  157.5231  130.8578  149.8585 H   0  0  0  0  0  0  0  0  0  0  0  0  # atno 10718 bound_to 10713
  154.2791  135.6275  153.5340 H   0  0  0  0  0  0  0  0  0  0  0  0  # atno 10763 bound_to 10752
  152.9868  135.5628  154.5515 H   0  0  0  0  0  0  0  0  0  0  0  0  # atno 10764 bound_to 10752
  154.5102  135.2876  155.1324 H   0  0  0  0  0  0  0  0  0  0  0  0  # atno 10765 bound_to 10752
  139.8771  134.9149  156.4788 H   0  0  0  0  0  0  0  0  0  0  0  0  # atno 11005 bound_to 11000
  144.8265  140.6637  143.6319 LP  0  0  0  0  0  0  0  0  0  0  0  0  # atno 17320 bound_to 7965
  145.4162  139.1571  143.4099 LP  0  0  0  0  0  0  0  0  0  0  0  0  # atno 17321 bound_to 7965
  139.6215  144.0897  152.2396 LP  0  0  0  0  0  0  0  0  0  0  0  0  # atno 17342 bound_to 10162
  140.0343  144.6057  150.7462 LP  0  0  0  0  0  0  0  0  0  0  0  0  # atno 17343 bound_to 10162
  156.0367  130.3749  150.1541 LP  0  0  0  0  0  0  0  0  0  0  0  0  # atno 17370 bound_to 10713
  156.9728  130.9840  151.3455 LP  0  0  0  0  0  0  0  0  0  0  0  0  # atno 17371 bound_to 10713
  140.8742  133.7965  155.9397 LP  0  0  0  0  0  0  0  0  0  0  0  0  # atno 17394 bound_to 11000
  140.8921  134.2483  157.5089 LP  0  0  0  0  0  0  0  0  0  0  0  0  # atno 17395 bound_to 11000

$$$$
