AV-unprocessed.smi:2040|AV-procd|sdf|8289|dock4
  -GOLD-   2272010553D 1   1.00000     0.00000
 Structure written by MMmdl.
 38 39  0  0  0  0  0  0  0  0  1 V2000
  144.0625  143.5207  162.2261 C   0  0  0  0  0  0  0  0  0  0  0  0
  145.2490  143.6944  161.3247 C   0  0  0  0  0  0  0  0  0  0  0  0
  145.4711  143.1103  160.0436 C   0  0  0  0  0  0  0  0  0  0  0  0
  146.6952  143.6104  159.6930 C   0  0  0  0  0  0  0  0  0  0  0  0
  147.4196  143.3865  158.5645 N   0  0  0  0  0  0  0  0  0  0  0  0
  147.5633  142.2443  157.8705 C   0  0  0  0  0  0  0  0  0  0  0  0
  147.0164  141.1741  158.1368 O   0  0  0  0  0  0  0  0  0  0  0  0
  148.3896  142.4170  156.8287 N   0  0  0  0  0  0  0  0  0  0  0  0
  148.7799  141.3875  155.8672 C   0  0  1  0  0  0  0  0  0  0  0  0
  148.2475  141.7631  154.4759 C   0  0  0  0  0  0  0  0  0  0  0  0
  150.3115  141.2180  155.8757 C   0  0  1  0  0  0  0  0  0  0  0  0
  150.8870  140.7055  157.1988 C   0  0  0  0  0  0  0  0  0  0  0  0
  152.1725  140.0542  156.7443 C   0  0  0  0  0  0  0  0  0  0  0  0
  151.7429  139.4160  155.4280 C   0  0  0  0  0  0  0  0  0  0  0  0
  150.7155  140.2538  154.9047 O   0  0  0  0  0  0  0  0  0  0  0  0
  147.1496  144.4257  160.7053 N   0  0  0  0  0  0  0  0  0  0  0  0
  148.3869  145.1758  160.7979 C   0  0  0  0  0  0  0  0  0  0  0  0
  146.2504  144.4766  161.7117 N   0  0  0  0  0  0  0  0  0  0  0  0
  143.3604  142.7936  161.8176 H   0  0  0  0  0  0  0  0  0  0  0  0
  143.5275  144.4616  162.3556 H   0  0  0  0  0  0  0  0  0  0  0  0
  144.3659  143.1696  163.2127 H   0  0  0  0  0  0  0  0  0  0  0  0
  144.8283  142.4387  159.4948 H   0  0  0  0  0  0  0  0  0  0  0  0
  147.9160  144.1889  158.2065 H   0  0  0  0  0  0  0  0  0  0  0  0
  148.7885  143.3338  156.6901 H   0  0  0  0  0  0  0  0  0  0  0  0
  148.3399  140.4299  156.1512 H   0  0  0  0  0  0  0  0  0  0  0  0
  148.4990  141.0002  153.7388 H   0  0  0  0  0  0  0  0  0  0  0  0
  148.6666  142.7089  154.1314 H   0  0  0  0  0  0  0  0  0  0  0  0
  147.1616  141.8628  154.4851 H   0  0  0  0  0  0  0  0  0  0  0  0
  150.7968  142.1625  155.6229 H   0  0  0  0  0  0  0  0  0  0  0  0
  151.0454  141.4977  157.9310 H   0  0  0  0  0  0  0  0  0  0  0  0
  150.2274  139.9575  157.6418 H   0  0  0  0  0  0  0  0  0  0  0  0
  152.9346  140.8138  156.5649 H   0  0  0  0  0  0  0  0  0  0  0  0
  152.5672  139.3330  157.4602 H   0  0  0  0  0  0  0  0  0  0  0  0
  152.5704  139.3128  154.7258 H   0  0  0  0  0  0  0  0  0  0  0  0
  151.3231  138.4251  155.6049 H   0  0  0  0  0  0  0  0  0  0  0  0
  148.4109  145.9376  160.0185 H   0  0  0  0  0  0  0  0  0  0  0  0
  149.2345  144.5029  160.6658 H   0  0  0  0  0  0  0  0  0  0  0  0
  148.4704  145.6617  161.7710 H   0  0  0  0  0  0  0  0  0  0  0  0
  1  2  1  0  0  0  0
  1 19  1  0  0  0  0
  1 20  1  0  0  0  0
  1 21  1  0  0  0  0
  2 18  2  0  0  0  0
  2  3  1  0  0  0  0
  3  4  2  0  0  0  0
  3 22  1  0  0  0  0
  4  5  1  0  0  0  0
  4 16  1  0  0  0  0
  5  6  1  0  0  0  0
  5 23  1  0  0  0  0
  6  7  2  0  0  0  0
  6  8  1  0  0  0  0
  8  9  1  0  0  0  0
  8 24  1  0  0  0  0
  9 10  1  0  0  0  0
  9 11  1  0  0  0  0
  9 25  1  0  0  0  0
 10 26  1  0  0  0  0
 10 27  1  0  0  0  0
 10 28  1  0  0  0  0
 11 15  1  0  0  0  0
 11 12  1  0  0  0  0
 11 29  1  0  0  0  0
 12 13  1  0  0  0  0
 12 30  1  0  0  0  0
 12 31  1  0  0  0  0
 13 14  1  0  0  0  0
 13 32  1  0  0  0  0
 13 33  1  0  0  0  0
 14 15  1  0  0  0  0
 14 34  1  0  0  0  0
 14 35  1  0  0  0  0
 16 17  1  0  0  0  0
 16 18  1  0  0  0  0
 17 36  1  0  0  0  0
 17 37  1  0  0  0  0
 17 38  1  0  0  0  0
M  END
> <s_m_source_file>
AV-unprocessed.smi

> <i_m_source_file_index>
2040

> <i_lp_mmshare_version>
43012

> <i_f3d_flags>
0

> <s_epik_input>
W0NIM11jMVtjSF1jKG4objEpW0NIM10pW05IXUMoPU8pW05IXVtDQEhdKFtDSDNdKVtDQEBIXTJbQ0gyXVtDSDJdW0NIMl1PMg==

> <s_epik_cmdline>
J2VwaWtfcHl0aG9uJywgJy1waCcsICc3LjAnLCAnLXRuJywgJzgnLCAnLW1hJywgJzIwMCcsICctbWV0YWxfYmluZGluZycsICctaW1hZScsICc8aW5maWxlLm1hZT4nLCAnLW9tYWUnLCAnPG91dGZpbGUubWFlPic=

> <r_lp_tautomer_probability>
1

> <r_epik_Ionization_Penalty>
9.09088e-05

> <r_epik_Ionization_Penalty_Charging>
0

> <r_epik_Ionization_Penalty_Neutral>
9.09088e-05

> <r_epik_State_Penalty>
-0

> <r_epik_Charging_Adjusted_Penalty>
0

> <i_epik_Tot_Q>
0

> <i_epik_Tot_abs_Q>
0

> <r_epik_Metal_State_Penalty>
-0

> <b_epik_Metal_Only>
0

> <s_lp_Force_Field>
OPLS_2005

> <r_lp_Energy>
18.8774

> <b_lp_Chiralities_Consistent>
1

> <s_lp_Variant>
AV-unprocessed.smi:2040-4

> <Gold.Version>
5.8.1

> <Gold.Id.Protein>
6NUR|6NUR_protein|mol2

> <Gold.PLP.Fitness>
43.2577

> <Gold.PLP.PLP>
-35.1768

> <Gold.PLP.part.hbond>
-4.2380

> <Gold.PLP.part.metal>
0.0000

> <Gold.PLP.part.buried>
-6.8438

> <Gold.PLP.part.nonpolar>
-24.8687

> <Gold.PLP.part.repulsive>
0.2642

> <Gold.PLP.ligand.clash>
0.0000

> <Gold.PLP.ligand.torsion>
0.3208

> <Gold.PLP.Chemscore.Hbond>
2.9040

> <Gold.PLP.Chemscore.CHOScore>
0.0000

> <Gold.PLP.Chemscore.Metal>
0.0000

> <Gold.Chemscore.Hbonds>
donor molecule, donor type, donor heavy atom, donor atom, acceptor molecule, acceptor atom, score
      L1  H     5    23       P1  8029  0.98
      L1  H     8    24       P1  8028  0.93
      P1  H  7989  7998       L1    15  0.85

> <Gold.PLP.Chemscore.Internal.Correction>
0.0105

> <Gold.Rescore>
     Score         DG    S(hbond)    S(metal)    S(lipo)     H(rot)  DE(clash)    DE(int)     intcor
     14.63     -15.00       1.83        0.00      56.08       1.23       0.05       0.32       ----

> <Gold.Chemscore.Fitness>
14.6289

> <Gold.Chemscore.DG>
-14.9992

> <Gold.Chemscore.ZeroCoef>
-5.4800

> <Gold.Chemscore.Hbond>
1.8313

> <Gold.Chemscore.Metal>
0.0000

> <Gold.Chemscore.Lipo>
56.0791

> <Gold.Chemscore.Internal_Hbond>
0.0000

> <Gold.Chemscore.DEClash>
0.0504

> <Gold.Chemscore.DEInternal>
0.3199

> <Gold.Chemscore.Rot>
1.2338

> <Gold.Chemscore.Internal.Correction>
   9.000000E+99

> <Gold.Chemscore.Hbonds>
donor molecule, donor type, donor heavy atom, donor atom, acceptor molecule, acceptor atom, score
      L1  H     5    23       P1  8029  0.36
      L1  H     8    24       P1  8028  0.70
      P1  H  7989  7998       L1    15  0.13

> <Gold.Chemscore.Hbond.Weighted>
-6.1164

> <Gold.Chemscore.Metal.Weighted>
-0.0000

> <Gold.Chemscore.Lipo.Weighted>
-6.5613

> <Gold.Chemscore.Internal_Hbond.Weighted>
0.0000

> <Gold.Chemscore.DEClash.Weighted>
0.0504

> <Gold.Chemscore.DEInternal.Weighted>
0.3199

> <Gold.Chemscore.Rot.Weighted>
3.1584

> <Gold.Chemscore.Internal.Correction.Weighted>
   9.000000E+99

> <Gold.Protein.RotatedTorsions>
[ 6907 6896 6895 6894 ] final  -93.87 input  -60.11 | X-H torsion
[ 7974 7965 7964 7962 ] final -170.37 input  175.53 | X-H torsion
[ 8008 7997 7996 7995 ] final  178.14 input   59.86 | X-H torsion
[ 10167 10162 10161 10158 ] final  115.24 input  -65.29 | X-H torsion
[ 10718 10713 10712 10709 ] final -144.17 input   66.30 | X-H torsion
[ 10763 10752 10751 10750 ] final  -68.48 input  -60.55 | X-H torsion
[ 11005 11000 10999 10996 ] final  -23.29 input  -57.11 | X-H torsion

> <Gold.Protein.ActiveResidues>
 VAL166  LYS551  ARG553  GLY616  TRP617  ASP618  TYR619  PRO620  LYS621  CYS622 
 ASP623  PHE694  ASN695  SER759  ASP760  ASP761  ALA762  ILE779  LEU786  VAL792 
 PHE793  MET794  SER795  GLU796  ALA797  LYS798  CYS799  TRP800  GLU811  SER814 

> <Gold.Protein.RotatedAtoms>
  150.6930  134.1901  159.4281 H   0  0  0  0  0  0  0  0  0  0  0  0  # atno 6907 bound_to 6896
  151.9872  134.9996  160.0569 H   0  0  0  0  0  0  0  0  0  0  0  0  # atno 6908 bound_to 6896
  152.1701  133.4603  159.4941 H   0  0  0  0  0  0  0  0  0  0  0  0  # atno 6909 bound_to 6896
  144.7171  140.2082  143.6330 H   0  0  0  0  0  0  0  0  0  0  0  0  # atno 7974 bound_to 7965
  156.0579  140.1341  156.9975 H   0  0  0  0  0  0  0  0  0  0  0  0  # atno 8008 bound_to 7997
  154.4467  140.0997  156.6544 H   0  0  0  0  0  0  0  0  0  0  0  0  # atno 8009 bound_to 7997
  155.5422  140.3461  155.4451 H   0  0  0  0  0  0  0  0  0  0  0  0  # atno 8010 bound_to 7997
  139.6331  144.7117  151.2391 H   0  0  0  0  0  0  0  0  0  0  0  0  # atno 10167 bound_to 10162
  156.3668  130.7767  151.1942 H   0  0  0  0  0  0  0  0  0  0  0  0  # atno 10718 bound_to 10713
  154.3896  135.6055  153.5836 H   0  0  0  0  0  0  0  0  0  0  0  0  # atno 10763 bound_to 10752
  152.9787  135.5880  154.4313 H   0  0  0  0  0  0  0  0  0  0  0  0  # atno 10764 bound_to 10752
  154.4095  135.2844  155.2024 H   0  0  0  0  0  0  0  0  0  0  0  0  # atno 10765 bound_to 10752
  140.8738  133.7702  156.0218 H   0  0  0  0  0  0  0  0  0  0  0  0  # atno 11005 bound_to 11000
  145.8615  139.2225  143.1713 LP  0  0  0  0  0  0  0  0  0  0  0  0  # atno 17320 bound_to 7965
  146.0169  140.8384  142.9943 LP  0  0  0  0  0  0  0  0  0  0  0  0  # atno 17321 bound_to 7965
  140.7450  143.6444  150.8305 LP  0  0  0  0  0  0  0  0  0  0  0  0  # atno 17342 bound_to 10162
  140.0072  143.5681  152.2853 LP  0  0  0  0  0  0  0  0  0  0  0  0  # atno 17343 bound_to 10162
  157.7480  131.0384  150.4500 LP  0  0  0  0  0  0  0  0  0  0  0  0  # atno 17370 bound_to 10713
  156.4720  130.4055  149.6512 LP  0  0  0  0  0  0  0  0  0  0  0  0  # atno 17371 bound_to 10713
  140.8543  134.2917  157.5262 LP  0  0  0  0  0  0  0  0  0  0  0  0  # atno 17394 bound_to 11000
  139.8714  134.9484  156.3996 LP  0  0  0  0  0  0  0  0  0  0  0  0  # atno 17395 bound_to 11000

$$$$
