#       Name:                AV-unprocessed.smi:278
#       Creating user name   scv26
#       Creation time:       Thu Mar 26 21:36:24 2020


#       File generated by GOLD software.
#

@<TRIPOS>MOLECULE
AV-unprocessed.smi:278
    57    61     1
SMALL
NO_CHARGES


@<TRIPOS>ATOM
      1 ****        -0.2471   4.3385  -1.4503 O.2            1 S1                 0.0000
      2 ****        -1.1771   5.3039  -0.8442 S.o2           1 S1                 0.0000
      3 ****        -0.7059   6.6253  -0.4028 O.2            1 S1                 0.0000
      4 ****        -2.6167   5.5275  -1.9593 C.3            1 S1                 0.0000
      5 ****        -3.8633   5.2272  -1.1168 C.3            1 S1                 0.0000
      6 ****        -3.4990   4.2071  -0.0227 C.3            1 S1                 0.0000
      7 ****        -3.3503   2.7707  -0.5353 C.3            1 S1                 0.0000
      8 ****        -2.3780   2.1506   0.3533 N.pl3          1 S1                 0.0000
      9 ****        -1.9262   0.8873   0.1373 C.ar           1 S1                 0.0000
     10 ****        -2.5128   0.1455  -0.8400 N.ar           1 S1                 0.0000
     11 ****        -2.1057  -1.1031  -1.0840 C.ar           1 S1                 0.0000
     12 ****        -1.1464  -1.8009  -0.4753 N.ar           1 S1                 0.0000
     13 ****        -0.5568  -1.0697   0.5129 C.ar           1 S1                 0.0000
     14 ****        -0.8804   0.2675   0.8849 C.ar           1 S1                 0.0000
     15 ****        -0.0687   0.6639   1.9434 N.2            1 S1                 0.0000
     16 ****         0.6952  -0.3688   2.1722 C.2            1 S1                 0.0000
     17 ****         0.4677  -1.4543   1.3595 N.pl3          1 S1                 0.0000
     18 ****         1.1662  -2.7269   1.3970 C.3            1 S1                 0.0000
     19 ****         2.4708  -2.7077   0.5769 C.3            1 S1                 0.0000
     20 ****         2.2104  -2.3831  -0.7754 O.3            1 S1                 0.0000
     21 ****         3.2556  -4.0317   0.6754 C.3            1 S1                 0.0000
     22 ****         4.5347  -4.1329  -0.1599 C.3            1 S1                 0.0000
     23 ****         4.6921  -5.6328  -0.2726 C.3            1 S1                 0.0000
     24 ****         3.2425  -6.0889  -0.4246 C.3            1 S1                 0.0000
     25 ****         2.4569  -5.1556   0.3127 O.3            1 S1                 0.0000
     26 ****        -1.5318   3.1634   0.9696 C.3            1 S1                 0.0000
     27 ****        -2.1103   4.5196   0.5392 C.3            1 S1                 0.0000
     28 ****        -4.2365   4.2200   0.7810 H              1 S1                 0.0000
     29 ****        -2.1528   5.2320   1.3635 H              1 S1                 0.0000
     30 ****        -2.6169   6.5339  -2.3779 H              1 S1                 0.0000
     31 ****        -2.5209   4.8131  -2.7771 H              1 S1                 0.0000
     32 ****        -4.1878   6.1498  -0.6344 H              1 S1                 0.0000
     33 ****        -4.6946   4.8851  -1.7340 H              1 S1                 0.0000
     34 ****        -4.3037   2.2414  -0.5186 H              1 S1                 0.0000
     35 ****        -2.9664   2.7517  -1.5561 H              1 S1                 0.0000
     36 ****        -2.6236  -1.6165  -1.8806 H              1 S1                 0.0000
     37 ****         1.4495  -0.3675   2.9457 H              1 S1                 0.0000
     38 ****         1.3815  -2.9666   2.4389 H              1 S1                 0.0000
     39 ****         0.4929  -3.5037   1.0327 H              1 S1                 0.0000
     40 ****         3.1095  -1.9135   0.9653 H              1 S1                 0.0000
     41 ****         1.6458  -3.0488  -1.1380 H              1 S1                 0.0000
     42 ****         3.5301  -4.1880   1.7200 H              1 S1                 0.0000
     43 ****         4.4031  -3.7049  -1.1541 H              1 S1                 0.0000
     44 ****         5.3893  -3.6463   0.3107 H              1 S1                 0.0000
     45 ****         5.3248  -5.9380  -1.1062 H              1 S1                 0.0000
     46 ****         5.1190  -6.0350   0.6471 H              1 S1                 0.0000
     47 ****         2.9391  -6.0437  -1.4712 H              1 S1                 0.0000
     48 ****         3.0872  -7.1084  -0.0712 H              1 S1                 0.0000
     49 ****        -1.5989   3.0555   2.0524 H              1 S1                 0.0000
     50 ****        -0.4841   3.0565   0.6888 H              1 S1                 0.0000
     51 ****        -3.2562   0.5386  -1.3812 LP             1 S1                 0.0000
     52 ****        -0.8924  -2.7385  -0.7126 LP             1 S1                 0.0000
     53 ****        -0.0705   1.5424   2.4212 LP             1 S1                 0.0000
     54 ****         3.0691  -2.3529  -1.2870 LP             1 S1                 0.0000
     55 ****         1.7594  -1.4921  -0.8282 LP             1 S1                 0.0000
     56 ****         1.6895  -4.8495  -0.2507 LP             1 S1                 0.0000
     57 ****         2.1081  -5.5958   1.1401 LP             1 S1                 0.0000
@<TRIPOS>BOND
    1    1    2 2     
    2    2   27 1     
    3    2    3 2     
    4    2    4 1     
    5    4    5 1     
    6    4   30 1     
    7    4   31 1     
    8    5    6 1     
    9    5   32 1     
   10    5   33 1     
   11    6   28 1     
   12    6   27 1     
   13    6    7 1     
   14    7    8 1     
   15    7   34 1     
   16    7   35 1     
   17    8    9 1     
   18    8   26 1     
   19    9   14 ar    
   20    9   10 ar    
   21   10   11 ar    
   22   11   12 ar    
   23   11   36 1     
   24   12   13 ar    
   25   13   17 1     
   26   13   14 ar    
   27   14   15 1     
   28   15   16 2     
   29   16   17 1     
   30   16   37 1     
   31   17   18 1     
   32   18   19 1     
   33   18   38 1     
   34   18   39 1     
   35   19   20 1     
   36   19   21 1     
   37   19   40 1     
   38   20   41 1     
   39   21   25 1     
   40   21   22 1     
   41   21   42 1     
   42   22   23 1     
   43   22   43 1     
   44   22   44 1     
   45   23   24 1     
   46   23   45 1     
   47   23   46 1     
   48   24   25 1     
   49   24   47 1     
   50   24   48 1     
   51   26   27 1     
   52   26   49 1     
   53   26   50 1     
   54   27   29 1     
   55   10   51 1     
   56   12   52 1     
   57   15   53 1     
   58   20   54 1     
   59   20   55 1     
   60   25   56 1     
   61   25   57 1     
@<TRIPOS>SUBSTRUCTURE
      1 S1             1
@<TRIPOS>SET
LONE_PAIRS      STATIC     ATOMS    <user>   **** ""
9 1 3 51 52 53 54 55 56 57
DONOR_HYDROGENS      STATIC     ATOMS    <user>   **** ""
1 41
ATOM$BLUE        STATIC     ATOMS    COLORGROUP SYSTEM
9 1 3 51 52 53 54 55 56 57
ATOM$RED        STATIC     ATOMS    COLORGROUP SYSTEM
1 41
