AV-unprocessed.smi:2044|AV-procd|sdf|8298|dock7
  -GOLD-   2272010563D 1   1.00000     0.00000
 Structure written by MMmdl.
 39 40  0  0  0  0  0  0  0  0  1 V2000
  138.1462  137.0059  153.7067 C   0  0  0  0  0  0  0  0  0  0  0  0
  139.6351  136.9863  153.7690 C   0  0  0  0  0  0  0  0  0  0  0  0
  140.5900  137.9199  153.4792 C   0  0  0  0  0  0  0  0  0  0  0  0
  141.8024  137.2350  153.7590 C   0  0  0  0  0  0  0  0  0  0  0  0
  143.0567  137.8721  153.5788 N   0  0  0  0  0  0  0  0  0  0  0  0
  144.2439  137.5024  154.0887 C   0  0  0  0  0  0  0  0  0  0  0  0
  144.4282  136.5309  154.8227 O   0  0  0  0  0  0  0  0  0  0  0  0
  145.2196  138.3358  153.7000 N   0  0  0  0  0  0  0  0  0  0  0  0
  146.6261  138.2401  154.0867 C   0  0  0  0  0  0  0  0  0  0  0  0
  147.2011  139.5968  154.5724 C   0  0  2  0  0  0  0  0  0  0  0  0
  147.0052  140.6425  153.4515 C   0  0  0  0  0  0  0  0  0  0  0  0
  148.5921  139.5183  155.0713 N   0  0  0  0  0  0  0  0  0  0  0  0
  149.4788  138.7991  154.1513 C   0  0  0  0  0  0  0  0  0  0  0  0
  150.9314  138.7370  154.6545 C   0  0  0  0  0  0  0  0  0  0  0  0
  151.4175  140.0538  154.8789 O   0  0  0  0  0  0  0  0  0  0  0  0
  150.6261  140.7650  155.8212 C   0  0  0  0  0  0  0  0  0  0  0  0
  149.1725  140.8408  155.3233 C   0  0  0  0  0  0  0  0  0  0  0  0
  141.6053  135.9955  154.1815 N   0  0  0  0  0  0  0  0  0  0  0  0
  140.2152  135.8295  154.1894 O   0  0  0  0  0  0  0  0  0  0  0  0
  137.7692  138.0283  153.7391 H   0  0  0  0  0  0  0  0  0  0  0  0
  137.7137  136.4604  154.5459 H   0  0  0  0  0  0  0  0  0  0  0  0
  137.7935  136.5440  152.7846 H   0  0  0  0  0  0  0  0  0  0  0  0
  140.4415  138.9286  153.1235 H   0  0  0  0  0  0  0  0  0  0  0  0
  143.0501  138.6957  152.9954 H   0  0  0  0  0  0  0  0  0  0  0  0
  144.9700  139.1107  153.1032 H   0  0  0  0  0  0  0  0  0  0  0  0
  146.7645  137.4790  154.8563 H   0  0  0  0  0  0  0  0  0  0  0  0
  147.1878  137.8630  153.2330 H   0  0  0  0  0  0  0  0  0  0  0  0
  146.5672  139.9163  155.4010 H   0  0  0  0  0  0  0  0  0  0  0  0
  146.0001  140.5886  153.0324 H   0  0  0  0  0  0  0  0  0  0  0  0
  147.7109  140.4909  152.6343 H   0  0  0  0  0  0  0  0  0  0  0  0
  147.1269  141.6621  153.8158 H   0  0  0  0  0  0  0  0  0  0  0  0
  149.1367  137.7742  154.0144 H   0  0  0  0  0  0  0  0  0  0  0  0
  149.4566  139.2739  153.1691 H   0  0  0  0  0  0  0  0  0  0  0  0
  150.9970  138.1541  155.5746 H   0  0  0  0  0  0  0  0  0  0  0  0
  151.5666  138.2449  153.9176 H   0  0  0  0  0  0  0  0  0  0  0  0
  150.6768  140.2748  156.7947 H   0  0  0  0  0  0  0  0  0  0  0  0
  151.0362  141.7671  155.9457 H   0  0  0  0  0  0  0  0  0  0  0  0
  149.1336  141.4413  154.4131 H   0  0  0  0  0  0  0  0  0  0  0  0
  148.5966  141.3746  156.0775 H   0  0  0  0  0  0  0  0  0  0  0  0
  1  2  1  0  0  0  0
  1 20  1  0  0  0  0
  1 21  1  0  0  0  0
  1 22  1  0  0  0  0
  2 19  1  0  0  0  0
  2  3  2  0  0  0  0
  3  4  1  0  0  0  0
  3 23  1  0  0  0  0
  4  5  1  0  0  0  0
  4 18  2  0  0  0  0
  5  6  1  0  0  0  0
  5 24  1  0  0  0  0
  6  7  2  0  0  0  0
  6  8  1  0  0  0  0
  8  9  1  0  0  0  0
  8 25  1  0  0  0  0
  9 10  1  0  0  0  0
  9 26  1  0  0  0  0
  9 27  1  0  0  0  0
 10 11  1  0  0  0  0
 10 12  1  0  0  0  0
 10 28  1  0  0  0  0
 11 29  1  0  0  0  0
 11 30  1  0  0  0  0
 11 31  1  0  0  0  0
 12 17  1  0  0  0  0
 12 13  1  0  0  0  0
 13 14  1  0  0  0  0
 13 32  1  0  0  0  0
 13 33  1  0  0  0  0
 14 15  1  0  0  0  0
 14 34  1  0  0  0  0
 14 35  1  0  0  0  0
 15 16  1  0  0  0  0
 16 17  1  0  0  0  0
 16 36  1  0  0  0  0
 16 37  1  0  0  0  0
 17 38  1  0  0  0  0
 17 39  1  0  0  0  0
 18 19  1  0  0  0  0
M  END
> <s_m_source_file>
AV-unprocessed.smi

> <i_m_source_file_index>
2044

> <i_lp_mmshare_version>
43012

> <i_f3d_flags>
0

> <s_epik_input>
W0NIM11jMVtjSF1jKG5vMSlbTkhdQyg9TylbTkhdW0NIMl1bQ0BIXShbQ0gzXSlOMltDSDJdW0NIMl1PW0NIMl1bQ0gyXTI=

> <s_epik_cmdline>
J2VwaWtfcHl0aG9uJywgJy1waCcsICc3LjAnLCAnLXRuJywgJzgnLCAnLW1hJywgJzIwMCcsICctbWV0YWxfYmluZGluZycsICctaW1hZScsICc8aW5maWxlLm1hZT4nLCAnLW9tYWUnLCAnPG91dGZpbGUubWFlPic=

> <r_epik_Ionization_Penalty>
0.214073

> <r_epik_Ionization_Penalty_Charging>
0

> <r_epik_Ionization_Penalty_Neutral>
0.214073

> <r_epik_State_Penalty>
0.204211

> <r_epik_Charging_Adjusted_Penalty>
0.204211

> <i_epik_Tot_Q>
0

> <i_epik_Tot_abs_Q>
0

> <r_epik_Metal_State_Penalty>
0.217151

> <b_epik_Metal_Only>
0

> <s_lp_Force_Field>
OPLS_2005

> <r_lp_Energy>
29.787

> <b_lp_Chiralities_Consistent>
1

> <s_lp_Variant>
AV-unprocessed.smi:2044-1

> <Gold.Version>
5.8.1

> <Gold.Id.Protein>
6NUR|6NUR_protein|mol2

> <Gold.PLP.Fitness>
41.6809

> <Gold.PLP.PLP>
-30.2618

> <Gold.PLP.part.hbond>
-4.3341

> <Gold.PLP.part.metal>
0.0000

> <Gold.PLP.part.buried>
-5.9864

> <Gold.PLP.part.nonpolar>
-21.5361

> <Gold.PLP.part.repulsive>
0.3145

> <Gold.PLP.ligand.clash>
0.0000

> <Gold.PLP.ligand.torsion>
0.3028

> <Gold.PLP.Chemscore.Hbond>
3.9920

> <Gold.PLP.Chemscore.CHOScore>
0.0000

> <Gold.PLP.Chemscore.Metal>
0.0000

> <Gold.Chemscore.Hbonds>
donor molecule, donor type, donor heavy atom, donor atom, acceptor molecule, acceptor atom, score
      L1  H     5    24       P1 10175  1.00
      L1  H     8    25       P1 10175  1.00
      P1  H  7989  7998       L1    15  1.00
      P1  H 11000 11005       L1    19  0.73

> <Gold.PLP.Chemscore.Internal.Correction>
0.0487

> <Gold.Rescore>
     Score         DG    S(hbond)    S(metal)    S(lipo)     H(rot)  DE(clash)    DE(int)     intcor
     16.70     -18.24       2.83        0.00      62.71       1.58       0.16       1.38       ----

> <Gold.Chemscore.Fitness>
16.6997

> <Gold.Chemscore.DG>
-18.2375

> <Gold.Chemscore.ZeroCoef>
-5.4800

> <Gold.Chemscore.Hbond>
2.8303

> <Gold.Chemscore.Metal>
0.0000

> <Gold.Chemscore.Lipo>
62.7094

> <Gold.Chemscore.Internal_Hbond>
0.0000

> <Gold.Chemscore.DEClash>
0.1596

> <Gold.Chemscore.DEInternal>
1.3782

> <Gold.Chemscore.Rot>
1.5753

> <Gold.Chemscore.Internal.Correction>
   9.000000E+99

> <Gold.Chemscore.Hbonds>
donor molecule, donor type, donor heavy atom, donor atom, acceptor molecule, acceptor atom, score
      L1  H     5    24       P1 10175  0.98
      L1  H     8    25       P1 10175  0.93
      P1  H  7989  7998       L1    15  0.71
      P1  H 11000 11005       L1    19  0.17

> <Gold.Chemscore.Hbond.Weighted>
-9.4534

> <Gold.Chemscore.Metal.Weighted>
-0.0000

> <Gold.Chemscore.Lipo.Weighted>
-7.3370

> <Gold.Chemscore.Internal_Hbond.Weighted>
0.0000

> <Gold.Chemscore.DEClash.Weighted>
0.1596

> <Gold.Chemscore.DEInternal.Weighted>
1.3782

> <Gold.Chemscore.Rot.Weighted>
4.0329

> <Gold.Chemscore.Internal.Correction.Weighted>
   9.000000E+99

> <Gold.Protein.RotatedTorsions>
[ 6907 6896 6895 6894 ] final -106.00 input  -60.11 | X-H torsion
[ 7974 7965 7964 7962 ] final  105.26 input  175.53 | X-H torsion
[ 8008 7997 7996 7995 ] final  -15.35 input   59.86 | X-H torsion
[ 10167 10162 10161 10158 ] final -117.92 input  -65.29 | X-H torsion
[ 10718 10713 10712 10709 ] final   15.94 input   66.30 | X-H torsion
[ 10763 10752 10751 10750 ] final  -75.26 input  -60.55 | X-H torsion
[ 11005 11000 10999 10996 ] final   70.64 input  -57.11 | X-H torsion

> <Gold.Protein.ActiveResidues>
 VAL166  LYS551  ARG553  GLY616  TRP617  ASP618  TYR619  PRO620  LYS621  CYS622 
 ASP623  PHE694  ASN695  SER759  ASP760  ASP761  ALA762  ILE779  LEU786  VAL792 
 PHE793  MET794  SER795  GLU796  ALA797  LYS798  CYS799  TRP800  GLU811  SER814 

> <Gold.Protein.RotatedAtoms>
  150.7366  134.0042  159.3647 H   0  0  0  0  0  0  0  0  0  0  0  0  # atno 6907 bound_to 6896
  151.7998  135.0710  160.0408 H   0  0  0  0  0  0  0  0  0  0  0  0  # atno 6908 bound_to 6896
  152.3149  133.5755  159.5741 H   0  0  0  0  0  0  0  0  0  0  0  0  # atno 6909 bound_to 6896
  145.3221  139.2510  143.3706 H   0  0  0  0  0  0  0  0  0  0  0  0  # atno 7974 bound_to 7965
  154.5137  140.2198  155.9106 H   0  0  0  0  0  0  0  0  0  0  0  0  # atno 8008 bound_to 7997
  156.1583  140.3147  155.8729 H   0  0  0  0  0  0  0  0  0  0  0  0  # atno 8009 bound_to 7997
  155.3803  140.0472  157.3034 H   0  0  0  0  0  0  0  0  0  0  0  0  # atno 8010 bound_to 7997
  140.0631  143.4949  152.2021 H   0  0  0  0  0  0  0  0  0  0  0  0  # atno 10167 bound_to 10162
  157.0607  130.6308  149.5785 H   0  0  0  0  0  0  0  0  0  0  0  0  # atno 10718 bound_to 10713
  154.4842  135.5837  153.6412 H   0  0  0  0  0  0  0  0  0  0  0  0  # atno 10763 bound_to 10752
  152.9852  135.6097  154.3207 H   0  0  0  0  0  0  0  0  0  0  0  0  # atno 10764 bound_to 10752
  154.3101  135.2845  155.2549 H   0  0  0  0  0  0  0  0  0  0  0  0  # atno 10765 bound_to 10752
  139.9586  134.7100  156.0696 H   0  0  0  0  0  0  0  0  0  0  0  0  # atno 11005 bound_to 11000
  146.3078  140.3780  142.8681 LP  0  0  0  0  0  0  0  0  0  0  0  0  # atno 17320 bound_to 7965
  144.8931  140.7549  143.5914 LP  0  0  0  0  0  0  0  0  0  0  0  0  # atno 17321 bound_to 7965
  139.5881  144.7539  151.3468 LP  0  0  0  0  0  0  0  0  0  0  0  0  # atno 17342 bound_to 10162
  140.7162  143.7260  150.7660 LP  0  0  0  0  0  0  0  0  0  0  0  0  # atno 17343 bound_to 10162
  155.9979  130.5052  150.7552 LP  0  0  0  0  0  0  0  0  0  0  0  0  # atno 17370 bound_to 10713
  157.4956  131.0914  151.0375 LP  0  0  0  0  0  0  0  0  0  0  0  0  # atno 17371 bound_to 10713
  141.1261  133.6599  156.3341 LP  0  0  0  0  0  0  0  0  0  0  0  0  # atno 17394 bound_to 11000
  140.5551  134.5989  157.5418 LP  0  0  0  0  0  0  0  0  0  0  0  0  # atno 17395 bound_to 11000

$$$$
