AV-unprocessed.smi:2539|AV-procd|sdf|9986|dock7
  -GOLD-   2272014 33D 1   1.00000     0.00000
 Structure written by MMmdl.
 41 42  0  0  0  0  0  0  0  0  2 V2000
  155.3104  138.9107  158.9268 O   0  0  0  0  0  0  0  0  0  0  0  0
  154.2231  138.8098  159.4972 C   0  0  0  0  0  0  0  0  0  0  0  0
  153.7694  139.7500  160.3451 N   0  0  0  0  0  0  0  0  0  0  0  0
  154.4261  141.0199  160.6454 C   0  0  0  0  0  0  0  0  0  0  0  0
  153.5243  141.9619  161.4677 C   0  0  0  0  0  0  0  0  0  0  0  0
  152.7091  142.9213  160.6174 C   0  0  0  0  0  0  0  0  0  0  0  0
  152.7135  142.8201  159.2081 C   0  0  0  0  0  0  0  0  0  0  0  0
  151.9748  143.7485  158.4458 C   0  0  0  0  0  0  0  0  0  0  0  0
  151.2471  144.7571  159.1093 C   0  0  0  0  0  0  0  0  0  0  0  0
  151.2627  144.8200  160.4587 N   0  3  0  0  0  0  0  0  0  0  0  0
  151.9559  143.9496  161.2245 C   0  0  0  0  0  0  0  0  0  0  0  0
  153.3854  137.7581  159.3165 N   0  0  0  0  0  0  0  0  0  0  0  0
  151.9651  137.7047  159.6955 C   0  0  0  0  0  0  0  0  0  0  0  0
  151.1128  137.9379  158.4331 C   0  0  0  0  0  0  0  0  0  0  0  0
  151.4482  136.9304  157.3015 C   0  0  0  0  0  0  0  0  0  0  0  0
  150.9604  135.6613  157.6997 O   0  0  0  0  0  0  0  0  0  0  0  0
  150.7332  137.3002  155.9801 C   0  0  0  0  0  0  0  0  0  0  0  0
  151.0653  138.5381  155.6116 F   0  0  0  0  0  0  0  0  0  0  0  0
  151.0876  136.4665  155.0015 F   0  0  0  0  0  0  0  0  0  0  0  0
  149.4093  137.2549  156.1348 F   0  0  0  0  0  0  0  0  0  0  0  0
  152.9820  136.8015  157.1048 C   0  0  0  0  0  0  0  0  0  0  0  0
  153.7326  136.6341  158.4408 C   0  0  0  0  0  0  0  0  0  0  0  0
  152.8768  139.5868  160.7882 H   0  0  0  0  0  0  0  0  0  0  0  0
  155.3362  140.8061  161.2063 H   0  0  0  0  0  0  0  0  0  0  0  0
  154.7475  141.5127  159.7264 H   0  0  0  0  0  0  0  0  0  0  0  0
  152.8482  141.3710  162.0872 H   0  0  0  0  0  0  0  0  0  0  0  0
  154.1362  142.5424  162.1589 H   0  0  0  0  0  0  0  0  0  0  0  0
  153.2846  142.0480  158.7137 H   0  0  0  0  0  0  0  0  0  0  0  0
  151.9689  143.6899  157.3673 H   0  0  0  0  0  0  0  0  0  0  0  0
  150.6579  145.5095  158.6056 H   0  0  0  0  0  0  0  0  0  0  0  0
  151.8993  144.1099  162.2914 H   0  0  0  0  0  0  0  0  0  0  0  0
  151.7427  136.7264  160.1239 H   0  0  0  0  0  0  0  0  0  0  0  0
  151.6881  138.4205  160.4695 H   0  0  0  0  0  0  0  0  0  0  0  0
  150.0535  137.8877  158.6868 H   0  0  0  0  0  0  0  0  0  0  0  0
  151.2901  138.9542  158.0800 H   0  0  0  0  0  0  0  0  0  0  0  0
  150.0339  135.7357  157.8710 H   0  0  0  0  0  0  0  0  0  0  0  0
  153.2117  135.9648  156.4438 H   0  0  0  0  0  0  0  0  0  0  0  0
  153.3611  137.6936  156.6048 H   0  0  0  0  0  0  0  0  0  0  0  0
  154.8058  136.5578  158.2611 H   0  0  0  0  0  0  0  0  0  0  0  0
  153.4507  135.6955  158.9199 H   0  0  0  0  0  0  0  0  0  0  0  0
  150.7311  145.5591  160.9195 H   0  0  0  0  0  0  0  0  0  0  0  0
  1  2  2  0  0  0  0
  2  3  1  0  0  0  0
  2 12  1  0  0  0  0
  3  4  1  0  0  0  0
  3 23  1  0  0  0  0
  4  5  1  0  0  0  0
  4 24  1  0  0  0  0
  4 25  1  0  0  0  0
  5  6  1  0  0  0  0
  5 26  1  0  0  0  0
  5 27  1  0  0  0  0
  6 11  1  0  0  0  0
  6  7  2  0  0  0  0
  7  8  1  0  0  0  0
  7 28  1  0  0  0  0
  8  9  2  0  0  0  0
  8 29  1  0  0  0  0
  9 10  1  0  0  0  0
  9 30  1  0  0  0  0
 10 11  2  0  0  0  0
 10 41  1  0  0  0  0
 11 31  1  0  0  0  0
 12 22  1  0  0  0  0
 12 13  1  0  0  0  0
 13 14  1  0  0  0  0
 13 32  1  0  0  0  0
 13 33  1  0  0  0  0
 14 15  1  0  0  0  0
 14 34  1  0  0  0  0
 14 35  1  0  0  0  0
 15 16  1  0  0  0  0
 15 17  1  0  0  0  0
 15 21  1  0  0  0  0
 16 36  1  0  0  0  0
 17 18  1  0  0  0  0
 17 19  1  0  0  0  0
 17 20  1  0  0  0  0
 21 22  1  0  0  0  0
 21 37  1  0  0  0  0
 21 38  1  0  0  0  0
 22 39  1  0  0  0  0
 22 40  1  0  0  0  0
M  CHG  1  10   1
M  END
> <s_m_source_file>
AV-unprocessed.smi

> <i_m_source_file_index>
2539

> <i_lp_mmshare_version>
43012

> <i_f3d_flags>
0

> <s_epik_input>
RkMoRikoRilDMShbT0hdKVtDSDJdW0NIMl1OKFtDSDJdW0NIMl0xKUMoPU8pW05IXVtDSDJdW0NIMl1jMltjSF1bY0hdW2NIXW5bY0hdMg==

> <s_epik_cmdline>
J2VwaWtfcHl0aG9uJywgJy1waCcsICc3LjAnLCAnLXRuJywgJzgnLCAnLW1hJywgJzIwMCcsICctbWV0YWxfYmluZGluZycsICctaW1hZScsICc8aW5maWxlLm1hZT4nLCAnLW9tYWUnLCAnPG91dGZpbGUubWFlPic=

> <r_epik_Ionization_Penalty>
2.21039

> <r_epik_Ionization_Penalty_Charging>
2.21033

> <r_epik_Ionization_Penalty_Neutral>
5.75735e-05

> <r_epik_State_Penalty>
2.3545

> <r_epik_Charging_Adjusted_Penalty>
4.56483

> <i_epik_Tot_Q>
1

> <i_epik_Tot_abs_Q>
1

> <r_epik_Metal_State_Penalty>
2.36861

> <b_epik_Metal_Only>
0

> <s_lp_Force_Field>
OPLS_2005

> <r_lp_Energy>
41.3462

> <b_lp_Chiralities_Consistent>
1

> <s_lp_Variant>
AV-unprocessed.smi:2539-2

> <Gold.Version>
5.8.1

> <Gold.Id.Protein>
6NUR|6NUR_protein|mol2

> <Gold.PLP.Fitness>
47.7648

> <Gold.PLP.PLP>
-45.5362

> <Gold.PLP.part.hbond>
-2.0000

> <Gold.PLP.part.metal>
0.0000

> <Gold.PLP.part.buried>
-6.0383

> <Gold.PLP.part.nonpolar>
-38.1117

> <Gold.PLP.part.repulsive>
0.1824

> <Gold.PLP.ligand.clash>
0.0000

> <Gold.PLP.ligand.torsion>
0.4309

> <Gold.PLP.Chemscore.Hbond>
1.0000

> <Gold.PLP.Chemscore.CHOScore>
0.0000

> <Gold.PLP.Chemscore.Metal>
0.0000

> <Gold.Chemscore.Hbonds>
donor molecule, donor type, donor heavy atom, donor atom, acceptor molecule, acceptor atom, score
      P1  H  6896  6908       L1    16  0.04
      P1  H  7997  8009       L1     1  1.00

> <Gold.PLP.Chemscore.Internal.Correction>
0.0903

> <Gold.Rescore>
     Score         DG    S(hbond)    S(metal)    S(lipo)     H(rot)  DE(clash)    DE(int)     intcor
     16.48     -16.95       0.98        0.00     115.20       2.06       0.02       0.45       ----

> <Gold.Chemscore.Fitness>
16.4837

> <Gold.Chemscore.DG>
-16.9517

> <Gold.Chemscore.ZeroCoef>
-5.4800

> <Gold.Chemscore.Hbond>
0.9760

> <Gold.Chemscore.Metal>
0.0000

> <Gold.Chemscore.Lipo>
115.1999

> <Gold.Chemscore.Internal_Hbond>
0.0000

> <Gold.Chemscore.DEClash>
0.0166

> <Gold.Chemscore.DEInternal>
0.4515

> <Gold.Chemscore.Rot>
2.0572

> <Gold.Chemscore.Internal.Correction>
   9.000000E+99

> <Gold.Chemscore.Hbonds>
donor molecule, donor type, donor heavy atom, donor atom, acceptor molecule, acceptor atom, score
      P1  H  7997  8009       L1     1  0.88

> <Gold.Chemscore.Hbond.Weighted>
-3.2597

> <Gold.Chemscore.Metal.Weighted>
-0.0000

> <Gold.Chemscore.Lipo.Weighted>
-13.4784

> <Gold.Chemscore.Internal_Hbond.Weighted>
0.0000

> <Gold.Chemscore.DEClash.Weighted>
0.0166

> <Gold.Chemscore.DEInternal.Weighted>
0.4515

> <Gold.Chemscore.Rot.Weighted>
5.2663

> <Gold.Chemscore.Internal.Correction.Weighted>
   9.000000E+99

> <Gold.Protein.RotatedTorsions>
[ 6907 6896 6895 6894 ] final -140.47 input  -60.11 | X-H torsion
[ 7974 7965 7964 7962 ] final   10.51 input  175.53 | X-H torsion
[ 8008 7997 7996 7995 ] final  112.61 input   59.86 | X-H torsion
[ 10167 10162 10161 10158 ] final   -1.38 input  -65.29 | X-H torsion
[ 10718 10713 10712 10709 ] final  -63.14 input   66.30 | X-H torsion
[ 10763 10752 10751 10750 ] final   27.58 input  -60.55 | X-H torsion
[ 11005 11000 10999 10996 ] final   75.18 input  -57.11 | X-H torsion

> <Gold.Protein.ActiveResidues>
 VAL166  LYS551  ARG553  GLY616  TRP617  ASP618  TYR619  PRO620  LYS621  CYS622 
 ASP623  PHE694  ASN695  SER759  ASP760  ASP761  ALA762  ILE779  LEU786  VAL792 
 PHE793  MET794  SER795  GLU796  ALA797  LYS798  CYS799  TRP800  GLU811  SER814 

> <Gold.Protein.RotatedAtoms>
  151.0612  133.5543  159.2633 H   0  0  0  0  0  0  0  0  0  0  0  0  # atno 6907 bound_to 6896
  151.2518  135.0624  159.9074 H   0  0  0  0  0  0  0  0  0  0  0  0  # atno 6908 bound_to 6896
  152.5398  134.0371  159.8104 H   0  0  0  0  0  0  0  0  0  0  0  0  # atno 6909 bound_to 6896
  146.2387  139.9623  142.8457 H   0  0  0  0  0  0  0  0  0  0  0  0  # atno 7974 bound_to 7965
  156.2203  140.2996  155.9937 H   0  0  0  0  0  0  0  0  0  0  0  0  # atno 8008 bound_to 7997
  155.2498  140.0425  157.3002 H   0  0  0  0  0  0  0  0  0  0  0  0  # atno 8009 bound_to 7997
  154.5831  140.2381  155.8034 H   0  0  0  0  0  0  0  0  0  0  0  0  # atno 8010 bound_to 7997
  140.6808  143.6782  150.8128 H   0  0  0  0  0  0  0  0  0  0  0  0  # atno 10167 bound_to 10162
  156.0810  130.4217  150.1235 H   0  0  0  0  0  0  0  0  0  0  0  0  # atno 10718 bound_to 10713
  153.0546  135.6533  154.0608 H   0  0  0  0  0  0  0  0  0  0  0  0  # atno 10763 bound_to 10752
  154.0289  135.2913  155.3372 H   0  0  0  0  0  0  0  0  0  0  0  0  # atno 10764 bound_to 10752
  154.6854  135.5303  153.8387 H   0  0  0  0  0  0  0  0  0  0  0  0  # atno 10765 bound_to 10752
  139.9356  134.7495  156.1239 H   0  0  0  0  0  0  0  0  0  0  0  0  # atno 11005 bound_to 11000
  145.1760  140.9744  143.4294 LP  0  0  0  0  0  0  0  0  0  0  0  0  # atno 17320 bound_to 7965
  144.9986  139.3620  143.6179 LP  0  0  0  0  0  0  0  0  0  0  0  0  # atno 17321 bound_to 7965
  140.0482  143.5277  152.2686 LP  0  0  0  0  0  0  0  0  0  0  0  0  # atno 17342 bound_to 10162
  139.6129  144.7613  151.2912 LP  0  0  0  0  0  0  0  0  0  0  0  0  # atno 17343 bound_to 10162
  156.9266  130.9700  151.3540 LP  0  0  0  0  0  0  0  0  0  0  0  0  # atno 17370 bound_to 10713
  157.5926  130.8455  149.8682 LP  0  0  0  0  0  0  0  0  0  0  0  0  # atno 17371 bound_to 10713
  141.0968  133.6692  156.2662 LP  0  0  0  0  0  0  0  0  0  0  0  0  # atno 17394 bound_to 11000
  140.6085  134.5482  157.5529 LP  0  0  0  0  0  0  0  0  0  0  0  0  # atno 17395 bound_to 11000

$$$$
