AV-unprocessed.smi:2050|AV-procd|sdf|8325|dock6
  -GOLD-   2272010593D 1   1.00000     0.00000
 Structure written by MMmdl.
 33 34  0  0  0  0  0  0  0  0  1 V2000
  144.3425  132.1002  149.9176 C   0  0  0  0  0  0  0  0  0  0  0  0
  144.6484  133.3177  150.7209 C   0  0  0  0  0  0  0  0  0  0  0  0
  145.7308  134.1503  150.7737 C   0  0  0  0  0  0  0  0  0  0  0  0
  145.3532  135.1037  151.7565 C   0  0  0  0  0  0  0  0  0  0  0  0
  146.2248  136.1636  152.1146 N   0  0  0  0  0  0  0  0  0  0  0  0
  145.8974  137.3390  152.6781 C   0  0  0  0  0  0  0  0  0  0  0  0
  144.7553  137.6883  152.9775 O   0  0  0  0  0  0  0  0  0  0  0  0
  146.9835  138.0989  152.8821 N   0  0  0  0  0  0  0  0  0  0  0  0
  146.9868  139.4343  153.4724 C   0  0  0  0  0  0  0  0  0  0  0  0
  148.4111  139.9055  153.8223 C   0  0  1  0  0  0  0  0  0  0  0  0
  148.4085  141.1811  154.6872 C   0  0  0  0  0  0  0  0  0  0  0  0
  149.8320  141.4310  155.1948 C   0  0  0  0  0  0  0  0  0  0  0  0
  150.5565  139.7706  155.4613 S   0  0  0  0  0  0  0  0  0  0  0  0
  151.8272  139.6800  154.7261 O   0  0  0  0  0  0  0  0  0  0  0  0
  150.4812  139.4256  156.8889 O   0  0  0  0  0  0  0  0  0  0  0  0
  149.2556  138.8493  154.5565 C   0  0  0  0  0  0  0  0  0  0  0  0
  144.1492  134.8746  152.2577 N   0  0  0  0  0  0  0  0  0  0  0  0
  143.6915  133.7286  151.5967 O   0  0  0  0  0  0  0  0  0  0  0  0
  145.1833  131.8341  149.2769 H   0  0  0  0  0  0  0  0  0  0  0  0
  143.4720  132.2649  149.2824 H   0  0  0  0  0  0  0  0  0  0  0  0
  144.1312  131.2514  150.5681 H   0  0  0  0  0  0  0  0  0  0  0  0
  146.6436  134.0841  150.2004 H   0  0  0  0  0  0  0  0  0  0  0  0
  147.2033  136.0092  151.9215 H   0  0  0  0  0  0  0  0  0  0  0  0
  147.8800  137.7260  152.6061 H   0  0  0  0  0  0  0  0  0  0  0  0
  146.5473  140.1148  152.7426 H   0  0  0  0  0  0  0  0  0  0  0  0
  146.3417  139.4765  154.3520 H   0  0  0  0  0  0  0  0  0  0  0  0
  148.9295  140.1513  152.8940 H   0  0  0  0  0  0  0  0  0  0  0  0
  148.0265  142.0419  154.1377 H   0  0  0  0  0  0  0  0  0  0  0  0
  147.7502  141.0323  155.5444 H   0  0  0  0  0  0  0  0  0  0  0  0
  150.4279  141.9422  154.4383 H   0  0  0  0  0  0  0  0  0  0  0  0
  149.8631  142.0112  156.1168 H   0  0  0  0  0  0  0  0  0  0  0  0
  148.6575  138.3122  155.2935 H   0  0  0  0  0  0  0  0  0  0  0  0
  149.7097  138.1217  153.8836 H   0  0  0  0  0  0  0  0  0  0  0  0
  1  2  1  0  0  0  0
  1 19  1  0  0  0  0
  1 20  1  0  0  0  0
  1 21  1  0  0  0  0
  2 18  1  0  0  0  0
  2  3  2  0  0  0  0
  3  4  1  0  0  0  0
  3 22  1  0  0  0  0
  4  5  1  0  0  0  0
  4 17  2  0  0  0  0
  5  6  1  0  0  0  0
  5 23  1  0  0  0  0
  6  7  2  0  0  0  0
  6  8  1  0  0  0  0
  8  9  1  0  0  0  0
  8 24  1  0  0  0  0
  9 10  1  0  0  0  0
  9 25  1  0  0  0  0
  9 26  1  0  0  0  0
 10 16  1  0  0  0  0
 10 11  1  0  0  0  0
 10 27  1  0  0  0  0
 11 12  1  0  0  0  0
 11 28  1  0  0  0  0
 11 29  1  0  0  0  0
 12 13  1  0  0  0  0
 12 30  1  0  0  0  0
 12 31  1  0  0  0  0
 13 14  2  0  0  0  0
 13 15  2  0  0  0  0
 13 16  1  0  0  0  0
 16 32  1  0  0  0  0
 16 33  1  0  0  0  0
 17 18  1  0  0  0  0
M  END
> <s_m_source_file>
AV-unprocessed.smi

> <i_m_source_file_index>
2050

> <i_lp_mmshare_version>
43012

> <i_f3d_flags>
0

> <s_epik_input>
W0NIM11jMVtjSF1jKG5vMSlbTkhdQyg9TylbTkhdW0NIMl1bQ0BASF0oW0NIMl0yKVtDSDJdW0NIMl1TMig9Tyk9Tw==

> <s_epik_cmdline>
J2VwaWtfcHl0aG9uJywgJy1waCcsICc3LjAnLCAnLXRuJywgJzgnLCAnLW1hJywgJzIwMCcsICctbWV0YWxfYmluZGluZycsICctaW1hZScsICc8aW5maWxlLm1hZT4nLCAnLW9tYWUnLCAnPG91dGZpbGUubWFlPic=

> <r_lp_tautomer_probability>
1

> <r_epik_Ionization_Penalty>
2.22143e-05

> <r_epik_Ionization_Penalty_Charging>
0

> <r_epik_Ionization_Penalty_Neutral>
2.22143e-05

> <r_epik_State_Penalty>
-0

> <r_epik_Charging_Adjusted_Penalty>
0

> <i_epik_Tot_Q>
0

> <i_epik_Tot_abs_Q>
0

> <r_epik_Metal_State_Penalty>
-0

> <b_epik_Metal_Only>
0

> <s_lp_Force_Field>
OPLS_2005

> <r_lp_Energy>
0.896814

> <b_lp_Chiralities_Consistent>
1

> <s_lp_Variant>
AV-unprocessed.smi:2050-2

> <Gold.Version>
5.8.1

> <Gold.Id.Protein>
6NUR|6NUR_protein|mol2

> <Gold.PLP.Fitness>
36.5593

> <Gold.PLP.PLP>
-28.0476

> <Gold.PLP.part.hbond>
-3.0000

> <Gold.PLP.part.metal>
0.0000

> <Gold.PLP.part.buried>
-3.5595

> <Gold.PLP.part.nonpolar>
-23.3405

> <Gold.PLP.part.repulsive>
1.3011

> <Gold.PLP.ligand.clash>
0.0000

> <Gold.PLP.ligand.torsion>
0.2453

> <Gold.PLP.Chemscore.Hbond>
3.0000

> <Gold.PLP.Chemscore.CHOScore>
0.0000

> <Gold.PLP.Chemscore.Metal>
0.0000

> <Gold.Chemscore.Hbonds>
donor molecule, donor type, donor heavy atom, donor atom, acceptor molecule, acceptor atom, score
      L1  H     5    23       P1  7948  1.00
      L1  H     8    24       P1  7948  1.00
      P1  H  7989  7998       L1    14  1.00

> <Gold.PLP.Chemscore.Internal.Correction>
0.0023

> <Gold.Rescore>
     Score         DG    S(hbond)    S(metal)    S(lipo)     H(rot)  DE(clash)    DE(int)     intcor
     16.66     -18.27       2.90        0.00      56.13       1.36       0.20       1.42       ----

> <Gold.Chemscore.Fitness>
16.6573

> <Gold.Chemscore.DG>
-18.2721

> <Gold.Chemscore.ZeroCoef>
-5.4800

> <Gold.Chemscore.Hbond>
2.9035

> <Gold.Chemscore.Metal>
0.0000

> <Gold.Chemscore.Lipo>
56.1341

> <Gold.Chemscore.Internal_Hbond>
0.0000

> <Gold.Chemscore.DEClash>
0.1977

> <Gold.Chemscore.DEInternal>
1.4171

> <Gold.Chemscore.Rot>
1.3567

> <Gold.Chemscore.Internal.Correction>
   9.000000E+99

> <Gold.Chemscore.Hbonds>
donor molecule, donor type, donor heavy atom, donor atom, acceptor molecule, acceptor atom, score
      L1  H     5    23       P1  7948  1.00
      L1  H     8    24       P1  7948  0.93
      P1  H  7989  7998       L1    14  0.43

> <Gold.Chemscore.Hbond.Weighted>
-9.6977

> <Gold.Chemscore.Metal.Weighted>
-0.0000

> <Gold.Chemscore.Lipo.Weighted>
-6.5677

> <Gold.Chemscore.Internal_Hbond.Weighted>
0.0000

> <Gold.Chemscore.DEClash.Weighted>
0.1977

> <Gold.Chemscore.DEInternal.Weighted>
1.4171

> <Gold.Chemscore.Rot.Weighted>
3.4732

> <Gold.Chemscore.Internal.Correction.Weighted>
   9.000000E+99

> <Gold.Protein.RotatedTorsions>
[ 6907 6896 6895 6894 ] final  145.02 input  -60.11 | X-H torsion
[ 7974 7965 7964 7962 ] final -101.22 input  175.53 | X-H torsion
[ 8008 7997 7996 7995 ] final   36.17 input   59.86 | X-H torsion
[ 10167 10162 10161 10158 ] final    7.90 input  -65.29 | X-H torsion
[ 10718 10713 10712 10709 ] final -113.95 input   66.30 | X-H torsion
[ 10763 10752 10751 10750 ] final  138.81 input  -60.55 | X-H torsion
[ 11005 11000 10999 10996 ] final  -37.51 input  -57.11 | X-H torsion

> <Gold.Protein.ActiveResidues>
 VAL166  LYS551  ARG553  GLY616  TRP617  ASP618  TYR619  PRO620  LYS621  CYS622 
 ASP623  PHE694  ASN695  SER759  ASP760  ASP761  ALA762  ILE779  LEU786  VAL792 
 PHE793  MET794  SER795  GLU796  ALA797  LYS798  CYS799  TRP800  GLU811  SER814 

> <Gold.Protein.RotatedAtoms>
  152.1862  133.4741  159.4983 H   0  0  0  0  0  0  0  0  0  0  0  0  # atno 6907 bound_to 6896
  150.6943  134.1771  159.4243 H   0  0  0  0  0  0  0  0  0  0  0  0  # atno 6908 bound_to 6896
  151.9684  135.0089  160.0602 H   0  0  0  0  0  0  0  0  0  0  0  0  # atno 6909 bound_to 6896
  145.2844  140.9335  143.2913 H   0  0  0  0  0  0  0  0  0  0  0  0  # atno 7974 bound_to 7965
  155.1830  140.3301  155.4372 H   0  0  0  0  0  0  0  0  0  0  0  0  # atno 8008 bound_to 7997
  156.2470  140.1923  156.6877 H   0  0  0  0  0  0  0  0  0  0  0  0  # atno 8009 bound_to 7997
  154.6258  140.0589  156.9658 H   0  0  0  0  0  0  0  0  0  0  0  0  # atno 8010 bound_to 7997
  140.6345  143.7917  150.7341 H   0  0  0  0  0  0  0  0  0  0  0  0  # atno 10167 bound_to 10162
  156.0799  130.6001  150.8711 H   0  0  0  0  0  0  0  0  0  0  0  0  # atno 10718 bound_to 10713
  153.8958  135.3028  155.3448 H   0  0  0  0  0  0  0  0  0  0  0  0  # atno 10763 bound_to 10752
  154.7694  135.4893  153.9622 H   0  0  0  0  0  0  0  0  0  0  0  0  # atno 10764 bound_to 10752
  153.1272  135.6796  153.9336 H   0  0  0  0  0  0  0  0  0  0  0  0  # atno 10765 bound_to 10752
  140.9957  133.6981  156.1930 H   0  0  0  0  0  0  0  0  0  0  0  0  # atno 11005 bound_to 11000
  144.9225  139.4394  143.6534 LP  0  0  0  0  0  0  0  0  0  0  0  0  # atno 17320 bound_to 7965
  146.3205  139.8093  142.8949 LP  0  0  0  0  0  0  0  0  0  0  0  0  # atno 17321 bound_to 7965
  140.1535  143.4337  152.2115 LP  0  0  0  0  0  0  0  0  0  0  0  0  # atno 17342 bound_to 10162
  139.5557  144.7371  151.4302 LP  0  0  0  0  0  0  0  0  0  0  0  0  # atno 17343 bound_to 10162
  157.5911  131.0944  150.9117 LP  0  0  0  0  0  0  0  0  0  0  0  0  # atno 17370 bound_to 10713
  156.9292  130.5343  149.5279 LP  0  0  0  0  0  0  0  0  0  0  0  0  # atno 17371 bound_to 10713
  140.6969  134.4605  157.5587 LP  0  0  0  0  0  0  0  0  0  0  0  0  # atno 17394 bound_to 11000
  139.9013  134.8548  156.1882 LP  0  0  0  0  0  0  0  0  0  0  0  0  # atno 17395 bound_to 11000

$$$$
