AV-unprocessed.smi:2624|AV-procd|sdf|10234|dock4
  -GOLD-   2272014243D 1   1.00000     0.00000
 Structure written by MMmdl.
 38 39  0  0  0  0  0  0  0  0  2 V2000
  147.8303  139.8999  154.0031 C   0  0  0  0  0  0  0  0  0  0  0  0
  147.2290  139.4272  152.8104 O   0  0  0  0  0  0  0  0  0  0  0  0
  146.4101  138.2911  153.0287 C   0  0  0  0  0  0  0  0  0  0  0  0
  145.8618  137.8085  151.6776 C   0  0  0  0  0  0  0  0  0  0  0  0
  145.1338  136.5402  151.8162 N   0  0  0  0  0  0  0  0  0  0  0  0
  145.6754  135.4215  151.1547 C   0  0  0  0  0  0  0  0  0  0  0  0
  145.0996  134.2058  151.2108 C   0  0  0  0  0  0  0  0  0  0  0  0
  145.7013  133.0560  150.4927 C   0  0  0  0  0  0  0  0  0  0  0  0
  145.6372  132.9704  149.2652 O   0  0  0  0  0  0  0  0  0  0  0  0
  146.4113  132.0199  151.3024 C   0  0  0  0  0  0  0  0  0  0  0  0
  146.1016  130.6555  151.0898 C   0  0  0  0  0  0  0  0  0  0  0  0
  146.7359  129.6437  151.8371 C   0  0  0  0  0  0  0  0  0  0  0  0
  146.3820  128.1917  151.5909 C   0  0  0  0  0  0  0  0  0  0  0  0
  147.6938  129.9908  152.8089 C   0  0  0  0  0  0  0  0  0  0  0  0
  148.0144  131.3429  153.0280 C   0  0  0  0  0  0  0  0  0  0  0  0
  147.3819  132.3594  152.2836 C   0  0  0  0  0  0  0  0  0  0  0  0
  147.7513  133.6543  152.5259 O   0  5  0  0  0  0  0  0  0  0  0  0
  143.8724  134.0774  151.9727 C   0  0  0  0  0  0  0  0  0  0  0  0
  143.3428  135.1471  152.5988 C   0  0  0  0  0  0  0  0  0  0  0  0
  142.1326  135.0455  153.3450 C   0  0  0  0  0  0  0  0  0  0  0  0
  141.1527  134.9422  153.9525 N   0  0  0  0  0  0  0  0  0  0  0  0
  143.9760  136.4721  152.5408 C   0  0  0  0  0  0  0  0  0  0  0  0
  143.5009  137.4613  153.1015 O   0  0  0  0  0  0  0  0  0  0  0  0
  148.4500  140.7685  153.7812 H   0  0  0  0  0  0  0  0  0  0  0  0
  148.4681  139.1374  154.4523 H   0  0  0  0  0  0  0  0  0  0  0  0
  147.0772  140.2012  154.7322 H   0  0  0  0  0  0  0  0  0  0  0  0
  146.9916  137.5009  153.5065 H   0  0  0  0  0  0  0  0  0  0  0  0
  145.5876  138.5475  153.6986 H   0  0  0  0  0  0  0  0  0  0  0  0
  145.2071  138.5732  151.2569 H   0  0  0  0  0  0  0  0  0  0  0  0
  146.6770  137.7095  150.9589 H   0  0  0  0  0  0  0  0  0  0  0  0
  146.5840  135.6213  150.6037 H   0  0  0  0  0  0  0  0  0  0  0  0
  145.3626  130.3756  150.3527 H   0  0  0  0  0  0  0  0  0  0  0  0
  146.9306  127.5291  152.2609 H   0  0  0  0  0  0  0  0  0  0  0  0
  146.6221  127.9144  150.5643 H   0  0  0  0  0  0  0  0  0  0  0  0
  145.3155  128.0305  151.7505 H   0  0  0  0  0  0  0  0  0  0  0  0
  148.1877  129.2250  153.3886 H   0  0  0  0  0  0  0  0  0  0  0  0
  148.7551  131.5995  153.7714 H   0  0  0  0  0  0  0  0  0  0  0  0
  143.3628  133.1263  152.0338 H   0  0  0  0  0  0  0  0  0  0  0  0
  1  2  1  0  0  0  0
  1 24  1  0  0  0  0
  1 25  1  0  0  0  0
  1 26  1  0  0  0  0
  2  3  1  0  0  0  0
  3  4  1  0  0  0  0
  3 27  1  0  0  0  0
  3 28  1  0  0  0  0
  4  5  1  0  0  0  0
  4 29  1  0  0  0  0
  4 30  1  0  0  0  0
  5 22  1  0  0  0  0
  5  6  1  0  0  0  0
  6  7  2  0  0  0  0
  6 31  1  0  0  0  0
  7  8  1  0  0  0  0
  7 18  1  0  0  0  0
  8  9  2  0  0  0  0
  8 10  1  0  0  0  0
 10 16  1  0  0  0  0
 10 11  2  0  0  0  0
 11 12  1  0  0  0  0
 11 32  1  0  0  0  0
 12 13  1  0  0  0  0
 12 14  2  0  0  0  0
 13 33  1  0  0  0  0
 13 34  1  0  0  0  0
 13 35  1  0  0  0  0
 14 15  1  0  0  0  0
 14 36  1  0  0  0  0
 15 16  2  0  0  0  0
 15 37  1  0  0  0  0
 16 17  1  0  0  0  0
 18 19  2  0  0  0  0
 18 38  1  0  0  0  0
 19 20  1  0  0  0  0
 19 22  1  0  0  0  0
 20 21  3  0  0  0  0
 22 23  2  0  0  0  0
M  CHG  1  17  -1
M  END
> <s_m_source_file>
AV-unprocessed.smi

> <i_m_source_file_index>
2624

> <i_lp_mmshare_version>
43012

> <i_f3d_flags>
0

> <s_epik_input>
W0NIM11PW0NIMl1bQ0gyXW4xW2NIXWMoW2NIXWMoQyNOKWMxPU8pQyg9TyljMltjSF1jKFtDSDNdKVtjSF1bY0hdYzJbT0hd

> <s_epik_cmdline>
J2VwaWtfcHl0aG9uJywgJy1waCcsICc3LjAnLCAnLXRuJywgJzgnLCAnLW1hJywgJzIwMCcsICctbWV0YWxfYmluZGluZycsICctaW1hZScsICc8aW5maWxlLm1hZT4nLCAnLW9tYWUnLCAnPG91dGZpbGUubWFlPic=

> <r_epik_Ionization_Penalty>
0.985482

> <r_epik_Ionization_Penalty_Charging>
0.985482

> <r_epik_Ionization_Penalty_Neutral>
1.08437e-11

> <r_epik_State_Penalty>
1.03272

> <r_epik_Charging_Adjusted_Penalty>
2.0182

> <i_epik_Tot_Q>
-1

> <i_epik_Tot_abs_Q>
1

> <r_epik_Metal_State_Penalty>
1.03272

> <b_epik_Metal_Only>
0

> <s_lp_Force_Field>
OPLS_2005

> <r_lp_Energy>
23.2451

> <b_lp_Chiralities_Consistent>
1

> <s_lp_Variant>
AV-unprocessed.smi:2624-2

> <Gold.Version>
5.8.1

> <Gold.Id.Protein>
6NUR|6NUR_protein|mol2

> <Gold.PLP.Fitness>
40.6098

> <Gold.PLP.PLP>
-37.4927

> <Gold.PLP.part.hbond>
-1.0834

> <Gold.PLP.part.metal>
0.0000

> <Gold.PLP.part.buried>
-5.1993

> <Gold.PLP.part.nonpolar>
-33.1481

> <Gold.PLP.part.repulsive>
3.2640

> <Gold.PLP.ligand.clash>
0.0000

> <Gold.PLP.ligand.torsion>
2.2979

> <Gold.PLP.Chemscore.Hbond>
1.0000

> <Gold.PLP.Chemscore.CHOScore>
1.0000

> <Gold.PLP.Chemscore.Metal>
0.0000

> <Gold.Chemscore.Hbonds>
donor molecule, donor type, donor heavy atom, donor atom, acceptor molecule, acceptor atom, score
      P1  H 11000 11005       L1    21  0.98
      L1  C     6    31       P1  7948  0.52

> <Gold.PLP.Chemscore.Internal.Correction>
1.7130

> <Gold.Rescore>
     Score         DG    S(hbond)    S(metal)    S(lipo)     H(rot)  DE(clash)    DE(int)     intcor
     11.11     -14.66       1.00        0.00      80.86       1.41       0.21       3.34       ----

> <Gold.Chemscore.Fitness>
11.1147

> <Gold.Chemscore.DG>
-14.6635

> <Gold.Chemscore.ZeroCoef>
-5.4800

> <Gold.Chemscore.Hbond>
0.9955

> <Gold.Chemscore.Metal>
0.0000

> <Gold.Chemscore.Lipo>
80.8610

> <Gold.Chemscore.Internal_Hbond>
0.0000

> <Gold.Chemscore.DEClash>
0.2120

> <Gold.Chemscore.DEInternal>
3.3368

> <Gold.Chemscore.Rot>
1.4071

> <Gold.Chemscore.Internal.Correction>
   9.000000E+99

> <Gold.Chemscore.Hbonds>
donor molecule, donor type, donor heavy atom, donor atom, acceptor molecule, acceptor atom, score
      P1  H 11000 11005       L1    21  0.89

> <Gold.Chemscore.Hbond.Weighted>
-3.3249

> <Gold.Chemscore.Metal.Weighted>
-0.0000

> <Gold.Chemscore.Lipo.Weighted>
-9.4607

> <Gold.Chemscore.Internal_Hbond.Weighted>
0.0000

> <Gold.Chemscore.DEClash.Weighted>
0.2120

> <Gold.Chemscore.DEInternal.Weighted>
3.3368

> <Gold.Chemscore.Rot.Weighted>
3.6022

> <Gold.Chemscore.Internal.Correction.Weighted>
   9.000000E+99

> <Gold.Protein.RotatedTorsions>
[ 6907 6896 6895 6894 ] final -133.47 input  -60.11 | X-H torsion
[ 7974 7965 7964 7962 ] final  -85.58 input  175.53 | X-H torsion
[ 8008 7997 7996 7995 ] final   73.30 input   59.86 | X-H torsion
[ 10167 10162 10161 10158 ] final  -12.49 input  -65.29 | X-H torsion
[ 10718 10713 10712 10709 ] final   73.92 input   66.30 | X-H torsion
[ 10763 10752 10751 10750 ] final -171.27 input  -60.55 | X-H torsion
[ 11005 11000 10999 10996 ] final   26.30 input  -57.11 | X-H torsion

> <Gold.Protein.ActiveResidues>
 VAL166  LYS551  ARG553  GLY616  TRP617  ASP618  TYR619  PRO620  LYS621  CYS622 
 ASP623  PHE694  ASN695  SER759  ASP760  ASP761  ALA762  ILE779  LEU786  VAL792 
 PHE793  MET794  SER795  GLU796  ALA797  LYS798  CYS799  TRP800  GLU811  SER814 

> <Gold.Protein.RotatedAtoms>
  150.9744  133.6310  159.2732 H   0  0  0  0  0  0  0  0  0  0  0  0  # atno 6907 bound_to 6896
  151.3587  135.0898  159.9437 H   0  0  0  0  0  0  0  0  0  0  0  0  # atno 6908 bound_to 6896
  152.5194  133.9322  159.7641 H   0  0  0  0  0  0  0  0  0  0  0  0  # atno 6909 bound_to 6896
  145.4914  140.9552  143.1810 H   0  0  0  0  0  0  0  0  0  0  0  0  # atno 7974 bound_to 7965
  155.7816  140.3482  155.5300 H   0  0  0  0  0  0  0  0  0  0  0  0  # atno 8008 bound_to 7997
  155.8723  140.0988  157.1562 H   0  0  0  0  0  0  0  0  0  0  0  0  # atno 8009 bound_to 7997
  154.4018  140.1338  156.4081 H   0  0  0  0  0  0  0  0  0  0  0  0  # atno 8010 bound_to 7997
  140.7162  143.5527  150.9283 H   0  0  0  0  0  0  0  0  0  0  0  0  # atno 10167 bound_to 10162
  157.6569  130.9652  150.1137 H   0  0  0  0  0  0  0  0  0  0  0  0  # atno 10718 bound_to 10713
  154.6323  135.2888  155.0201 H   0  0  0  0  0  0  0  0  0  0  0  0  # atno 10763 bound_to 10752
  154.1357  135.6526  153.4935 H   0  0  0  0  0  0  0  0  0  0  0  0  # atno 10764 bound_to 10752
  153.0286  135.5321  154.7156 H   0  0  0  0  0  0  0  0  0  0  0  0  # atno 10765 bound_to 10752
  140.3385  134.2359  155.7693 H   0  0  0  0  0  0  0  0  0  0  0  0  # atno 11005 bound_to 11000
  144.7832  139.6482  143.7145 LP  0  0  0  0  0  0  0  0  0  0  0  0  # atno 17320 bound_to 7965
  146.2282  139.5762  142.9573 LP  0  0  0  0  0  0  0  0  0  0  0  0  # atno 17321 bound_to 7965
  139.9252  143.6559  152.3088 LP  0  0  0  0  0  0  0  0  0  0  0  0  # atno 17342 bound_to 10162
  139.6990  144.7637  151.1306 LP  0  0  0  0  0  0  0  0  0  0  0  0  # atno 17343 bound_to 10162
  156.2027  130.3661  149.8768 LP  0  0  0  0  0  0  0  0  0  0  0  0  # atno 17370 bound_to 10713
  156.6667  130.8804  151.3556 LP  0  0  0  0  0  0  0  0  0  0  0  0  # atno 17371 bound_to 10713
  141.2045  133.7885  157.0284 LP  0  0  0  0  0  0  0  0  0  0  0  0  # atno 17394 bound_to 11000
  140.0801  134.9653  157.1610 LP  0  0  0  0  0  0  0  0  0  0  0  0  # atno 17395 bound_to 11000

$$$$
