AV-unprocessed.smi:713|AV-procd|sdf|3478|dock2
  -GOLD-   22720 0473D 1   1.00000     0.00000
 Structure written by MMmdl.
 41 42  0  0  0  0  0  0  0  0  1 V2000
  151.3854  144.7321  158.0026 C   0  0  0  0  0  0  0  0  0  0  0  0
  152.0504  143.3754  158.3117 C   0  0  2  0  0  0  0  0  0  0  0  0
  151.2378  142.1911  157.7665 C   0  0  0  0  0  0  0  0  0  0  0  0
  151.5428  141.0343  158.0593 O   0  0  0  0  0  0  0  0  0  0  0  0
  150.2017  142.4968  156.9691 N   0  0  0  0  0  0  0  0  0  0  0  0
  149.3077  141.5311  156.3375 C   0  0  2  0  0  0  0  0  0  0  0  0
  149.4408  141.6326  154.8069 C   0  0  0  0  0  0  0  0  0  0  0  0
  148.4750  140.6731  154.0948 C   0  0  0  0  0  0  0  0  0  0  0  0
  147.0235  140.9137  154.5370 C   0  0  0  0  0  0  0  0  0  0  0  0
  146.8775  140.8027  156.0653 C   0  0  2  0  0  0  0  0  0  0  0  0
  145.1241  141.1351  156.5545 S   0  0  0  0  0  0  0  0  0  0  0  0
  144.8478  142.8477  155.9375 C   0  0  0  0  0  0  0  0  0  0  0  0
  144.2454  140.2330  155.7942 O   0  0  0  0  0  0  0  0  0  0  0  0
  145.0496  141.1530  158.0234 O   0  0  0  0  0  0  0  0  0  0  0  0
  147.8472  141.7672  156.7762 C   0  0  0  0  0  0  0  0  0  0  0  0
  152.3118  143.1928  159.7351 N   0  0  0  0  0  0  0  0  0  0  0  0
  152.0007  144.0517  160.7700 C   0  0  0  0  0  0  0  0  0  0  0  0
  152.4708  143.4935  161.9240 C   0  0  0  0  0  0  0  0  0  0  0  0
  153.0775  142.2825  161.4904 C   0  0  0  0  0  0  0  0  0  0  0  0
  152.9900  142.1097  160.1822 N   0  0  0  0  0  0  0  0  0  0  0  0
  151.2581  144.8701  156.9284 H   0  0  0  0  0  0  0  0  0  0  0  0
  151.9992  145.5565  158.3667 H   0  0  0  0  0  0  0  0  0  0  0  0
  150.4016  144.8248  158.4646 H   0  0  0  0  0  0  0  0  0  0  0  0
  153.0187  143.3735  157.8081 H   0  0  0  0  0  0  0  0  0  0  0  0
  150.0219  143.4724  156.7813 H   0  0  0  0  0  0  0  0  0  0  0  0
  149.6094  140.5260  156.6390 H   0  0  0  0  0  0  0  0  0  0  0  0
  149.2356  142.6546  154.4840 H   0  0  0  0  0  0  0  0  0  0  0  0
  150.4657  141.4129  154.5044 H   0  0  0  0  0  0  0  0  0  0  0  0
  148.5588  140.7953  153.0145 H   0  0  0  0  0  0  0  0  0  0  0  0
  148.7573  139.6421  154.3117 H   0  0  0  0  0  0  0  0  0  0  0  0
  146.7009  141.9023  154.2077 H   0  0  0  0  0  0  0  0  0  0  0  0
  146.3675  140.1952  154.0449 H   0  0  0  0  0  0  0  0  0  0  0  0
  147.1023  139.7791  156.3672 H   0  0  0  0  0  0  0  0  0  0  0  0
  143.8626  143.1885  156.2550 H   0  0  0  0  0  0  0  0  0  0  0  0
  144.8943  142.8658  154.8494 H   0  0  0  0  0  0  0  0  0  0  0  0
  145.6077  143.5124  156.3481 H   0  0  0  0  0  0  0  0  0  0  0  0
  147.7657  141.6455  157.8556 H   0  0  0  0  0  0  0  0  0  0  0  0
  147.5643  142.7982  156.5594 H   0  0  0  0  0  0  0  0  0  0  0  0
  151.4753  144.9801  160.6010 H   0  0  0  0  0  0  0  0  0  0  0  0
  152.3976  143.8922  162.9249 H   0  0  0  0  0  0  0  0  0  0  0  0
  153.5799  141.5313  162.0822 H   0  0  0  0  0  0  0  0  0  0  0  0
  1  2  1  0  0  0  0
  1 21  1  0  0  0  0
  1 22  1  0  0  0  0
  1 23  1  0  0  0  0
  2  3  1  0  0  0  0
  2 16  1  0  0  0  0
  2 24  1  0  0  0  0
  3  4  2  0  0  0  0
  3  5  1  0  0  0  0
  5  6  1  0  0  0  0
  5 25  1  0  0  0  0
  6 15  1  0  0  0  0
  6  7  1  0  0  0  0
  6 26  1  0  0  0  0
  7  8  1  0  0  0  0
  7 27  1  0  0  0  0
  7 28  1  0  0  0  0
  8  9  1  0  0  0  0
  8 29  1  0  0  0  0
  8 30  1  0  0  0  0
  9 10  1  0  0  0  0
  9 31  1  0  0  0  0
  9 32  1  0  0  0  0
 10 11  1  0  0  0  0
 10 15  1  0  0  0  0
 10 33  1  0  0  0  0
 11 12  1  0  0  0  0
 11 13  2  0  0  0  0
 11 14  2  0  0  0  0
 12 34  1  0  0  0  0
 12 35  1  0  0  0  0
 12 36  1  0  0  0  0
 15 37  1  0  0  0  0
 15 38  1  0  0  0  0
 16 20  1  0  0  0  0
 16 17  1  0  0  0  0
 17 18  2  0  0  0  0
 17 39  1  0  0  0  0
 18 19  1  0  0  0  0
 18 40  1  0  0  0  0
 19 20  2  0  0  0  0
 19 41  1  0  0  0  0
M  END
> <s_m_source_file>
AV-unprocessed.smi

> <i_m_source_file_index>
713

> <i_lp_mmshare_version>
43012

> <i_f3d_flags>
0

> <s_epik_input>
bjFbY0hdW2NIXVtjSF1uMVtDQEhdKFtDSDNdKUMoPU8pW05IXVtDQEBIXTJbQ0gyXVtDSDJdW0NIMl1bQ0BIXShbQ0gyXTIpUyg9TykoPU8pW0NIM10=

> <s_epik_cmdline>
J2VwaWtfcHl0aG9uJywgJy1waCcsICc3LjAnLCAnLXRuJywgJzgnLCAnLW1hJywgJzIwMCcsICctbWV0YWxfYmluZGluZycsICctaW1hZScsICc8aW5maWxlLm1hZT4nLCAnLW9tYWUnLCAnPG91dGZpbGUubWFlPic=

> <r_lp_tautomer_probability>
1

> <r_epik_Ionization_Penalty>
4.07816e-05

> <r_epik_Ionization_Penalty_Charging>
0

> <r_epik_Ionization_Penalty_Neutral>
4.07816e-05

> <r_epik_State_Penalty>
-0

> <r_epik_Charging_Adjusted_Penalty>
0

> <i_epik_Tot_Q>
0

> <i_epik_Tot_abs_Q>
0

> <r_epik_Metal_State_Penalty>
-0

> <b_epik_Metal_Only>
0

> <s_lp_Force_Field>
OPLS_2005

> <r_lp_Energy>
7.47495

> <b_lp_Chiralities_Consistent>
1

> <s_lp_Variant>
AV-unprocessed.smi:713-5

> <Gold.Version>
5.8.1

> <Gold.Id.Protein>
6NUR|6NUR_protein|mol2

> <Gold.PLP.Fitness>
40.4574

> <Gold.PLP.PLP>
-38.9466

> <Gold.PLP.part.hbond>
-1.0000

> <Gold.PLP.part.metal>
0.0000

> <Gold.PLP.part.buried>
-4.5790

> <Gold.PLP.part.nonpolar>
-32.8191

> <Gold.PLP.part.repulsive>
0.1279

> <Gold.PLP.ligand.clash>
0.6389

> <Gold.PLP.ligand.torsion>
0.3632

> <Gold.PLP.Chemscore.Hbond>
0.8800

> <Gold.PLP.Chemscore.CHOScore>
0.0000

> <Gold.PLP.Chemscore.Metal>
0.0000

> <Gold.Chemscore.Hbonds>
donor molecule, donor type, donor heavy atom, donor atom, acceptor molecule, acceptor atom, score
      L1  H     5    25       P1  8028  0.88

> <Gold.PLP.Chemscore.Internal.Correction>
0.2361

> <Gold.Rescore>
     Score         DG    S(hbond)    S(metal)    S(lipo)     H(rot)  DE(clash)    DE(int)     intcor
     13.14     -14.80       0.88        0.00      92.33       1.72       0.04       1.62       ----

> <Gold.Chemscore.Fitness>
13.1415

> <Gold.Chemscore.DG>
-14.7971

> <Gold.Chemscore.ZeroCoef>
-5.4800

> <Gold.Chemscore.Hbond>
0.8772

> <Gold.Chemscore.Metal>
0.0000

> <Gold.Chemscore.Lipo>
92.3339

> <Gold.Chemscore.Internal_Hbond>
0.0000

> <Gold.Chemscore.DEClash>
0.0363

> <Gold.Chemscore.DEInternal>
1.6193

> <Gold.Chemscore.Rot>
1.7249

> <Gold.Chemscore.Internal.Correction>
   9.000000E+99

> <Gold.Chemscore.Hbonds>
donor molecule, donor type, donor heavy atom, donor atom, acceptor molecule, acceptor atom, score
      L1  H     5    25       P1  8028  0.82

> <Gold.Chemscore.Hbond.Weighted>
-2.9297

> <Gold.Chemscore.Metal.Weighted>
-0.0000

> <Gold.Chemscore.Lipo.Weighted>
-10.8031

> <Gold.Chemscore.Internal_Hbond.Weighted>
0.0000

> <Gold.Chemscore.DEClash.Weighted>
0.0363

> <Gold.Chemscore.DEInternal.Weighted>
1.6193

> <Gold.Chemscore.Rot.Weighted>
4.4157

> <Gold.Chemscore.Internal.Correction.Weighted>
   9.000000E+99

> <Gold.Protein.RotatedTorsions>
[ 6907 6896 6895 6894 ] final  165.80 input  -60.11 | X-H torsion
[ 7974 7965 7964 7962 ] final -102.87 input  175.53 | X-H torsion
[ 8008 7997 7996 7995 ] final -114.69 input   59.86 | X-H torsion
[ 10167 10162 10161 10158 ] final  -58.42 input  -65.29 | X-H torsion
[ 10718 10713 10712 10709 ] final  -50.68 input   66.30 | X-H torsion
[ 10763 10752 10751 10750 ] final   82.27 input  -60.55 | X-H torsion
[ 11005 11000 10999 10996 ] final  144.14 input  -57.11 | X-H torsion

> <Gold.Protein.ActiveResidues>
 VAL166  LYS551  ARG553  GLY616  TRP617  ASP618  TYR619  PRO620  LYS621  CYS622 
 ASP623  PHE694  ASN695  SER759  ASP760  ASP761  ALA762  ILE779  LEU786  VAL792 
 PHE793  MET794  SER795  GLU796  ALA797  LYS798  CYS799  TRP800  GLU811  SER814 

> <Gold.Protein.RotatedAtoms>
  151.8888  133.3511  159.3790 H   0  0  0  0  0  0  0  0  0  0  0  0  # atno 6907 bound_to 6896
  150.7108  134.4944  159.5541 H   0  0  0  0  0  0  0  0  0  0  0  0  # atno 6908 bound_to 6896
  152.2511  134.8132  160.0497 H   0  0  0  0  0  0  0  0  0  0  0  0  # atno 6909 bound_to 6896
  145.2632  140.9275  143.3029 H   0  0  0  0  0  0  0  0  0  0  0  0  # atno 7974 bound_to 7965
  155.0403  140.0392  157.2507 H   0  0  0  0  0  0  0  0  0  0  0  0  # atno 8008 bound_to 7997
  154.7222  140.2714  155.6507 H   0  0  0  0  0  0  0  0  0  0  0  0  # atno 8009 bound_to 7997
  156.2819  140.2700  156.1897 H   0  0  0  0  0  0  0  0  0  0  0  0  # atno 8010 bound_to 7997
  140.6198  143.2415  151.5508 H   0  0  0  0  0  0  0  0  0  0  0  0  # atno 10167 bound_to 10162
  156.1779  130.4150  149.9550 H   0  0  0  0  0  0  0  0  0  0  0  0  # atno 10718 bound_to 10713
  153.1189  135.4734  154.9161 H   0  0  0  0  0  0  0  0  0  0  0  0  # atno 10763 bound_to 10752
  154.7555  135.3117  154.8479 H   0  0  0  0  0  0  0  0  0  0  0  0  # atno 10764 bound_to 10752
  153.9049  135.6871  153.4807 H   0  0  0  0  0  0  0  0  0  0  0  0  # atno 10765 bound_to 10752
  140.0609  134.9205  157.1182 H   0  0  0  0  0  0  0  0  0  0  0  0  # atno 11005 bound_to 11000
  144.9400  139.4200  143.6453 LP  0  0  0  0  0  0  0  0  0  0  0  0  # atno 17320 bound_to 7965
  146.3269  139.8355  142.8900 LP  0  0  0  0  0  0  0  0  0  0  0  0  # atno 17321 bound_to 7965
  139.5429  144.2598  152.1386 LP  0  0  0  0  0  0  0  0  0  0  0  0  # atno 17342 bound_to 10162
  140.1816  144.4839  150.6525 LP  0  0  0  0  0  0  0  0  0  0  0  0  # atno 17343 bound_to 10162
  156.7330  130.9050  151.3627 LP  0  0  0  0  0  0  0  0  0  0  0  0  # atno 17370 bound_to 10713
  157.6848  130.9175  150.0358 LP  0  0  0  0  0  0  0  0  0  0  0  0  # atno 17371 bound_to 10713
  140.3772  134.2326  155.7173 LP  0  0  0  0  0  0  0  0  0  0  0  0  # atno 17394 bound_to 11000
  141.1972  133.8064  157.0636 LP  0  0  0  0  0  0  0  0  0  0  0  0  # atno 17395 bound_to 11000

$$$$
