AV-unprocessed.smi:3078|AV-procd|sdf|11736|dock2
  -GOLD-   2272017133D 1   1.00000     0.00000
 Structure written by MMmdl.
 24 24  0  0  0  0  0  0  0  0  3 V2000
  145.9561  136.7956  151.8213 C   0  0  0  0  0  0  0  0  0  0  0  0
  145.2693  135.5270  151.7030 N   0  0  0  0  0  0  0  0  0  0  0  0
  145.0218  134.7837  150.5696 C   0  0  0  0  0  0  0  0  0  0  0  0
  144.3444  133.6583  150.9538 C   0  0  0  0  0  0  0  0  0  0  0  0
  143.8328  132.5141  150.1150 C   0  0  1  0  0  0  0  0  0  0  0  0
  142.3720  132.4007  150.2771 N   0  3  0  0  0  0  0  0  0  0  0  0
  144.2097  132.6550  148.6268 C   0  0  0  0  0  0  0  0  0  0  0  0
  143.5387  133.8064  147.9943 N   0  3  0  0  0  0  0  0  0  0  0  0
  144.2232  133.8163  152.3647 C   0  0  0  0  0  0  0  0  0  0  0  0
  144.7796  134.9303  152.8083 N   0  0  0  0  0  0  0  0  0  0  0  0
  146.1473  137.2123  150.8318 H   0  0  0  0  0  0  0  0  0  0  0  0
  146.9064  136.6529  152.3364 H   0  0  0  0  0  0  0  0  0  0  0  0
  145.3436  137.4980  152.3878 H   0  0  0  0  0  0  0  0  0  0  0  0
  145.3457  135.1155  149.5938 H   0  0  0  0  0  0  0  0  0  0  0  0
  144.2488  131.5740  150.4804 H   0  0  0  0  0  0  0  0  0  0  0  0
  142.0551  131.5326  149.8685 H   0  0  0  0  0  0  0  0  0  0  0  0
  141.9156  133.1733  149.8133 H   0  0  0  0  0  0  0  0  0  0  0  0
  145.2862  132.7966  148.5242 H   0  0  0  0  0  0  0  0  0  0  0  0
  143.9557  131.7500  148.0737 H   0  0  0  0  0  0  0  0  0  0  0  0
  144.2203  134.5220  147.7841 H   0  0  0  0  0  0  0  0  0  0  0  0
  142.8424  134.1835  148.6218 H   0  0  0  0  0  0  0  0  0  0  0  0
  143.7514  133.1550  153.0767 H   0  0  0  0  0  0  0  0  0  0  0  0
  143.0913  133.5099  147.1382 H   0  0  0  0  0  0  0  0  0  0  0  0
  142.1354  132.4107  151.2591 H   0  0  0  0  0  0  0  0  0  0  0  0
  1  2  1  0  0  0  0
  1 11  1  0  0  0  0
  1 12  1  0  0  0  0
  1 13  1  0  0  0  0
  2 10  1  0  0  0  0
  2  3  1  0  0  0  0
  3  4  2  0  0  0  0
  3 14  1  0  0  0  0
  4  5  1  0  0  0  0
  4  9  1  0  0  0  0
  5  6  1  0  0  0  0
  5  7  1  0  0  0  0
  5 15  1  0  0  0  0
  6 16  1  0  0  0  0
  6 17  1  0  0  0  0
  6 24  1  0  0  0  0
  7  8  1  0  0  0  0
  7 18  1  0  0  0  0
  7 19  1  0  0  0  0
  8 20  1  0  0  0  0
  8 21  1  0  0  0  0
  8 23  1  0  0  0  0
  9 10  2  0  0  0  0
  9 22  1  0  0  0  0
M  CHG  1   6   1
M  CHG  1   8   1
M  END
> <s_m_source_file>
AV-unprocessed.smi

> <i_m_source_file_index>
3078

> <i_lp_mmshare_version>
43012

> <i_f3d_flags>
0

> <s_epik_input>
W0NIM11uMVtjSF1jKFtjSF1uMSlbQ0BIXShbTkgyXSlbQ0gyXVtOSDJd

> <s_epik_cmdline>
J2VwaWtfcHl0aG9uJywgJy1waCcsICc3LjAnLCAnLXRuJywgJzgnLCAnLW1hJywgJzIwMCcsICctbWV0YWxfYmluZGluZycsICctaW1hZScsICc8aW5maWxlLm1hZT4nLCAnLW9tYWUnLCAnPG91dGZpbGUubWFlPic=

> <r_lp_tautomer_probability>
1

> <r_epik_Ionization_Penalty>
2.39325

> <r_epik_Ionization_Penalty_Charging>
2.39325

> <r_epik_Ionization_Penalty_Neutral>
1.68997e-07

> <r_epik_State_Penalty>
1.77229

> <r_epik_Charging_Adjusted_Penalty>
4.16555

> <i_epik_Tot_Q>
2

> <i_epik_Tot_abs_Q>
2

> <r_epik_Metal_State_Penalty>
1.77233

> <b_epik_Metal_Only>
0

> <s_lp_Force_Field>
OPLS_2005

> <r_lp_Energy>
8.51806

> <b_lp_Chiralities_Consistent>
1

> <s_lp_Variant>
AV-unprocessed.smi:3078-6

> <Gold.Version>
5.8.1

> <Gold.Id.Protein>
6NUR|6NUR_protein|mol2

> <Gold.PLP.Fitness>
49.1401

> <Gold.PLP.PLP>
-22.5769

> <Gold.PLP.part.hbond>
-4.9477

> <Gold.PLP.part.metal>
0.0000

> <Gold.PLP.part.buried>
-0.9163

> <Gold.PLP.part.nonpolar>
-17.5725

> <Gold.PLP.part.repulsive>
0.3991

> <Gold.PLP.ligand.clash>
0.0000

> <Gold.PLP.ligand.torsion>
0.0229

> <Gold.PLP.Chemscore.Hbond>
6.8640

> <Gold.PLP.Chemscore.CHOScore>
2.0000

> <Gold.PLP.Chemscore.Metal>
0.0000

> <Gold.Chemscore.Hbonds>
donor molecule, donor type, donor heavy atom, donor atom, acceptor molecule, acceptor atom, score
      L1  H     6    16       P1 10952  1.00
      L1  H     6    17       P1 10186  2.00
      L1  H     8    20       P1  7921  0.85
      L1  H     8    21       P1 10186  1.89
      L1  H     8    23       P1 10195  0.88
      L1  C     3    14       P1  7921  1.00
      L1  C     9    22       P1 10957  1.00

> <Gold.PLP.Chemscore.Internal.Correction>
0.0171

> <Gold.Rescore>
     Score         DG    S(hbond)    S(metal)    S(lipo)     H(rot)  DE(clash)    DE(int)     intcor
     22.65     -22.70       4.58        0.00      47.74       1.43       0.03       0.03       ----

> <Gold.Chemscore.Fitness>
22.6461

> <Gold.Chemscore.DG>
-22.7029

> <Gold.Chemscore.ZeroCoef>
-5.4800

> <Gold.Chemscore.Hbond>
4.5805

> <Gold.Chemscore.Metal>
0.0000

> <Gold.Chemscore.Lipo>
47.7425

> <Gold.Chemscore.Internal_Hbond>
0.0000

> <Gold.Chemscore.DEClash>
0.0257

> <Gold.Chemscore.DEInternal>
0.0311

> <Gold.Chemscore.Rot>
1.4304

> <Gold.Chemscore.Internal.Correction>
   9.000000E+99

> <Gold.Chemscore.Hbonds>
donor molecule, donor type, donor heavy atom, donor atom, acceptor molecule, acceptor atom, score
      L1  H     6    16       P1 10952  0.91
      L1  H     6    17       P1 10186  0.96
      L1  H     8    20       P1  7921  0.83
      L1  H     8    21       P1 10186  0.89
      L1  H     8    23       P1 10195  0.86

> <Gold.Chemscore.Hbond.Weighted>
-15.2988

> <Gold.Chemscore.Metal.Weighted>
-0.0000

> <Gold.Chemscore.Lipo.Weighted>
-5.5859

> <Gold.Chemscore.Internal_Hbond.Weighted>
0.0000

> <Gold.Chemscore.DEClash.Weighted>
0.0257

> <Gold.Chemscore.DEInternal.Weighted>
0.0311

> <Gold.Chemscore.Rot.Weighted>
3.6618

> <Gold.Chemscore.Internal.Correction.Weighted>
   9.000000E+99

> <Gold.Protein.RotatedTorsions>
[ 6907 6896 6895 6894 ] final   54.74 input  -60.11 | X-H torsion
[ 7974 7965 7964 7962 ] final   38.63 input  175.53 | X-H torsion
[ 8008 7997 7996 7995 ] final   46.30 input   59.86 | X-H torsion
[ 10167 10162 10161 10158 ] final  -25.52 input  -65.29 | X-H torsion
[ 10718 10713 10712 10709 ] final -109.51 input   66.30 | X-H torsion
[ 10763 10752 10751 10750 ] final   71.15 input  -60.55 | X-H torsion
[ 11005 11000 10999 10996 ] final -135.93 input  -57.11 | X-H torsion

> <Gold.Protein.ActiveResidues>
 VAL166  LYS551  ARG553  GLY616  TRP617  ASP618  TYR619  PRO620  LYS621  CYS622 
 ASP623  PHE694  ASN695  SER759  ASP760  ASP761  ALA762  ILE779  LEU786  VAL792 
 PHE793  MET794  SER795  GLU796  ALA797  LYS798  CYS799  TRP800  GLU811  SER814 

> <Gold.Protein.RotatedAtoms>
  152.3469  134.7059  160.0247 H   0  0  0  0  0  0  0  0  0  0  0  0  # atno 6907 bound_to 6896
  151.7425  133.3317  159.3377 H   0  0  0  0  0  0  0  0  0  0  0  0  # atno 6908 bound_to 6896
  150.7515  134.6198  159.6174 H   0  0  0  0  0  0  0  0  0  0  0  0  # atno 6909 bound_to 6896
  146.1047  139.5749  142.9391 H   0  0  0  0  0  0  0  0  0  0  0  0  # atno 7974 bound_to 7965
  155.3501  140.3413  155.4239 H   0  0  0  0  0  0  0  0  0  0  0  0  # atno 8008 bound_to 7997
  156.1768  140.1650  156.8383 H   0  0  0  0  0  0  0  0  0  0  0  0  # atno 8009 bound_to 7997
  154.5291  140.0749  156.8294 H   0  0  0  0  0  0  0  0  0  0  0  0  # atno 8010 bound_to 7997
  140.7286  143.4257  151.0880 H   0  0  0  0  0  0  0  0  0  0  0  0  # atno 10167 bound_to 10162
  156.0541  130.5767  150.8109 H   0  0  0  0  0  0  0  0  0  0  0  0  # atno 10718 bound_to 10713
  153.0382  135.5147  154.7550 H   0  0  0  0  0  0  0  0  0  0  0  0  # atno 10763 bound_to 10752
  154.6509  135.2925  154.9990 H   0  0  0  0  0  0  0  0  0  0  0  0  # atno 10764 bound_to 10752
  154.0875  135.6655  153.4900 H   0  0  0  0  0  0  0  0  0  0  0  0  # atno 10765 bound_to 10752
  140.8853  134.1880  157.4564 H   0  0  0  0  0  0  0  0  0  0  0  0  # atno 11005 bound_to 11000
  145.5785  141.0385  143.2135 LP  0  0  0  0  0  0  0  0  0  0  0  0  # atno 17320 bound_to 7965
  144.7461  139.7317  143.7292 LP  0  0  0  0  0  0  0  0  0  0  0  0  # atno 17321 bound_to 7965
  139.7909  143.8220  152.3151 LP  0  0  0  0  0  0  0  0  0  0  0  0  # atno 17342 bound_to 10162
  139.8204  144.7298  150.9580 LP  0  0  0  0  0  0  0  0  0  0  0  0  # atno 17343 bound_to 10162
  157.5494  131.0943  150.9717 LP  0  0  0  0  0  0  0  0  0  0  0  0  # atno 17370 bound_to 10713
  156.9980  130.5589  149.5309 LP  0  0  0  0  0  0  0  0  0  0  0  0  # atno 17371 bound_to 10713
  139.8723  134.9835  156.5200 LP  0  0  0  0  0  0  0  0  0  0  0  0  # atno 17394 bound_to 11000
  140.8412  133.8203  155.9077 LP  0  0  0  0  0  0  0  0  0  0  0  0  # atno 17395 bound_to 11000

$$$$
