AV-unprocessed.smi:3047|AV-procd|sdf|11621|dock5
  -GOLD-   2272017 03D 1   1.00000     0.00000
 Structure written by MMmdl.
 38 39  0  0  0  0  0  0  0  0  2 V2000
  149.9983  124.9188  154.2738 C   0  0  0  0  0  0  0  0  0  0  0  0
  148.9772  126.4407  154.4227 S   0  0  0  0  0  0  0  0  0  0  0  0
  147.9177  126.1901  155.4120 O   0  0  0  0  0  0  0  0  0  0  0  0
  149.8632  127.6047  154.5762 O   0  0  0  0  0  0  0  0  0  0  0  0
  148.2228  126.5515  152.8694 N   0  0  0  0  0  0  0  0  0  0  0  0
  148.3315  125.4133  151.9466 C   0  0  0  0  0  0  0  0  0  0  0  0
  148.1440  125.9970  150.5486 C   0  0  0  0  0  0  0  0  0  0  0  0
  148.6994  127.4076  150.6882 C   0  0  0  0  0  0  0  0  0  0  0  0
  148.3276  127.8168  152.1244 C   0  0  1  0  0  0  0  0  0  0  0  0
  147.0454  128.6572  152.2074 C   0  0  0  0  0  0  0  0  0  0  0  0
  146.0604  128.2445  152.8211 O   0  0  0  0  0  0  0  0  0  0  0  0
  147.0772  129.8496  151.5927 N   0  0  0  0  0  0  0  0  0  0  0  0
  145.9856  130.8153  151.5817 C   0  0  0  0  0  0  0  0  0  0  0  0
  146.4918  132.2504  151.8031 C   0  0  0  0  0  0  0  0  0  0  0  0
  145.5491  133.2411  151.2814 N   0  0  0  0  0  0  0  0  0  0  0  0
  145.7398  134.5957  151.1866 C   0  0  0  0  0  0  0  0  0  0  0  0
  144.5954  135.1136  150.6366 C   0  0  0  0  0  0  0  0  0  0  0  0
  143.7556  134.0538  150.4192 N   0  3  0  0  0  0  0  0  0  0  0  0
  144.3378  132.9157  150.8115 C   0  0  0  0  0  0  0  0  0  0  0  0
  150.4942  124.7224  155.2241 H   0  0  0  0  0  0  0  0  0  0  0  0
  150.7504  125.0550  153.4973 H   0  0  0  0  0  0  0  0  0  0  0  0
  149.3590  124.0743  154.0178 H   0  0  0  0  0  0  0  0  0  0  0  0
  149.3224  124.9667  152.0353 H   0  0  0  0  0  0  0  0  0  0  0  0
  147.5895  124.6499  152.1821 H   0  0  0  0  0  0  0  0  0  0  0  0
  148.6503  125.4168  149.7767 H   0  0  0  0  0  0  0  0  0  0  0  0
  147.0827  126.0356  150.2998 H   0  0  0  0  0  0  0  0  0  0  0  0
  149.7852  127.3879  150.5835 H   0  0  0  0  0  0  0  0  0  0  0  0
  148.3138  128.0821  149.9222 H   0  0  0  0  0  0  0  0  0  0  0  0
  149.1497  128.4077  152.5324 H   0  0  0  0  0  0  0  0  0  0  0  0
  147.9318  130.1176  151.1252 H   0  0  0  0  0  0  0  0  0  0  0  0
  145.4372  130.7417  150.6408 H   0  0  0  0  0  0  0  0  0  0  0  0
  145.2847  130.5416  152.3709 H   0  0  0  0  0  0  0  0  0  0  0  0
  146.6506  132.4482  152.8645 H   0  0  0  0  0  0  0  0  0  0  0  0
  147.4468  132.4106  151.3004 H   0  0  0  0  0  0  0  0  0  0  0  0
  146.6525  135.0772  151.5081 H   0  0  0  0  0  0  0  0  0  0  0  0
  144.3232  136.1296  150.3901 H   0  0  0  0  0  0  0  0  0  0  0  0
  143.9124  131.9291  150.7579 H   0  0  0  0  0  0  0  0  0  0  0  0
  142.8280  134.1192  150.0187 H   0  0  0  0  0  0  0  0  0  0  0  0
  1  2  1  0  0  0  0
  1 20  1  0  0  0  0
  1 21  1  0  0  0  0
  1 22  1  0  0  0  0
  2  3  2  0  0  0  0
  2  4  2  0  0  0  0
  2  5  1  0  0  0  0
  5  9  1  0  0  0  0
  5  6  1  0  0  0  0
  6  7  1  0  0  0  0
  6 23  1  0  0  0  0
  6 24  1  0  0  0  0
  7  8  1  0  0  0  0
  7 25  1  0  0  0  0
  7 26  1  0  0  0  0
  8  9  1  0  0  0  0
  8 27  1  0  0  0  0
  8 28  1  0  0  0  0
  9 10  1  0  0  0  0
  9 29  1  0  0  0  0
 10 11  2  0  0  0  0
 10 12  1  0  0  0  0
 12 13  1  0  0  0  0
 12 30  1  0  0  0  0
 13 14  1  0  0  0  0
 13 31  1  0  0  0  0
 13 32  1  0  0  0  0
 14 15  1  0  0  0  0
 14 33  1  0  0  0  0
 14 34  1  0  0  0  0
 15 19  1  0  0  0  0
 15 16  1  0  0  0  0
 16 17  2  0  0  0  0
 16 35  1  0  0  0  0
 17 18  1  0  0  0  0
 17 36  1  0  0  0  0
 18 19  2  0  0  0  0
 18 38  1  0  0  0  0
 19 37  1  0  0  0  0
M  CHG  1  18   1
M  END
> <s_m_source_file>
AV-unprocessed.smi

> <i_m_source_file_index>
3047

> <i_lp_mmshare_version>
43012

> <i_f3d_flags>
0

> <s_epik_input>
W0NIM11TKD1PKSg9TylOMVtDSDJdW0NIMl1bQ0gyXVtDQEhdMUMoPU8pW05IXVtDSDJdW0NIMl1uMltjSF1bY0hdbltjSF0y

> <s_epik_cmdline>
J2VwaWtfcHl0aG9uJywgJy1waCcsICc3LjAnLCAnLXRuJywgJzgnLCAnLW1hJywgJzIwMCcsICctbWV0YWxfYmluZGluZycsICctaW1hZScsICc8aW5maWxlLm1hZT4nLCAnLW9tYWUnLCAnPG91dGZpbGUubWFlPic=

> <r_lp_tautomer_probability>
1

> <r_epik_Ionization_Penalty>
0.281738

> <r_epik_Ionization_Penalty_Charging>
0

> <r_epik_Ionization_Penalty_Neutral>
0.281738

> <r_epik_State_Penalty>
0.274352

> <r_epik_Charging_Adjusted_Penalty>
0.274352

> <i_epik_Tot_Q>
1

> <i_epik_Tot_abs_Q>
1

> <r_epik_Metal_State_Penalty>
0.555562

> <b_epik_Metal_Only>
0

> <s_lp_Force_Field>
OPLS_2005

> <r_lp_Energy>
11.1573

> <b_lp_Chiralities_Consistent>
1

> <s_lp_Variant>
AV-unprocessed.smi:3047-1

> <Gold.Version>
5.8.1

> <Gold.Id.Protein>
6NUR|6NUR_protein|mol2

> <Gold.PLP.Fitness>
43.6629

> <Gold.PLP.PLP>
-32.2541

> <Gold.PLP.part.hbond>
-1.9319

> <Gold.PLP.part.metal>
0.0000

> <Gold.PLP.part.buried>
-6.4813

> <Gold.PLP.part.nonpolar>
-24.8760

> <Gold.PLP.part.repulsive>
0.2636

> <Gold.PLP.ligand.clash>
0.0000

> <Gold.PLP.ligand.torsion>
0.5643

> <Gold.PLP.Chemscore.Hbond>
2.9913

> <Gold.PLP.Chemscore.CHOScore>
0.9994

> <Gold.PLP.Chemscore.Metal>
0.0000

> <Gold.Chemscore.Hbonds>
donor molecule, donor type, donor heavy atom, donor atom, acceptor molecule, acceptor atom, score
      L1  H    12    30       P1 10747  0.96
      L1  H    18    38       P1 10186  2.00
      L1  C    16    35       P1  7948  0.94

> <Gold.PLP.Chemscore.Internal.Correction>
0.5656

> <Gold.Rescore>
     Score         DG    S(hbond)    S(metal)    S(lipo)     H(rot)  DE(clash)    DE(int)     intcor
     12.45     -13.02       1.96        0.00      62.53       2.47       0.02       0.55       ----

> <Gold.Chemscore.Fitness>
12.4491

> <Gold.Chemscore.DG>
-13.0202

> <Gold.Chemscore.ZeroCoef>
-5.4800

> <Gold.Chemscore.Hbond>
1.9596

> <Gold.Chemscore.Metal>
0.0000

> <Gold.Chemscore.Lipo>
62.5270

> <Gold.Chemscore.Internal_Hbond>
0.0000

> <Gold.Chemscore.DEClash>
0.0180

> <Gold.Chemscore.DEInternal>
0.5531

> <Gold.Chemscore.Rot>
2.4689

> <Gold.Chemscore.Internal.Correction>
   9.000000E+99

> <Gold.Chemscore.Hbonds>
donor molecule, donor type, donor heavy atom, donor atom, acceptor molecule, acceptor atom, score
      L1  H    12    30       P1 10747  0.90
      L1  H    18    38       P1 10186  0.98

> <Gold.Chemscore.Hbond.Weighted>
-6.5450

> <Gold.Chemscore.Metal.Weighted>
-0.0000

> <Gold.Chemscore.Lipo.Weighted>
-7.3157

> <Gold.Chemscore.Internal_Hbond.Weighted>
0.0000

> <Gold.Chemscore.DEClash.Weighted>
0.0180

> <Gold.Chemscore.DEInternal.Weighted>
0.5531

> <Gold.Chemscore.Rot.Weighted>
6.3204

> <Gold.Chemscore.Internal.Correction.Weighted>
   9.000000E+99

> <Gold.Protein.RotatedTorsions>
[ 6907 6896 6895 6894 ] final   19.03 input  -60.11 | X-H torsion
[ 7974 7965 7964 7962 ] final  160.17 input  175.53 | X-H torsion
[ 8008 7997 7996 7995 ] final  179.25 input   59.86 | X-H torsion
[ 10167 10162 10161 10158 ] final    1.95 input  -65.29 | X-H torsion
[ 10718 10713 10712 10709 ] final   15.24 input   66.30 | X-H torsion
[ 10763 10752 10751 10750 ] final   -3.70 input  -60.55 | X-H torsion
[ 11005 11000 10999 10996 ] final -101.67 input  -57.11 | X-H torsion

> <Gold.Protein.ActiveResidues>
 VAL166  LYS551  ARG553  GLY616  TRP617  ASP618  TYR619  PRO620  LYS621  CYS622 
 ASP623  PHE694  ASN695  SER759  ASP760  ASP761  ALA762  ILE779  LEU786  VAL792 
 PHE793  MET794  SER795  GLU796  ALA797  LYS798  CYS799  TRP800  GLU811  SER814 

> <Gold.Protein.RotatedAtoms>
  151.8745  135.0477  160.0482 H   0  0  0  0  0  0  0  0  0  0  0  0  # atno 6907 bound_to 6896
  152.2562  133.5253  159.5363 H   0  0  0  0  0  0  0  0  0  0  0  0  # atno 6908 bound_to 6896
  150.7100  134.0808  159.3940 H   0  0  0  0  0  0  0  0  0  0  0  0  # atno 6909 bound_to 6896
  144.7751  139.7720  143.6282 H   0  0  0  0  0  0  0  0  0  0  0  0  # atno 7974 bound_to 7965
  156.0456  140.1313  157.0108 H   0  0  0  0  0  0  0  0  0  0  0  0  # atno 8008 bound_to 7997
  154.4411  140.1021  156.6371 H   0  0  0  0  0  0  0  0  0  0  0  0  # atno 8009 bound_to 7997
  155.5601  140.3464  155.4491 H   0  0  0  0  0  0  0  0  0  0  0  0  # atno 8010 bound_to 7997
  140.6658  143.7182  150.7825 H   0  0  0  0  0  0  0  0  0  0  0  0  # atno 10167 bound_to 10162
  157.0507  130.6269  149.5767 H   0  0  0  0  0  0  0  0  0  0  0  0  # atno 10718 bound_to 10713
  153.3749  135.6996  153.6610 H   0  0  0  0  0  0  0  0  0  0  0  0  # atno 10763 bound_to 10752
  153.5245  135.3605  155.2648 H   0  0  0  0  0  0  0  0  0  0  0  0  # atno 10764 bound_to 10752
  154.8686  135.4166  154.3034 H   0  0  0  0  0  0  0  0  0  0  0  0  # atno 10765 bound_to 10752
  141.1221  133.8496  157.1261 H   0  0  0  0  0  0  0  0  0  0  0  0  # atno 11005 bound_to 11000
  146.1925  139.5173  142.9796 LP  0  0  0  0  0  0  0  0  0  0  0  0  # atno 17320 bound_to 7965
  145.6210  141.0322  143.1915 LP  0  0  0  0  0  0  0  0  0  0  0  0  # atno 17321 bound_to 7965
  140.0859  143.4924  152.2505 LP  0  0  0  0  0  0  0  0  0  0  0  0  # atno 17342 bound_to 10162
  139.5907  144.7549  151.3408 LP  0  0  0  0  0  0  0  0  0  0  0  0  # atno 17343 bound_to 10162
  156.0008  130.5087  150.7657 LP  0  0  0  0  0  0  0  0  0  0  0  0  # atno 17370 bound_to 10713
  157.5032  131.0920  151.0289 LP  0  0  0  0  0  0  0  0  0  0  0  0  # atno 17371 bound_to 10713
  140.0188  134.9955  157.0548 LP  0  0  0  0  0  0  0  0  0  0  0  0  # atno 17394 bound_to 11000
  140.4475  134.1617  155.7178 LP  0  0  0  0  0  0  0  0  0  0  0  0  # atno 17395 bound_to 11000

$$$$
