AV-unprocessed.smi:1978|AV-procd|sdf|8002|dock6
  -GOLD-   2272010183D 1   1.00000     0.00000
 Structure written by MMmdl.
 44 45  0  0  0  0  0  0  0  0  3 V2000
  145.6751  136.9214  162.3738 C   0  0  0  0  0  0  0  0  0  0  0  0
  146.7203  136.3803  161.4594 C   0  0  0  0  0  0  0  0  0  0  0  0
  146.8262  135.2114  160.7605 C   0  0  0  0  0  0  0  0  0  0  0  0
  148.0768  135.3418  160.0971 C   0  0  0  0  0  0  0  0  0  0  0  0
  148.6285  134.4414  159.2690 N   0  5  0  0  0  0  0  0  0  0  0  0
  147.9197  133.9525  158.2265 C   0  0  0  0  0  0  0  0  0  0  0  0
  147.3334  132.8684  158.1833 O   0  0  0  0  0  0  0  0  0  0  0  0
  147.8920  134.7685  157.1632 N   0  0  0  0  0  0  0  0  0  0  0  0
  147.2248  134.4877  155.8965 C   0  0  0  0  0  0  0  0  0  0  0  0
  147.8505  135.2760  154.7178 C   0  0  2  0  0  0  0  0  0  0  0  0
  147.8622  136.7987  154.9657 C   0  0  0  0  0  0  0  0  0  0  0  0
  147.2340  134.9375  153.3948 N   0  3  2  0  0  0  0  0  0  0  0  0
  145.8549  135.4795  153.2160 C   0  0  0  0  0  0  0  0  0  0  0  0
  145.3838  135.3453  151.7607 C   0  0  0  0  0  0  0  0  0  0  0  0
  145.4337  133.8836  151.3102 C   0  0  0  0  0  0  0  0  0  0  0  0
  146.8438  133.3255  151.5276 C   0  0  0  0  0  0  0  0  0  0  0  0
  147.3099  133.4934  152.9903 C   0  0  1  0  0  0  0  0  0  0  0  0
  148.7154  132.8773  153.1438 C   0  0  0  0  0  0  0  0  0  0  0  0
  148.6692  136.4953  160.3567 N   0  0  0  0  0  0  0  0  0  0  0  0
  147.8084  137.1647  161.2346 O   0  0  0  0  0  0  0  0  0  0  0  0
  144.8112  137.2692  161.8077 H   0  0  0  0  0  0  0  0  0  0  0  0
  146.0583  137.7594  162.9564 H   0  0  0  0  0  0  0  0  0  0  0  0
  145.3372  136.1538  163.0701 H   0  0  0  0  0  0  0  0  0  0  0  0
  146.1238  134.3920  160.7305 H   0  0  0  0  0  0  0  0  0  0  0  0
  148.3823  135.6477  157.2402 H   0  0  0  0  0  0  0  0  0  0  0  0
  147.2504  133.4128  155.7140 H   0  0  0  0  0  0  0  0  0  0  0  0
  146.1755  134.7538  156.0210 H   0  0  0  0  0  0  0  0  0  0  0  0
  148.9060  135.0194  154.6597 H   0  0  0  0  0  0  0  0  0  0  0  0
  148.5266  137.0539  155.7920 H   0  0  0  0  0  0  0  0  0  0  0  0
  146.8762  137.1845  155.2230 H   0  0  0  0  0  0  0  0  0  0  0  0
  148.2207  137.3388  154.0892 H   0  0  0  0  0  0  0  0  0  0  0  0
  145.1607  134.9548  153.8735 H   0  0  0  0  0  0  0  0  0  0  0  0
  145.8092  136.5326  153.4870 H   0  0  0  0  0  0  0  0  0  0  0  0
  144.3687  135.7310  151.6601 H   0  0  0  0  0  0  0  0  0  0  0  0
  146.0136  135.9551  151.1114 H   0  0  0  0  0  0  0  0  0  0  0  0
  144.7106  133.2951  151.8765 H   0  0  0  0  0  0  0  0  0  0  0  0
  145.1522  133.8017  150.2600 H   0  0  0  0  0  0  0  0  0  0  0  0
  146.8586  132.2714  151.2474 H   0  0  0  0  0  0  0  0  0  0  0  0
  147.5415  133.8305  150.8578 H   0  0  0  0  0  0  0  0  0  0  0  0
  146.6273  132.9245  153.6227 H   0  0  0  0  0  0  0  0  0  0  0  0
  148.7529  131.8788  152.7072 H   0  0  0  0  0  0  0  0  0  0  0  0
  149.0007  132.7607  154.1891 H   0  0  0  0  0  0  0  0  0  0  0  0
  149.4741  133.4821  152.6458 H   0  0  0  0  0  0  0  0  0  0  0  0
  147.8052  135.4257  152.7201 H   0  0  0  0  0  0  0  0  0  0  0  0
  1  2  1  0  0  0  0
  1 21  1  0  0  0  0
  1 22  1  0  0  0  0
  1 23  1  0  0  0  0
  2 20  1  0  0  0  0
  2  3  2  0  0  0  0
  3  4  1  0  0  0  0
  3 24  1  0  0  0  0
  4  5  1  0  0  0  0
  4 19  2  0  0  0  0
  5  6  1  0  0  0  0
  6  7  2  0  0  0  0
  6  8  1  0  0  0  0
  8  9  1  0  0  0  0
  8 25  1  0  0  0  0
  9 10  1  0  0  0  0
  9 26  1  0  0  0  0
  9 27  1  0  0  0  0
 10 11  1  0  0  0  0
 10 12  1  0  0  0  0
 10 28  1  0  0  0  0
 11 29  1  0  0  0  0
 11 30  1  0  0  0  0
 11 31  1  0  0  0  0
 12 17  1  0  0  0  0
 12 13  1  0  0  0  0
 12 44  1  0  0  0  0
 13 14  1  0  0  0  0
 13 32  1  0  0  0  0
 13 33  1  0  0  0  0
 14 15  1  0  0  0  0
 14 34  1  0  0  0  0
 14 35  1  0  0  0  0
 15 16  1  0  0  0  0
 15 36  1  0  0  0  0
 15 37  1  0  0  0  0
 16 17  1  0  0  0  0
 16 38  1  0  0  0  0
 16 39  1  0  0  0  0
 17 18  1  0  0  0  0
 17 40  1  0  0  0  0
 18 41  1  0  0  0  0
 18 42  1  0  0  0  0
 18 43  1  0  0  0  0
 19 20  1  0  0  0  0
M  CHG  1   5  -1
M  CHG  1  12   1
M  END
> <s_m_source_file>
AV-unprocessed.smi

> <i_m_source_file_index>
1978

> <i_lp_mmshare_version>
43012

> <i_f3d_flags>
0

> <s_epik_input>
W0NIM11jMVtjSF1jKG5vMSlbTkhdQyg9TylbTkhdW0NIMl1bQ0BIXShbQ0gzXSlOMltDSDJdW0NIMl1bQ0gyXVtDSDJdW0NASF0yW0NIM10=

> <s_epik_cmdline>
J2VwaWtfcHl0aG9uJywgJy1waCcsICc3LjAnLCAnLXRuJywgJzgnLCAnLW1hJywgJzIwMCcsICctbWV0YWxfYmluZGluZycsICctaW1hZScsICc8aW5maWxlLm1hZT4nLCAnLW9tYWUnLCAnPG91dGZpbGUubWFlPic=

> <r_epik_Ionization_Penalty>
6.22372

> <r_epik_Ionization_Penalty_Charging>
6.22362

> <r_epik_Ionization_Penalty_Neutral>
9.65074e-05

> <r_epik_State_Penalty>
6.22363

> <r_epik_Charging_Adjusted_Penalty>
12.4472

> <i_epik_Tot_Q>
0

> <i_epik_Tot_abs_Q>
2

> <r_epik_Metal_State_Penalty>
2.16675

> <b_epik_Metal_Only>
1

> <s_lp_Force_Field>
OPLS_2005

> <r_lp_Energy>
9.77909

> <b_lp_Chiralities_Consistent>
1

> <s_lp_Variant>
AV-unprocessed.smi:1978-11

> <Gold.Version>
5.8.1

> <Gold.Id.Protein>
6NUR|6NUR_protein|mol2

> <Gold.PLP.Fitness>
39.9873

> <Gold.PLP.PLP>
-25.4486

> <Gold.PLP.part.hbond>
-4.3630

> <Gold.PLP.part.metal>
0.0000

> <Gold.PLP.part.buried>
-2.9789

> <Gold.PLP.part.nonpolar>
-18.4431

> <Gold.PLP.part.repulsive>
0.0201

> <Gold.PLP.ligand.clash>
0.0000

> <Gold.PLP.ligand.torsion>
1.4393

> <Gold.PLP.Chemscore.Hbond>
5.7520

> <Gold.PLP.Chemscore.CHOScore>
0.0000

> <Gold.PLP.Chemscore.Metal>
0.0000

> <Gold.Chemscore.Hbonds>
donor molecule, donor type, donor heavy atom, donor atom, acceptor molecule, acceptor atom, score
      L1  H    12    44       P1  7948  2.00
      P1  H  6896  6909       L1     5  2.00
      P1  H  6931  6943       L1    20  0.79
      P1  H  6934  6947       L1    20  0.80

> <Gold.PLP.Chemscore.Internal.Correction>
0.1612

> <Gold.Rescore>
     Score         DG    S(hbond)    S(metal)    S(lipo)     H(rot)  DE(clash)    DE(int)     intcor
     16.00     -17.45       2.79        0.00      55.78       1.52       0.02       1.43       ----

> <Gold.Chemscore.Fitness>
16.0011

> <Gold.Chemscore.DG>
-17.4456

> <Gold.Chemscore.ZeroCoef>
-5.4800

> <Gold.Chemscore.Hbond>
2.7928

> <Gold.Chemscore.Metal>
0.0000

> <Gold.Chemscore.Lipo>
55.7803

> <Gold.Chemscore.Internal_Hbond>
0.0000

> <Gold.Chemscore.DEClash>
0.0165

> <Gold.Chemscore.DEInternal>
1.4280

> <Gold.Chemscore.Rot>
1.5190

> <Gold.Chemscore.Internal.Correction>
   9.000000E+99

> <Gold.Chemscore.Hbonds>
donor molecule, donor type, donor heavy atom, donor atom, acceptor molecule, acceptor atom, score
      L1  H    12    44       P1  7948  0.99
      P1  H  6896  6909       L1     5  0.85
      P1  H  6931  6943       L1    20  0.11
      P1  H  6934  6947       L1    20  0.54

> <Gold.Chemscore.Hbond.Weighted>
-9.3279

> <Gold.Chemscore.Metal.Weighted>
-0.0000

> <Gold.Chemscore.Lipo.Weighted>
-6.5263

> <Gold.Chemscore.Internal_Hbond.Weighted>
0.0000

> <Gold.Chemscore.DEClash.Weighted>
0.0165

> <Gold.Chemscore.DEInternal.Weighted>
1.4280

> <Gold.Chemscore.Rot.Weighted>
3.8886

> <Gold.Chemscore.Internal.Correction.Weighted>
   9.000000E+99

> <Gold.Protein.RotatedTorsions>
[ 6907 6896 6895 6894 ] final   27.14 input  -60.11 | X-H torsion
[ 7974 7965 7964 7962 ] final  154.30 input  175.53 | X-H torsion
[ 8008 7997 7996 7995 ] final  -63.82 input   59.86 | X-H torsion
[ 10167 10162 10161 10158 ] final  121.77 input  -65.29 | X-H torsion
[ 10718 10713 10712 10709 ] final   31.48 input   66.30 | X-H torsion
[ 10763 10752 10751 10750 ] final   73.86 input  -60.55 | X-H torsion
[ 11005 11000 10999 10996 ] final   56.12 input  -57.11 | X-H torsion

> <Gold.Protein.ActiveResidues>
 VAL166  LYS551  ARG553  GLY616  TRP617  ASP618  TYR619  PRO620  LYS621  CYS622 
 ASP623  PHE694  ASN695  SER759  ASP760  ASP761  ALA762  ILE779  LEU786  VAL792 
 PHE793  MET794  SER795  GLU796  ALA797  LYS798  CYS799  TRP800  GLU811  SER814 

> <Gold.Protein.RotatedAtoms>
  151.9978  134.9945  160.0563 H   0  0  0  0  0  0  0  0  0  0  0  0  # atno 6907 bound_to 6896
  152.1548  133.4539  159.4839 H   0  0  0  0  0  0  0  0  0  0  0  0  # atno 6908 bound_to 6896
  150.6880  134.2063  159.4384 H   0  0  0  0  0  0  0  0  0  0  0  0  # atno 6909 bound_to 6896
  144.8098  139.6915  143.6146 H   0  0  0  0  0  0  0  0  0  0  0  0  # atno 7974 bound_to 7965
  154.4576  140.0966  156.6802 H   0  0  0  0  0  0  0  0  0  0  0  0  # atno 8008 bound_to 7997
  155.5091  140.3476  155.4366 H   0  0  0  0  0  0  0  0  0  0  0  0  # atno 8009 bound_to 7997
  156.0808  140.1372  156.9703 H   0  0  0  0  0  0  0  0  0  0  0  0  # atno 8010 bound_to 7997
  139.5899  144.7021  151.3316 H   0  0  0  0  0  0  0  0  0  0  0  0  # atno 10167 bound_to 10162
  157.2731  130.7217  149.6515 H   0  0  0  0  0  0  0  0  0  0  0  0  # atno 10718 bound_to 10713
  153.0549  135.5047  154.7956 H   0  0  0  0  0  0  0  0  0  0  0  0  # atno 10763 bound_to 10752
  154.6790  135.2965  154.9641 H   0  0  0  0  0  0  0  0  0  0  0  0  # atno 10764 bound_to 10752
  154.0434  135.6714  153.4845 H   0  0  0  0  0  0  0  0  0  0  0  0  # atno 10765 bound_to 10752
  140.0554  134.5677  155.9214 H   0  0  0  0  0  0  0  0  0  0  0  0  # atno 11005 bound_to 11000
  146.2395  139.5972  142.9501 LP  0  0  0  0  0  0  0  0  0  0  0  0  # atno 17320 bound_to 7965
  145.5351  141.0424  143.2361 LP  0  0  0  0  0  0  0  0  0  0  0  0  # atno 17321 bound_to 7965
  140.7164  143.7255  150.7663 LP  0  0  0  0  0  0  0  0  0  0  0  0  # atno 17342 bound_to 10162
  140.0808  143.4970  152.2531 LP  0  0  0  0  0  0  0  0  0  0  0  0  # atno 17343 bound_to 10162
  155.9663  130.4361  150.5121 LP  0  0  0  0  0  0  0  0  0  0  0  0  # atno 17370 bound_to 10713
  157.3050  131.0652  151.2042 LP  0  0  0  0  0  0  0  0  0  0  0  0  # atno 17371 bound_to 10713
  141.1949  133.6585  156.5619 LP  0  0  0  0  0  0  0  0  0  0  0  0  # atno 17394 bound_to 11000
  140.3852  134.7488  157.4687 LP  0  0  0  0  0  0  0  0  0  0  0  0  # atno 17395 bound_to 11000

$$$$
