#       Name:                AV-unprocessed.smi:221
#       Creating user name   scv26
#       Creation time:       Thu Mar 26 20:14:38 2020


#       File generated by GOLD software.
#

@<TRIPOS>MOLECULE
AV-unprocessed.smi:221
    59    62     1
SMALL
NO_CHARGES


@<TRIPOS>ATOM
      1 ****        -0.4258   3.9541  -2.9487 N.am           1 S1                 0.0000
      2 ****        -1.7310   4.0940  -3.2037 C.2            1 S1                 0.0000
      3 ****        -2.1308   4.5940  -4.2527 O.2            1 S1                 0.0000
      4 ****        -2.7502   3.6085  -2.1540 C.3            1 S1                 0.0000
      5 ****        -3.4905   4.7960  -1.5161 C.3            1 S1                 0.0000
      6 ****        -3.9273   4.2510  -0.1624 C.3            1 S1                 0.0000
      7 ****        -4.1782   5.2147   0.7233 F              1 S1                 0.0000
      8 ****        -2.7558   3.3632   0.2484 C.3            1 S1                 0.0000
      9 ****        -2.1674   2.9006  -1.0041 N.pl3          1 S1                 0.0000
     10 ****        -1.7171   1.6190  -1.0865 C.ar           1 S1                 0.0000
     11 ****        -1.9277   0.9074  -2.2256 N.ar           1 S1                 0.0000
     12 ****        -1.4948  -0.3519  -2.3310 C.ar           1 S1                 0.0000
     13 ****        -0.8330  -1.0834  -1.4333 N.ar           1 S1                 0.0000
     14 ****        -0.6061  -0.3749  -0.2909 C.ar           1 S1                 0.0000
     15 ****        -1.0071   0.9679  -0.0357 C.ar           1 S1                 0.0000
     16 ****        -0.5802   1.3511   1.2313 N.2            1 S1                 0.0000
     17 ****         0.0271   0.2958   1.7002 C.2            1 S1                 0.0000
     18 ****         0.0616  -0.7850   0.8499 N.pl3          1 S1                 0.0000
     19 ****         0.6720  -2.0756   1.1174 C.3            1 S1                 0.0000
     20 ****         2.2166  -2.0444   0.9894 C.3            1 S1                 0.0000
     21 ****         2.6554  -1.7334  -0.4606 C.3            1 S1                 0.0000
     22 ****         4.0389  -1.4582  -0.5300 O.3            1 S1                 0.0000
     23 ****         2.9034  -3.3255   1.5383 C.3            1 S1                 0.0000
     24 ****         2.7664  -3.5604   3.0435 C.3            1 S1                 0.0000
     25 ****         2.4402  -5.0511   3.1635 C.3            1 S1                 0.0000
     26 ****         2.8228  -5.6029   1.9132 O.3            1 S1                 0.0000
     27 ****         2.4577  -4.6569   0.9228 C.3            1 S1                 0.0000
     28 ****        -3.4837   2.9641  -2.6421 H              1 S1                 0.0000
     29 ****        -4.8347   3.6553  -0.2726 H              1 S1                 0.0000
     30 ****         0.2543   4.2661  -3.6266 H              1 S1                 0.0000
     31 ****        -0.1262   3.5361  -2.0799 H              1 S1                 0.0000
     32 ****        -2.8161   5.6420  -1.3683 H              1 S1                 0.0000
     33 ****        -4.3319   5.1406  -2.1183 H              1 S1                 0.0000
     34 ****        -2.0043   3.9379   0.7911 H              1 S1                 0.0000
     35 ****        -3.0957   2.5507   0.8923 H              1 S1                 0.0000
     36 ****        -1.7090  -0.8429  -3.2688 H              1 S1                 0.0000
     37 ****         0.4747   0.2775   2.6835 H              1 S1                 0.0000
     38 ****         0.3628  -2.3798   2.1165 H              1 S1                 0.0000
     39 ****         0.2429  -2.8049   0.4304 H              1 S1                 0.0000
     40 ****         2.5682  -1.2184   1.6100 H              1 S1                 0.0000
     41 ****         2.4168  -2.5635  -1.1259 H              1 S1                 0.0000
     42 ****         2.1376  -0.8572  -0.8495 H              1 S1                 0.0000
     43 ****         4.2664  -1.2855  -1.4310 H              1 S1                 0.0000
     44 ****         3.9754  -3.2436   1.3532 H              1 S1                 0.0000
     45 ****         3.7088  -3.3306   3.5427 H              1 S1                 0.0000
     46 ****         1.9969  -2.9520   3.5178 H              1 S1                 0.0000
     47 ****         2.9639  -5.5316   3.9903 H              1 S1                 0.0000
     48 ****         1.3683  -5.1989   3.3066 H              1 S1                 0.0000
     49 ****         1.3797  -4.7094   0.7713 H              1 S1                 0.0000
     50 ****         2.9477  -4.8650  -0.0287 H              1 S1                 0.0000
     51 ****        -1.4747   4.9073  -4.9392 LP             1 S1                 0.0000
     52 ****        -3.1123   4.6876  -4.4198 LP             1 S1                 0.0000
     53 ****        -2.4113   1.3307  -2.9918 LP             1 S1                 0.0000
     54 ****        -0.5412  -2.0287  -1.5792 LP             1 S1                 0.0000
     55 ****        -0.7094   2.2349   1.6809 LP             1 S1                 0.0000
     56 ****         4.5564  -2.2463  -0.1967 LP             1 S1                 0.0000
     57 ****         4.2520  -0.6581   0.0308 LP             1 S1                 0.0000
     58 ****         2.3449  -6.4674   1.7571 LP             1 S1                 0.0000
     59 ****         3.8102  -5.7595   1.8931 LP             1 S1                 0.0000
@<TRIPOS>BOND
    1    1    2 am    
    2    1   30 1     
    3    1   31 1     
    4    2    3 2     
    5    2    4 1     
    6    4   28 1     
    7    4    9 1     
    8    4    5 1     
    9    5    6 1     
   10    5   32 1     
   11    5   33 1     
   12    6   29 1     
   13    6    7 1     
   14    6    8 1     
   15    8    9 1     
   16    8   34 1     
   17    8   35 1     
   18    9   10 1     
   19   10   15 ar    
   20   10   11 ar    
   21   11   12 ar    
   22   12   13 ar    
   23   12   36 1     
   24   13   14 ar    
   25   14   18 1     
   26   14   15 ar    
   27   15   16 1     
   28   16   17 2     
   29   17   18 1     
   30   17   37 1     
   31   18   19 1     
   32   19   20 1     
   33   19   38 1     
   34   19   39 1     
   35   20   21 1     
   36   20   23 1     
   37   20   40 1     
   38   21   22 1     
   39   21   41 1     
   40   21   42 1     
   41   22   43 1     
   42   23   27 1     
   43   23   24 1     
   44   23   44 1     
   45   24   25 1     
   46   24   45 1     
   47   24   46 1     
   48   25   26 1     
   49   25   47 1     
   50   25   48 1     
   51   26   27 1     
   52   27   49 1     
   53   27   50 1     
   54    3   51 1     
   55    3   52 1     
   56   11   53 1     
   57   13   54 1     
   58   16   55 1     
   59   22   56 1     
   60   22   57 1     
   61   26   58 1     
   62   26   59 1     
@<TRIPOS>SUBSTRUCTURE
      1 S1             1
@<TRIPOS>SET
LONE_PAIRS      STATIC     ATOMS    <user>   **** ""
9 51 52 53 54 55 56 57 58 59
DONOR_HYDROGENS      STATIC     ATOMS    <user>   **** ""
3 30 31 43
ATOM$BLUE        STATIC     ATOMS    COLORGROUP SYSTEM
9 51 52 53 54 55 56 57 58 59
ATOM$RED        STATIC     ATOMS    COLORGROUP SYSTEM
3 30 31 43
