#       Name:                AV-unprocessed.smi:2568
#       Creating user name   scv26
#       Creation time:       Fri Mar 27 14:11:40 2020


#       File generated by GOLD software.
#

@<TRIPOS>MOLECULE
AV-unprocessed.smi:2568
    29    30     1
SMALL
NO_CHARGES


@<TRIPOS>ATOM
      1 ****        -3.9224   1.6027   0.2596 C.3            1 S1                 0.0000
      2 ****        -2.4345   1.5745   0.3480 C.2            1 S1                 0.0000
      3 ****        -1.7355   2.6771   0.6120 N.2            1 S1                 0.0000
      4 ****        -0.4680   2.2135   0.6019 N.pl3          1 S1                 0.0000
      5 ****        -0.4765   0.9035   0.3454 C.2            1 S1                 0.0000
      6 ****         0.7860   0.1052   0.2589 C.3            1 S1                 0.0000
      7 ****         1.1919  -0.1973  -1.1969 C.3            1 S1                 0.0000
      8 ****         2.3809  -1.0474  -1.2235 N.3            1 S1                 0.0000
      9 ****         2.1740  -2.2682  -0.4458 C.3            1 S1                 0.0000
     10 ****         1.7345  -1.9221   0.9886 C.3            1 S1                 0.0000
     11 ****         0.5583  -1.1210   0.9487 O.3            1 S1                 0.0000
     12 ****        -1.7074   0.4311   0.1681 N.2            1 S1                 0.0000
     13 ****         0.3363   2.8009   0.7697 H              1 S1                 0.0000
     14 ****        -4.2913   2.6284   0.2247 H              1 S1                 0.0000
     15 ****        -4.3594   1.1074   1.1267 H              1 S1                 0.0000
     16 ****        -4.2575   1.0862  -0.6402 H              1 S1                 0.0000
     17 ****         1.5801   0.6607   0.7621 H              1 S1                 0.0000
     18 ****         0.3707  -0.6961  -1.7132 H              1 S1                 0.0000
     19 ****         1.3837   0.7315  -1.7349 H              1 S1                 0.0000
     20 ****         2.6041  -1.2900  -2.1836 H              1 S1                 0.0000
     21 ****         1.4123  -2.8867  -0.9218 H              1 S1                 0.0000
     22 ****         3.0900  -2.8591  -0.4260 H              1 S1                 0.0000
     23 ****         1.5203  -2.8347   1.5449 H              1 S1                 0.0000
     24 ****         2.5283  -1.4010   1.5264 H              1 S1                 0.0000
     25 ****        -2.0645   3.6072   0.7753 LP             1 S1                 0.0000
     26 ****         3.1393  -0.5393  -0.8152 LP             1 S1                 0.0000
     27 ****        -0.1648  -1.6283   0.4800 LP             1 S1                 0.0000
     28 ****         0.2707  -0.9188   1.8849 LP             1 S1                 0.0000
     29 ****        -2.0141  -0.4980  -0.0384 LP             1 S1                 0.0000
@<TRIPOS>BOND
    1    1    2 1     
    2    1   14 1     
    3    1   15 1     
    4    1   16 1     
    5    2   12 1     
    6    2    3 2     
    7    3    4 1     
    8    4   13 1     
    9    4    5 1     
   10    5    6 1     
   11    5   12 2     
   12    6   11 1     
   13    6    7 1     
   14    6   17 1     
   15    7    8 1     
   16    7   18 1     
   17    7   19 1     
   18    8    9 1     
   19    8   20 1     
   20    9   10 1     
   21    9   21 1     
   22    9   22 1     
   23   10   11 1     
   24   10   23 1     
   25   10   24 1     
   26    3   25 1     
   27    8   26 1     
   28   11   27 1     
   29   11   28 1     
   30   12   29 1     
@<TRIPOS>SUBSTRUCTURE
      1 S1             1
@<TRIPOS>SET
LONE_PAIRS      STATIC     ATOMS    <user>   **** ""
5 25 26 27 28 29
DONOR_HYDROGENS      STATIC     ATOMS    <user>   **** ""
2 13 20
ATOM$BLUE        STATIC     ATOMS    COLORGROUP SYSTEM
5 25 26 27 28 29
ATOM$RED        STATIC     ATOMS    COLORGROUP SYSTEM
2 13 20
