AV-unprocessed.smi:1893|AV-procd|sdf|7673|dock8
  -GOLD-   22720 9413D 1   1.00000     0.00000
 Structure written by MMmdl.
 43 44  0  0  0  0  0  0  0  0  2 V2000
  143.9446  136.2132  152.3456 C   0  0  0  0  0  0  0  0  0  0  0  0
  145.3683  136.1374  151.7519 C   0  0  2  0  0  0  0  0  0  0  0  0
  145.5361  134.9511  150.7793 C   0  0  0  0  0  0  0  0  0  0  0  0
  145.5966  133.6048  151.5159 C   0  0  0  0  0  0  0  0  0  0  0  0
  146.6920  133.6411  152.5885 C   0  0  0  0  0  0  0  0  0  0  0  0
  146.5000  134.8326  153.5410 C   0  0  0  0  0  0  0  0  0  0  0  0
  146.4440  136.1161  152.7884 N   0  3  2  0  0  0  0  0  0  0  0  0
  146.4530  137.3171  153.6620 C   0  0  0  0  0  0  0  0  0  0  0  0
  146.8116  138.6010  152.8897 C   0  0  0  0  0  0  0  0  0  0  0  0
  148.1792  139.0195  153.1708 N   0  0  0  0  0  0  0  0  0  0  0  0
  148.6537  139.3218  154.3897 C   0  0  0  0  0  0  0  0  0  0  0  0
  147.9733  139.2380  155.4129 O   0  0  0  0  0  0  0  0  0  0  0  0
  150.1092  139.8092  154.4520 C   0  0  2  0  0  0  0  0  0  0  0  0
  151.1228  138.6902  154.1363 C   0  0  0  0  0  0  0  0  0  0  0  0
  150.3633  140.4442  155.7396 N   0  0  0  0  0  0  0  0  0  0  0  0
  150.2660  141.7272  156.0958 C   0  0  0  0  0  0  0  0  0  0  0  0
  150.5160  141.9517  157.3780 N   0  0  0  0  0  0  0  0  0  0  0  0
  150.7707  140.6736  157.7876 C   0  0  0  0  0  0  0  0  0  0  0  0
  150.6770  139.7309  156.8501 N   0  0  0  0  0  0  0  0  0  0  0  0
  143.1992  136.2484  151.5506 H   0  0  0  0  0  0  0  0  0  0  0  0
  143.8045  137.1098  152.9494 H   0  0  0  0  0  0  0  0  0  0  0  0
  143.7081  135.3534  152.9712 H   0  0  0  0  0  0  0  0  0  0  0  0
  145.5132  137.0444  151.1630 H   0  0  0  0  0  0  0  0  0  0  0  0
  144.7270  134.9423  150.0480 H   0  0  0  0  0  0  0  0  0  0  0  0
  146.4563  135.0838  150.2085 H   0  0  0  0  0  0  0  0  0  0  0  0
  144.6332  133.3832  151.9759 H   0  0  0  0  0  0  0  0  0  0  0  0
  145.7925  132.7992  150.8076 H   0  0  0  0  0  0  0  0  0  0  0  0
  146.6913  132.7083  153.1534 H   0  0  0  0  0  0  0  0  0  0  0  0
  147.6695  133.7113  152.1092 H   0  0  0  0  0  0  0  0  0  0  0  0
  145.5936  134.7036  154.1333 H   0  0  0  0  0  0  0  0  0  0  0  0
  147.3275  134.8474  154.2492 H   0  0  0  0  0  0  0  0  0  0  0  0
  145.4621  137.4545  154.0981 H   0  0  0  0  0  0  0  0  0  0  0  0
  147.1376  137.1577  154.4965 H   0  0  0  0  0  0  0  0  0  0  0  0
  146.6891  138.4717  151.8141 H   0  0  0  0  0  0  0  0  0  0  0  0
  146.1425  139.4104  153.1830 H   0  0  0  0  0  0  0  0  0  0  0  0
  148.8041  139.1067  152.3822 H   0  0  0  0  0  0  0  0  0  0  0  0
  150.2323  140.5785  153.6877 H   0  0  0  0  0  0  0  0  0  0  0  0
  150.9457  138.2687  153.1462 H   0  0  0  0  0  0  0  0  0  0  0  0
  151.0720  137.8722  154.8562 H   0  0  0  0  0  0  0  0  0  0  0  0
  152.1424  139.0763  154.1480 H   0  0  0  0  0  0  0  0  0  0  0  0
  149.9987  142.5126  155.4037 H   0  0  0  0  0  0  0  0  0  0  0  0
  151.0228  140.4292  158.8091 H   0  0  0  0  0  0  0  0  0  0  0  0
  147.3060  136.1625  152.2642 H   0  0  0  0  0  0  0  0  0  0  0  0
  1  2  1  0  0  0  0
  1 20  1  0  0  0  0
  1 21  1  0  0  0  0
  1 22  1  0  0  0  0
  2  7  1  0  0  0  0
  2  3  1  0  0  0  0
  2 23  1  0  0  0  0
  3  4  1  0  0  0  0
  3 24  1  0  0  0  0
  3 25  1  0  0  0  0
  4  5  1  0  0  0  0
  4 26  1  0  0  0  0
  4 27  1  0  0  0  0
  5  6  1  0  0  0  0
  5 28  1  0  0  0  0
  5 29  1  0  0  0  0
  6  7  1  0  0  0  0
  6 30  1  0  0  0  0
  6 31  1  0  0  0  0
  7  8  1  0  0  0  0
  7 43  1  0  0  0  0
  8  9  1  0  0  0  0
  8 32  1  0  0  0  0
  8 33  1  0  0  0  0
  9 10  1  0  0  0  0
  9 34  1  0  0  0  0
  9 35  1  0  0  0  0
 10 11  1  0  0  0  0
 10 36  1  0  0  0  0
 11 12  2  0  0  0  0
 11 13  1  0  0  0  0
 13 14  1  0  0  0  0
 13 15  1  0  0  0  0
 13 37  1  0  0  0  0
 14 38  1  0  0  0  0
 14 39  1  0  0  0  0
 14 40  1  0  0  0  0
 15 19  1  0  0  0  0
 15 16  1  0  0  0  0
 16 17  2  0  0  0  0
 16 41  1  0  0  0  0
 17 18  1  0  0  0  0
 18 19  2  0  0  0  0
 18 42  1  0  0  0  0
M  CHG  1   7   1
M  END
> <s_m_source_file>
AV-unprocessed.smi

> <i_m_source_file_index>
1893

> <i_lp_mmshare_version>
43012

> <i_f3d_flags>
0

> <s_epik_input>
W0NIM11bQ0BASF0xW0NIMl1bQ0gyXVtDSDJdW0NIMl1OMVtDSDJdW0NIMl1bTkhdQyg9TylbQ0BIXShbQ0gzXSluMltjSF1uW2NIXW4y

> <s_epik_cmdline>
J2VwaWtfcHl0aG9uJywgJy1waCcsICc3LjAnLCAnLXRuJywgJzgnLCAnLW1hJywgJzIwMCcsICctbWV0YWxfYmluZGluZycsICctaW1hZScsICc8aW5maWxlLm1hZT4nLCAnLW9tYWUnLCAnPG91dGZpbGUubWFlPic=

> <r_lp_tautomer_probability>
1

> <r_epik_Ionization_Penalty>
0.00266409

> <r_epik_Ionization_Penalty_Charging>
0.00265606

> <r_epik_Ionization_Penalty_Neutral>
8.02794e-06

> <r_epik_State_Penalty>
0.00184955

> <r_epik_Charging_Adjusted_Penalty>
0.00450561

> <i_epik_Tot_Q>
1

> <i_epik_Tot_abs_Q>
1

> <r_epik_Metal_State_Penalty>
-0

> <b_epik_Metal_Only>
0

> <s_lp_Force_Field>
OPLS_2005

> <r_lp_Energy>
25.3191

> <b_lp_Chiralities_Consistent>
1

> <s_lp_Variant>
AV-unprocessed.smi:1893-3

> <Gold.Version>
5.8.1

> <Gold.Id.Protein>
6NUR|6NUR_protein|mol2

> <Gold.PLP.Fitness>
40.7500

> <Gold.PLP.PLP>
-31.2022

> <Gold.PLP.part.hbond>
-2.6424

> <Gold.PLP.part.metal>
0.0000

> <Gold.PLP.part.buried>
-4.2086

> <Gold.PLP.part.nonpolar>
-24.7060

> <Gold.PLP.part.repulsive>
0.1871

> <Gold.PLP.ligand.clash>
0.0000

> <Gold.PLP.ligand.torsion>
1.2825

> <Gold.PLP.Chemscore.Hbond>
2.9920

> <Gold.PLP.Chemscore.CHOScore>
0.9965

> <Gold.PLP.Chemscore.Metal>
0.0000

> <Gold.Chemscore.Hbonds>
donor molecule, donor type, donor heavy atom, donor atom, acceptor molecule, acceptor atom, score
      L1  H     7    43       P1  7948  2.00
      L1  H    10    36       P1  7957  1.00
      L1  C    16    41       P1  8028  1.00

> <Gold.PLP.Chemscore.Internal.Correction>
0.1474

> <Gold.Rescore>
     Score         DG    S(hbond)    S(metal)    S(lipo)     H(rot)  DE(clash)    DE(int)     intcor
     10.63     -11.77       1.94        0.00      53.84       2.54       0.09       1.04       ----

> <Gold.Chemscore.Fitness>
10.6328

> <Gold.Chemscore.DG>
-11.7719

> <Gold.Chemscore.ZeroCoef>
-5.4800

> <Gold.Chemscore.Hbond>
1.9427

> <Gold.Chemscore.Metal>
0.0000

> <Gold.Chemscore.Lipo>
53.8445

> <Gold.Chemscore.Internal_Hbond>
0.0000

> <Gold.Chemscore.DEClash>
0.0942

> <Gold.Chemscore.DEInternal>
1.0449

> <Gold.Chemscore.Rot>
2.5377

> <Gold.Chemscore.Internal.Correction>
   9.000000E+99

> <Gold.Chemscore.Hbonds>
donor molecule, donor type, donor heavy atom, donor atom, acceptor molecule, acceptor atom, score
      L1  H     7    43       P1  7948  1.00
      L1  H    10    36       P1  7957  0.97

> <Gold.Chemscore.Hbond.Weighted>
-6.4887

> <Gold.Chemscore.Metal.Weighted>
-0.0000

> <Gold.Chemscore.Lipo.Weighted>
-6.2998

> <Gold.Chemscore.Internal_Hbond.Weighted>
0.0000

> <Gold.Chemscore.DEClash.Weighted>
0.0942

> <Gold.Chemscore.DEInternal.Weighted>
1.0449

> <Gold.Chemscore.Rot.Weighted>
6.4966

> <Gold.Chemscore.Internal.Correction.Weighted>
   9.000000E+99

> <Gold.Protein.RotatedTorsions>
[ 6907 6896 6895 6894 ] final   92.56 input  -60.11 | X-H torsion
[ 7974 7965 7964 7962 ] final   11.38 input  175.53 | X-H torsion
[ 8008 7997 7996 7995 ] final  175.46 input   59.86 | X-H torsion
[ 10167 10162 10161 10158 ] final  116.07 input  -65.29 | X-H torsion
[ 10718 10713 10712 10709 ] final -138.45 input   66.30 | X-H torsion
[ 10763 10752 10751 10750 ] final -161.37 input  -60.55 | X-H torsion
[ 11005 11000 10999 10996 ] final  133.55 input  -57.11 | X-H torsion

> <Gold.Protein.ActiveResidues>
 VAL166  LYS551  ARG553  GLY616  TRP617  ASP618  TYR619  PRO620  LYS621  CYS622 
 ASP623  PHE694  ASN695  SER759  ASP760  ASP761  ALA762  ILE779  LEU786  VAL792 
 PHE793  MET794  SER795  GLU796  ALA797  LYS798  CYS799  TRP800  GLU811  SER814 

> <Gold.Protein.RotatedAtoms>
  152.5452  134.1484  159.8507 H   0  0  0  0  0  0  0  0  0  0  0  0  # atno 6907 bound_to 6896
  151.1513  133.4898  159.2602 H   0  0  0  0  0  0  0  0  0  0  0  0  # atno 6908 bound_to 6896
  151.1469  135.0218  159.8706 H   0  0  0  0  0  0  0  0  0  0  0  0  # atno 6909 bound_to 6896
  146.2372  139.9494  142.8472 H   0  0  0  0  0  0  0  0  0  0  0  0  # atno 7974 bound_to 7965
  156.0868  140.1408  156.9643 H   0  0  0  0  0  0  0  0  0  0  0  0  # atno 8008 bound_to 7997
  154.4617  140.0940  156.6960 H   0  0  0  0  0  0  0  0  0  0  0  0  # atno 8009 bound_to 7997
  155.4985  140.3450  155.4369 H   0  0  0  0  0  0  0  0  0  0  0  0  # atno 8010 bound_to 7997
  139.6273  144.7110  151.2506 H   0  0  0  0  0  0  0  0  0  0  0  0  # atno 10167 bound_to 10162
  156.2995  130.7420  151.1468 H   0  0  0  0  0  0  0  0  0  0  0  0  # atno 10718 bound_to 10713
  154.7310  135.3046  154.8892 H   0  0  0  0  0  0  0  0  0  0  0  0  # atno 10763 bound_to 10752
  153.9735  135.6739  153.4752 H   0  0  0  0  0  0  0  0  0  0  0  0  # atno 10764 bound_to 10752
  153.0918  135.4955  154.8625 H   0  0  0  0  0  0  0  0  0  0  0  0  # atno 10765 bound_to 10752
  139.9859  134.9532  156.9741 H   0  0  0  0  0  0  0  0  0  0  0  0  # atno 11005 bound_to 11000
  145.1876  140.9796  143.4229 LP  0  0  0  0  0  0  0  0  0  0  0  0  # atno 17320 bound_to 7965
  144.9886  139.3712  143.6226 LP  0  0  0  0  0  0  0  0  0  0  0  0  # atno 17321 bound_to 7965
  140.7418  143.6545  150.8219 LP  0  0  0  0  0  0  0  0  0  0  0  0  # atno 17342 bound_to 10162
  140.0164  143.5588  152.2818 LP  0  0  0  0  0  0  0  0  0  0  0  0  # atno 17343 bound_to 10162
  157.7364  131.0562  150.5415 LP  0  0  0  0  0  0  0  0  0  0  0  0  # atno 17370 bound_to 10713
  156.5541  130.4239  149.6094 LP  0  0  0  0  0  0  0  0  0  0  0  0  # atno 17371 bound_to 10713
  140.5004  134.1103  155.7249 LP  0  0  0  0  0  0  0  0  0  0  0  0  # atno 17394 bound_to 11000
  141.1524  133.8945  157.2065 LP  0  0  0  0  0  0  0  0  0  0  0  0  # atno 17395 bound_to 11000

$$$$
