AV-unprocessed.smi:3248|AV-procd|sdf|12415|dock2
  -GOLD-   2272018293D 1   1.00000     0.00000
 Structure written by MMmdl.
 38 39  0  0  0  0  0  0  0  0  1 V2000
  147.4799  134.9803  155.2766 C   0  0  0  0  0  0  0  0  0  0  0  0
  146.7477  136.2377  154.7848 C   0  0  2  0  0  0  0  0  0  0  0  0
  145.7918  135.9177  153.6195 C   0  0  0  0  0  0  0  0  0  0  0  0
  144.4048  136.1903  153.9549 N   0  0  0  0  0  0  0  0  0  0  0  0
  143.5808  137.1760  153.4539 C   0  0  0  0  0  0  0  0  0  0  0  0
  142.3638  137.0331  154.0565 C   0  0  0  0  0  0  0  0  0  0  0  0
  142.5434  135.9173  154.9213 C   0  0  0  0  0  0  0  0  0  0  0  0
  143.7663  135.4153  154.8590 N   0  0  0  0  0  0  0  0  0  0  0  0
  147.7200  137.2465  154.3705 N   0  0  0  0  0  0  0  0  0  0  0  0
  147.9609  138.4104  154.9967 C   0  0  0  0  0  0  0  0  0  0  0  0
  147.3574  138.7499  156.0144 O   0  0  0  0  0  0  0  0  0  0  0  0
  148.8261  139.2085  154.3240 N   0  0  0  0  0  0  0  0  0  0  0  0
  150.0844  138.6765  153.7795 C   0  0  0  0  0  0  0  0  0  0  0  0
  151.2056  138.9397  154.8041 C   0  0  0  0  0  0  0  0  0  0  0  0
  151.3002  140.3368  155.0737 O   0  0  0  0  0  0  0  0  0  0  0  0
  150.0829  140.9061  155.5518 C   0  0  0  0  0  0  0  0  0  0  0  0
  148.9670  140.6653  154.5155 C   0  0  2  0  0  0  0  0  0  0  0  0
  147.6652  141.4223  154.8533 C   0  0  0  0  0  0  0  0  0  0  0  0
  146.7725  134.2181  155.6042 H   0  0  0  0  0  0  0  0  0  0  0  0
  148.1309  135.2078  156.1214 H   0  0  0  0  0  0  0  0  0  0  0  0
  148.0958  134.5459  154.4884 H   0  0  0  0  0  0  0  0  0  0  0  0
  146.1495  136.6267  155.6110 H   0  0  0  0  0  0  0  0  0  0  0  0
  146.0645  136.4863  152.7286 H   0  0  0  0  0  0  0  0  0  0  0  0
  145.8694  134.8636  153.3505 H   0  0  0  0  0  0  0  0  0  0  0  0
  143.9249  137.8865  152.7166 H   0  0  0  0  0  0  0  0  0  0  0  0
  141.4791  137.6331  153.9023 H   0  0  0  0  0  0  0  0  0  0  0  0
  141.8267  135.4605  155.5876 H   0  0  0  0  0  0  0  0  0  0  0  0
  148.2211  137.0646  153.5129 H   0  0  0  0  0  0  0  0  0  0  0  0
  150.0414  137.6100  153.5555 H   0  0  0  0  0  0  0  0  0  0  0  0
  150.3144  139.1671  152.8326 H   0  0  0  0  0  0  0  0  0  0  0  0
  151.0207  138.3953  155.7316 H   0  0  0  0  0  0  0  0  0  0  0  0
  152.1621  138.5906  154.4146 H   0  0  0  0  0  0  0  0  0  0  0  0
  149.8219  140.4781  156.5210 H   0  0  0  0  0  0  0  0  0  0  0  0
  150.2373  141.9746  155.7044 H   0  0  0  0  0  0  0  0  0  0  0  0
  149.3017  141.0808  153.5632 H   0  0  0  0  0  0  0  0  0  0  0  0
  147.8193  142.4982  154.7687 H   0  0  0  0  0  0  0  0  0  0  0  0
  147.3239  141.2349  155.8709 H   0  0  0  0  0  0  0  0  0  0  0  0
  146.8615  141.1542  154.1667 H   0  0  0  0  0  0  0  0  0  0  0  0
  1  2  1  0  0  0  0
  1 19  1  0  0  0  0
  1 20  1  0  0  0  0
  1 21  1  0  0  0  0
  2  3  1  0  0  0  0
  2  9  1  0  0  0  0
  2 22  1  0  0  0  0
  3  4  1  0  0  0  0
  3 23  1  0  0  0  0
  3 24  1  0  0  0  0
  4  8  1  0  0  0  0
  4  5  1  0  0  0  0
  5  6  2  0  0  0  0
  5 25  1  0  0  0  0
  6  7  1  0  0  0  0
  6 26  1  0  0  0  0
  7  8  2  0  0  0  0
  7 27  1  0  0  0  0
  9 10  1  0  0  0  0
  9 28  1  0  0  0  0
 10 11  2  0  0  0  0
 10 12  1  0  0  0  0
 12 17  1  0  0  0  0
 12 13  1  0  0  0  0
 13 14  1  0  0  0  0
 13 29  1  0  0  0  0
 13 30  1  0  0  0  0
 14 15  1  0  0  0  0
 14 31  1  0  0  0  0
 14 32  1  0  0  0  0
 15 16  1  0  0  0  0
 16 17  1  0  0  0  0
 16 33  1  0  0  0  0
 16 34  1  0  0  0  0
 17 18  1  0  0  0  0
 17 35  1  0  0  0  0
 18 36  1  0  0  0  0
 18 37  1  0  0  0  0
 18 38  1  0  0  0  0
M  END
> <s_m_source_file>
AV-unprocessed.smi

> <i_m_source_file_index>
3248

> <i_lp_mmshare_version>
43012

> <i_f3d_flags>
0

> <s_epik_input>
bjFbY0hdW2NIXVtjSF1uMVtDSDJdW0NAQEhdKFtDSDNdKVtOSF1DKD1PKU4yW0NIMl1bQ0gyXU9bQ0gyXVtDQEhdMltDSDNd

> <s_epik_cmdline>
J2VwaWtfcHl0aG9uJywgJy1waCcsICc3LjAnLCAnLXRuJywgJzgnLCAnLW1hJywgJzIwMCcsICctbWV0YWxfYmluZGluZycsICctaW1hZScsICc8aW5maWxlLm1hZT4nLCAnLW9tYWUnLCAnPG91dGZpbGUubWFlPic=

> <r_lp_tautomer_probability>
1

> <r_epik_Ionization_Penalty>
4.45233e-05

> <r_epik_Ionization_Penalty_Charging>
0

> <r_epik_Ionization_Penalty_Neutral>
4.45233e-05

> <r_epik_State_Penalty>
-0

> <r_epik_Charging_Adjusted_Penalty>
0

> <i_epik_Tot_Q>
0

> <i_epik_Tot_abs_Q>
0

> <r_epik_Metal_State_Penalty>
-0

> <b_epik_Metal_Only>
0

> <s_lp_Force_Field>
OPLS_2005

> <r_lp_Energy>
31.9687

> <b_lp_Chiralities_Consistent>
1

> <s_lp_Variant>
AV-unprocessed.smi:3248-3

> <Gold.Version>
5.8.1

> <Gold.Id.Protein>
6NUR|6NUR_protein|mol2

> <Gold.PLP.Fitness>
35.3885

> <Gold.PLP.PLP>
-22.9839

> <Gold.PLP.part.hbond>
-2.0000

> <Gold.PLP.part.metal>
0.0000

> <Gold.PLP.part.buried>
-1.8548

> <Gold.PLP.part.nonpolar>
-20.6430

> <Gold.PLP.part.repulsive>
0.0986

> <Gold.PLP.ligand.clash>
0.0000

> <Gold.PLP.ligand.torsion>
1.3087

> <Gold.PLP.Chemscore.Hbond>
2.0000

> <Gold.PLP.Chemscore.CHOScore>
2.8459

> <Gold.PLP.Chemscore.Metal>
0.0000

> <Gold.Chemscore.Hbonds>
donor molecule, donor type, donor heavy atom, donor atom, acceptor molecule, acceptor atom, score
      L1  H     9    28       P1  7948  1.00
      P1  H  7989  7998       L1    15  0.95
      L1  C     5    25       P1 10175  0.89
      L1  C     7    27       P1 11000  0.33

> <Gold.PLP.Chemscore.Internal.Correction>
0.4842

> <Gold.Rescore>
     Score         DG    S(hbond)    S(metal)    S(lipo)     H(rot)  DE(clash)    DE(int)     intcor
      9.30     -12.15       1.32        0.00      50.47       1.42       0.48       2.37       ----

> <Gold.Chemscore.Fitness>
9.3045

> <Gold.Chemscore.DG>
-12.1499

> <Gold.Chemscore.ZeroCoef>
-5.4800

> <Gold.Chemscore.Hbond>
1.3168

> <Gold.Chemscore.Metal>
0.0000

> <Gold.Chemscore.Lipo>
50.4695

> <Gold.Chemscore.Internal_Hbond>
0.0000

> <Gold.Chemscore.DEClash>
0.4771

> <Gold.Chemscore.DEInternal>
2.3683

> <Gold.Chemscore.Rot>
1.4191

> <Gold.Chemscore.Internal.Correction>
   9.000000E+99

> <Gold.Chemscore.Hbonds>
donor molecule, donor type, donor heavy atom, donor atom, acceptor molecule, acceptor atom, score
      L1  H     9    28       P1  7948  0.97
      P1  H  7989  7998       L1    15  0.16

> <Gold.Chemscore.Hbond.Weighted>
-4.3980

> <Gold.Chemscore.Metal.Weighted>
-0.0000

> <Gold.Chemscore.Lipo.Weighted>
-5.9049

> <Gold.Chemscore.Internal_Hbond.Weighted>
0.0000

> <Gold.Chemscore.DEClash.Weighted>
0.4771

> <Gold.Chemscore.DEInternal.Weighted>
2.3683

> <Gold.Chemscore.Rot.Weighted>
3.6330

> <Gold.Chemscore.Internal.Correction.Weighted>
   9.000000E+99

> <Gold.Protein.RotatedTorsions>
[ 6907 6896 6895 6894 ] final  126.68 input  -60.11 | X-H torsion
[ 7974 7965 7964 7962 ] final   17.24 input  175.53 | X-H torsion
[ 8008 7997 7996 7995 ] final   -9.28 input   59.86 | X-H torsion
[ 10167 10162 10161 10158 ] final   45.24 input  -65.29 | X-H torsion
[ 10718 10713 10712 10709 ] final   -4.61 input   66.30 | X-H torsion
[ 10763 10752 10751 10750 ] final  -71.62 input  -60.55 | X-H torsion
[ 11005 11000 10999 10996 ] final -138.44 input  -57.11 | X-H torsion

> <Gold.Protein.ActiveResidues>
 VAL166  LYS551  ARG553  GLY616  TRP617  ASP618  TYR619  PRO620  LYS621  CYS622 
 ASP623  PHE694  ASN695  SER759  ASP760  ASP761  ALA762  ILE779  LEU786  VAL792 
 PHE793  MET794  SER795  GLU796  ALA797  LYS798  CYS799  TRP800  GLU811  SER814 

> <Gold.Protein.RotatedAtoms>
  152.3882  133.6641  159.6215 H   0  0  0  0  0  0  0  0  0  0  0  0  # atno 6907 bound_to 6896
  150.7796  133.9000  159.3347 H   0  0  0  0  0  0  0  0  0  0  0  0  # atno 6908 bound_to 6896
  151.6792  135.0966  160.0264 H   0  0  0  0  0  0  0  0  0  0  0  0  # atno 6909 bound_to 6896
  146.2224  139.8630  142.8601 H   0  0  0  0  0  0  0  0  0  0  0  0  # atno 7974 bound_to 7965
  154.5662  140.2359  155.8260 H   0  0  0  0  0  0  0  0  0  0  0  0  # atno 8008 bound_to 7997
  156.2070  140.3037  155.9607 H   0  0  0  0  0  0  0  0  0  0  0  0  # atno 8009 bound_to 7997
  155.2797  140.0422  157.3005 H   0  0  0  0  0  0  0  0  0  0  0  0  # atno 8010 bound_to 7997
  140.3261  144.2646  150.6175 H   0  0  0  0  0  0  0  0  0  0  0  0  # atno 10167 bound_to 10162
  156.7587  130.5262  149.5789 H   0  0  0  0  0  0  0  0  0  0  0  0  # atno 10718 bound_to 10713
  154.4343  135.5956  153.6088 H   0  0  0  0  0  0  0  0  0  0  0  0  # atno 10763 bound_to 10752
  152.9801  135.5982  154.3801 H   0  0  0  0  0  0  0  0  0  0  0  0  # atno 10764 bound_to 10752
  154.3643  135.2841  155.2281 H   0  0  0  0  0  0  0  0  0  0  0  0  # atno 10765 bound_to 10752
  140.8615  134.2162  157.4704 H   0  0  0  0  0  0  0  0  0  0  0  0  # atno 11005 bound_to 11000
  145.2685  141.0101  143.3785 LP  0  0  0  0  0  0  0  0  0  0  0  0  # atno 17320 bound_to 7965
  144.9242  139.4375  143.6526 LP  0  0  0  0  0  0  0  0  0  0  0  0  # atno 17321 bound_to 7965
  140.5439  143.2218  151.8039 LP  0  0  0  0  0  0  0  0  0  0  0  0  # atno 17342 bound_to 10162
  139.4865  144.4564  151.9593 LP  0  0  0  0  0  0  0  0  0  0  0  0  # atno 17343 bound_to 10162
  156.1353  130.6207  151.0392 LP  0  0  0  0  0  0  0  0  0  0  0  0  # atno 17370 bound_to 10713
  157.6744  131.0854  150.7531 LP  0  0  0  0  0  0  0  0  0  0  0  0  # atno 17371 bound_to 10713
  139.8707  134.9732  156.4800 LP  0  0  0  0  0  0  0  0  0  0  0  0  # atno 17394 bound_to 11000
  140.8677  133.8012  155.9331 LP  0  0  0  0  0  0  0  0  0  0  0  0  # atno 17395 bound_to 11000

$$$$
