#       Name:                AV-unprocessed.smi:2463
#       Creating user name   scv26
#       Creation time:       Fri Mar 27 13:36:01 2020


#       File generated by GOLD software.
#

@<TRIPOS>MOLECULE
AV-unprocessed.smi:2463
    52    53     1
SMALL
NO_CHARGES


@<TRIPOS>ATOM
      1 ****        -5.3253   5.7091  -1.1413 C.3            1 S1                 0.0000
      2 ****        -4.8120   4.2692  -1.2500 C.3            1 S1                 0.0000
      3 ****        -4.3962   3.6886   0.1100 C.3            1 S1                 0.0000
      4 ****        -3.8891   2.3359  -0.0151 N.pl3          1 S1                 0.0000
      5 ****        -2.5736   1.9173  -0.0357 C.2            1 S1                 0.0000
      6 ****        -2.6208   0.5586  -0.1707 C.2            1 S1                 0.0000
      7 ****        -1.5570  -0.3759  -0.2422 N.am           1 S1                 0.0000
      8 ****        -0.2403  -0.1164  -0.1940 C.2            1 S1                 0.0000
      9 ****         0.2568   1.0060  -0.1012 O.2            1 S1                 0.0000
     10 ****         0.4796  -1.2447  -0.2575 N.am           1 S1                 0.0000
     11 ****         1.9384  -1.3163  -0.2021 C.3            1 S1                 0.0000
     12 ****         2.4621  -2.5562  -0.8997 C.3            1 S1                 0.0000
     13 ****         3.8330  -2.7700  -0.2467 C.3            1 S1                 0.0000
     14 ****         4.1736  -4.2590  -0.0803 C.3            1 S1                 0.0000
     15 ****         4.9508  -2.0295  -1.0006 C.3            1 S1                 0.0000
     16 ****         3.7328  -2.1810   1.0492 O.3            1 S1                 0.0000
     17 ****         2.5057  -1.4743   1.2258 C.3            1 S1                 0.0000
     18 ****         2.8327  -0.1220   1.8790 C.3            1 S1                 0.0000
     19 ****         1.6354  -2.3364   2.1642 C.3            1 S1                 0.0000
     20 ****        -3.9983   0.2224  -0.2271 C.2            1 S1                 0.0000
     21 ****        -4.7592   1.3021  -0.1321 N.2            1 S1                 0.0000
     22 ****        -5.6127   6.0939  -2.1200 H              1 S1                 0.0000
     23 ****        -4.5593   6.3707  -0.7362 H              1 S1                 0.0000
     24 ****        -6.1984   5.7675  -0.4910 H              1 S1                 0.0000
     25 ****        -5.5879   3.6451  -1.6945 H              1 S1                 0.0000
     26 ****        -3.9635   4.2413  -1.9346 H              1 S1                 0.0000
     27 ****        -3.6214   4.3069   0.5649 H              1 S1                 0.0000
     28 ****        -5.2417   3.6827   0.7995 H              1 S1                 0.0000
     29 ****        -1.7499   2.6110   0.0461 H              1 S1                 0.0000
     30 ****        -1.8278  -1.3446  -0.3271 H              1 S1                 0.0000
     31 ****        -0.0147  -2.1214  -0.3338 H              1 S1                 0.0000
     32 ****         2.3797  -0.4438  -0.6879 H              1 S1                 0.0000
     33 ****         1.8080  -3.4049  -0.6926 H              1 S1                 0.0000
     34 ****         2.5149  -2.4429  -1.9832 H              1 S1                 0.0000
     35 ****         4.2373  -4.7593  -1.0471 H              1 S1                 0.0000
     36 ****         3.4169  -4.7740   0.5124 H              1 S1                 0.0000
     37 ****         5.1302  -4.3901   0.4262 H              1 S1                 0.0000
     38 ****         5.0740  -2.4228  -2.0101 H              1 S1                 0.0000
     39 ****         5.9068  -2.1332  -0.4863 H              1 S1                 0.0000
     40 ****         4.7398  -0.9630  -1.0834 H              1 S1                 0.0000
     41 ****         1.9297   0.4635   2.0517 H              1 S1                 0.0000
     42 ****         3.4988   0.4703   1.2509 H              1 S1                 0.0000
     43 ****         3.3262  -0.2591   2.8414 H              1 S1                 0.0000
     44 ****         0.6882  -1.8481   2.3954 H              1 S1                 0.0000
     45 ****         2.1457  -2.5171   3.1107 H              1 S1                 0.0000
     46 ****         1.4114  -3.3090   1.7257 H              1 S1                 0.0000
     47 ****        -4.4617  -0.7477  -0.3310 H              1 S1                 0.0000
     48 ****        -0.3333   1.8120  -0.0556 LP             1 S1                 0.0000
     49 ****         1.2508   1.1117  -0.0713 LP             1 S1                 0.0000
     50 ****         4.4928  -1.5429   1.1728 LP             1 S1                 0.0000
     51 ****         3.7899  -2.9044   1.7373 LP             1 S1                 0.0000
     52 ****        -5.7581   1.3457  -0.1440 LP             1 S1                 0.0000
@<TRIPOS>BOND
    1    1    2 1     
    2    1   22 1     
    3    1   23 1     
    4    1   24 1     
    5    2    3 1     
    6    2   25 1     
    7    2   26 1     
    8    3    4 1     
    9    3   27 1     
   10    3   28 1     
   11    4   21 1     
   12    4    5 1     
   13    5    6 2     
   14    5   29 1     
   15    6    7 1     
   16    6   20 1     
   17    7    8 am    
   18    7   30 1     
   19    8    9 2     
   20    8   10 am    
   21   10   11 1     
   22   10   31 1     
   23   11   17 1     
   24   11   12 1     
   25   11   32 1     
   26   12   13 1     
   27   12   33 1     
   28   12   34 1     
   29   13   14 1     
   30   13   15 1     
   31   13   16 1     
   32   14   35 1     
   33   14   36 1     
   34   14   37 1     
   35   15   38 1     
   36   15   39 1     
   37   15   40 1     
   38   16   17 1     
   39   17   18 1     
   40   17   19 1     
   41   18   41 1     
   42   18   42 1     
   43   18   43 1     
   44   19   44 1     
   45   19   45 1     
   46   19   46 1     
   47   20   21 2     
   48   20   47 1     
   49    9   48 1     
   50    9   49 1     
   51   16   50 1     
   52   16   51 1     
   53   21   52 1     
@<TRIPOS>SUBSTRUCTURE
      1 S1             1
@<TRIPOS>SET
LONE_PAIRS      STATIC     ATOMS    <user>   **** ""
5 48 49 50 51 52
DONOR_HYDROGENS      STATIC     ATOMS    <user>   **** ""
2 30 31
ATOM$BLUE        STATIC     ATOMS    COLORGROUP SYSTEM
5 48 49 50 51 52
ATOM$RED        STATIC     ATOMS    COLORGROUP SYSTEM
2 30 31
