AV-unprocessed.smi:1406|AV-procd|sdf|5723|dock6
  -GOLD-   22720 5353D 1   1.00000     0.00000
 Structure written by MMmdl.
 41 43  0  0  0  0  0  0  0  0  2 V2000
  149.3829  134.4106  154.5706 C   0  0  0  0  0  0  0  0  0  0  0  0
  149.1226  133.2104  153.6378 C   0  0  2  0  0  0  0  0  0  0  0  0
  147.6411  133.0541  153.2560 C   0  0  0  0  0  0  0  0  0  0  0  0
  147.0009  132.0583  153.5948 O   0  0  0  0  0  0  0  0  0  0  0  0
  147.1055  134.0552  152.5404 N   0  0  0  0  0  0  0  0  0  0  0  0
  145.7397  134.0790  152.0311 C   0  0  1  0  0  0  0  0  0  0  0  0
  145.2982  132.7886  151.3473 C   0  0  0  0  0  0  0  0  0  0  0  0
  143.7737  132.9095  151.3932 C   0  0  0  0  0  0  0  0  0  0  0  0
  143.4605  133.6146  152.6574 N   0  3  2  0  0  0  0  0  0  0  0  0
  142.2813  134.5121  152.5941 C   0  0  0  0  0  0  0  0  0  0  0  0
  142.0414  135.1883  153.9572 C   0  0  0  0  0  0  0  0  0  0  0  0
  143.3068  135.8606  154.5315 C   0  0  0  0  0  0  0  0  0  0  0  0
  144.5242  135.7079  153.6062 C   0  0  0  0  0  0  0  0  0  0  0  0
  144.7150  134.2405  153.1625 C   0  0  2  0  0  0  0  0  0  0  0  0
  149.6353  131.9644  154.1958 N   0  0  0  0  0  0  0  0  0  0  0  0
  149.4969  130.7090  153.7635 C   0  0  0  0  0  0  0  0  0  0  0  0
  150.0552  129.8027  154.5533 N   0  0  0  0  0  0  0  0  0  0  0  0
  150.5531  130.6230  155.5256 C   0  0  0  0  0  0  0  0  0  0  0  0
  150.3198  131.9255  155.3662 N   0  0  0  0  0  0  0  0  0  0  0  0
  149.0524  135.3437  154.1131 H   0  0  0  0  0  0  0  0  0  0  0  0
  150.4473  134.5121  154.7838 H   0  0  0  0  0  0  0  0  0  0  0  0
  148.8640  134.3081  155.5247 H   0  0  0  0  0  0  0  0  0  0  0  0
  149.6706  133.3966  152.7128 H   0  0  0  0  0  0  0  0  0  0  0  0
  147.6968  134.8394  152.3060 H   0  0  0  0  0  0  0  0  0  0  0  0
  145.6281  134.9037  151.3235 H   0  0  0  0  0  0  0  0  0  0  0  0
  145.6843  132.6896  150.3321 H   0  0  0  0  0  0  0  0  0  0  0  0
  145.6238  131.9201  151.9222 H   0  0  0  0  0  0  0  0  0  0  0  0
  143.4352  133.5033  150.5424 H   0  0  0  0  0  0  0  0  0  0  0  0
  143.2755  131.9411  151.3424 H   0  0  0  0  0  0  0  0  0  0  0  0
  142.4325  135.2676  151.8213 H   0  0  0  0  0  0  0  0  0  0  0  0
  141.4022  133.9364  152.3024 H   0  0  0  0  0  0  0  0  0  0  0  0
  141.2403  135.9222  153.8642 H   0  0  0  0  0  0  0  0  0  0  0  0
  141.6822  134.4429  154.6678 H   0  0  0  0  0  0  0  0  0  0  0  0
  143.1181  136.9181  154.7197 H   0  0  0  0  0  0  0  0  0  0  0  0
  143.5371  135.4186  155.5017 H   0  0  0  0  0  0  0  0  0  0  0  0
  144.3901  136.3486  152.7334 H   0  0  0  0  0  0  0  0  0  0  0  0
  145.4236  136.0685  154.1069 H   0  0  0  0  0  0  0  0  0  0  0  0
  145.0231  133.6434  154.0226 H   0  0  0  0  0  0  0  0  0  0  0  0
  148.9697  130.4515  152.8567 H   0  0  0  0  0  0  0  0  0  0  0  0
  151.0961  130.2485  156.3809 H   0  0  0  0  0  0  0  0  0  0  0  0
  143.2310  132.8989  153.3321 H   0  0  0  0  0  0  0  0  0  0  0  0
  1  2  1  0  0  0  0
  1 20  1  0  0  0  0
  1 21  1  0  0  0  0
  1 22  1  0  0  0  0
  2  3  1  0  0  0  0
  2 15  1  0  0  0  0
  2 23  1  0  0  0  0
  3  4  2  0  0  0  0
  3  5  1  0  0  0  0
  5  6  1  0  0  0  0
  5 24  1  0  0  0  0
  6 14  1  0  0  0  0
  6  7  1  0  0  0  0
  6 25  1  0  0  0  0
  7  8  1  0  0  0  0
  7 26  1  0  0  0  0
  7 27  1  0  0  0  0
  8  9  1  0  0  0  0
  8 28  1  0  0  0  0
  8 29  1  0  0  0  0
  9 14  1  0  0  0  0
  9 10  1  0  0  0  0
  9 41  1  0  0  0  0
 10 11  1  0  0  0  0
 10 30  1  0  0  0  0
 10 31  1  0  0  0  0
 11 12  1  0  0  0  0
 11 32  1  0  0  0  0
 11 33  1  0  0  0  0
 12 13  1  0  0  0  0
 12 34  1  0  0  0  0
 12 35  1  0  0  0  0
 13 14  1  0  0  0  0
 13 36  1  0  0  0  0
 13 37  1  0  0  0  0
 14 38  1  0  0  0  0
 15 19  1  0  0  0  0
 15 16  1  0  0  0  0
 16 17  2  0  0  0  0
 16 39  1  0  0  0  0
 17 18  1  0  0  0  0
 18 19  2  0  0  0  0
 18 40  1  0  0  0  0
M  CHG  1   9   1
M  END
> <s_m_source_file>
AV-unprocessed.smi

> <i_m_source_file_index>
1406

> <i_lp_mmshare_version>
43012

> <i_f3d_flags>
0

> <s_epik_input>
bjFbY0hdbltjSF1uMVtDQEhdKFtDSDNdKUMoPU8pW05IXVtDQEhdKFtDSDJdW0NIMl0yKVtDQEBIXShOMjMpW0NIMl1bQ0gyXVtDSDJdW0NIMl0z

> <s_epik_cmdline>
J2VwaWtfcHl0aG9uJywgJy1waCcsICc3LjAnLCAnLXRuJywgJzgnLCAnLW1hJywgJzIwMCcsICctbWV0YWxfYmluZGluZycsICctaW1hZScsICc8aW5maWxlLm1hZT4nLCAnLW9tYWUnLCAnPG91dGZpbGUubWFlPic=

> <r_lp_tautomer_probability>
1

> <r_epik_Ionization_Penalty>
0.00197066

> <r_epik_Ionization_Penalty_Charging>
0.00196223

> <r_epik_Ionization_Penalty_Neutral>
8.43107e-06

> <r_epik_State_Penalty>
0.00133866

> <r_epik_Charging_Adjusted_Penalty>
0.00330089

> <i_epik_Tot_Q>
1

> <i_epik_Tot_abs_Q>
1

> <r_epik_Metal_State_Penalty>
-0

> <b_epik_Metal_Only>
0

> <s_lp_Force_Field>
OPLS_2005

> <r_lp_Energy>
45.2549

> <b_lp_Chiralities_Consistent>
1

> <s_lp_Variant>
AV-unprocessed.smi:1406-15

> <Gold.Version>
5.8.1

> <Gold.Id.Protein>
6NUR|6NUR_protein|mol2

> <Gold.PLP.Fitness>
40.6572

> <Gold.PLP.PLP>
-29.4574

> <Gold.PLP.part.hbond>
-2.0000

> <Gold.PLP.part.metal>
0.0000

> <Gold.PLP.part.buried>
-5.6757

> <Gold.PLP.part.nonpolar>
-21.1087

> <Gold.PLP.part.repulsive>
0.1852

> <Gold.PLP.ligand.clash>
0.0000

> <Gold.PLP.ligand.torsion>
0.4010

> <Gold.PLP.Chemscore.Hbond>
3.0000

> <Gold.PLP.Chemscore.CHOScore>
0.9646

> <Gold.PLP.Chemscore.Metal>
0.0000

> <Gold.Chemscore.Hbonds>
donor molecule, donor type, donor heavy atom, donor atom, acceptor molecule, acceptor atom, score
      L1  H     5    24       P1  7948  1.00
      L1  H     9    41       P1 10957  2.00
      L1  C    16    39       P1 10747  0.88

> <Gold.PLP.Chemscore.Internal.Correction>
0.1082

> <Gold.Rescore>
     Score         DG    S(hbond)    S(metal)    S(lipo)     H(rot)  DE(clash)    DE(int)     intcor
      9.99     -12.55       1.93        0.00      46.67       1.89       0.03       2.53       ----

> <Gold.Chemscore.Fitness>
9.9926

> <Gold.Chemscore.DG>
-12.5544

> <Gold.Chemscore.ZeroCoef>
-5.4800

> <Gold.Chemscore.Hbond>
1.9293

> <Gold.Chemscore.Metal>
0.0000

> <Gold.Chemscore.Lipo>
46.6674

> <Gold.Chemscore.Internal_Hbond>
0.0000

> <Gold.Chemscore.DEClash>
0.0270

> <Gold.Chemscore.DEInternal>
2.5348

> <Gold.Chemscore.Rot>
1.8865

> <Gold.Chemscore.Internal.Correction>
   9.000000E+99

> <Gold.Chemscore.Hbonds>
donor molecule, donor type, donor heavy atom, donor atom, acceptor molecule, acceptor atom, score
      L1  H     5    24       P1  7948  0.85
      L1  H     9    41       P1 10957  0.70

> <Gold.Chemscore.Hbond.Weighted>
-6.4439

> <Gold.Chemscore.Metal.Weighted>
-0.0000

> <Gold.Chemscore.Lipo.Weighted>
-5.4601

> <Gold.Chemscore.Internal_Hbond.Weighted>
0.0000

> <Gold.Chemscore.DEClash.Weighted>
0.0270

> <Gold.Chemscore.DEInternal.Weighted>
2.5348

> <Gold.Chemscore.Rot.Weighted>
4.8295

> <Gold.Chemscore.Internal.Correction.Weighted>
   9.000000E+99

> <Gold.Protein.RotatedTorsions>
[ 6907 6896 6895 6894 ] final  125.28 input  -60.11 | X-H torsion
[ 7974 7965 7964 7962 ] final  -49.01 input  175.53 | X-H torsion
[ 8008 7997 7996 7995 ] final  160.77 input   59.86 | X-H torsion
[ 10167 10162 10161 10158 ] final  -54.90 input  -65.29 | X-H torsion
[ 10718 10713 10712 10709 ] final   41.16 input   66.30 | X-H torsion
[ 10763 10752 10751 10750 ] final    2.05 input  -60.55 | X-H torsion
[ 11005 11000 10999 10996 ] final  107.24 input  -57.11 | X-H torsion

> <Gold.Protein.ActiveResidues>
 VAL166  LYS551  ARG553  GLY616  TRP617  ASP618  TYR619  PRO620  LYS621  CYS622 
 ASP623  PHE694  ASN695  SER759  ASP760  ASP761  ALA762  ILE779  LEU786  VAL792 
 PHE793  MET794  SER795  GLU796  ALA797  LYS798  CYS799  TRP800  GLU811  SER814 

> <Gold.Protein.RotatedAtoms>
  152.4006  133.6812  159.6312 H   0  0  0  0  0  0  0  0  0  0  0  0  # atno 6907 bound_to 6896
  150.7898  133.8798  159.3291 H   0  0  0  0  0  0  0  0  0  0  0  0  # atno 6908 bound_to 6896
  151.6564  135.0996  160.0222 H   0  0  0  0  0  0  0  0  0  0  0  0  # atno 6909 bound_to 6896
  145.9451  140.7625  142.9532 H   0  0  0  0  0  0  0  0  0  0  0  0  # atno 7974 bound_to 7965
  156.2149  140.1795  156.7611 H   0  0  0  0  0  0  0  0  0  0  0  0  # atno 8008 bound_to 7997
  154.5777  140.0671  156.9087 H   0  0  0  0  0  0  0  0  0  0  0  0  # atno 8009 bound_to 7997
  155.2559  140.3332  155.4280 H   0  0  0  0  0  0  0  0  0  0  0  0  # atno 8010 bound_to 7997
  140.6405  143.2505  151.5002 H   0  0  0  0  0  0  0  0  0  0  0  0  # atno 10167 bound_to 10162
  157.3904  130.7803  149.7264 H   0  0  0  0  0  0  0  0  0  0  0  0  # atno 10718 bound_to 10713
  153.3004  135.6955  153.7209 H   0  0  0  0  0  0  0  0  0  0  0  0  # atno 10763 bound_to 10752
  153.6125  135.3442  155.2984 H   0  0  0  0  0  0  0  0  0  0  0  0  # atno 10764 bound_to 10752
  154.8549  135.4367  154.2113 H   0  0  0  0  0  0  0  0  0  0  0  0  # atno 10765 bound_to 10752
  139.8825  134.9394  156.5788 H   0  0  0  0  0  0  0  0  0  0  0  0  # atno 11005 bound_to 11000
  144.6786  140.2344  143.7351 LP  0  0  0  0  0  0  0  0  0  0  0  0  # atno 17320 bound_to 7965
  145.8247  139.2059  143.1918 LP  0  0  0  0  0  0  0  0  0  0  0  0  # atno 17321 bound_to 7965
  139.5614  144.2147  152.1697 LP  0  0  0  0  0  0  0  0  0  0  0  0  # atno 17342 bound_to 10162
  140.1416  144.5197  150.6740 LP  0  0  0  0  0  0  0  0  0  0  0  0  # atno 17343 bound_to 10162
  155.9797  130.4037  150.3573 LP  0  0  0  0  0  0  0  0  0  0  0  0  # atno 17370 bound_to 10713
  157.1688  131.0363  151.2805 LP  0  0  0  0  0  0  0  0  0  0  0  0  # atno 17371 bound_to 10713
  140.8042  133.8481  155.8753 LP  0  0  0  0  0  0  0  0  0  0  0  0  # atno 17394 bound_to 11000
  140.9565  134.1711  157.4688 LP  0  0  0  0  0  0  0  0  0  0  0  0  # atno 17395 bound_to 11000

$$$$
