AV-unprocessed.smi:1909|AV-procd|sdf|7735|dock1
  -GOLD-   22720 9473D 1   1.00000     0.00000
 Structure written by MMmdl.
 40 41  0  0  0  0  0  0  0  0  1 V2000
  144.9950  142.5967  156.1497 C   0  0  0  0  0  0  0  0  0  0  0  0
  146.1866  142.0722  155.4248 C   0  0  0  0  0  0  0  0  0  0  0  0
  147.0074  141.1457  155.9258 N   0  0  0  0  0  0  0  0  0  0  0  0
  148.0546  140.8244  155.0555 C   0  0  0  0  0  0  0  0  0  0  0  0
  149.0849  139.8077  155.4590 C   0  0  0  0  0  0  0  0  0  0  0  0
  150.3792  140.4912  155.9089 C   0  0  0  0  0  0  0  0  0  0  0  0
  151.4120  140.3384  155.2571 O   0  0  0  0  0  0  0  0  0  0  0  0
  150.3067  141.2504  157.0151 N   0  0  0  0  0  0  0  0  0  0  0  0
  151.4163  141.9668  157.6394 C   0  0  0  0  0  0  0  0  0  0  0  0
  151.6230  141.3700  159.0522 C   0  0  0  0  0  0  0  0  0  0  0  0
  152.9051  141.8256  159.7782 C   0  0  0  0  0  0  0  0  0  0  0  0
  152.7077  142.8987  160.8666 C   0  0  0  0  0  0  0  0  0  0  0  0
  151.7578  144.0636  160.5343 C   0  0  0  0  0  0  0  0  0  0  0  0
  152.1987  145.0067  159.4004 C   0  0  0  0  0  0  0  0  0  0  0  0
  152.2972  144.3996  157.9875 C   0  0  0  0  0  0  0  0  0  0  0  0
  151.1250  143.4868  157.5736 C   0  0  0  0  0  0  0  0  0  0  0  0
  148.0042  141.5197  153.8721 C   0  0  0  0  0  0  0  0  0  0  0  0
  146.6494  142.6131  153.8162 S   0  0  0  0  0  0  0  0  0  0  0  0
  145.0360  142.3223  157.2042 H   0  0  0  0  0  0  0  0  0  0  0  0
  144.0843  142.1848  155.7149 H   0  0  0  0  0  0  0  0  0  0  0  0
  144.9602  143.6836  156.0737 H   0  0  0  0  0  0  0  0  0  0  0  0
  148.7068  139.1791  156.2664 H   0  0  0  0  0  0  0  0  0  0  0  0
  149.3120  139.1378  154.6289 H   0  0  0  0  0  0  0  0  0  0  0  0
  149.4119  141.3168  157.4781 H   0  0  0  0  0  0  0  0  0  0  0  0
  152.3225  141.7666  157.0647 H   0  0  0  0  0  0  0  0  0  0  0  0
  150.7427  141.5229  159.6768 H   0  0  0  0  0  0  0  0  0  0  0  0
  151.6954  140.2871  158.9369 H   0  0  0  0  0  0  0  0  0  0  0  0
  153.3446  140.9556  160.2680 H   0  0  0  0  0  0  0  0  0  0  0  0
  153.6635  142.1344  159.0611 H   0  0  0  0  0  0  0  0  0  0  0  0
  152.3159  142.4035  161.7559 H   0  0  0  0  0  0  0  0  0  0  0  0
  153.6814  143.2936  161.1583 H   0  0  0  0  0  0  0  0  0  0  0  0
  150.7509  143.6928  160.3495 H   0  0  0  0  0  0  0  0  0  0  0  0
  151.6610  144.6682  161.4368 H   0  0  0  0  0  0  0  0  0  0  0  0
  151.4816  145.8277  159.3620 H   0  0  0  0  0  0  0  0  0  0  0  0
  153.1536  145.4657  159.6586 H   0  0  0  0  0  0  0  0  0  0  0  0
  152.3411  145.2347  157.2870 H   0  0  0  0  0  0  0  0  0  0  0  0
  153.2490  143.8900  157.8491 H   0  0  0  0  0  0  0  0  0  0  0  0
  150.8914  143.7289  156.5357 H   0  0  0  0  0  0  0  0  0  0  0  0
  150.2194  143.7373  158.1265 H   0  0  0  0  0  0  0  0  0  0  0  0
  148.6832  141.4586  153.0346 H   0  0  0  0  0  0  0  0  0  0  0  0
  1  2  1  0  0  0  0
  1 19  1  0  0  0  0
  1 20  1  0  0  0  0
  1 21  1  0  0  0  0
  2 18  1  0  0  0  0
  2  3  2  0  0  0  0
  3  4  1  0  0  0  0
  4  5  1  0  0  0  0
  4 17  2  0  0  0  0
  5  6  1  0  0  0  0
  5 22  1  0  0  0  0
  5 23  1  0  0  0  0
  6  7  2  0  0  0  0
  6  8  1  0  0  0  0
  8  9  1  0  0  0  0
  8 24  1  0  0  0  0
  9 16  1  0  0  0  0
  9 10  1  0  0  0  0
  9 25  1  0  0  0  0
 10 11  1  0  0  0  0
 10 26  1  0  0  0  0
 10 27  1  0  0  0  0
 11 12  1  0  0  0  0
 11 28  1  0  0  0  0
 11 29  1  0  0  0  0
 12 13  1  0  0  0  0
 12 30  1  0  0  0  0
 12 31  1  0  0  0  0
 13 14  1  0  0  0  0
 13 32  1  0  0  0  0
 13 33  1  0  0  0  0
 14 15  1  0  0  0  0
 14 34  1  0  0  0  0
 14 35  1  0  0  0  0
 15 16  1  0  0  0  0
 15 36  1  0  0  0  0
 15 37  1  0  0  0  0
 16 38  1  0  0  0  0
 16 39  1  0  0  0  0
 17 18  1  0  0  0  0
 17 40  1  0  0  0  0
M  END
> <s_m_source_file>
AV-unprocessed.smi

> <i_m_source_file_index>
1909

> <i_lp_mmshare_version>
43012

> <i_f3d_flags>
0

> <s_epik_input>
W0NIM11jMW5jKFtjSF1zMSlbQ0gyXUMoPU8pW05IXVtDSF0yW0NIMl1bQ0gyXVtDSDJdW0NIMl1bQ0gyXVtDSDJdW0NIMl0y

> <s_epik_cmdline>
J2VwaWtfcHl0aG9uJywgJy1waCcsICc3LjAnLCAnLXRuJywgJzgnLCAnLW1hJywgJzIwMCcsICctbWV0YWxfYmluZGluZycsICctaW1hZScsICc8aW5maWxlLm1hZT4nLCAnLW9tYWUnLCAnPG91dGZpbGUubWFlPic=

> <r_lp_tautomer_probability>
1

> <r_epik_Ionization_Penalty>
6.3061e-05

> <r_epik_Ionization_Penalty_Charging>
0

> <r_epik_Ionization_Penalty_Neutral>
6.3061e-05

> <r_epik_State_Penalty>
-0

> <r_epik_Charging_Adjusted_Penalty>
0

> <i_epik_Tot_Q>
0

> <i_epik_Tot_abs_Q>
0

> <r_epik_Metal_State_Penalty>
-0

> <b_epik_Metal_Only>
0

> <s_lp_Force_Field>
OPLS_2005

> <r_lp_Energy>
17.5912

> <b_lp_Chiralities_Consistent>
1

> <s_lp_Variant>
AV-unprocessed.smi:1909-1

> <Gold.Version>
5.8.1

> <Gold.Id.Protein>
6NUR|6NUR_protein|mol2

> <Gold.PLP.Fitness>
47.6811

> <Gold.PLP.PLP>
-42.3397

> <Gold.PLP.part.hbond>
-1.0000

> <Gold.PLP.part.metal>
0.0000

> <Gold.PLP.part.buried>
-5.5413

> <Gold.PLP.part.nonpolar>
-36.0961

> <Gold.PLP.part.repulsive>
0.1122

> <Gold.PLP.ligand.clash>
0.0000

> <Gold.PLP.ligand.torsion>
0.2820

> <Gold.PLP.Chemscore.Hbond>
0.9600

> <Gold.PLP.Chemscore.CHOScore>
1.0000

> <Gold.PLP.Chemscore.Metal>
0.0000

> <Gold.Chemscore.Hbonds>
donor molecule, donor type, donor heavy atom, donor atom, acceptor molecule, acceptor atom, score
      P1  H  7989  7998       L1     7  0.96
      L1  C    17    40       P1  7957  1.00

> <Gold.PLP.Chemscore.Internal.Correction>
0.0255

> <Gold.Rescore>
     Score         DG    S(hbond)    S(metal)    S(lipo)     H(rot)  DE(clash)    DE(int)     intcor
     19.08     -19.12       0.96        0.00     116.55       1.25       0.02       0.02       ----

> <Gold.Chemscore.Fitness>
19.0786

> <Gold.Chemscore.DG>
-19.1243

> <Gold.Chemscore.ZeroCoef>
-5.4800

> <Gold.Chemscore.Hbond>
0.9613

> <Gold.Chemscore.Metal>
0.0000

> <Gold.Chemscore.Lipo>
116.5462

> <Gold.Chemscore.Internal_Hbond>
0.0000

> <Gold.Chemscore.DEClash>
0.0207

> <Gold.Chemscore.DEInternal>
0.0250

> <Gold.Chemscore.Rot>
1.2508

> <Gold.Chemscore.Internal.Correction>
   9.000000E+99

> <Gold.Chemscore.Hbonds>
donor molecule, donor type, donor heavy atom, donor atom, acceptor molecule, acceptor atom, score
      P1  H  7989  7998       L1     7  0.92

> <Gold.Chemscore.Hbond.Weighted>
-3.2106

> <Gold.Chemscore.Metal.Weighted>
-0.0000

> <Gold.Chemscore.Lipo.Weighted>
-13.6359

> <Gold.Chemscore.Internal_Hbond.Weighted>
0.0000

> <Gold.Chemscore.DEClash.Weighted>
0.0207

> <Gold.Chemscore.DEInternal.Weighted>
0.0250

> <Gold.Chemscore.Rot.Weighted>
3.2022

> <Gold.Chemscore.Internal.Correction.Weighted>
   9.000000E+99

> <Gold.Protein.RotatedTorsions>
[ 6907 6896 6895 6894 ] final  144.79 input  -60.11 | X-H torsion
[ 7974 7965 7964 7962 ] final  149.67 input  175.53 | X-H torsion
[ 8008 7997 7996 7995 ] final  -57.79 input   59.86 | X-H torsion
[ 10167 10162 10161 10158 ] final   92.83 input  -65.29 | X-H torsion
[ 10718 10713 10712 10709 ] final   34.93 input   66.30 | X-H torsion
[ 10763 10752 10751 10750 ] final  144.14 input  -60.55 | X-H torsion
[ 11005 11000 10999 10996 ] final   15.42 input  -57.11 | X-H torsion

> <Gold.Protein.ActiveResidues>
 VAL166  LYS551  ARG553  GLY616  TRP617  ASP618  TYR619  PRO620  LYS621  CYS622 
 ASP623  PHE694  ASN695  SER759  ASP760  ASP761  ALA762  ILE779  LEU786  VAL792 
 PHE793  MET794  SER795  GLU796  ALA797  LYS798  CYS799  TRP800  GLU811  SER814 

> <Gold.Protein.RotatedAtoms>
  152.1892  133.4761  159.4998 H   0  0  0  0  0  0  0  0  0  0  0  0  # atno 6907 bound_to 6896
  150.6948  134.1734  159.4230 H   0  0  0  0  0  0  0  0  0  0  0  0  # atno 6908 bound_to 6896
  151.9648  135.0105  160.0600 H   0  0  0  0  0  0  0  0  0  0  0  0  # atno 6909 bound_to 6896
  144.8421  139.6310  143.6012 H   0  0  0  0  0  0  0  0  0  0  0  0  # atno 7974 bound_to 7965
  154.4282  140.1099  156.5854 H   0  0  0  0  0  0  0  0  0  0  0  0  # atno 8008 bound_to 7997
  155.6068  140.3494  155.4591 H   0  0  0  0  0  0  0  0  0  0  0  0  # atno 8009 bound_to 7997
  156.0130  140.1223  157.0424 H   0  0  0  0  0  0  0  0  0  0  0  0  # atno 8010 bound_to 7997
  139.8239  144.6719  150.9484 H   0  0  0  0  0  0  0  0  0  0  0  0  # atno 10167 bound_to 10162
  157.3164  130.7426  149.6757 H   0  0  0  0  0  0  0  0  0  0  0  0  # atno 10718 bound_to 10713
  153.9840  135.2938  155.3418 H   0  0  0  0  0  0  0  0  0  0  0  0  # atno 10763 bound_to 10752
  154.7253  135.5091  153.8879 H   0  0  0  0  0  0  0  0  0  0  0  0  # atno 10764 bound_to 10752
  153.0841  135.6688  154.0100 H   0  0  0  0  0  0  0  0  0  0  0  0  # atno 10765 bound_to 10752
  140.4585  134.1151  155.7713 H   0  0  0  0  0  0  0  0  0  0  0  0  # atno 11005 bound_to 11000
  146.2712  139.6639  142.9295 LP  0  0  0  0  0  0  0  0  0  0  0  0  # atno 17320 bound_to 7965
  145.4673  141.0435  143.2718 LP  0  0  0  0  0  0  0  0  0  0  0  0  # atno 17321 bound_to 7965
  140.7811  143.4065  151.1062 LP  0  0  0  0  0  0  0  0  0  0  0  0  # atno 17342 bound_to 10162
  139.7724  143.8475  152.3123 LP  0  0  0  0  0  0  0  0  0  0  0  0  # atno 17343 bound_to 10162
  155.9682  130.4236  150.4569 LP  0  0  0  0  0  0  0  0  0  0  0  0  # atno 17370 bound_to 10713
  157.2577  131.0560  151.2340 LP  0  0  0  0  0  0  0  0  0  0  0  0  # atno 17371 bound_to 10713
  141.1632  133.8753  157.1789 LP  0  0  0  0  0  0  0  0  0  0  0  0  # atno 17394 bound_to 11000
  139.9961  135.0046  157.0084 LP  0  0  0  0  0  0  0  0  0  0  0  0  # atno 17395 bound_to 11000

$$$$
