AV-unprocessed.smi:983|AV-procd|sdf|4316|dock1
  -GOLD-   22720 2223D 1   1.00000     0.00000
 Structure written by MMmdl.
 35 36  0  0  0  0  0  0  0  0  1 V2000
  146.9786  142.2833  153.9099 C   0  0  0  0  0  0  0  0  0  0  0  0
  147.9168  141.6319  154.9049 C   0  0  0  0  0  0  0  0  0  0  0  0
  147.4808  141.3449  156.2558 C   0  0  0  0  0  0  0  0  0  0  0  0
  148.3401  140.7708  157.1119 C   0  0  0  0  0  0  0  0  0  0  0  0
  149.6540  140.4378  156.7351 N   0  0  0  0  0  0  0  0  0  0  0  0
  150.5082  139.8055  157.7540 C   0  0  0  0  0  0  0  0  0  0  0  0
  151.6904  140.6885  158.1773 C   0  0  0  0  0  0  0  0  0  0  0  0
  152.8499  140.3011  158.0259 O   0  0  0  0  0  0  0  0  0  0  0  0
  151.3776  141.8700  158.7305 N   0  0  0  0  0  0  0  0  0  0  0  0
  152.3469  142.8552  159.2014 C   0  0  0  0  0  0  0  0  0  0  0  0
  152.1060  143.2336  160.6768 C   0  0  0  0  0  0  0  0  0  0  0  0
  152.1785  144.7596  160.7354 C   0  0  0  0  0  0  0  0  0  0  0  0
  151.6740  145.2098  159.3681 C   0  0  0  0  0  0  0  0  0  0  0  0
  152.2290  144.1645  158.3989 C   0  0  0  0  0  0  0  0  0  0  0  0
  150.1261  140.6771  155.4748 C   0  0  0  0  0  0  0  0  0  0  0  0
  151.2732  140.3823  155.1374 O   0  0  0  0  0  0  0  0  0  0  0  0
  149.1793  141.3081  154.5481 C   0  0  0  0  0  0  0  0  0  0  0  0
  145.9676  142.3566  154.3113 H   0  0  0  0  0  0  0  0  0  0  0  0
  146.9364  141.7019  152.9885 H   0  0  0  0  0  0  0  0  0  0  0  0
  147.3235  143.2886  153.6673 H   0  0  0  0  0  0  0  0  0  0  0  0
  146.4765  141.5849  156.5733 H   0  0  0  0  0  0  0  0  0  0  0  0
  148.0762  140.5240  158.1301 H   0  0  0  0  0  0  0  0  0  0  0  0
  149.9128  139.5422  158.6306 H   0  0  0  0  0  0  0  0  0  0  0  0
  150.9077  138.8595  157.3860 H   0  0  0  0  0  0  0  0  0  0  0  0
  150.4010  142.1082  158.8248 H   0  0  0  0  0  0  0  0  0  0  0  0
  153.3574  142.4612  159.0766 H   0  0  0  0  0  0  0  0  0  0  0  0
  151.1121  142.9160  160.9965 H   0  0  0  0  0  0  0  0  0  0  0  0
  152.8255  142.7616  161.3466 H   0  0  0  0  0  0  0  0  0  0  0  0
  151.5969  145.1767  161.5576 H   0  0  0  0  0  0  0  0  0  0  0  0
  153.2148  145.0739  160.8663 H   0  0  0  0  0  0  0  0  0  0  0  0
  150.5837  145.1838  159.3525 H   0  0  0  0  0  0  0  0  0  0  0  0
  151.9873  146.2236  159.1170 H   0  0  0  0  0  0  0  0  0  0  0  0
  153.2220  144.4727  158.0688 H   0  0  0  0  0  0  0  0  0  0  0  0
  151.6116  144.0708  157.5043 H   0  0  0  0  0  0  0  0  0  0  0  0
  149.5109  141.5196  153.5418 H   0  0  0  0  0  0  0  0  0  0  0  0
  1  2  1  0  0  0  0
  1 18  1  0  0  0  0
  1 19  1  0  0  0  0
  1 20  1  0  0  0  0
  2 17  2  0  0  0  0
  2  3  1  0  0  0  0
  3  4  2  0  0  0  0
  3 21  1  0  0  0  0
  4  5  1  0  0  0  0
  4 22  1  0  0  0  0
  5  6  1  0  0  0  0
  5 15  1  0  0  0  0
  6  7  1  0  0  0  0
  6 23  1  0  0  0  0
  6 24  1  0  0  0  0
  7  8  2  0  0  0  0
  7  9  1  0  0  0  0
  9 10  1  0  0  0  0
  9 25  1  0  0  0  0
 10 14  1  0  0  0  0
 10 11  1  0  0  0  0
 10 26  1  0  0  0  0
 11 12  1  0  0  0  0
 11 27  1  0  0  0  0
 11 28  1  0  0  0  0
 12 13  1  0  0  0  0
 12 29  1  0  0  0  0
 12 30  1  0  0  0  0
 13 14  1  0  0  0  0
 13 31  1  0  0  0  0
 13 32  1  0  0  0  0
 14 33  1  0  0  0  0
 14 34  1  0  0  0  0
 15 16  2  0  0  0  0
 15 17  1  0  0  0  0
 17 35  1  0  0  0  0
M  END
> <s_m_source_file>
AV-unprocessed.smi

> <i_m_source_file_index>
983

> <i_lp_mmshare_version>
43012

> <i_f3d_flags>
0

> <s_epik_input>
W0NIM11jMVtjSF1bY0hdbihjKD1PKVtjSF0xKVtDSDJdQyg9TylbTkhdW0NIXTJbQ0gyXVtDSDJdW0NIMl1bQ0gyXTI=

> <s_epik_cmdline>
J2VwaWtfcHl0aG9uJywgJy1waCcsICc3LjAnLCAnLXRuJywgJzgnLCAnLW1hJywgJzIwMCcsICctbWV0YWxfYmluZGluZycsICctaW1hZScsICc8aW5maWxlLm1hZT4nLCAnLW9tYWUnLCAnPG91dGZpbGUubWFlPic=

> <r_lp_tautomer_probability>
1

> <r_epik_Ionization_Penalty>
5.52576e-07

> <r_epik_Ionization_Penalty_Charging>
5.33275e-07

> <r_epik_Ionization_Penalty_Neutral>
1.93017e-08

> <r_epik_State_Penalty>
-0

> <r_epik_Charging_Adjusted_Penalty>
5.33275e-07

> <i_epik_Tot_Q>
0

> <i_epik_Tot_abs_Q>
0

> <r_epik_Metal_State_Penalty>
-0

> <b_epik_Metal_Only>
0

> <s_lp_Force_Field>
OPLS_2005

> <r_lp_Energy>
27.4502

> <b_lp_Chiralities_Consistent>
1

> <s_lp_Variant>
AV-unprocessed.smi:983-1

> <Gold.Version>
5.8.1

> <Gold.Id.Protein>
6NUR|6NUR_protein|mol2

> <Gold.PLP.Fitness>
44.8785

> <Gold.PLP.PLP>
-39.2054

> <Gold.PLP.part.hbond>
-2.0000

> <Gold.PLP.part.metal>
0.0000

> <Gold.PLP.part.buried>
-4.7183

> <Gold.PLP.part.nonpolar>
-32.2227

> <Gold.PLP.part.repulsive>
0.1439

> <Gold.PLP.ligand.clash>
0.0000

> <Gold.PLP.ligand.torsion>
0.0587

> <Gold.PLP.Chemscore.Hbond>
1.9280

> <Gold.PLP.Chemscore.CHOScore>
0.0000

> <Gold.PLP.Chemscore.Metal>
0.0000

> <Gold.Chemscore.Hbonds>
donor molecule, donor type, donor heavy atom, donor atom, acceptor molecule, acceptor atom, score
      P1  H  7989  7998       L1    16  1.00
      P1  H  7997  8009       L1     8  0.93

> <Gold.PLP.Chemscore.Internal.Correction>
0.0064

> <Gold.Rescore>
     Score         DG    S(hbond)    S(metal)    S(lipo)     H(rot)  DE(clash)    DE(int)     intcor
     18.75     -18.84       1.91        0.00      89.85       1.38       0.03       0.06       ----

> <Gold.Chemscore.Fitness>
18.7537

> <Gold.Chemscore.DG>
-18.8376

> <Gold.Chemscore.ZeroCoef>
-5.4800

> <Gold.Chemscore.Hbond>
1.9088

> <Gold.Chemscore.Metal>
0.0000

> <Gold.Chemscore.Lipo>
89.8492

> <Gold.Chemscore.Internal_Hbond>
0.0000

> <Gold.Chemscore.DEClash>
0.0263

> <Gold.Chemscore.DEInternal>
0.0577

> <Gold.Chemscore.Rot>
1.3789

> <Gold.Chemscore.Internal.Correction>
   9.000000E+99

> <Gold.Chemscore.Hbonds>
donor molecule, donor type, donor heavy atom, donor atom, acceptor molecule, acceptor atom, score
      P1  H  7989  7998       L1    16  0.81
      P1  H  7997  8009       L1     8  0.87

> <Gold.Chemscore.Hbond.Weighted>
-6.3753

> <Gold.Chemscore.Metal.Weighted>
-0.0000

> <Gold.Chemscore.Lipo.Weighted>
-10.5124

> <Gold.Chemscore.Internal_Hbond.Weighted>
0.0000

> <Gold.Chemscore.DEClash.Weighted>
0.0263

> <Gold.Chemscore.DEInternal.Weighted>
0.0577

> <Gold.Chemscore.Rot.Weighted>
3.5301

> <Gold.Chemscore.Internal.Correction.Weighted>
   9.000000E+99

> <Gold.Protein.RotatedTorsions>
[ 6907 6896 6895 6894 ] final   38.85 input  -60.11 | X-H torsion
[ 7974 7965 7964 7962 ] final   33.86 input  175.53 | X-H torsion
[ 8008 7997 7996 7995 ] final  163.65 input   59.86 | X-H torsion
[ 10167 10162 10161 10158 ] final -148.03 input  -65.29 | X-H torsion
[ 10718 10713 10712 10709 ] final  161.54 input   66.30 | X-H torsion
[ 10763 10752 10751 10750 ] final   29.39 input  -60.55 | X-H torsion
[ 11005 11000 10999 10996 ] final  131.88 input  -57.11 | X-H torsion

> <Gold.Protein.ActiveResidues>
 VAL166  LYS551  ARG553  GLY616  TRP617  ASP618  TYR619  PRO620  LYS621  CYS622 
 ASP623  PHE694  ASN695  SER759  ASP760  ASP761  ALA762  ILE779  LEU786  VAL792 
 PHE793  MET794  SER795  GLU796  ALA797  LYS798  CYS799  TRP800  GLU811  SER814 

> <Gold.Protein.RotatedAtoms>
  152.1619  134.8905  160.0540 H   0  0  0  0  0  0  0  0  0  0  0  0  # atno 6907 bound_to 6896
  151.9898  133.3782  159.4148 H   0  0  0  0  0  0  0  0  0  0  0  0  # atno 6908 bound_to 6896
  150.6889  134.3872  159.5104 H   0  0  0  0  0  0  0  0  0  0  0  0  # atno 6909 bound_to 6896
  146.1392  139.6342  142.9175 H   0  0  0  0  0  0  0  0  0  0  0  0  # atno 7974 bound_to 7965
  156.1941  140.1718  156.8033 H   0  0  0  0  0  0  0  0  0  0  0  0  # atno 8008 bound_to 7997
  154.5508  140.0718  156.8695 H   0  0  0  0  0  0  0  0  0  0  0  0  # atno 8009 bound_to 7997
  155.3033  140.3363  155.4249 H   0  0  0  0  0  0  0  0  0  0  0  0  # atno 8010 bound_to 7997
  139.7569  143.8435  152.2599 H   0  0  0  0  0  0  0  0  0  0  0  0  # atno 10167 bound_to 10162
  157.1350  131.0526  151.2353 H   0  0  0  0  0  0  0  0  0  0  0  0  # atno 10718 bound_to 10713
  153.0433  135.6490  154.0884 H   0  0  0  0  0  0  0  0  0  0  0  0  # atno 10763 bound_to 10752
  154.0586  135.2890  155.3330 H   0  0  0  0  0  0  0  0  0  0  0  0  # atno 10764 bound_to 10752
  154.6672  135.5369  153.8158 H   0  0  0  0  0  0  0  0  0  0  0  0  # atno 10765 bound_to 10752
  139.9757  134.9564  156.9502 H   0  0  0  0  0  0  0  0  0  0  0  0  # atno 11005 bound_to 11000
  145.5086  141.0436  143.2500 LP  0  0  0  0  0  0  0  0  0  0  0  0  # atno 17320 bound_to 7965
  144.7773  139.6602  143.7169 LP  0  0  0  0  0  0  0  0  0  0  0  0  # atno 17321 bound_to 7965
  139.8430  144.7201  150.9308 LP  0  0  0  0  0  0  0  0  0  0  0  0  # atno 17342 bound_to 10162
  140.7803  143.3967  151.1218 LP  0  0  0  0  0  0  0  0  0  0  0  0  # atno 17343 bound_to 10162
  157.4358  130.7516  149.7028 LP  0  0  0  0  0  0  0  0  0  0  0  0  # atno 17370 bound_to 10713
  155.9800  130.4034  150.3554 LP  0  0  0  0  0  0  0  0  0  0  0  0  # atno 17371 bound_to 10713
  140.5201  134.0916  155.7290 LP  0  0  0  0  0  0  0  0  0  0  0  0  # atno 17394 bound_to 11000
  141.1434  133.9098  157.2273 LP  0  0  0  0  0  0  0  0  0  0  0  0  # atno 17395 bound_to 11000

$$$$
