#       Name:                AV-unprocessed.smi:2786
#       Creating user name   scv26
#       Creation time:       Fri Mar 27 15:18:34 2020


#       File generated by GOLD software.
#

@<TRIPOS>MOLECULE
AV-unprocessed.smi:2786
    29    30     1
SMALL
NO_CHARGES


@<TRIPOS>ATOM
      1 ****        -1.8534   2.2130   0.3312 C.3            1 S1                 0.0000
      2 ****        -0.3912   2.2710   0.2751 N.pl3          1 S1                 0.0000
      3 ****         0.3788   3.4059   0.2636 C.2            1 S1                 0.0000
      4 ****         1.6840   2.9947   0.1971 C.2            1 S1                 0.0000
      5 ****         1.6567   1.6269   0.1724 N.pl3          1 S1                 1.0000
      6 ****         0.3945   1.1815   0.2282 C.2            1 S1                 0.0000
      7 ****        -0.0337  -0.2582   0.2100 C.3            1 S1                 0.0000
      8 ****        -0.2020  -0.7763  -1.2369 C.3            1 S1                 0.0000
      9 ****        -0.6640  -2.1800  -1.2370 N.4            1 S1                 1.0000
     10 ****         0.2422  -3.0390  -0.4497 C.3            1 S1                 0.0000
     11 ****         0.3858  -2.4810   0.9775 C.3            1 S1                 0.0000
     12 ****         0.9077  -1.1182   0.9281 N.3            1 S1                 0.0000
     13 ****        -2.2620   3.2217   0.2587 H              1 S1                 0.0000
     14 ****        -2.1600   1.7670   1.2777 H              1 S1                 0.0000
     15 ****        -2.2268   1.6146  -0.5003 H              1 S1                 0.0000
     16 ****        -0.0473   4.3986   0.3005 H              1 S1                 0.0000
     17 ****         2.6054   3.5580   0.1653 H              1 S1                 0.0000
     18 ****        -0.9913  -0.2955   0.7308 H              1 S1                 0.0000
     19 ****        -0.9300  -0.1713  -1.7779 H              1 S1                 0.0000
     20 ****         0.7394  -0.7063  -1.7842 H              1 S1                 0.0000
     21 ****        -1.5858  -2.2212  -0.8261 H              1 S1                 0.0000
     22 ****        -0.1606  -4.0517  -0.4228 H              1 S1                 0.0000
     23 ****         1.2145  -3.0937  -0.9418 H              1 S1                 0.0000
     24 ****        -0.5721  -2.4951   1.4994 H              1 S1                 0.0000
     25 ****         1.0728  -3.1014   1.5536 H              1 S1                 0.0000
     26 ****         1.0341  -0.7737   1.8700 H              1 S1                 0.0000
     27 ****        -0.7102  -2.5213  -2.1867 H              1 S1                 0.0000
     28 ****         2.4745   1.0317   0.1251 H              1 S1                 0.0000
     29 ****         1.7867  -1.1133   0.4513 LP             1 S1                 0.0000
@<TRIPOS>BOND
    1    1    2 1     
    2    1   13 1     
    3    1   14 1     
    4    1   15 1     
    5    2    6 1     
    6    2    3 1     
    7    3    4 2     
    8    3   16 1     
    9    4    5 1     
   10    4   17 1     
   11    5    6 2     
   12    5   28 1     
   13    6    7 1     
   14    7   12 1     
   15    7    8 1     
   16    7   18 1     
   17    8    9 1     
   18    8   19 1     
   19    8   20 1     
   20    9   10 1     
   21    9   21 1     
   22    9   27 1     
   23   10   11 1     
   24   10   22 1     
   25   10   23 1     
   26   11   12 1     
   27   11   24 1     
   28   11   25 1     
   29   12   26 1     
   30   12   29 1     
@<TRIPOS>SUBSTRUCTURE
      1 S1             1
@<TRIPOS>SET
LONE_PAIRS      STATIC     ATOMS    <user>   **** ""
1 29
DONOR_HYDROGENS      STATIC     ATOMS    <user>   **** ""
4 28 21 27 26
ATOM$BLUE        STATIC     ATOMS    COLORGROUP SYSTEM
1 29
ATOM$RED        STATIC     ATOMS    COLORGROUP SYSTEM
4 28 21 27 26
