#       Name:                AV-unprocessed.smi:3128
#       Creating user name   scv26
#       Creation time:       Fri Mar 27 17:30:21 2020


#       File generated by GOLD software.
#

@<TRIPOS>MOLECULE
AV-unprocessed.smi:3128
    43    43     1
SMALL
NO_CHARGES


@<TRIPOS>ATOM
      1 ****        -2.3193  -1.6287  -2.4504 C.3            1 S1                 0.0000
      2 ****        -3.1350  -2.2648  -1.3075 C.3            1 S1                 0.0000
      3 ****        -4.5582  -2.5741  -1.8062 C.3            1 S1                 0.0000
      4 ****        -3.1339  -1.3900  -0.0256 C.3            1 S1                 0.0000
      5 ****        -3.8732  -2.0436   1.1580 C.3            1 S1                 0.0000
      6 ****        -1.7602  -1.0928   0.3787 N.am           1 S1                 0.0000
      7 ****        -1.3577   0.0048   1.0384 C.2            1 S1                 0.0000
      8 ****        -2.1217   0.9012   1.3962 O.2            1 S1                 0.0000
      9 ****         0.1368   0.1088   1.3375 C.3            1 S1                 0.0000
     10 ****         0.7582   1.2033   0.5864 N.3            1 S1                 0.0000
     11 ****         2.1706   1.3123   0.9170 C.3            1 S1                 0.0000
     12 ****         2.7922   2.4808   0.1381 C.3            1 S1                 0.0000
     13 ****         4.2119   2.6069   0.4064 N.pl3          1 S1                 0.0000
     14 ****         5.2717   2.2175  -0.3851 C.2            1 S1                 0.0000
     15 ****         6.4180   2.5361   0.2851 C.2            1 S1                 0.0000
     16 ****         5.9503   3.1253   1.4930 C.2            1 S1                 0.0000
     17 ****         4.6295   3.1668   1.5624 N.2            1 S1                 0.0000
     18 ****        -2.7118  -0.6467  -2.7160 H              1 S1                 0.0000
     19 ****        -2.3487  -2.2498  -3.3461 H              1 S1                 0.0000
     20 ****        -1.2691  -1.5069  -2.1849 H              1 S1                 0.0000
     21 ****        -2.6618  -3.2178  -1.0662 H              1 S1                 0.0000
     22 ****        -5.1172  -1.6587  -2.0024 H              1 S1                 0.0000
     23 ****        -5.1221  -3.1650  -1.0851 H              1 S1                 0.0000
     24 ****        -4.5328  -3.1503  -2.7315 H              1 S1                 0.0000
     25 ****        -3.6359  -0.4499  -0.2633 H              1 S1                 0.0000
     26 ****        -4.9348  -2.1728   0.9501 H              1 S1                 0.0000
     27 ****        -3.8042  -1.4279   2.0554 H              1 S1                 0.0000
     28 ****        -3.4552  -3.0223   1.3959 H              1 S1                 0.0000
     29 ****        -1.0578  -1.7725   0.1258 H              1 S1                 0.0000
     30 ****         0.2622   0.2763   2.4083 H              1 S1                 0.0000
     31 ****         0.6340  -0.8332   1.0979 H              1 S1                 0.0000
     32 ****         0.6576   1.0705  -0.4096 H              1 S1                 0.0000
     33 ****         2.2895   1.4713   1.9900 H              1 S1                 0.0000
     34 ****         2.6809   0.3816   0.6641 H              1 S1                 0.0000
     35 ****         2.6557   2.3405  -0.9352 H              1 S1                 0.0000
     36 ****         2.3035   3.4209   0.3996 H              1 S1                 0.0000
     37 ****         5.1239   1.7502  -1.3476 H              1 S1                 0.0000
     38 ****         7.4354   2.3732  -0.0381 H              1 S1                 0.0000
     39 ****         6.5272   3.5213   2.3157 H              1 S1                 0.0000
     40 ****        -3.0994   0.8336   1.1978 LP             1 S1                 0.0000
     41 ****        -1.7645   1.6969   1.8853 LP             1 S1                 0.0000
     42 ****         0.2883   2.0471   0.8454 LP             1 S1                 0.0000
     43 ****         4.0667   3.5310   2.3044 LP             1 S1                 0.0000
@<TRIPOS>BOND
    1    1    2 1     
    2    1   18 1     
    3    1   19 1     
    4    1   20 1     
    5    2    3 1     
    6    2    4 1     
    7    2   21 1     
    8    3   22 1     
    9    3   23 1     
   10    3   24 1     
   11    4    5 1     
   12    4    6 1     
   13    4   25 1     
   14    5   26 1     
   15    5   27 1     
   16    5   28 1     
   17    6    7 am    
   18    6   29 1     
   19    7    8 2     
   20    7    9 1     
   21    9   10 1     
   22    9   30 1     
   23    9   31 1     
   24   10   11 1     
   25   10   32 1     
   26   11   12 1     
   27   11   33 1     
   28   11   34 1     
   29   12   13 1     
   30   12   35 1     
   31   12   36 1     
   32   13   17 1     
   33   13   14 1     
   34   14   15 2     
   35   14   37 1     
   36   15   16 1     
   37   15   38 1     
   38   16   17 2     
   39   16   39 1     
   40    8   40 1     
   41    8   41 1     
   42   10   42 1     
   43   17   43 1     
@<TRIPOS>SUBSTRUCTURE
      1 S1             1
@<TRIPOS>SET
LONE_PAIRS      STATIC     ATOMS    <user>   **** ""
4 40 41 42 43
DONOR_HYDROGENS      STATIC     ATOMS    <user>   **** ""
2 29 32
ATOM$BLUE        STATIC     ATOMS    COLORGROUP SYSTEM
4 40 41 42 43
ATOM$RED        STATIC     ATOMS    COLORGROUP SYSTEM
2 29 32
