AV-unprocessed.smi:11|AV-procd|sdf|60|dock2
  -GOLD-   2262015173D 1   1.00000     0.00000
 Structure written by MMmdl.
 33 35  0  0  0  0  0  0  0  0  1 V2000
  148.3768  136.3382  155.4845 C   0  0  0  0  0  0  0  0  0  0  0  0
  148.6110  137.8152  155.8399 C   0  0  0  0  0  0  0  0  0  0  0  0
  149.3778  138.6348  154.7722 C   0  0  2  0  0  0  0  0  0  0  0  0
  148.6222  138.6515  153.5768 O   0  0  0  0  0  0  0  0  0  0  0  0
  150.7701  138.0558  154.5020 C   0  0  0  0  0  0  0  0  0  0  0  0
  151.6543  138.7083  155.5699 C   0  0  0  0  0  0  0  0  0  0  0  0
  150.9925  139.9531  155.9506 N   0  0  0  0  0  0  0  0  0  0  0  0
  151.0299  140.2565  157.3285 C   0  0  0  0  0  0  0  0  0  0  0  0
  151.6532  139.4103  158.1881 N   0  0  0  0  0  0  0  0  0  0  0  0
  151.6833  139.7537  159.5013 C   0  0  0  0  0  0  0  0  0  0  0  0
  151.1574  140.8584  160.0868 N   0  0  0  0  0  0  0  0  0  0  0  0
  150.5201  141.7203  159.2398 C   0  0  0  0  0  0  0  0  0  0  0  0
  149.9118  142.8636  159.5391 N   0  0  0  0  0  0  0  0  0  0  0  0
  149.4258  143.3455  158.3820 C   0  0  0  0  0  0  0  0  0  0  0  0
  149.7122  142.4990  157.2425 C   0  0  0  0  0  0  0  0  0  0  0  0
  150.4454  141.4385  157.8553 C   0  0  0  0  0  0  0  0  0  0  0  0
  149.7351  140.0612  155.2128 C   0  0  0  0  0  0  0  0  0  0  0  0
  147.8682  135.8256  156.3009 H   0  0  0  0  0  0  0  0  0  0  0  0
  149.3160  135.8149  155.3047 H   0  0  0  0  0  0  0  0  0  0  0  0
  147.7541  136.2287  154.5975 H   0  0  0  0  0  0  0  0  0  0  0  0
  147.6440  138.2793  156.0371 H   0  0  0  0  0  0  0  0  0  0  0  0
  149.1569  137.8608  156.7831 H   0  0  0  0  0  0  0  0  0  0  0  0
  149.0509  139.2249  152.9600 H   0  0  0  0  0  0  0  0  0  0  0  0
  150.8028  136.9661  154.5311 H   0  0  0  0  0  0  0  0  0  0  0  0
  151.1217  138.3676  153.5171 H   0  0  0  0  0  0  0  0  0  0  0  0
  151.7442  138.0468  156.4332 H   0  0  0  0  0  0  0  0  0  0  0  0
  152.6568  138.8971  155.1860 H   0  0  0  0  0  0  0  0  0  0  0  0
  152.1880  139.0622  160.1596 H   0  0  0  0  0  0  0  0  0  0  0  0
  148.8758  144.2778  158.3497 H   0  0  0  0  0  0  0  0  0  0  0  0
  149.4374  142.6377  156.2048 H   0  0  0  0  0  0  0  0  0  0  0  0
  149.9400  140.6792  154.3375 H   0  0  0  0  0  0  0  0  0  0  0  0
  148.9266  140.5576  155.7467 H   0  0  0  0  0  0  0  0  0  0  0  0
  151.2529  140.9864  161.0842 H   0  0  0  0  0  0  0  0  0  0  0  0
  1  2  1  0  0  0  0
  1 18  1  0  0  0  0
  1 19  1  0  0  0  0
  1 20  1  0  0  0  0
  2  3  1  0  0  0  0
  2 21  1  0  0  0  0
  2 22  1  0  0  0  0
  3 17  1  0  0  0  0
  3  4  1  0  0  0  0
  3  5  1  0  0  0  0
  4 23  1  0  0  0  0
  5  6  1  0  0  0  0
  5 24  1  0  0  0  0
  5 25  1  0  0  0  0
  6  7  1  0  0  0  0
  6 26  1  0  0  0  0
  6 27  1  0  0  0  0
  7  8  1  0  0  0  0
  7 17  1  0  0  0  0
  8 16  2  0  0  0  0
  8  9  1  0  0  0  0
  9 10  2  0  0  0  0
 10 11  1  0  0  0  0
 10 28  1  0  0  0  0
 11 12  1  0  0  0  0
 11 33  1  0  0  0  0
 12 16  1  0  0  0  0
 12 13  2  0  0  0  0
 13 14  1  0  0  0  0
 14 15  2  0  0  0  0
 14 29  1  0  0  0  0
 15 16  1  0  0  0  0
 15 30  1  0  0  0  0
 17 31  1  0  0  0  0
 17 32  1  0  0  0  0
M  END
> <s_m_source_file>
AV-unprocessed.smi

> <i_m_source_file_index>
11

> <i_lp_mmshare_version>
43012

> <i_f3d_flags>
0

> <s_epik_input>
W0NIM11bQ0gyXVtDQEBdMShbT0hdKVtDSDJdW0NIMl1OKFtDSDJdMSljKG5bY0hdbjIpYyhjMjMpW2NIXVtjSF1bbkhdMw==

> <s_epik_cmdline>
J2VwaWtfcHl0aG9uJywgJy1waCcsICc3LjAnLCAnLXRuJywgJzgnLCAnLW1hJywgJzIwMCcsICctbWV0YWxfYmluZGluZycsICctaW1hZScsICc8aW5maWxlLm1hZT4nLCAnLW9tYWUnLCAnPG91dGZpbGUubWFlPic=

> <r_lp_tautomer_probability>
1.75997e-05

> <r_epik_Ionization_Penalty>
5.31594

> <r_epik_Ionization_Penalty_Charging>
0

> <r_epik_Ionization_Penalty_Neutral>
5.31594

> <r_epik_State_Penalty>
7.79803

> <r_epik_Charging_Adjusted_Penalty>
7.79803

> <i_epik_Tot_Q>
0

> <i_epik_Tot_abs_Q>
0

> <r_epik_Metal_State_Penalty>
4.83511

> <b_epik_Metal_Only>
1

> <s_lp_Force_Field>
OPLS_2005

> <r_lp_Energy>
41.8975

> <b_lp_Chiralities_Consistent>
1

> <s_lp_Variant>
AV-unprocessed.smi:11-6

> <Gold.Version>
5.8.1

> <Gold.Id.Protein>
6NUR|6NUR_protein|mol2

> <Gold.PLP.Fitness>
36.9843

> <Gold.PLP.PLP>
-28.5208

> <Gold.PLP.part.hbond>
-4.6133

> <Gold.PLP.part.metal>
0.0000

> <Gold.PLP.part.buried>
-2.2898

> <Gold.PLP.part.nonpolar>
-20.7866

> <Gold.PLP.part.repulsive>
0.1839

> <Gold.PLP.ligand.clash>
0.0000

> <Gold.PLP.ligand.torsion>
0.1507

> <Gold.PLP.Chemscore.Hbond>
2.0000

> <Gold.PLP.Chemscore.CHOScore>
0.8627

> <Gold.PLP.Chemscore.Metal>
0.0000

> <Gold.Chemscore.Hbonds>
donor molecule, donor type, donor heavy atom, donor atom, acceptor molecule, acceptor atom, score
      L1  H     4    23       P1  7957  0.96
      L1  C    14    29       P1  8029  1.00

> <Gold.PLP.Chemscore.Internal.Correction>
0.1771

> <Gold.Rescore>
     Score         DG    S(hbond)    S(metal)    S(lipo)     H(rot)  DE(clash)    DE(int)     intcor
     10.96     -11.25       1.00        0.00      60.79       1.83       0.17       0.12       ----

> <Gold.Chemscore.Fitness>
10.9601

> <Gold.Chemscore.DG>
-11.2496

> <Gold.Chemscore.ZeroCoef>
-5.4800

> <Gold.Chemscore.Hbond>
0.9978

> <Gold.Chemscore.Metal>
0.0000

> <Gold.Chemscore.Lipo>
60.7870

> <Gold.Chemscore.Internal_Hbond>
0.0000

> <Gold.Chemscore.DEClash>
0.1703

> <Gold.Chemscore.DEInternal>
0.1192

> <Gold.Chemscore.Rot>
1.8263

> <Gold.Chemscore.Internal.Correction>
   9.000000E+99

> <Gold.Chemscore.Hbonds>
donor molecule, donor type, donor heavy atom, donor atom, acceptor molecule, acceptor atom, score
      L1  H     4    23       P1  7957  0.91

> <Gold.Chemscore.Hbond.Weighted>
-3.3328

> <Gold.Chemscore.Metal.Weighted>
-0.0000

> <Gold.Chemscore.Lipo.Weighted>
-7.1121

> <Gold.Chemscore.Internal_Hbond.Weighted>
0.0000

> <Gold.Chemscore.DEClash.Weighted>
0.1703

> <Gold.Chemscore.DEInternal.Weighted>
0.1192

> <Gold.Chemscore.Rot.Weighted>
4.6752

> <Gold.Chemscore.Internal.Correction.Weighted>
   9.000000E+99

> <Gold.Protein.RotatedTorsions>
[ 6907 6896 6895 6894 ] final  -17.61 input  -60.11 | X-H torsion
[ 7974 7965 7964 7962 ] final -110.99 input  175.53 | X-H torsion
[ 8008 7997 7996 7995 ] final   33.27 input   59.86 | X-H torsion
[ 10167 10162 10161 10158 ] final  -25.47 input  -65.29 | X-H torsion
[ 10718 10713 10712 10709 ] final   76.68 input   66.30 | X-H torsion
[ 10763 10752 10751 10750 ] final  156.48 input  -60.55 | X-H torsion
[ 11005 11000 10999 10996 ] final  116.63 input  -57.11 | X-H torsion

> <Gold.Protein.ActiveResidues>
 VAL166  LYS551  ARG553  GLY616  TRP617  ASP618  TYR619  PRO620  LYS621  CYS622 
 ASP623  PHE694  ASN695  SER759  ASP760  ASP761  ALA762  ILE779  LEU786  VAL792 
 PHE793  MET794  SER795  GLU796  ALA797  LYS798  CYS799  TRP800  GLU811  SER814 

> <Gold.Protein.RotatedAtoms>
  151.2907  135.0741  159.9202 H   0  0  0  0  0  0  0  0  0  0  0  0  # atno 6907 bound_to 6896
  152.5317  133.9935  159.7872 H   0  0  0  0  0  0  0  0  0  0  0  0  # atno 6908 bound_to 6896
  151.0204  133.5831  159.2702 H   0  0  0  0  0  0  0  0  0  0  0  0  # atno 6909 bound_to 6896
  145.1615  140.8880  143.3588 H   0  0  0  0  0  0  0  0  0  0  0  0  # atno 7974 bound_to 7965
  155.1359  140.3261  155.4463 H   0  0  0  0  0  0  0  0  0  0  0  0  # atno 8008 bound_to 7997
  156.2620  140.2002  156.6426 H   0  0  0  0  0  0  0  0  0  0  0  0  # atno 8009 bound_to 7997
  154.6578  140.0551  157.0015 H   0  0  0  0  0  0  0  0  0  0  0  0  # atno 8010 bound_to 7997
  140.7286  143.4262  151.0873 H   0  0  0  0  0  0  0  0  0  0  0  0  # atno 10167 bound_to 10162
  157.6682  130.9786  150.1532 H   0  0  0  0  0  0  0  0  0  0  0  0  # atno 10718 bound_to 10713
  154.1849  135.2797  155.3040 H   0  0  0  0  0  0  0  0  0  0  0  0  # atno 10763 bound_to 10752
  154.5973  135.5540  153.7342 H   0  0  0  0  0  0  0  0  0  0  0  0  # atno 10764 bound_to 10752
  153.0128  135.6383  154.1988 H   0  0  0  0  0  0  0  0  0  0  0  0  # atno 10765 bound_to 10752
  139.9047  134.9600  156.7227 H   0  0  0  0  0  0  0  0  0  0  0  0  # atno 11005 bound_to 11000
  145.0326  139.3327  143.6017 LP  0  0  0  0  0  0  0  0  0  0  0  0  # atno 17320 bound_to 7965
  146.3482  139.9670  142.8710 LP  0  0  0  0  0  0  0  0  0  0  0  0  # atno 17321 bound_to 7965
  139.7913  143.8214  152.3152 LP  0  0  0  0  0  0  0  0  0  0  0  0  # atno 17342 bound_to 10162
  139.8199  144.7300  150.9586 LP  0  0  0  0  0  0  0  0  0  0  0  0  # atno 17343 bound_to 10162
  156.2326  130.3683  149.8427 LP  0  0  0  0  0  0  0  0  0  0  0  0  # atno 17370 bound_to 10713
  156.6250  130.8642  151.3483 LP  0  0  0  0  0  0  0  0  0  0  0  0  # atno 17371 bound_to 10713
  140.6987  133.9325  155.8011 LP  0  0  0  0  0  0  0  0  0  0  0  0  # atno 17394 bound_to 11000
  141.0388  134.0652  157.3927 LP  0  0  0  0  0  0  0  0  0  0  0  0  # atno 17395 bound_to 11000

$$$$
