AV-unprocessed.smi:1209|AV-procd|sdf|5072|dock5
  -GOLD-   22720 4113D 1   1.00000     0.00000
 Structure written by MMmdl.
 49 51  0  0  0  0  0  0  0  0  2 V2000
  149.1171  131.7403  153.8898 C   0  0  0  0  0  0  0  0  0  0  0  0
  149.7322  132.8935  154.6059 C   0  0  0  0  0  0  0  0  0  0  0  0
  149.7015  134.2427  154.3976 C   0  0  0  0  0  0  0  0  0  0  0  0
  150.4982  134.7643  155.4542 C   0  0  0  0  0  0  0  0  0  0  0  0
  150.8322  136.2012  155.7553 C   0  0  0  0  0  0  0  0  0  0  0  0
  150.2654  137.1469  154.7862 N   0  0  0  0  0  0  0  0  0  0  0  0
  149.1266  137.8559  155.3638 C   0  0  0  0  0  0  0  0  0  0  0  0
  151.2633  138.1097  154.3169 C   0  0  0  0  0  0  0  0  0  0  0  0
  152.2470  138.6203  155.3946 C   0  0  1  0  0  0  0  0  0  0  0  0
  152.9496  139.7238  154.8650 O   0  0  0  0  0  0  0  0  0  0  0  0
  151.5467  139.0888  156.6860 C   0  0  0  0  0  0  0  0  0  0  0  0
  151.1418  140.4995  156.6365 N   0  0  0  0  0  0  0  0  0  0  0  0
  150.3834  141.1635  155.7221 C   0  0  0  0  0  0  0  0  0  0  0  0
  150.2872  142.4587  156.1322 N   0  3  0  0  0  0  0  0  0  0  0  0
  151.0018  142.6256  157.3206 C   0  0  0  0  0  0  0  0  0  0  0  0
  151.1991  143.7484  158.1159 C   0  0  0  0  0  0  0  0  0  0  0  0
  151.9908  143.5861  159.2754 C   0  0  0  0  0  0  0  0  0  0  0  0
  152.2267  144.7932  160.1671 C   0  0  0  0  0  0  0  0  0  0  0  0
  152.5561  142.3266  159.6038 C   0  0  0  0  0  0  0  0  0  0  0  0
  153.4056  142.1636  160.8530 C   0  0  0  0  0  0  0  0  0  0  0  0
  152.3436  141.1968  158.7818 C   0  0  0  0  0  0  0  0  0  0  0  0
  151.5584  141.3736  157.6456 C   0  0  0  0  0  0  0  0  0  0  0  0
  150.9721  133.8041  156.2308 N   0  0  0  0  0  0  0  0  0  0  0  0
  150.4864  132.6048  155.6976 O   0  0  0  0  0  0  0  0  0  0  0  0
  148.8343  132.0193  152.8744 H   0  0  0  0  0  0  0  0  0  0  0  0
  148.2218  131.3978  154.4088 H   0  0  0  0  0  0  0  0  0  0  0  0
  149.8140  130.9043  153.8279 H   0  0  0  0  0  0  0  0  0  0  0  0
  149.1853  134.7765  153.6140 H   0  0  0  0  0  0  0  0  0  0  0  0
  150.4969  136.4638  156.7601 H   0  0  0  0  0  0  0  0  0  0  0  0
  151.9163  136.2892  155.7812 H   0  0  0  0  0  0  0  0  0  0  0  0
  148.6904  138.5442  154.6391 H   0  0  0  0  0  0  0  0  0  0  0  0
  149.4244  138.4321  156.2410 H   0  0  0  0  0  0  0  0  0  0  0  0
  148.3382  137.1650  155.6632 H   0  0  0  0  0  0  0  0  0  0  0  0
  151.8515  137.6712  153.5089 H   0  0  0  0  0  0  0  0  0  0  0  0
  150.7373  138.9495  153.8626 H   0  0  0  0  0  0  0  0  0  0  0  0
  152.9823  137.8614  155.6536 H   0  0  0  0  0  0  0  0  0  0  0  0
  152.3599  140.4617  154.8258 H   0  0  0  0  0  0  0  0  0  0  0  0
  150.6594  138.4881  156.8919 H   0  0  0  0  0  0  0  0  0  0  0  0
  152.2108  138.9682  157.5433 H   0  0  0  0  0  0  0  0  0  0  0  0
  149.9316  140.7380  154.8375 H   0  0  0  0  0  0  0  0  0  0  0  0
  150.7666  144.7044  157.8597 H   0  0  0  0  0  0  0  0  0  0  0  0
  151.8248  144.6160  161.1649 H   0  0  0  0  0  0  0  0  0  0  0  0
  151.7442  145.6857  159.7672 H   0  0  0  0  0  0  0  0  0  0  0  0
  153.2930  145.0026  160.2541 H   0  0  0  0  0  0  0  0  0  0  0  0
  153.7506  141.1359  160.9704 H   0  0  0  0  0  0  0  0  0  0  0  0
  152.8328  142.4254  161.7427 H   0  0  0  0  0  0  0  0  0  0  0  0
  154.2849  142.8063  160.8046 H   0  0  0  0  0  0  0  0  0  0  0  0
  152.7746  140.2378  159.0300 H   0  0  0  0  0  0  0  0  0  0  0  0
  149.7719  143.1740  155.6352 H   0  0  0  0  0  0  0  0  0  0  0  0
  1  2  1  0  0  0  0
  1 25  1  0  0  0  0
  1 26  1  0  0  0  0
  1 27  1  0  0  0  0
  2 24  1  0  0  0  0
  2  3  2  0  0  0  0
  3  4  1  0  0  0  0
  3 28  1  0  0  0  0
  4  5  1  0  0  0  0
  4 23  2  0  0  0  0
  5  6  1  0  0  0  0
  5 29  1  0  0  0  0
  5 30  1  0  0  0  0
  6  7  1  0  0  0  0
  6  8  1  0  0  0  0
  7 31  1  0  0  0  0
  7 32  1  0  0  0  0
  7 33  1  0  0  0  0
  8  9  1  0  0  0  0
  8 34  1  0  0  0  0
  8 35  1  0  0  0  0
  9 10  1  0  0  0  0
  9 11  1  0  0  0  0
  9 36  1  0  0  0  0
 10 37  1  0  0  0  0
 11 12  1  0  0  0  0
 11 38  1  0  0  0  0
 11 39  1  0  0  0  0
 12 22  1  0  0  0  0
 12 13  1  0  0  0  0
 13 14  2  0  0  0  0
 13 40  1  0  0  0  0
 14 15  1  0  0  0  0
 14 49  1  0  0  0  0
 15 22  2  0  0  0  0
 15 16  1  0  0  0  0
 16 17  2  0  0  0  0
 16 41  1  0  0  0  0
 17 18  1  0  0  0  0
 17 19  1  0  0  0  0
 18 42  1  0  0  0  0
 18 43  1  0  0  0  0
 18 44  1  0  0  0  0
 19 20  1  0  0  0  0
 19 21  2  0  0  0  0
 20 45  1  0  0  0  0
 20 46  1  0  0  0  0
 20 47  1  0  0  0  0
 21 22  1  0  0  0  0
 21 48  1  0  0  0  0
 23 24  1  0  0  0  0
M  CHG  1  14   1
M  END
> <s_m_source_file>
AV-unprocessed.smi

> <i_m_source_file_index>
1209

> <i_lp_mmshare_version>
43012

> <i_f3d_flags>
0

> <s_epik_input>
W0NIM11jMVtjSF1jKG5vMSlbQ0gyXU4oW0NIM10pW0NIMl1bQ0BIXShbT0hdKVtDSDJdbihbY0hdbjIpYyhjMjMpW2NIXWMoW0NIM10pYyhbY0hdMylbQ0gzXQ==

> <s_epik_cmdline>
J2VwaWtfcHl0aG9uJywgJy1waCcsICc3LjAnLCAnLXRuJywgJzgnLCAnLW1hJywgJzIwMCcsICctbWV0YWxfYmluZGluZycsICctaW1hZScsICc8aW5maWxlLm1hZT4nLCAnLW9tYWUnLCAnPG91dGZpbGUubWFlPic=

> <r_epik_Ionization_Penalty>
1.23608

> <r_epik_Ionization_Penalty_Charging>
1.21624

> <r_epik_Ionization_Penalty_Neutral>
0.0198409

> <r_epik_State_Penalty>
1.27749

> <r_epik_Charging_Adjusted_Penalty>
2.49372

> <i_epik_Tot_Q>
1

> <i_epik_Tot_abs_Q>
1

> <r_epik_Metal_State_Penalty>
1.34809

> <b_epik_Metal_Only>
0

> <s_lp_Force_Field>
OPLS_2005

> <r_lp_Energy>
23.0789

> <b_lp_Chiralities_Consistent>
1

> <s_lp_Variant>
AV-unprocessed.smi:1209-4

> <Gold.Version>
5.8.1

> <Gold.Id.Protein>
6NUR|6NUR_protein|mol2

> <Gold.PLP.Fitness>
58.5175

> <Gold.PLP.PLP>
-52.1486

> <Gold.PLP.part.hbond>
-3.0000

> <Gold.PLP.part.metal>
0.0000

> <Gold.PLP.part.buried>
-7.3545

> <Gold.PLP.part.nonpolar>
-43.1282

> <Gold.PLP.part.repulsive>
0.2969

> <Gold.PLP.ligand.clash>
0.0000

> <Gold.PLP.ligand.torsion>
1.3371

> <Gold.PLP.Chemscore.Hbond>
2.9840

> <Gold.PLP.Chemscore.CHOScore>
0.0000

> <Gold.PLP.Chemscore.Metal>
0.0000

> <Gold.Chemscore.Hbonds>
donor molecule, donor type, donor heavy atom, donor atom, acceptor molecule, acceptor atom, score
      L1  H    14    49       P1  8028  1.98
      P1  H  7997  8010       L1    10  1.00

> <Gold.PLP.Chemscore.Internal.Correction>
0.0910

> <Gold.Rescore>
     Score         DG    S(hbond)    S(metal)    S(lipo)     H(rot)  DE(clash)    DE(int)     intcor
     19.17     -20.60       1.79        0.00     133.34       2.53       0.17       1.26       ----

> <Gold.Chemscore.Fitness>
19.1742

> <Gold.Chemscore.DG>
-20.6029

> <Gold.Chemscore.ZeroCoef>
-5.4800

> <Gold.Chemscore.Hbond>
1.7932

> <Gold.Chemscore.Metal>
0.0000

> <Gold.Chemscore.Lipo>
133.3447

> <Gold.Chemscore.Internal_Hbond>
0.0000

> <Gold.Chemscore.DEClash>
0.1701

> <Gold.Chemscore.DEInternal>
1.2586

> <Gold.Chemscore.Rot>
2.5265

> <Gold.Chemscore.Internal.Correction>
   9.000000E+99

> <Gold.Chemscore.Hbonds>
donor molecule, donor type, donor heavy atom, donor atom, acceptor molecule, acceptor atom, score
      L1  H    14    49       P1  8028  0.94
      P1  H  7997  8010       L1    10  0.60

> <Gold.Chemscore.Hbond.Weighted>
-5.9893

> <Gold.Chemscore.Metal.Weighted>
-0.0000

> <Gold.Chemscore.Lipo.Weighted>
-15.6013

> <Gold.Chemscore.Internal_Hbond.Weighted>
0.0000

> <Gold.Chemscore.DEClash.Weighted>
0.1701

> <Gold.Chemscore.DEInternal.Weighted>
1.2586

> <Gold.Chemscore.Rot.Weighted>
6.4677

> <Gold.Chemscore.Internal.Correction.Weighted>
   9.000000E+99

> <Gold.Protein.RotatedTorsions>
[ 6907 6896 6895 6894 ] final  -17.53 input  -60.11 | X-H torsion
[ 7974 7965 7964 7962 ] final  125.44 input  175.53 | X-H torsion
[ 8008 7997 7996 7995 ] final  104.92 input   59.86 | X-H torsion
[ 10167 10162 10161 10158 ] final  127.61 input  -65.29 | X-H torsion
[ 10718 10713 10712 10709 ] final -177.09 input   66.30 | X-H torsion
[ 10763 10752 10751 10750 ] final  -64.33 input  -60.55 | X-H torsion
[ 11005 11000 10999 10996 ] final  -86.53 input  -57.11 | X-H torsion

> <Gold.Protein.ActiveResidues>
 VAL166  LYS551  ARG553  GLY616  TRP617  ASP618  TYR619  PRO620  LYS621  CYS622 
 ASP623  PHE694  ASN695  SER759  ASP760  ASP761  ALA762  ILE779  LEU786  VAL792 
 PHE793  MET794  SER795  GLU796  ALA797  LYS798  CYS799  TRP800  GLU811  SER814 

> <Gold.Protein.RotatedAtoms>
  151.2919  135.0744  159.9207 H   0  0  0  0  0  0  0  0  0  0  0  0  # atno 6907 bound_to 6896
  152.5314  133.9923  159.7866 H   0  0  0  0  0  0  0  0  0  0  0  0  # atno 6908 bound_to 6896
  151.0194  133.5839  159.2703 H   0  0  0  0  0  0  0  0  0  0  0  0  # atno 6909 bound_to 6896
  145.0729  139.3716  143.4948 H   0  0  0  0  0  0  0  0  0  0  0  0  # atno 7974 bound_to 7965
  156.1614  140.3139  155.8814 H   0  0  0  0  0  0  0  0  0  0  0  0  # atno 8008 bound_to 7997
  155.3774  140.0485  157.3061 H   0  0  0  0  0  0  0  0  0  0  0  0  # atno 8009 bound_to 7997
  154.5150  140.2178  155.9094 H   0  0  0  0  0  0  0  0  0  0  0  0  # atno 8010 bound_to 7997
  139.5569  144.6855  151.4156 H   0  0  0  0  0  0  0  0  0  0  0  0  # atno 10167 bound_to 10162
  156.8244  130.9631  151.3110 H   0  0  0  0  0  0  0  0  0  0  0  0  # atno 10718 bound_to 10713
  154.3285  135.6181  153.5540 H   0  0  0  0  0  0  0  0  0  0  0  0  # atno 10763 bound_to 10752
  152.9813  135.5741  154.4988 H   0  0  0  0  0  0  0  0  0  0  0  0  # atno 10764 bound_to 10752
  154.4670  135.2858  155.1647 H   0  0  0  0  0  0  0  0  0  0  0  0  # atno 10765 bound_to 10752
  141.1629  133.7460  156.9175 H   0  0  0  0  0  0  0  0  0  0  0  0  # atno 11005 bound_to 11000
  146.3529  140.0483  142.8638 LP  0  0  0  0  0  0  0  0  0  0  0  0  # atno 17320 bound_to 7965
  145.1270  140.9496  143.4566 LP  0  0  0  0  0  0  0  0  0  0  0  0  # atno 17321 bound_to 7965
  140.6843  143.8009  150.7165 LP  0  0  0  0  0  0  0  0  0  0  0  0  # atno 17342 bound_to 10162
  140.1472  143.4389  152.2155 LP  0  0  0  0  0  0  0  0  0  0  0  0  # atno 17343 bound_to 10162
  157.6440  130.8829  149.9502 LP  0  0  0  0  0  0  0  0  0  0  0  0  # atno 17370 bound_to 10713
  156.0970  130.3658  150.0288 LP  0  0  0  0  0  0  0  0  0  0  0  0  # atno 17371 bound_to 10713
  140.1474  134.9253  157.2548 LP  0  0  0  0  0  0  0  0  0  0  0  0  # atno 17394 bound_to 11000
  140.2763  134.3401  155.7357 LP  0  0  0  0  0  0  0  0  0  0  0  0  # atno 17395 bound_to 11000

$$$$
