AV-unprocessed.smi:1201|AV-procd|sdf|5027|dock9
  -GOLD-   22720 4 53D 1   1.00000     0.00000
 Structure written by MMmdl.
 31 32  0  0  0  0  0  0  0  0  1 V2000
  146.3845  138.7404  152.2308 C   0  0  0  0  0  0  0  0  0  0  0  0
  147.4124  138.3882  153.1502 O   0  0  0  0  0  0  0  0  0  0  0  0
  148.0589  139.4002  153.8297 C   0  0  0  0  0  0  0  0  0  0  0  0
  149.2891  139.1142  154.4540 C   0  0  0  0  0  0  0  0  0  0  0  0
  149.9556  140.1405  155.1505 C   0  0  0  0  0  0  0  0  0  0  0  0
  149.3711  141.4292  155.1942 C   0  0  0  0  0  0  0  0  0  0  0  0
  149.9284  142.5467  155.8741 N   0  0  0  0  0  0  0  0  0  0  0  0
  150.9326  142.5783  156.7671 C   0  0  0  0  0  0  0  0  0  0  0  0
  151.5818  141.6047  157.1482 O   0  0  0  0  0  0  0  0  0  0  0  0
  151.1599  143.8288  157.1921 N   0  0  0  0  0  0  0  0  0  0  0  0
  152.1742  144.2073  158.1671 C   0  0  0  0  0  0  0  0  0  0  0  0
  151.6796  145.1046  159.2853 C   0  0  0  0  0  0  0  0  0  0  0  0
  151.9442  144.7403  160.7274 C   0  0  0  0  0  0  0  0  0  0  0  0
  150.5380  144.6839  160.1822 C   0  0  0  0  0  0  0  0  0  0  0  0
  148.1320  141.6082  154.5451 C   0  0  0  0  0  0  0  0  0  0  0  0
  147.4877  140.6291  153.8763 N   0  0  0  0  0  0  0  0  0  0  0  0
  145.9818  137.8356  151.7759 H   0  0  0  0  0  0  0  0  0  0  0  0
  146.7662  139.3721  151.4274 H   0  0  0  0  0  0  0  0  0  0  0  0
  145.5618  139.2537  152.7306 H   0  0  0  0  0  0  0  0  0  0  0  0
  149.7131  138.1222  154.4039 H   0  0  0  0  0  0  0  0  0  0  0  0
  150.8877  139.9111  155.6418 H   0  0  0  0  0  0  0  0  0  0  0  0
  149.5402  143.4423  155.6171 H   0  0  0  0  0  0  0  0  0  0  0  0
  150.5845  144.5711  156.8218 H   0  0  0  0  0  0  0  0  0  0  0  0
  152.6408  143.3153  158.5892 H   0  0  0  0  0  0  0  0  0  0  0  0
  152.9615  144.7377  157.6316 H   0  0  0  0  0  0  0  0  0  0  0  0
  151.7438  146.1663  159.0542 H   0  0  0  0  0  0  0  0  0  0  0  0
  152.4402  143.7931  160.9303 H   0  0  0  0  0  0  0  0  0  0  0  0
  152.1866  145.5497  161.4130 H   0  0  0  0  0  0  0  0  0  0  0  0
  149.8417  145.4564  160.5021 H   0  0  0  0  0  0  0  0  0  0  0  0
  150.1006  143.7005  160.0211 H   0  0  0  0  0  0  0  0  0  0  0  0
  147.6403  142.5701  154.5592 H   0  0  0  0  0  0  0  0  0  0  0  0
  1  2  1  0  0  0  0
  1 17  1  0  0  0  0
  1 18  1  0  0  0  0
  1 19  1  0  0  0  0
  2  3  1  0  0  0  0
  3 16  1  0  0  0  0
  3  4  2  0  0  0  0
  4  5  1  0  0  0  0
  4 20  1  0  0  0  0
  5  6  2  0  0  0  0
  5 21  1  0  0  0  0
  6  7  1  0  0  0  0
  6 15  1  0  0  0  0
  7  8  1  0  0  0  0
  7 22  1  0  0  0  0
  8  9  2  0  0  0  0
  8 10  1  0  0  0  0
 10 11  1  0  0  0  0
 10 23  1  0  0  0  0
 11 12  1  0  0  0  0
 11 24  1  0  0  0  0
 11 25  1  0  0  0  0
 12 14  1  0  0  0  0
 12 13  1  0  0  0  0
 12 26  1  0  0  0  0
 13 14  1  0  0  0  0
 13 27  1  0  0  0  0
 13 28  1  0  0  0  0
 14 29  1  0  0  0  0
 14 30  1  0  0  0  0
 15 16  2  0  0  0  0
 15 31  1  0  0  0  0
M  END
> <s_m_source_file>
AV-unprocessed.smi

> <i_m_source_file_index>
1201

> <i_lp_mmshare_version>
43012

> <i_f3d_flags>
0

> <s_epik_input>
W0NIM11PYzFbY0hdW2NIXWMoW2NIXW4xKVtOSF1DKD1PKVtOSF1bQ0gyXVtDSF0yW0NIMl1bQ0gyXTI=

> <s_epik_cmdline>
J2VwaWtfcHl0aG9uJywgJy1waCcsICc3LjAnLCAnLXRuJywgJzgnLCAnLW1hJywgJzIwMCcsICctbWV0YWxfYmluZGluZycsICctaW1hZScsICc8aW5maWxlLm1hZT4nLCAnLW9tYWUnLCAnPG91dGZpbGUubWFlPic=

> <r_lp_tautomer_probability>
1

> <r_epik_Ionization_Penalty>
9.92182e-05

> <r_epik_Ionization_Penalty_Charging>
0

> <r_epik_Ionization_Penalty_Neutral>
9.92182e-05

> <r_epik_State_Penalty>
-0

> <r_epik_Charging_Adjusted_Penalty>
0

> <i_epik_Tot_Q>
0

> <i_epik_Tot_abs_Q>
0

> <r_epik_Metal_State_Penalty>
-0

> <b_epik_Metal_Only>
0

> <s_lp_Force_Field>
OPLS_2005

> <r_lp_Energy>
14.9196

> <b_lp_Chiralities_Consistent>
1

> <s_lp_Variant>
AV-unprocessed.smi:1201-1

> <Gold.Version>
5.8.1

> <Gold.Id.Protein>
6NUR|6NUR_protein|mol2

> <Gold.PLP.Fitness>
41.6628

> <Gold.PLP.PLP>
-35.8712

> <Gold.PLP.part.hbond>
-1.7866

> <Gold.PLP.part.metal>
0.0000

> <Gold.PLP.part.buried>
-4.1698

> <Gold.PLP.part.nonpolar>
-32.7623

> <Gold.PLP.part.repulsive>
1.8719

> <Gold.PLP.ligand.clash>
0.0000

> <Gold.PLP.ligand.torsion>
0.6837

> <Gold.PLP.Chemscore.Hbond>
1.5178

> <Gold.PLP.Chemscore.CHOScore>
0.6890

> <Gold.PLP.Chemscore.Metal>
0.0000

> <Gold.Chemscore.Hbonds>
donor molecule, donor type, donor heavy atom, donor atom, acceptor molecule, acceptor atom, score
      L1  H     7    22       P1  8028  0.76
      L1  H    10    23       P1  8028  0.77
      L1  C    15    31       P1  8028  0.51

> <Gold.PLP.Chemscore.Internal.Correction>
0.5387

> <Gold.Rescore>
     Score         DG    S(hbond)    S(metal)    S(lipo)     H(rot)  DE(clash)    DE(int)     intcor
     15.15     -16.81       1.84        0.00      75.88       1.45       0.07       1.59       ----

> <Gold.Chemscore.Fitness>
15.1489

> <Gold.Chemscore.DG>
-16.8056

> <Gold.Chemscore.ZeroCoef>
-5.4800

> <Gold.Chemscore.Hbond>
1.8439

> <Gold.Chemscore.Metal>
0.0000

> <Gold.Chemscore.Lipo>
75.8807

> <Gold.Chemscore.Internal_Hbond>
0.0000

> <Gold.Chemscore.DEClash>
0.0712

> <Gold.Chemscore.DEInternal>
1.5855

> <Gold.Chemscore.Rot>
1.4497

> <Gold.Chemscore.Internal.Correction>
   9.000000E+99

> <Gold.Chemscore.Hbonds>
donor molecule, donor type, donor heavy atom, donor atom, acceptor molecule, acceptor atom, score
      L1  H     7    22       P1  8028  0.75
      L1  H    10    23       P1  8028  0.64

> <Gold.Chemscore.Hbond.Weighted>
-6.1587

> <Gold.Chemscore.Metal.Weighted>
-0.0000

> <Gold.Chemscore.Lipo.Weighted>
-8.8780

> <Gold.Chemscore.Internal_Hbond.Weighted>
0.0000

> <Gold.Chemscore.DEClash.Weighted>
0.0712

> <Gold.Chemscore.DEInternal.Weighted>
1.5855

> <Gold.Chemscore.Rot.Weighted>
3.7111

> <Gold.Chemscore.Internal.Correction.Weighted>
   9.000000E+99

> <Gold.Protein.RotatedTorsions>
[ 6907 6896 6895 6894 ] final  158.64 input  -60.11 | X-H torsion
[ 7974 7965 7964 7962 ] final  113.08 input  175.53 | X-H torsion
[ 8008 7997 7996 7995 ] final -149.77 input   59.86 | X-H torsion
[ 10167 10162 10161 10158 ] final   92.34 input  -65.29 | X-H torsion
[ 10718 10713 10712 10709 ] final  -70.90 input   66.30 | X-H torsion
[ 10763 10752 10751 10750 ] final  -80.29 input  -60.55 | X-H torsion
[ 11005 11000 10999 10996 ] final    1.23 input  -57.11 | X-H torsion

> <Gold.Protein.ActiveResidues>
 VAL166  LYS551  ARG553  GLY616  TRP617  ASP618  TYR619  PRO620  LYS621  CYS622 
 ASP623  PHE694  ASN695  SER759  ASP760  ASP761  ALA762  ILE779  LEU786  VAL792 
 PHE793  MET794  SER795  GLU796  ALA797  LYS798  CYS799  TRP800  GLU811  SER814 

> <Gold.Protein.RotatedAtoms>
  151.9974  133.3813  159.4167 H   0  0  0  0  0  0  0  0  0  0  0  0  # atno 6907 bound_to 6896
  150.6914  134.3871  159.5069 H   0  0  0  0  0  0  0  0  0  0  0  0  # atno 6908 bound_to 6896
  152.1613  134.8909  160.0592 H   0  0  0  0  0  0  0  0  0  0  0  0  # atno 6909 bound_to 6896
  145.2215  139.2860  143.4216 H   0  0  0  0  0  0  0  0  0  0  0  0  # atno 7974 bound_to 7965
  155.6130  140.0673  157.2700 H   0  0  0  0  0  0  0  0  0  0  0  0  # atno 8008 bound_to 7997
  154.4248  140.1798  156.1340 H   0  0  0  0  0  0  0  0  0  0  0  0  # atno 8009 bound_to 7997
  156.0070  140.3330  155.6905 H   0  0  0  0  0  0  0  0  0  0  0  0  # atno 8010 bound_to 7997
  139.8287  144.6697  150.9427 H   0  0  0  0  0  0  0  0  0  0  0  0  # atno 10167 bound_to 10162
  156.0387  130.4340  150.2364 H   0  0  0  0  0  0  0  0  0  0  0  0  # atno 10718 bound_to 10713
  154.5493  135.5666  153.6908 H   0  0  0  0  0  0  0  0  0  0  0  0  # atno 10763 bound_to 10752
  152.9985  135.6247  154.2396 H   0  0  0  0  0  0  0  0  0  0  0  0  # atno 10764 bound_to 10752
  154.2330  135.2865  155.2862 H   0  0  0  0  0  0  0  0  0  0  0  0  # atno 10765 bound_to 10752
  140.6177  133.9690  155.8209 H   0  0  0  0  0  0  0  0  0  0  0  0  # atno 11005 bound_to 11000
  146.3375  140.2522  142.8599 LP  0  0  0  0  0  0  0  0  0  0  0  0  # atno 17320 bound_to 7965
  144.9761  140.8415  143.5425 LP  0  0  0  0  0  0  0  0  0  0  0  0  # atno 17321 bound_to 7965
  140.7808  143.4022  151.1130 LP  0  0  0  0  0  0  0  0  0  0  0  0  # atno 17342 bound_to 10162
  139.7677  143.8540  152.3114 LP  0  0  0  0  0  0  0  0  0  0  0  0  # atno 17343 bound_to 10162
  157.0462  131.0049  151.3268 LP  0  0  0  0  0  0  0  0  0  0  0  0  # atno 17370 bound_to 10713
  157.5174  130.7976  149.7771 LP  0  0  0  0  0  0  0  0  0  0  0  0  # atno 17371 bound_to 10713
  141.0764  134.0128  157.3451 LP  0  0  0  0  0  0  0  0  0  0  0  0  # atno 17394 bound_to 11000
  139.9166  135.0197  156.7904 LP  0  0  0  0  0  0  0  0  0  0  0  0  # atno 17395 bound_to 11000

$$$$
