#       Name:                AV-unprocessed.smi:737
#       Creating user name   scv26
#       Creation time:       Fri Mar 27 00:53:08 2020


#       File generated by GOLD software.
#

@<TRIPOS>MOLECULE
AV-unprocessed.smi:737
    52    54     1
SMALL
NO_CHARGES


@<TRIPOS>ATOM
      1 ****        -2.1694   0.4542  -3.2948 C.3            1 S1                 0.0000
      2 ****        -2.2212   0.4970  -1.8424 N.pl3          1 S1                 0.0000
      3 ****        -3.4512   0.5284  -1.1708 C.ar           1 S1                 0.0000
      4 ****        -4.6052   0.5501  -1.8772 N.ar           1 S1                 0.0000
      5 ****        -5.7573   0.5747  -1.1946 C.ar           1 S1                 0.0000
      6 ****        -5.9540   0.5794   0.1331 N.ar           1 S1                 0.0000
      7 ****        -4.8171   0.5598   0.8419 C.ar           1 S1                 0.0000
      8 ****        -4.7209   0.5577   2.2230 N.2            1 S1                 0.0000
      9 ****        -3.4026   0.5364   2.4026 C.2            1 S1                 0.0000
     10 ****        -2.6252   0.5231   1.3022 N.pl3          1 S1                 0.0000
     11 ****        -1.1729   0.5016   1.2725 C.3            1 S1                 0.0000
     12 ****        -0.6004  -0.9290   1.3441 C.3            1 S1                 0.0000
     13 ****        -1.1178  -1.7611   0.3245 O.3            1 S1                 0.0000
     14 ****         0.9342  -0.9762   1.2922 C.3            1 S1                 0.0000
     15 ****         1.4003  -0.2001   0.1968 O.3            1 S1                 0.0000
     16 ****         2.7659  -0.1560   0.0910 C.ar           1 S1                 0.0000
     17 ****         3.4744   0.9309   0.6537 C.ar           1 S1                 0.0000
     18 ****         2.7333   2.0425   1.3727 C.3            1 S1                 0.0000
     19 ****         4.8794   0.9825   0.5473 C.ar           1 S1                 0.0000
     20 ****         5.5767  -0.0373  -0.1263 C.ar           1 S1                 0.0000
     21 ****         4.8712  -1.1098  -0.7028 C.ar           1 S1                 0.0000
     22 ****         3.4659  -1.1716  -0.6037 C.ar           1 S1                 0.0000
     23 ****         2.7254  -2.3274  -1.2515 C.3            1 S1                 0.0000
     24 ****        -3.5244   0.5355   0.2370 C.ar           1 S1                 0.0000
     25 ****        -1.1321   0.4232  -3.6283 H              1 S1                 0.0000
     26 ****        -2.6395   1.3395  -3.7243 H              1 S1                 0.0000
     27 ****        -2.6766  -0.4331  -3.6749 H              1 S1                 0.0000
     28 ****        -1.3596   0.4407  -1.3182 H              1 S1                 0.0000
     29 ****        -6.6535   0.5927  -1.7971 H              1 S1                 0.0000
     30 ****        -2.9750   0.5302   3.3947 H              1 S1                 0.0000
     31 ****        -0.8354   1.0184   0.3750 H              1 S1                 0.0000
     32 ****        -0.8036   1.0897   2.1136 H              1 S1                 0.0000
     33 ****        -0.9164  -1.3781   2.2865 H              1 S1                 0.0000
     34 ****        -2.0606  -1.7667   0.3902 H              1 S1                 0.0000
     35 ****         1.3371  -0.5636   2.2184 H              1 S1                 0.0000
     36 ****         1.2855  -2.0069   1.2267 H              1 S1                 0.0000
     37 ****         3.3665   2.9209   1.5003 H              1 S1                 0.0000
     38 ****         2.4132   1.7067   2.3589 H              1 S1                 0.0000
     39 ****         1.8506   2.3453   0.8086 H              1 S1                 0.0000
     40 ****         5.4282   1.8061   0.9804 H              1 S1                 0.0000
     41 ****         6.6529   0.0063  -0.2065 H              1 S1                 0.0000
     42 ****         5.4132  -1.8840  -1.2259 H              1 S1                 0.0000
     43 ****         3.2826  -2.7169  -2.1039 H              1 S1                 0.0000
     44 ****         1.7442  -2.0163  -1.6111 H              1 S1                 0.0000
     45 ****         2.5893  -3.1375  -0.5354 H              1 S1                 0.0000
     46 ****        -4.5980   0.5478  -2.8771 LP             1 S1                 0.0000
     47 ****        -6.8615   0.5959   0.5529 LP             1 S1                 0.0000
     48 ****        -5.4508   0.5691   2.9065 LP             1 S1                 0.0000
     49 ****        -0.7665  -2.6906   0.4373 LP             1 S1                 0.0000
     50 ****        -0.8443  -1.4078  -0.5701 LP             1 S1                 0.0000
     51 ****         1.0623   0.7346   0.3064 LP             1 S1                 0.0000
     52 ****         1.0314  -0.5913  -0.6463 LP             1 S1                 0.0000
@<TRIPOS>BOND
    1    1    2 1     
    2    1   25 1     
    3    1   26 1     
    4    1   27 1     
    5    2    3 1     
    6    2   28 1     
    7    3   24 ar    
    8    3    4 ar    
    9    4    5 ar    
   10    5    6 ar    
   11    5   29 1     
   12    6    7 ar    
   13    7   24 ar    
   14    7    8 1     
   15    8    9 2     
   16    9   10 1     
   17    9   30 1     
   18   10   11 1     
   19   10   24 1     
   20   11   12 1     
   21   11   31 1     
   22   11   32 1     
   23   12   13 1     
   24   12   14 1     
   25   12   33 1     
   26   13   34 1     
   27   14   15 1     
   28   14   35 1     
   29   14   36 1     
   30   15   16 1     
   31   16   22 ar    
   32   16   17 ar    
   33   17   18 1     
   34   17   19 ar    
   35   18   37 1     
   36   18   38 1     
   37   18   39 1     
   38   19   20 ar    
   39   19   40 1     
   40   20   21 ar    
   41   20   41 1     
   42   21   22 ar    
   43   21   42 1     
   44   22   23 1     
   45   23   43 1     
   46   23   44 1     
   47   23   45 1     
   48    4   46 1     
   49    6   47 1     
   50    8   48 1     
   51   13   49 1     
   52   13   50 1     
   53   15   51 1     
   54   15   52 1     
@<TRIPOS>SUBSTRUCTURE
      1 S1             1
@<TRIPOS>SET
LONE_PAIRS      STATIC     ATOMS    <user>   **** ""
7 46 47 48 49 50 51 52
DONOR_HYDROGENS      STATIC     ATOMS    <user>   **** ""
2 28 34
ATOM$BLUE        STATIC     ATOMS    COLORGROUP SYSTEM
7 46 47 48 49 50 51 52
ATOM$RED        STATIC     ATOMS    COLORGROUP SYSTEM
2 28 34
