AV-unprocessed.smi:1141|AV-procd|sdf|4872|dock7
  -GOLD-   22720 3443D 1   1.00000     0.00000
 Structure written by MMmdl.
 45 46  0  0  0  0  0  0  0  0  1 V2000
  148.8774  126.2395  150.4063 C   0  0  0  0  0  0  0  0  0  0  0  0
  147.7418  126.9958  150.7866 O   0  0  0  0  0  0  0  0  0  0  0  0
  148.0157  127.8808  151.8624 C   0  0  0  0  0  0  0  0  0  0  0  0
  146.9174  128.9412  151.9399 C   0  0  0  0  0  0  0  0  0  0  0  0
  145.7422  128.5883  152.0300 O   0  0  0  0  0  0  0  0  0  0  0  0
  147.3270  130.2205  151.8623 N   0  0  0  0  0  0  0  0  0  0  0  0
  146.5383  131.4059  151.8713 C   0  0  0  0  0  0  0  0  0  0  0  0
  145.2994  131.4980  151.1932 C   0  0  0  0  0  0  0  0  0  0  0  0
  144.5513  132.6852  151.2854 C   0  0  0  0  0  0  0  0  0  0  0  0
  145.0560  133.7442  152.0615 C   0  0  0  0  0  0  0  0  0  0  0  0
  144.3216  134.9088  152.1519 O   0  0  0  0  0  0  0  0  0  0  0  0
  144.8361  135.9701  152.9491 C   0  0  0  0  0  0  0  0  0  0  0  0
  146.2332  133.6596  152.7258 N   0  0  0  0  0  0  0  0  0  0  0  0
  146.9623  132.5211  152.6420 C   0  0  0  0  0  0  0  0  0  0  0  0
  148.1864  132.4880  153.3393 N   0  0  0  0  0  0  0  0  0  0  0  0
  148.7711  133.8101  153.5668 C   0  0  0  0  0  0  0  0  0  0  0  0
  150.2098  133.6842  154.1029 C   0  0  0  0  0  0  0  0  0  0  0  0
  150.2012  132.8316  155.2989 N   0  0  0  0  0  0  0  0  0  0  0  0
  150.4771  133.3008  156.5391 C   0  0  0  0  0  0  0  0  0  0  0  0
  150.8973  134.7623  156.7099 C   0  0  0  0  0  0  0  0  0  0  0  0
  150.4074  132.5974  157.5469 O   0  0  0  0  0  0  0  0  0  0  0  0
  149.7285  131.4764  154.9829 C   0  0  0  0  0  0  0  0  0  0  0  0
  148.2786  131.5625  154.4707 C   0  0  0  0  0  0  0  0  0  0  0  0
  148.6175  125.5798  149.5785 H   0  0  0  0  0  0  0  0  0  0  0  0
  149.2329  125.6207  151.2314 H   0  0  0  0  0  0  0  0  0  0  0  0
  149.6911  126.8878  150.0785 H   0  0  0  0  0  0  0  0  0  0  0  0
  148.0490  127.3355  152.8070 H   0  0  0  0  0  0  0  0  0  0  0  0
  148.9843  128.3635  151.7189 H   0  0  0  0  0  0  0  0  0  0  0  0
  148.3134  130.3575  151.6930 H   0  0  0  0  0  0  0  0  0  0  0  0
  144.9012  130.6742  150.6212 H   0  0  0  0  0  0  0  0  0  0  0  0
  143.6035  132.7780  150.7761 H   0  0  0  0  0  0  0  0  0  0  0  0
  144.1457  136.8129  152.9176 H   0  0  0  0  0  0  0  0  0  0  0  0
  145.8000  136.3180  152.5745 H   0  0  0  0  0  0  0  0  0  0  0  0
  144.9447  135.6701  153.9924 H   0  0  0  0  0  0  0  0  0  0  0  0
  148.7726  134.3972  152.6485 H   0  0  0  0  0  0  0  0  0  0  0  0
  148.1524  134.3508  154.2845 H   0  0  0  0  0  0  0  0  0  0  0  0
  150.8535  133.2339  153.3456 H   0  0  0  0  0  0  0  0  0  0  0  0
  150.6199  134.6771  154.2913 H   0  0  0  0  0  0  0  0  0  0  0  0
  151.8061  134.9718  156.1449 H   0  0  0  0  0  0  0  0  0  0  0  0
  151.0999  134.9838  157.7585 H   0  0  0  0  0  0  0  0  0  0  0  0
  150.1066  135.4341  156.3749 H   0  0  0  0  0  0  0  0  0  0  0  0
  150.3700  131.0484  154.2111 H   0  0  0  0  0  0  0  0  0  0  0  0
  149.7806  130.7850  155.8223 H   0  0  0  0  0  0  0  0  0  0  0  0
  147.6243  131.8995  155.2762 H   0  0  0  0  0  0  0  0  0  0  0  0
  147.9333  130.5743  154.1646 H   0  0  0  0  0  0  0  0  0  0  0  0
  1  2  1  0  0  0  0
  1 24  1  0  0  0  0
  1 25  1  0  0  0  0
  1 26  1  0  0  0  0
  2  3  1  0  0  0  0
  3  4  1  0  0  0  0
  3 27  1  0  0  0  0
  3 28  1  0  0  0  0
  4  5  2  0  0  0  0
  4  6  1  0  0  0  0
  6  7  1  0  0  0  0
  6 29  1  0  0  0  0
  7 14  1  0  0  0  0
  7  8  2  0  0  0  0
  8  9  1  0  0  0  0
  8 30  1  0  0  0  0
  9 10  2  0  0  0  0
  9 31  1  0  0  0  0
 10 11  1  0  0  0  0
 10 13  1  0  0  0  0
 11 12  1  0  0  0  0
 12 32  1  0  0  0  0
 12 33  1  0  0  0  0
 12 34  1  0  0  0  0
 13 14  2  0  0  0  0
 14 15  1  0  0  0  0
 15 23  1  0  0  0  0
 15 16  1  0  0  0  0
 16 17  1  0  0  0  0
 16 35  1  0  0  0  0
 16 36  1  0  0  0  0
 17 18  1  0  0  0  0
 17 37  1  0  0  0  0
 17 38  1  0  0  0  0
 18 19  1  0  0  0  0
 18 22  1  0  0  0  0
 19 20  1  0  0  0  0
 19 21  2  0  0  0  0
 20 39  1  0  0  0  0
 20 40  1  0  0  0  0
 20 41  1  0  0  0  0
 22 23  1  0  0  0  0
 22 42  1  0  0  0  0
 22 43  1  0  0  0  0
 23 44  1  0  0  0  0
 23 45  1  0  0  0  0
M  END
> <s_m_source_file>
AV-unprocessed.smi

> <i_m_source_file_index>
1141

> <i_lp_mmshare_version>
43012

> <i_f3d_flags>
0

> <s_epik_input>
W0NIM11PW0NIMl1DKD1PKVtOSF1jMVtjSF1bY0hdYyhPW0NIM10pbmMxTjJbQ0gyXVtDSDJdTihDKD1PKVtDSDNdKVtDSDJdW0NIMl0y

> <s_epik_cmdline>
J2VwaWtfcHl0aG9uJywgJy1waCcsICc3LjAnLCAnLXRuJywgJzgnLCAnLW1hJywgJzIwMCcsICctbWV0YWxfYmluZGluZycsICctaW1hZScsICc8aW5maWxlLm1hZT4nLCAnLW9tYWUnLCAnPG91dGZpbGUubWFlPic=

> <r_lp_tautomer_probability>
1

> <r_epik_Ionization_Penalty>
0.000141552

> <r_epik_Ionization_Penalty_Charging>
0

> <r_epik_Ionization_Penalty_Neutral>
0.000141552

> <r_epik_State_Penalty>
-0

> <r_epik_Charging_Adjusted_Penalty>
0

> <i_epik_Tot_Q>
0

> <i_epik_Tot_abs_Q>
0

> <r_epik_Metal_State_Penalty>
-0

> <b_epik_Metal_Only>
0

> <s_lp_Force_Field>
OPLS_2005

> <r_lp_Energy>
39.8062

> <b_lp_Chiralities_Consistent>
1

> <s_lp_Variant>
AV-unprocessed.smi:1141-1

> <Gold.Version>
5.8.1

> <Gold.Id.Protein>
6NUR|6NUR_protein|mol2

> <Gold.PLP.Fitness>
39.3601

> <Gold.PLP.PLP>
-35.5295

> <Gold.PLP.part.hbond>
-1.9999

> <Gold.PLP.part.metal>
0.0000

> <Gold.PLP.part.buried>
-4.6383

> <Gold.PLP.part.nonpolar>
-29.4961

> <Gold.PLP.part.repulsive>
0.5801

> <Gold.PLP.ligand.clash>
0.0000

> <Gold.PLP.ligand.torsion>
0.8252

> <Gold.PLP.Chemscore.Hbond>
1.6950

> <Gold.PLP.Chemscore.CHOScore>
0.0000

> <Gold.PLP.Chemscore.Metal>
0.0000

> <Gold.Chemscore.Hbonds>
donor molecule, donor type, donor heavy atom, donor atom, acceptor molecule, acceptor atom, score
      L1  H     6    29       P1 10747  0.53
      P1  H  6896  6907       L1    21  0.98

> <Gold.PLP.Chemscore.Internal.Correction>
0.3960

> <Gold.Rescore>
     Score         DG    S(hbond)    S(metal)    S(lipo)     H(rot)  DE(clash)    DE(int)     intcor
     12.53     -14.67       1.76        0.00      66.78       1.75       0.42       1.72       ----

> <Gold.Chemscore.Fitness>
12.5266

> <Gold.Chemscore.DG>
-14.6688

> <Gold.Chemscore.ZeroCoef>
-5.4800

> <Gold.Chemscore.Hbond>
1.7559

> <Gold.Chemscore.Metal>
0.0000

> <Gold.Chemscore.Lipo>
66.7786

> <Gold.Chemscore.Internal_Hbond>
0.0000

> <Gold.Chemscore.DEClash>
0.4216

> <Gold.Chemscore.DEInternal>
1.7206

> <Gold.Chemscore.Rot>
1.7535

> <Gold.Chemscore.Internal.Correction>
   9.000000E+99

> <Gold.Chemscore.Hbonds>
donor molecule, donor type, donor heavy atom, donor atom, acceptor molecule, acceptor atom, score
      L1  H     6    29       P1 10747  0.51
      P1  H  6896  6907       L1    21  0.75

> <Gold.Chemscore.Hbond.Weighted>
-5.8647

> <Gold.Chemscore.Metal.Weighted>
-0.0000

> <Gold.Chemscore.Lipo.Weighted>
-7.8131

> <Gold.Chemscore.Internal_Hbond.Weighted>
0.0000

> <Gold.Chemscore.DEClash.Weighted>
0.4216

> <Gold.Chemscore.DEInternal.Weighted>
1.7206

> <Gold.Chemscore.Rot.Weighted>
4.4890

> <Gold.Chemscore.Internal.Correction.Weighted>
   9.000000E+99

> <Gold.Protein.RotatedTorsions>
[ 6907 6896 6895 6894 ] final -129.83 input  -60.11 | X-H torsion
[ 7974 7965 7964 7962 ] final   15.92 input  175.53 | X-H torsion
[ 8008 7997 7996 7995 ] final -116.30 input   59.86 | X-H torsion
[ 10167 10162 10161 10158 ] final  152.28 input  -65.29 | X-H torsion
[ 10718 10713 10712 10709 ] final   -9.96 input   66.30 | X-H torsion
[ 10763 10752 10751 10750 ] final  -95.11 input  -60.55 | X-H torsion
[ 11005 11000 10999 10996 ] final   52.23 input  -57.11 | X-H torsion

> <Gold.Protein.ActiveResidues>
 VAL166  LYS551  ARG553  GLY616  TRP617  ASP618  TYR619  PRO620  LYS621  CYS622 
 ASP623  PHE694  ASN695  SER759  ASP760  ASP761  ALA762  ILE779  LEU786  VAL792 
 PHE793  MET794  SER795  GLU796  ALA797  LYS798  CYS799  TRP800  GLU811  SER814 

> <Gold.Protein.RotatedAtoms>
  150.9331  133.6744  159.2806 H   0  0  0  0  0  0  0  0  0  0  0  0  # atno 6907 bound_to 6896
  151.4159  135.0990  159.9609 H   0  0  0  0  0  0  0  0  0  0  0  0  # atno 6908 bound_to 6896
  152.5035  133.8793  159.7393 H   0  0  0  0  0  0  0  0  0  0  0  0  # atno 6909 bound_to 6896
  146.2264  139.8823  142.8568 H   0  0  0  0  0  0  0  0  0  0  0  0  # atno 7974 bound_to 7965
  155.0657  140.0393  157.2591 H   0  0  0  0  0  0  0  0  0  0  0  0  # atno 8008 bound_to 7997
  154.7023  140.2676  155.6683 H   0  0  0  0  0  0  0  0  0  0  0  0  # atno 8009 bound_to 7997
  156.2764  140.2738  156.1638 H   0  0  0  0  0  0  0  0  0  0  0  0  # atno 8010 bound_to 7997
  139.4834  144.5371  151.7627 H   0  0  0  0  0  0  0  0  0  0  0  0  # atno 10167 bound_to 10162
  156.6805  130.5035  149.5973 H   0  0  0  0  0  0  0  0  0  0  0  0  # atno 10718 bound_to 10713
  154.7118  135.5133  153.8678 H   0  0  0  0  0  0  0  0  0  0  0  0  # atno 10763 bound_to 10752
  153.0787  135.6624  154.0100 H   0  0  0  0  0  0  0  0  0  0  0  0  # atno 10764 bound_to 10752
  153.9941  135.3017  155.3388 H   0  0  0  0  0  0  0  0  0  0  0  0  # atno 10765 bound_to 10752
  140.0867  134.5265  155.8892 H   0  0  0  0  0  0  0  0  0  0  0  0  # atno 11005 bound_to 11000
  145.2500  141.0040  143.3887 LP  0  0  0  0  0  0  0  0  0  0  0  0  # atno 17320 bound_to 7965
  144.9382  139.4219  143.6461 LP  0  0  0  0  0  0  0  0  0  0  0  0  # atno 17321 bound_to 7965
  140.4905  144.1317  150.5949 LP  0  0  0  0  0  0  0  0  0  0  0  0  # atno 17342 bound_to 10162
  140.4176  143.2627  151.9755 LP  0  0  0  0  0  0  0  0  0  0  0  0  # atno 17343 bound_to 10162
  156.1871  130.6536  151.1019 LP  0  0  0  0  0  0  0  0  0  0  0  0  # atno 17370 bound_to 10713
  157.7045  131.0762  150.6711 LP  0  0  0  0  0  0  0  0  0  0  0  0  # atno 17371 bound_to 10713
  141.2065  133.6655  156.6244 LP  0  0  0  0  0  0  0  0  0  0  0  0  # atno 17394 bound_to 11000
  140.3410  134.7849  157.4398 LP  0  0  0  0  0  0  0  0  0  0  0  0  # atno 17395 bound_to 11000

$$$$
