AV-unprocessed.smi:1422|AV-procd|sdf|5792|dock1
  -GOLD-   22720 5443D 1   1.00000     0.00000
 Structure written by MMmdl.
 31 32  0  0  0  0  0  0  0  0  1 V2000
  151.0037  142.1898  156.4374 C   0  0  0  0  0  0  0  0  0  0  0  0
  150.6856  141.0333  155.5530 C   0  0  0  0  0  0  0  0  0  0  0  0
  149.5227  140.5805  154.9962 C   0  0  0  0  0  0  0  0  0  0  0  0
  149.9408  139.4324  154.2723 C   0  0  0  0  0  0  0  0  0  0  0  0
  149.0080  138.6562  153.5385 N   0  0  0  0  0  0  0  0  0  0  0  0
  147.6733  138.8068  153.4919 C   0  0  0  0  0  0  0  0  0  0  0  0
  147.0347  139.6633  154.1042 O   0  0  0  0  0  0  0  0  0  0  0  0
  147.1089  137.8941  152.6876 N   0  0  0  0  0  0  0  0  0  0  0  0
  145.6797  137.7705  152.4176 C   0  0  0  0  0  0  0  0  0  0  0  0
  145.2663  136.3051  152.1866 C   0  0  2  0  0  0  0  0  0  0  0  0
  145.6013  135.7843  150.8042 C   0  0  0  0  0  0  0  0  0  0  0  0
  144.7120  134.5481  150.7105 C   0  0  0  0  0  0  0  0  0  0  0  0
  143.5536  134.8440  151.4854 O   0  0  0  0  0  0  0  0  0  0  0  0
  143.7606  136.0355  152.2383 C   0  0  0  0  0  0  0  0  0  0  0  0
  151.2413  139.2059  154.3762 N   0  0  0  0  0  0  0  0  0  0  0  0
  151.7253  140.2304  155.1983 O   0  0  0  0  0  0  0  0  0  0  0  0
  150.1763  142.8990  156.4636 H   0  0  0  0  0  0  0  0  0  0  0  0
  151.8893  142.7174  156.0831 H   0  0  0  0  0  0  0  0  0  0  0  0
  151.1944  141.8543  157.4569 H   0  0  0  0  0  0  0  0  0  0  0  0
  148.5342  141.0040  155.0941 H   0  0  0  0  0  0  0  0  0  0  0  0
  149.3999  137.9073  152.9872 H   0  0  0  0  0  0  0  0  0  0  0  0
  147.7141  137.2304  152.2268 H   0  0  0  0  0  0  0  0  0  0  0  0
  145.0897  138.2168  153.2201 H   0  0  0  0  0  0  0  0  0  0  0  0
  145.4628  138.3534  151.5222 H   0  0  0  0  0  0  0  0  0  0  0  0
  145.7617  135.6686  152.9221 H   0  0  0  0  0  0  0  0  0  0  0  0
  145.3129  136.5105  150.0425 H   0  0  0  0  0  0  0  0  0  0  0  0
  146.6598  135.5564  150.6753 H   0  0  0  0  0  0  0  0  0  0  0  0
  144.4515  134.2985  149.6819 H   0  0  0  0  0  0  0  0  0  0  0  0
  145.2122  133.6856  151.1525 H   0  0  0  0  0  0  0  0  0  0  0  0
  143.3892  135.9303  153.2579 H   0  0  0  0  0  0  0  0  0  0  0  0
  143.2065  136.8434  151.7586 H   0  0  0  0  0  0  0  0  0  0  0  0
  1  2  1  0  0  0  0
  1 17  1  0  0  0  0
  1 18  1  0  0  0  0
  1 19  1  0  0  0  0
  2 16  1  0  0  0  0
  2  3  2  0  0  0  0
  3  4  1  0  0  0  0
  3 20  1  0  0  0  0
  4  5  1  0  0  0  0
  4 15  2  0  0  0  0
  5  6  1  0  0  0  0
  5 21  1  0  0  0  0
  6  7  2  0  0  0  0
  6  8  1  0  0  0  0
  8  9  1  0  0  0  0
  8 22  1  0  0  0  0
  9 10  1  0  0  0  0
  9 23  1  0  0  0  0
  9 24  1  0  0  0  0
 10 14  1  0  0  0  0
 10 11  1  0  0  0  0
 10 25  1  0  0  0  0
 11 12  1  0  0  0  0
 11 26  1  0  0  0  0
 11 27  1  0  0  0  0
 12 13  1  0  0  0  0
 12 28  1  0  0  0  0
 12 29  1  0  0  0  0
 13 14  1  0  0  0  0
 14 30  1  0  0  0  0
 14 31  1  0  0  0  0
 15 16  1  0  0  0  0
M  END
> <s_m_source_file>
AV-unprocessed.smi

> <i_m_source_file_index>
1422

> <i_lp_mmshare_version>
43012

> <i_f3d_flags>
0

> <s_epik_input>
W0NIM11jMVtjSF1jKG5vMSlbTkhdQyg9TylbTkhdW0NIMl1bQ0BASF0yW0NIMl1bQ0gyXU9bQ0gyXTI=

> <s_epik_cmdline>
J2VwaWtfcHl0aG9uJywgJy1waCcsICc3LjAnLCAnLXRuJywgJzgnLCAnLW1hJywgJzIwMCcsICctbWV0YWxfYmluZGluZycsICctaW1hZScsICc8aW5maWxlLm1hZT4nLCAnLW9tYWUnLCAnPG91dGZpbGUubWFlPic=

> <r_lp_tautomer_probability>
1

> <r_epik_Ionization_Penalty>
2.27275e-05

> <r_epik_Ionization_Penalty_Charging>
0

> <r_epik_Ionization_Penalty_Neutral>
2.27275e-05

> <r_epik_State_Penalty>
-0

> <r_epik_Charging_Adjusted_Penalty>
0

> <i_epik_Tot_Q>
0

> <i_epik_Tot_abs_Q>
0

> <r_epik_Metal_State_Penalty>
-0

> <b_epik_Metal_Only>
0

> <s_lp_Force_Field>
OPLS_2005

> <r_lp_Energy>
16.1313

> <b_lp_Chiralities_Consistent>
1

> <s_lp_Variant>
AV-unprocessed.smi:1422-1

> <Gold.Version>
5.8.1

> <Gold.Id.Protein>
6NUR|6NUR_protein|mol2

> <Gold.PLP.Fitness>
34.3654

> <Gold.PLP.PLP>
-29.2190

> <Gold.PLP.part.hbond>
-5.0000

> <Gold.PLP.part.metal>
0.0000

> <Gold.PLP.part.buried>
-3.4031

> <Gold.PLP.part.nonpolar>
-20.7636

> <Gold.PLP.part.repulsive>
0.6224

> <Gold.PLP.ligand.clash>
0.0000

> <Gold.PLP.ligand.torsion>
0.3227

> <Gold.PLP.Chemscore.Hbond>
1.9280

> <Gold.PLP.Chemscore.CHOScore>
0.0000

> <Gold.PLP.Chemscore.Metal>
0.0000

> <Gold.Chemscore.Hbonds>
donor molecule, donor type, donor heavy atom, donor atom, acceptor molecule, acceptor atom, score
      L1  H     5    21       P1  7948  0.92
      L1  H     8    22       P1  7948  1.00

> <Gold.PLP.Chemscore.Internal.Correction>
0.0079

> <Gold.Rescore>
     Score         DG    S(hbond)    S(metal)    S(lipo)     H(rot)  DE(clash)    DE(int)     intcor
     12.42     -14.21       1.83        0.00      50.82       1.30       0.05       1.75       ----

> <Gold.Chemscore.Fitness>
12.4182

> <Gold.Chemscore.DG>
-14.2121

> <Gold.Chemscore.ZeroCoef>
-5.4800

> <Gold.Chemscore.Hbond>
1.8280

> <Gold.Chemscore.Metal>
0.0000

> <Gold.Chemscore.Lipo>
50.8179

> <Gold.Chemscore.Internal_Hbond>
0.0000

> <Gold.Chemscore.DEClash>
0.0484

> <Gold.Chemscore.DEInternal>
1.7455

> <Gold.Chemscore.Rot>
1.2965

> <Gold.Chemscore.Internal.Correction>
   9.000000E+99

> <Gold.Chemscore.Hbonds>
donor molecule, donor type, donor heavy atom, donor atom, acceptor molecule, acceptor atom, score
      L1  H     5    21       P1  7948  0.78
      L1  H     8    22       P1  7948  0.99

> <Gold.Chemscore.Hbond.Weighted>
-6.1056

> <Gold.Chemscore.Metal.Weighted>
-0.0000

> <Gold.Chemscore.Lipo.Weighted>
-5.9457

> <Gold.Chemscore.Internal_Hbond.Weighted>
0.0000

> <Gold.Chemscore.DEClash.Weighted>
0.0484

> <Gold.Chemscore.DEInternal.Weighted>
1.7455

> <Gold.Chemscore.Rot.Weighted>
3.3192

> <Gold.Chemscore.Internal.Correction.Weighted>
   9.000000E+99

> <Gold.Protein.RotatedTorsions>
[ 6907 6896 6895 6894 ] final -102.15 input  -60.11 | X-H torsion
[ 7974 7965 7964 7962 ] final  107.82 input  175.53 | X-H torsion
[ 8008 7997 7996 7995 ] final -149.37 input   59.86 | X-H torsion
[ 10167 10162 10161 10158 ] final -147.89 input  -65.29 | X-H torsion
[ 10718 10713 10712 10709 ] final  -77.84 input   66.30 | X-H torsion
[ 10763 10752 10751 10750 ] final   81.89 input  -60.55 | X-H torsion
[ 11005 11000 10999 10996 ] final -170.84 input  -57.11 | X-H torsion

> <Gold.Protein.ActiveResidues>
 VAL166  LYS551  ARG553  GLY616  TRP617  ASP618  TYR619  PRO620  LYS621  CYS622 
 ASP623  PHE694  ASN695  SER759  ASP760  ASP761  ALA762  ILE779  LEU786  VAL792 
 PHE793  MET794  SER795  GLU796  ALA797  LYS798  CYS799  TRP800  GLU811  SER814 

> <Gold.Protein.RotatedAtoms>
  150.7184  134.0625  159.3835 H   0  0  0  0  0  0  0  0  0  0  0  0  # atno 6907 bound_to 6896
  151.8605  135.0524  160.0478 H   0  0  0  0  0  0  0  0  0  0  0  0  # atno 6908 bound_to 6896
  152.2721  133.5356  159.5482 H   0  0  0  0  0  0  0  0  0  0  0  0  # atno 6909 bound_to 6896
  145.2887  139.2608  143.3877 H   0  0  0  0  0  0  0  0  0  0  0  0  # atno 7974 bound_to 7965
  155.6066  140.0667  157.2718 H   0  0  0  0  0  0  0  0  0  0  0  0  # atno 8008 bound_to 7997
  154.4264  140.1809  156.1276 H   0  0  0  0  0  0  0  0  0  0  0  0  # atno 8009 bound_to 7997
  156.0118  140.3326  155.6952 H   0  0  0  0  0  0  0  0  0  0  0  0  # atno 8010 bound_to 7997
  139.7581  143.8418  152.2601 H   0  0  0  0  0  0  0  0  0  0  0  0  # atno 10167 bound_to 10162
  156.0134  130.4502  150.3405 H   0  0  0  0  0  0  0  0  0  0  0  0  # atno 10718 bound_to 10713
  153.1155  135.4749  154.9108 H   0  0  0  0  0  0  0  0  0  0  0  0  # atno 10763 bound_to 10752
  154.7524  135.3109  154.8535 H   0  0  0  0  0  0  0  0  0  0  0  0  # atno 10764 bound_to 10752
  153.9113  135.6865  153.4804 H   0  0  0  0  0  0  0  0  0  0  0  0  # atno 10765 bound_to 10752
  140.5150  134.5765  157.5030 H   0  0  0  0  0  0  0  0  0  0  0  0  # atno 11005 bound_to 11000
  146.3192  140.3372  142.8645 LP  0  0  0  0  0  0  0  0  0  0  0  0  # atno 17320 bound_to 7965
  144.9191  140.7847  143.5759 LP  0  0  0  0  0  0  0  0  0  0  0  0  # atno 17321 bound_to 7965
  139.8416  144.7207  150.9324 LP  0  0  0  0  0  0  0  0  0  0  0  0  # atno 17342 bound_to 10162
  140.7804  143.3978  151.1199 LP  0  0  0  0  0  0  0  0  0  0  0  0  # atno 17343 bound_to 10162
  157.1501  131.0318  151.2889 LP  0  0  0  0  0  0  0  0  0  0  0  0  # atno 17370 bound_to 10713
  157.4399  130.7538  149.7061 LP  0  0  0  0  0  0  0  0  0  0  0  0  # atno 17371 bound_to 10713
  139.9637  134.7408  156.0182 LP  0  0  0  0  0  0  0  0  0  0  0  0  # atno 17394 bound_to 11000
  141.1365  133.6574  156.3608 LP  0  0  0  0  0  0  0  0  0  0  0  0  # atno 17395 bound_to 11000

$$$$
