AV-unprocessed.smi:3120|AV-procd|sdf|11892|dock10
  -GOLD-   2272017283D 1   1.00000     0.00000
 Structure written by MMmdl.
 22 23  0  0  0  0  0  0  0  0  1 V2000
  154.3738  140.6953  159.9032 O   0  0  0  0  0  0  0  0  0  0  0  0
  153.9614  141.3226  160.8769 C   0  0  0  0  0  0  0  0  0  0  0  0
  154.6294  141.5167  162.0131 N   0  0  0  0  0  0  0  0  0  0  0  0
  153.8896  142.2864  162.9946 C   0  0  0  0  0  0  0  0  0  0  0  0
  152.6691  142.8232  162.2308 C   0  0  0  0  0  0  0  0  0  0  0  0
  152.5924  141.9915  160.9379 C   0  0  1  0  0  0  0  0  0  0  0  0
  152.2773  142.8018  159.6849 C   0  0  0  0  0  0  0  0  0  0  0  0
  153.0956  143.8755  159.2668 C   0  0  0  0  0  0  0  0  0  0  0  0
  152.7477  144.5850  158.1016 C   0  0  0  0  0  0  0  0  0  0  0  0
  151.5923  144.1923  157.3979 C   0  0  0  0  0  0  0  0  0  0  0  0
  150.8015  143.1686  157.7848 N   0  0  0  0  0  0  0  0  0  0  0  0
  151.1431  142.4930  158.9030 C   0  0  0  0  0  0  0  0  0  0  0  0
  155.5576  141.1603  162.1899 H   0  0  0  0  0  0  0  0  0  0  0  0
  153.5859  141.6298  163.8107 H   0  0  0  0  0  0  0  0  0  0  0  0
  154.5005  143.0898  163.4072 H   0  0  0  0  0  0  0  0  0  0  0  0
  151.7530  142.7525  162.8178 H   0  0  0  0  0  0  0  0  0  0  0  0
  152.8252  143.8795  162.0078 H   0  0  0  0  0  0  0  0  0  0  0  0
  151.8531  141.1986  161.0595 H   0  0  0  0  0  0  0  0  0  0  0  0
  153.9760  144.1526  159.8279 H   0  0  0  0  0  0  0  0  0  0  0  0
  153.3523  145.4102  157.7554 H   0  0  0  0  0  0  0  0  0  0  0  0
  151.2947  144.7148  156.5009 H   0  0  0  0  0  0  0  0  0  0  0  0
  150.4875  141.6809  159.1819 H   0  0  0  0  0  0  0  0  0  0  0  0
  1  2  2  0  0  0  0
  2  6  1  0  0  0  0
  2  3  1  0  0  0  0
  3  4  1  0  0  0  0
  3 13  1  0  0  0  0
  4  5  1  0  0  0  0
  4 14  1  0  0  0  0
  4 15  1  0  0  0  0
  5  6  1  0  0  0  0
  5 16  1  0  0  0  0
  5 17  1  0  0  0  0
  6  7  1  0  0  0  0
  6 18  1  0  0  0  0
  7 12  1  0  0  0  0
  7  8  2  0  0  0  0
  8  9  1  0  0  0  0
  8 19  1  0  0  0  0
  9 10  2  0  0  0  0
  9 20  1  0  0  0  0
 10 11  1  0  0  0  0
 10 21  1  0  0  0  0
 11 12  2  0  0  0  0
 12 22  1  0  0  0  0
M  END
> <s_m_source_file>
AV-unprocessed.smi

> <i_m_source_file_index>
3120

> <i_lp_mmshare_version>
43012

> <i_f3d_flags>
0

> <s_epik_input>
Tz1DMVtOSF1bQ0gyXVtDSDJdW0NASF0xYzJbY0hdW2NIXVtjSF1uW2NIXTI=

> <s_epik_cmdline>
J2VwaWtfcHl0aG9uJywgJy1waCcsICc3LjAnLCAnLXRuJywgJzgnLCAnLW1hJywgJzIwMCcsICctbWV0YWxfYmluZGluZycsICctaW1hZScsICc8aW5maWxlLm1hZT4nLCAnLW9tYWUnLCAnPG91dGZpbGUubWFlPic=

> <r_epik_Ionization_Penalty>
0.00558523

> <r_epik_Ionization_Penalty_Charging>
0

> <r_epik_Ionization_Penalty_Neutral>
0.00558523

> <r_epik_State_Penalty>
0.00409114

> <r_epik_Charging_Adjusted_Penalty>
0.00409114

> <i_epik_Tot_Q>
0

> <i_epik_Tot_abs_Q>
0

> <r_epik_Metal_State_Penalty>
-0

> <b_epik_Metal_Only>
0

> <s_lp_Force_Field>
OPLS_2005

> <r_lp_Energy>
14.9187

> <b_lp_Chiralities_Consistent>
1

> <s_lp_Variant>
AV-unprocessed.smi:3120-1

> <Gold.Version>
5.8.1

> <Gold.Id.Protein>
6NUR|6NUR_protein|mol2

> <Gold.PLP.Fitness>
36.1908

> <Gold.PLP.PLP>
-33.5886

> <Gold.PLP.part.hbond>
-1.0000

> <Gold.PLP.part.metal>
0.0000

> <Gold.PLP.part.buried>
-1.5243

> <Gold.PLP.part.nonpolar>
-30.9851

> <Gold.PLP.part.repulsive>
0.1421

> <Gold.PLP.ligand.clash>
0.0000

> <Gold.PLP.ligand.torsion>
0.0044

> <Gold.PLP.Chemscore.Hbond>
0.0000

> <Gold.PLP.Chemscore.CHOScore>
0.8678

> <Gold.PLP.Chemscore.Metal>
0.0000

> <Gold.Chemscore.Hbonds>
donor molecule, donor type, donor heavy atom, donor atom, acceptor molecule, acceptor atom, score
      L1  C    10    21       P1  8028  0.87

> <Gold.PLP.Chemscore.Internal.Correction>
0.0075

> <Gold.Rescore>
     Score         DG    S(hbond)    S(metal)    S(lipo)     H(rot)  DE(clash)    DE(int)     intcor
     13.35     -13.69       0.00        0.00      92.04       1.00       0.34       0.00       ----

> <Gold.Chemscore.Fitness>
13.3456

> <Gold.Chemscore.DG>
-13.6890

> <Gold.Chemscore.ZeroCoef>
-5.4800

> <Gold.Chemscore.Hbond>
0.0000

> <Gold.Chemscore.Metal>
0.0000

> <Gold.Chemscore.Lipo>
92.0428

> <Gold.Chemscore.Internal_Hbond>
0.0000

> <Gold.Chemscore.DEClash>
0.3385

> <Gold.Chemscore.DEInternal>
0.0049

> <Gold.Chemscore.Rot>
1.0000

> <Gold.Chemscore.Internal.Correction>
   9.000000E+99

> <Gold.Chemscore.Hbond.Weighted>
-0.0000

> <Gold.Chemscore.Metal.Weighted>
-0.0000

> <Gold.Chemscore.Lipo.Weighted>
-10.7690

> <Gold.Chemscore.Internal_Hbond.Weighted>
0.0000

> <Gold.Chemscore.DEClash.Weighted>
0.3385

> <Gold.Chemscore.DEInternal.Weighted>
0.0049

> <Gold.Chemscore.Rot.Weighted>
2.5600

> <Gold.Chemscore.Internal.Correction.Weighted>
   9.000000E+99

> <Gold.Protein.RotatedTorsions>
[ 6907 6896 6895 6894 ] final  109.95 input  -60.11 | X-H torsion
[ 7974 7965 7964 7962 ] final   42.20 input  175.53 | X-H torsion
[ 8008 7997 7996 7995 ] final -133.32 input   59.86 | X-H torsion
[ 10167 10162 10161 10158 ] final  159.86 input  -65.29 | X-H torsion
[ 10718 10713 10712 10709 ] final  -62.38 input   66.30 | X-H torsion
[ 10763 10752 10751 10750 ] final -128.60 input  -60.55 | X-H torsion
[ 11005 11000 10999 10996 ] final   15.62 input  -57.11 | X-H torsion

> <Gold.Protein.ActiveResidues>
 VAL166  LYS551  ARG553  GLY616  TRP617  ASP618  TYR619  PRO620  LYS621  CYS622 
 ASP623  PHE694  ASN695  SER759  ASP760  ASP761  ALA762  ILE779  LEU786  VAL792 
 PHE793  MET794  SER795  GLU796  ALA797  LYS798  CYS799  TRP800  GLU811  SER814 

> <Gold.Protein.RotatedAtoms>
  152.5043  133.8871  159.7374 H   0  0  0  0  0  0  0  0  0  0  0  0  # atno 6907 bound_to 6896
  150.9319  133.6748  159.2816 H   0  0  0  0  0  0  0  0  0  0  0  0  # atno 6908 bound_to 6896
  151.4090  135.0987  159.9632 H   0  0  0  0  0  0  0  0  0  0  0  0  # atno 6909 bound_to 6896
  146.0760  139.5327  142.9567 H   0  0  0  0  0  0  0  0  0  0  0  0  # atno 7974 bound_to 7965
  155.3436  140.0473  157.3045 H   0  0  0  0  0  0  0  0  0  0  0  0  # atno 8008 bound_to 7997
  154.5264  140.2242  155.8847 H   0  0  0  0  0  0  0  0  0  0  0  0  # atno 8009 bound_to 7997
  156.1744  140.3088  155.9038 H   0  0  0  0  0  0  0  0  0  0  0  0  # atno 8010 bound_to 7997
  139.4835  144.4690  151.8602 H   0  0  0  0  0  0  0  0  0  0  0  0  # atno 10167 bound_to 10162
  156.0859  130.4208  150.1127 H   0  0  0  0  0  0  0  0  0  0  0  0  # atno 10718 bound_to 10713
  154.8756  135.3923  154.3784 H   0  0  0  0  0  0  0  0  0  0  0  0  # atno 10763 bound_to 10752
  153.4535  135.7028  153.6099 H   0  0  0  0  0  0  0  0  0  0  0  0  # atno 10764 bound_to 10752
  153.4629  135.3808  155.2317 H   0  0  0  0  0  0  0  0  0  0  0  0  # atno 10765 bound_to 10752
  140.4563  134.1173  155.7709 H   0  0  0  0  0  0  0  0  0  0  0  0  # atno 11005 bound_to 11000
  145.6305  141.0305  143.1865 LP  0  0  0  0  0  0  0  0  0  0  0  0  # atno 17320 bound_to 7965
  144.7262  139.7869  143.7364 LP  0  0  0  0  0  0  0  0  0  0  0  0  # atno 17321 bound_to 7965
  140.4157  144.2310  150.5888 LP  0  0  0  0  0  0  0  0  0  0  0  0  # atno 17342 bound_to 10162
  140.4923  143.2343  151.8801 LP  0  0  0  0  0  0  0  0  0  0  0  0  # atno 17343 bound_to 10162
  156.9148  130.9664  151.3557 LP  0  0  0  0  0  0  0  0  0  0  0  0  # atno 17370 bound_to 10713
  157.5993  130.8500  149.8777 LP  0  0  0  0  0  0  0  0  0  0  0  0  # atno 17371 bound_to 10713
  141.1642  133.8736  157.1763 LP  0  0  0  0  0  0  0  0  0  0  0  0  # atno 17394 bound_to 11000
  139.9974  135.0041  157.0114 LP  0  0  0  0  0  0  0  0  0  0  0  0  # atno 17395 bound_to 11000

$$$$
