AV-unprocessed.smi:1154|AV-procd|sdf|4901|dock8
  -GOLD-   22720 3473D 1   1.00000     0.00000
 Structure written by MMmdl.
 42 43  0  0  0  0  0  0  0  0  2 V2000
  146.0643  132.1616  149.8293 C   0  0  0  0  0  0  0  0  0  0  0  0
  146.3251  133.3796  150.7272 C   0  0  1  0  0  0  0  0  0  0  0  0
  145.0633  134.2452  150.8804 C   0  0  0  0  0  0  0  0  0  0  0  0
  145.3400  135.4488  151.7964 C   0  0  1  0  0  0  0  0  0  0  0  0
  144.0849  136.3139  151.9796 C   0  0  0  0  0  0  0  0  0  0  0  0
  145.8982  134.9704  153.1507 C   0  0  0  0  0  0  0  0  0  0  0  0
  147.1183  134.1411  152.9732 N   0  3  1  0  0  0  0  0  0  0  0  0
  147.7513  133.7914  154.2705 C   0  0  0  0  0  0  0  0  0  0  0  0
  149.2796  133.9564  154.2412 C   0  0  0  0  0  0  0  0  0  0  0  0
  149.6388  135.3637  154.1377 N   0  0  0  0  0  0  0  0  0  0  0  0
  150.0886  136.1068  155.1605 C   0  0  0  0  0  0  0  0  0  0  0  0
  150.2158  135.6701  156.3037 O   0  0  0  0  0  0  0  0  0  0  0  0
  150.4411  137.5656  154.8566 C   0  0  0  0  0  0  0  0  0  0  0  0
  151.8606  137.8228  155.0215 N   0  0  0  0  0  0  0  0  0  0  0  0
  152.5780  138.9319  154.8313 C   0  0  0  0  0  0  0  0  0  0  0  0
  153.8622  138.7336  155.0850 N   0  0  0  0  0  0  0  0  0  0  0  0
  153.9064  137.4017  155.4619 N   0  0  0  0  0  0  0  0  0  0  0  0
  152.7215  136.8564  155.4281 N   0  0  0  0  0  0  0  0  0  0  0  0
  146.8530  132.9579  152.1119 C   0  0  0  0  0  0  0  0  0  0  0  0
  145.2996  131.5104  150.2541 H   0  0  0  0  0  0  0  0  0  0  0  0
  146.9702  131.5689  149.6980 H   0  0  0  0  0  0  0  0  0  0  0  0
  145.7268  132.4691  148.8391 H   0  0  0  0  0  0  0  0  0  0  0  0
  147.0936  133.9842  150.2429 H   0  0  0  0  0  0  0  0  0  0  0  0
  144.7290  134.5918  149.9015 H   0  0  0  0  0  0  0  0  0  0  0  0
  144.2500  133.6456  151.2925 H   0  0  0  0  0  0  0  0  0  0  0  0
  146.0993  136.0698  151.3183 H   0  0  0  0  0  0  0  0  0  0  0  0
  143.2827  135.7525  152.4594 H   0  0  0  0  0  0  0  0  0  0  0  0
  143.7118  136.6725  151.0198 H   0  0  0  0  0  0  0  0  0  0  0  0
  144.2956  137.1875  152.5972 H   0  0  0  0  0  0  0  0  0  0  0  0
  146.1364  135.8398  153.7651 H   0  0  0  0  0  0  0  0  0  0  0  0
  145.1443  134.3964  153.6925 H   0  0  0  0  0  0  0  0  0  0  0  0
  147.3592  134.4475  155.0493 H   0  0  0  0  0  0  0  0  0  0  0  0
  147.4740  132.7752  154.5556 H   0  0  0  0  0  0  0  0  0  0  0  0
  149.7391  133.5521  155.1432 H   0  0  0  0  0  0  0  0  0  0  0  0
  149.6943  133.4088  153.3929 H   0  0  0  0  0  0  0  0  0  0  0  0
  149.5553  135.7981  153.2300 H   0  0  0  0  0  0  0  0  0  0  0  0
  150.1534  137.8051  153.8321 H   0  0  0  0  0  0  0  0  0  0  0  0
  149.8828  138.2340  155.5138 H   0  0  0  0  0  0  0  0  0  0  0  0
  152.1643  139.8740  154.5033 H   0  0  0  0  0  0  0  0  0  0  0  0
  146.1344  132.3023  152.6069 H   0  0  0  0  0  0  0  0  0  0  0  0
  147.7658  132.3786  151.9785 H   0  0  0  0  0  0  0  0  0  0  0  0
  147.7816  134.7218  152.4801 H   0  0  0  0  0  0  0  0  0  0  0  0
  1  2  1  0  0  0  0
  1 20  1  0  0  0  0
  1 21  1  0  0  0  0
  1 22  1  0  0  0  0
  2 19  1  0  0  0  0
  2  3  1  0  0  0  0
  2 23  1  0  0  0  0
  3  4  1  0  0  0  0
  3 24  1  0  0  0  0
  3 25  1  0  0  0  0
  4  5  1  0  0  0  0
  4  6  1  0  0  0  0
  4 26  1  0  0  0  0
  5 27  1  0  0  0  0
  5 28  1  0  0  0  0
  5 29  1  0  0  0  0
  6  7  1  0  0  0  0
  6 30  1  0  0  0  0
  6 31  1  0  0  0  0
  7  8  1  0  0  0  0
  7 19  1  0  0  0  0
  7 42  1  0  0  0  0
  8  9  1  0  0  0  0
  8 32  1  0  0  0  0
  8 33  1  0  0  0  0
  9 10  1  0  0  0  0
  9 34  1  0  0  0  0
  9 35  1  0  0  0  0
 10 11  1  0  0  0  0
 10 36  1  0  0  0  0
 11 12  2  0  0  0  0
 11 13  1  0  0  0  0
 13 14  1  0  0  0  0
 13 37  1  0  0  0  0
 13 38  1  0  0  0  0
 14 18  1  0  0  0  0
 14 15  1  0  0  0  0
 15 16  2  0  0  0  0
 15 39  1  0  0  0  0
 16 17  1  0  0  0  0
 17 18  2  0  0  0  0
 19 40  1  0  0  0  0
 19 41  1  0  0  0  0
M  CHG  1   7   1
M  END
> <s_m_source_file>
AV-unprocessed.smi

> <i_m_source_file_index>
1154

> <i_lp_mmshare_version>
43012

> <i_f3d_flags>
0

> <s_epik_input>
W0NIM11bQ0BASF0xW0NIMl1bQ0BASF0oW0NIM10pW0NIMl1OKFtDSDJdMSlbQ0gyXVtDSDJdW05IXUMoPU8pW0NIMl1uMltjSF1ubm4y

> <s_epik_cmdline>
J2VwaWtfcHl0aG9uJywgJy1waCcsICc3LjAnLCAnLXRuJywgJzgnLCAnLW1hJywgJzIwMCcsICctbWV0YWxfYmluZGluZycsICctaW1hZScsICc8aW5maWxlLm1hZT4nLCAnLW9tYWUnLCAnPG91dGZpbGUubWFlPic=

> <r_lp_tautomer_probability>
1

> <r_epik_Ionization_Penalty>
0.00217773

> <r_epik_Ionization_Penalty_Charging>
0.00217329

> <r_epik_Ionization_Penalty_Neutral>
4.43997e-06

> <r_epik_State_Penalty>
0.00149294

> <r_epik_Charging_Adjusted_Penalty>
0.00366623

> <i_epik_Tot_Q>
1

> <i_epik_Tot_abs_Q>
1

> <r_epik_Metal_State_Penalty>
-0

> <b_epik_Metal_Only>
0

> <s_lp_Force_Field>
OPLS_2005

> <r_lp_Energy>
19.913

> <b_lp_Chiralities_Consistent>
1

> <s_lp_Variant>
AV-unprocessed.smi:1154-2

> <Gold.Version>
5.8.1

> <Gold.Id.Protein>
6NUR|6NUR_protein|mol2

> <Gold.PLP.Fitness>
44.6824

> <Gold.PLP.PLP>
-32.1310

> <Gold.PLP.part.hbond>
-5.3843

> <Gold.PLP.part.metal>
0.0000

> <Gold.PLP.part.buried>
-2.3807

> <Gold.PLP.part.nonpolar>
-24.9483

> <Gold.PLP.part.repulsive>
0.0800

> <Gold.PLP.ligand.clash>
0.0000

> <Gold.PLP.ligand.torsion>
0.7284

> <Gold.PLP.Chemscore.Hbond>
4.6480

> <Gold.PLP.Chemscore.CHOScore>
0.0000

> <Gold.PLP.Chemscore.Metal>
0.0000

> <Gold.Chemscore.Hbonds>
donor molecule, donor type, donor heavy atom, donor atom, acceptor molecule, acceptor atom, score
      L1  H     7    42       P1  7948  2.00
      L1  H    10    36       P1  7948  0.77
      P1  H  7997  8009       L1    16  0.72
      P1  H 10752 10763       L1    18  0.53

> <Gold.PLP.Chemscore.Internal.Correction>
0.0643

> <Gold.Rescore>
     Score         DG    S(hbond)    S(metal)    S(lipo)     H(rot)  DE(clash)    DE(int)     intcor
     12.58     -14.35       2.81        0.00      53.87       2.67       0.00       1.77       ----

> <Gold.Chemscore.Fitness>
12.5801

> <Gold.Chemscore.DG>
-14.3514

> <Gold.Chemscore.ZeroCoef>
-5.4800

> <Gold.Chemscore.Hbond>
2.8136

> <Gold.Chemscore.Metal>
0.0000

> <Gold.Chemscore.Lipo>
53.8675

> <Gold.Chemscore.Internal_Hbond>
0.0000

> <Gold.Chemscore.DEClash>
0.0030

> <Gold.Chemscore.DEInternal>
1.7683

> <Gold.Chemscore.Rot>
2.6674

> <Gold.Chemscore.Internal.Correction>
   9.000000E+99

> <Gold.Chemscore.Hbonds>
donor molecule, donor type, donor heavy atom, donor atom, acceptor molecule, acceptor atom, score
      L1  H     7    42       P1  7948  0.77
      L1  H    10    36       P1  7948  0.11
      P1  H  7997  8009       L1    16  0.43
      P1  H 10752 10763       L1    18  0.13

> <Gold.Chemscore.Hbond.Weighted>
-9.3975

> <Gold.Chemscore.Metal.Weighted>
-0.0000

> <Gold.Chemscore.Lipo.Weighted>
-6.3025

> <Gold.Chemscore.Internal_Hbond.Weighted>
0.0000

> <Gold.Chemscore.DEClash.Weighted>
0.0030

> <Gold.Chemscore.DEInternal.Weighted>
1.7683

> <Gold.Chemscore.Rot.Weighted>
6.8286

> <Gold.Chemscore.Internal.Correction.Weighted>
   9.000000E+99

> <Gold.Protein.RotatedTorsions>
[ 6907 6896 6895 6894 ] final  171.70 input  -60.11 | X-H torsion
[ 7974 7965 7964 7962 ] final   29.70 input  175.53 | X-H torsion
[ 8008 7997 7996 7995 ] final -145.41 input   59.86 | X-H torsion
[ 10167 10162 10161 10158 ] final    6.08 input  -65.29 | X-H torsion
[ 10718 10713 10712 10709 ] final   72.04 input   66.30 | X-H torsion
[ 10763 10752 10751 10750 ] final   74.34 input  -60.55 | X-H torsion
[ 11005 11000 10999 10996 ] final  152.62 input  -57.11 | X-H torsion

> <Gold.Protein.ActiveResidues>
 VAL166  LYS551  ARG553  GLY616  TRP617  ASP618  TYR619  PRO620  LYS621  CYS622 
 ASP623  PHE694  ASN695  SER759  ASP760  ASP761  ALA762  ILE779  LEU786  VAL792 
 PHE793  MET794  SER795  GLU796  ALA797  LYS798  CYS799  TRP800  GLU811  SER814 

> <Gold.Protein.RotatedAtoms>
  151.7960  133.3364  159.3512 H   0  0  0  0  0  0  0  0  0  0  0  0  # atno 6907 bound_to 6896
  150.7375  134.5798  159.5942 H   0  0  0  0  0  0  0  0  0  0  0  0  # atno 6908 bound_to 6896
  152.3176  134.7421  160.0373 H   0  0  0  0  0  0  0  0  0  0  0  0  # atno 6909 bound_to 6896
  146.1656  139.6886  142.9003 H   0  0  0  0  0  0  0  0  0  0  0  0  # atno 7974 bound_to 7965
  155.5428  140.0609  157.2866 H   0  0  0  0  0  0  0  0  0  0  0  0  # atno 8008 bound_to 7997
  154.4446  140.1916  156.0652 H   0  0  0  0  0  0  0  0  0  0  0  0  # atno 8009 bound_to 7997
  156.0573  140.3277  155.7424 H   0  0  0  0  0  0  0  0  0  0  0  0  # atno 8010 bound_to 7997
  140.6447  143.7690  150.7481 H   0  0  0  0  0  0  0  0  0  0  0  0  # atno 10167 bound_to 10162
  157.6481  130.9558  150.0873 H   0  0  0  0  0  0  0  0  0  0  0  0  # atno 10718 bound_to 10713
  153.0580  135.5029  154.8027 H   0  0  0  0  0  0  0  0  0  0  0  0  # atno 10763 bound_to 10752
  154.6838  135.2973  154.9578 H   0  0  0  0  0  0  0  0  0  0  0  0  # atno 10764 bound_to 10752
  154.0355  135.6724  153.4837 H   0  0  0  0  0  0  0  0  0  0  0  0  # atno 10765 bound_to 10752
  140.1324  134.8793  157.2222 H   0  0  0  0  0  0  0  0  0  0  0  0  # atno 11005 bound_to 11000
  145.4477  141.0426  143.2822 LP  0  0  0  0  0  0  0  0  0  0  0  0  # atno 17320 bound_to 7965
  144.8087  139.6002  143.7039 LP  0  0  0  0  0  0  0  0  0  0  0  0  # atno 17321 bound_to 7965
  140.1329  143.4510  152.2243 LP  0  0  0  0  0  0  0  0  0  0  0  0  # atno 17342 bound_to 10162
  139.5657  144.7434  151.4028 LP  0  0  0  0  0  0  0  0  0  0  0  0  # atno 17343 bound_to 10162
  156.1832  130.3651  149.9007 LP  0  0  0  0  0  0  0  0  0  0  0  0  # atno 17370 bound_to 10713
  156.6954  130.8912  151.3593 LP  0  0  0  0  0  0  0  0  0  0  0  0  # atno 17371 bound_to 10713
  140.2825  134.3334  155.7339 LP  0  0  0  0  0  0  0  0  0  0  0  0  # atno 17394 bound_to 11000
  141.2172  133.7487  156.9384 LP  0  0  0  0  0  0  0  0  0  0  0  0  # atno 17395 bound_to 11000

$$$$
