AV-unprocessed.smi:540|AV-procd|sdf|2870|dock8
  -GOLD-   2262023363D 1   1.00000     0.00000
 Structure written by MMmdl.
 48 50  0  0  0  0  0  0  0  0  2 V2000
  147.1915  140.0096  153.9824 C   0  0  0  0  0  0  0  0  0  0  0  0
  148.6467  139.7307  154.3643 C   0  0  0  0  0  0  0  0  0  0  0  0
  148.6735  139.1898  155.6725 O   0  0  0  0  0  0  0  0  0  0  0  0
  149.8497  138.4454  155.9416 C   0  0  0  0  0  0  0  0  0  0  0  0
  150.0522  138.3321  157.4589 C   0  0  0  0  0  0  0  0  0  0  0  0
  151.4677  138.3930  157.8234 N   0  0  0  0  0  0  0  0  0  0  0  0
  152.1628  139.4599  158.3056 C   0  0  0  0  0  0  0  0  0  0  0  0
  151.5625  140.6954  158.5592 N   0  0  0  0  0  0  0  0  0  0  0  0
  151.8405  141.4962  159.7496 C   0  0  0  0  0  0  0  0  0  0  0  0
  152.1737  142.9527  159.3806 C   0  0  0  0  0  0  0  0  0  0  0  0
  151.0250  143.5992  158.5867 C   0  0  0  0  0  0  0  0  0  0  0  0
  151.3729  145.0239  158.1338 C   0  0  0  0  0  0  0  0  0  0  0  0
  150.6544  142.6947  157.3986 C   0  0  0  0  0  0  0  0  0  0  0  0
  150.3981  141.2520  157.8706 C   0  0  0  0  0  0  0  0  0  0  0  0
  153.4696  139.2455  158.4667 N   0  0  0  0  0  0  0  0  0  0  0  0
  153.6203  137.9246  158.0764 C   0  0  0  0  0  0  0  0  0  0  0  0
  152.4351  137.3899  157.6760 C   0  0  0  0  0  0  0  0  0  0  0  0
  152.2940  136.0074  157.1606 C   0  0  0  0  0  0  0  0  0  0  0  0
  151.2074  135.5707  156.7878 O   0  0  0  0  0  0  0  0  0  0  0  0
  153.4860  135.3309  157.1579 N   0  5  0  0  0  0  0  0  0  0  0  0
  154.7043  135.8331  157.5601 C   0  0  0  0  0  0  0  0  0  0  0  0
  155.7322  135.1555  157.5195 O   0  0  0  0  0  0  0  0  0  0  0  0
  154.7912  137.1207  158.0190 N   0  0  0  0  0  0  0  0  0  0  0  0
  156.0751  137.6840  158.4471 C   0  0  0  0  0  0  0  0  0  0  0  0
  147.1243  140.4316  152.9797 H   0  0  0  0  0  0  0  0  0  0  0  0
  146.7356  140.7171  154.6756 H   0  0  0  0  0  0  0  0  0  0  0  0
  146.6002  139.0938  154.0020 H   0  0  0  0  0  0  0  0  0  0  0  0
  149.0904  139.0286  153.6569 H   0  0  0  0  0  0  0  0  0  0  0  0
  149.2273  140.6533  154.3260 H   0  0  0  0  0  0  0  0  0  0  0  0
  149.7656  137.4497  155.5040 H   0  0  0  0  0  0  0  0  0  0  0  0
  150.7140  138.9303  155.4860 H   0  0  0  0  0  0  0  0  0  0  0  0
  149.5006  139.1168  157.9662 H   0  0  0  0  0  0  0  0  0  0  0  0
  149.6106  137.4119  157.8331 H   0  0  0  0  0  0  0  0  0  0  0  0
  150.9811  141.4598  160.4204 H   0  0  0  0  0  0  0  0  0  0  0  0
  152.6783  141.0605  160.2949 H   0  0  0  0  0  0  0  0  0  0  0  0
  152.3717  143.5258  160.2867 H   0  0  0  0  0  0  0  0  0  0  0  0
  153.0923  142.9756  158.7924 H   0  0  0  0  0  0  0  0  0  0  0  0
  150.1567  143.6619  159.2444 H   0  0  0  0  0  0  0  0  0  0  0  0
  152.2392  145.0295  157.4716 H   0  0  0  0  0  0  0  0  0  0  0  0
  151.6022  145.6616  158.9880 H   0  0  0  0  0  0  0  0  0  0  0  0
  150.5403  145.4787  157.5967 H   0  0  0  0  0  0  0  0  0  0  0  0
  149.7665  143.0810  156.8972 H   0  0  0  0  0  0  0  0  0  0  0  0
  151.4562  142.7052  156.6598 H   0  0  0  0  0  0  0  0  0  0  0  0
  150.1092  140.6157  157.0349 H   0  0  0  0  0  0  0  0  0  0  0  0
  149.5484  141.2364  158.5543 H   0  0  0  0  0  0  0  0  0  0  0  0
  156.5184  137.0756  159.2366 H   0  0  0  0  0  0  0  0  0  0  0  0
  155.9822  138.6983  158.8342 H   0  0  0  0  0  0  0  0  0  0  0  0
  156.7730  137.7161  157.6096 H   0  0  0  0  0  0  0  0  0  0  0  0
  1  2  1  0  0  0  0
  1 25  1  0  0  0  0
  1 26  1  0  0  0  0
  1 27  1  0  0  0  0
  2  3  1  0  0  0  0
  2 28  1  0  0  0  0
  2 29  1  0  0  0  0
  3  4  1  0  0  0  0
  4  5  1  0  0  0  0
  4 30  1  0  0  0  0
  4 31  1  0  0  0  0
  5  6  1  0  0  0  0
  5 32  1  0  0  0  0
  5 33  1  0  0  0  0
  6 17  1  0  0  0  0
  6  7  1  0  0  0  0
  7  8  1  0  0  0  0
  7 15  2  0  0  0  0
  8 14  1  0  0  0  0
  8  9  1  0  0  0  0
  9 10  1  0  0  0  0
  9 34  1  0  0  0  0
  9 35  1  0  0  0  0
 10 11  1  0  0  0  0
 10 36  1  0  0  0  0
 10 37  1  0  0  0  0
 11 12  1  0  0  0  0
 11 13  1  0  0  0  0
 11 38  1  0  0  0  0
 12 39  1  0  0  0  0
 12 40  1  0  0  0  0
 12 41  1  0  0  0  0
 13 14  1  0  0  0  0
 13 42  1  0  0  0  0
 13 43  1  0  0  0  0
 14 44  1  0  0  0  0
 14 45  1  0  0  0  0
 15 16  1  0  0  0  0
 16 23  1  0  0  0  0
 16 17  2  0  0  0  0
 17 18  1  0  0  0  0
 18 19  2  0  0  0  0
 18 20  1  0  0  0  0
 20 21  1  0  0  0  0
 21 22  2  0  0  0  0
 21 23  1  0  0  0  0
 23 24  1  0  0  0  0
 24 46  1  0  0  0  0
 24 47  1  0  0  0  0
 24 48  1  0  0  0  0
M  CHG  1  20  -1
M  END
> <s_m_source_file>
AV-unprocessed.smi

> <i_m_source_file_index>
540

> <i_lp_mmshare_version>
43012

> <i_f3d_flags>
0

> <s_epik_input>
W0NIM11uMWMoPU8pW25IXWMoPU8pYyhjMTIpbihbQ0gyXVtDSDJdT1tDSDJdW0NIM10pYyhuMilOM1tDSDJdW0NIMl1bQ0hdKFtDSDNdKVtDSDJdW0NIMl0z

> <s_epik_cmdline>
J2VwaWtfcHl0aG9uJywgJy1waCcsICc3LjAnLCAnLXRuJywgJzgnLCAnLW1hJywgJzIwMCcsICctbWV0YWxfYmluZGluZycsICctaW1hZScsICc8aW5maWxlLm1hZT4nLCAnLW9tYWUnLCAnPG91dGZpbGUubWFlPic=

> <r_lp_tautomer_probability>
1

> <r_epik_Ionization_Penalty>
5.11981

> <r_epik_Ionization_Penalty_Charging>
0.0737583

> <r_epik_Ionization_Penalty_Neutral>
5.04605

> <r_epik_State_Penalty>
5.03218

> <r_epik_Charging_Adjusted_Penalty>
5.10594

> <i_epik_Tot_Q>
-1

> <i_epik_Tot_abs_Q>
1

> <r_epik_Metal_State_Penalty>
1.14277

> <b_epik_Metal_Only>
1

> <s_lp_Force_Field>
OPLS_2005

> <r_lp_Energy>
41.1943

> <b_lp_Chiralities_Consistent>
1

> <s_lp_Variant>
AV-unprocessed.smi:540-2

> <Gold.Version>
5.8.1

> <Gold.Id.Protein>
6NUR|6NUR_protein|mol2

> <Gold.PLP.Fitness>
40.6712

> <Gold.PLP.PLP>
-36.7039

> <Gold.PLP.part.hbond>
-2.0000

> <Gold.PLP.part.metal>
0.0000

> <Gold.PLP.part.buried>
-4.1965

> <Gold.PLP.part.nonpolar>
-29.9896

> <Gold.PLP.part.repulsive>
0.0514

> <Gold.PLP.ligand.clash>
1.0257

> <Gold.PLP.ligand.torsion>
1.2433

> <Gold.PLP.Chemscore.Hbond>
2.3172

> <Gold.PLP.Chemscore.CHOScore>
0.0000

> <Gold.PLP.Chemscore.Metal>
0.0000

> <Gold.Chemscore.Hbonds>
donor molecule, donor type, donor heavy atom, donor atom, acceptor molecule, acceptor atom, score
      P1  H  7997  8008       L1    15  0.37
      P1  H 10752 10765       L1    20  1.71

> <Gold.PLP.Chemscore.Internal.Correction>
0.5281

> <Gold.Rescore>
     Score         DG    S(hbond)    S(metal)    S(lipo)     H(rot)  DE(clash)    DE(int)     intcor
     12.32     -14.50       0.67        0.00      92.06       1.55       0.23       1.96       ----

> <Gold.Chemscore.Fitness>
12.3158

> <Gold.Chemscore.DG>
-14.5014

> <Gold.Chemscore.ZeroCoef>
-5.4800

> <Gold.Chemscore.Hbond>
0.6670

> <Gold.Chemscore.Metal>
0.0000

> <Gold.Chemscore.Lipo>
92.0562

> <Gold.Chemscore.Internal_Hbond>
0.0000

> <Gold.Chemscore.DEClash>
0.2285

> <Gold.Chemscore.DEInternal>
1.9571

> <Gold.Chemscore.Rot>
1.5534

> <Gold.Chemscore.Internal.Correction>
   9.000000E+99

> <Gold.Chemscore.Hbonds>
donor molecule, donor type, donor heavy atom, donor atom, acceptor molecule, acceptor atom, score
      P1  H  7997  8008       L1    15  0.05
      P1  H 10752 10765       L1    20  0.04

> <Gold.Chemscore.Hbond.Weighted>
-2.2277

> <Gold.Chemscore.Metal.Weighted>
-0.0000

> <Gold.Chemscore.Lipo.Weighted>
-10.7706

> <Gold.Chemscore.Internal_Hbond.Weighted>
0.0000

> <Gold.Chemscore.DEClash.Weighted>
0.2285

> <Gold.Chemscore.DEInternal.Weighted>
1.9571

> <Gold.Chemscore.Rot.Weighted>
3.9768

> <Gold.Chemscore.Internal.Correction.Weighted>
   9.000000E+99

> <Gold.Protein.RotatedTorsions>
[ 6907 6896 6895 6894 ] final -168.52 input  -60.11 | X-H torsion
[ 7974 7965 7964 7962 ] final -104.37 input  175.53 | X-H torsion
[ 8008 7997 7996 7995 ] final -125.27 input   59.86 | X-H torsion
[ 10167 10162 10161 10158 ] final -108.43 input  -65.29 | X-H torsion
[ 10718 10713 10712 10709 ] final -121.49 input   66.30 | X-H torsion
[ 10763 10752 10751 10750 ] final -106.61 input  -60.55 | X-H torsion
[ 11005 11000 10999 10996 ] final  -47.25 input  -57.11 | X-H torsion

> <Gold.Protein.ActiveResidues>
 VAL166  LYS551  ARG553  GLY616  TRP617  ASP618  TYR619  PRO620  LYS621  CYS622 
 ASP623  PHE694  ASN695  SER759  ASP760  ASP761  ALA762  ILE779  LEU786  VAL792 
 PHE793  MET794  SER795  GLU796  ALA797  LYS798  CYS799  TRP800  GLU811  SER814 

> <Gold.Protein.RotatedAtoms>
  151.4769  133.3555  159.2831 H   0  0  0  0  0  0  0  0  0  0  0  0  # atno 6907 bound_to 6896
  150.8923  134.8330  159.7313 H   0  0  0  0  0  0  0  0  0  0  0  0  # atno 6908 bound_to 6896
  152.4830  134.4681  159.9678 H   0  0  0  0  0  0  0  0  0  0  0  0  # atno 6909 bound_to 6896
  145.2440  140.9215  143.3133 H   0  0  0  0  0  0  0  0  0  0  0  0  # atno 7974 bound_to 7965
  155.2105  140.0418  157.2932 H   0  0  0  0  0  0  0  0  0  0  0  0  # atno 8008 bound_to 7997
  154.6015  140.2453  155.7758 H   0  0  0  0  0  0  0  0  0  0  0  0  # atno 8009 bound_to 7997
  156.2324  140.2933  156.0232 H   0  0  0  0  0  0  0  0  0  0  0  0  # atno 8010 bound_to 7997
  140.1662  143.4080  152.1389 H   0  0  0  0  0  0  0  0  0  0  0  0  # atno 10167 bound_to 10162
  156.1342  130.6418  150.9669 H   0  0  0  0  0  0  0  0  0  0  0  0  # atno 10718 bound_to 10713
  154.8023  135.4705  154.0307 H   0  0  0  0  0  0  0  0  0  0  0  0  # atno 10763 bound_to 10752
  153.1802  135.6839  153.8495 H   0  0  0  0  0  0  0  0  0  0  0  0  # atno 10764 bound_to 10752
  153.8048  135.3225  155.3372 H   0  0  0  0  0  0  0  0  0  0  0  0  # atno 10765 bound_to 10752
  141.0629  133.6703  156.3270 H   0  0  0  0  0  0  0  0  0  0  0  0  # atno 11005 bound_to 11000
  144.9563  139.4028  143.6378 LP  0  0  0  0  0  0  0  0  0  0  0  0  # atno 17320 bound_to 7965
  146.3320  139.8594  142.8859 LP  0  0  0  0  0  0  0  0  0  0  0  0  # atno 17321 bound_to 7965
  139.5358  144.7208  151.4897 LP  0  0  0  0  0  0  0  0  0  0  0  0  # atno 17342 bound_to 10162
  140.6611  143.8495  150.6889 LP  0  0  0  0  0  0  0  0  0  0  0  0  # atno 17343 bound_to 10162
  157.6516  131.0896  150.8037 LP  0  0  0  0  0  0  0  0  0  0  0  0  # atno 17370 bound_to 10713
  156.8119  130.4955  149.5354 LP  0  0  0  0  0  0  0  0  0  0  0  0  # atno 17371 bound_to 10713
  140.5832  134.5724  157.5484 LP  0  0  0  0  0  0  0  0  0  0  0  0  # atno 17394 bound_to 11000
  139.9449  134.7720  156.0586 LP  0  0  0  0  0  0  0  0  0  0  0  0  # atno 17395 bound_to 11000

$$$$
