AV-unprocessed.smi:1366|AV-procd|sdf|5570|dock9
  -GOLD-   22720 5163D 1   1.00000     0.00000
 Structure written by MMmdl.
 31 32  0  0  0  0  0  0  0  0  1 V2000
  150.2369  134.8814  154.9448 N   0  0  0  0  0  0  0  0  0  0  0  0
  150.4847  135.9896  155.1669 C   0  0  0  0  0  0  0  0  0  0  0  0
  150.7964  137.3845  155.4466 C   0  0  0  0  0  0  0  0  0  0  0  0
  151.4481  137.7449  156.6466 C   0  0  0  0  0  0  0  0  0  0  0  0
  151.7505  139.0286  156.9386 N   0  0  0  0  0  0  0  0  0  0  0  0
  151.4009  139.9376  156.0271 C   0  0  0  0  0  0  0  0  0  0  0  0
  151.7882  141.6242  156.4118 S   0  0  0  0  0  0  0  0  0  0  0  0
  150.7158  141.8438  157.8575 C   0  0  0  0  0  0  0  0  0  0  0  0
  150.7339  143.2910  158.3673 C   0  0  2  0  0  0  0  0  0  0  0  0
  152.1216  143.9413  158.2059 C   0  0  0  0  0  0  0  0  0  0  0  0
  152.1268  145.3547  158.7995 C   0  0  0  0  0  0  0  0  0  0  0  0
  151.6163  145.3104  160.2436 C   0  0  0  0  0  0  0  0  0  0  0  0
  150.2602  144.5903  160.3082 C   0  0  0  0  0  0  0  0  0  0  0  0
  150.3780  143.2860  159.7487 O   0  0  0  0  0  0  0  0  0  0  0  0
  150.7853  139.7275  154.8621 N   0  0  0  0  0  0  0  0  0  0  0  0
  150.4772  138.4469  154.5622 C   0  0  0  0  0  0  0  0  0  0  0  0
  149.8305  138.2398  153.3423 N   0  0  0  0  0  0  0  0  0  0  0  0
  151.7295  137.0031  157.3802 H   0  0  0  0  0  0  0  0  0  0  0  0
  149.7000  141.5472  157.5935 H   0  0  0  0  0  0  0  0  0  0  0  0
  151.0543  141.1652  158.6410 H   0  0  0  0  0  0  0  0  0  0  0  0
  149.9960  143.8693  157.8080 H   0  0  0  0  0  0  0  0  0  0  0  0
  152.8743  143.3328  158.7093 H   0  0  0  0  0  0  0  0  0  0  0  0
  152.4032  143.9791  157.1533 H   0  0  0  0  0  0  0  0  0  0  0  0
  153.1303  145.7796  158.7628 H   0  0  0  0  0  0  0  0  0  0  0  0
  151.4870  146.0067  158.2034 H   0  0  0  0  0  0  0  0  0  0  0  0
  152.3370  144.7851  160.8717 H   0  0  0  0  0  0  0  0  0  0  0  0
  151.5281  146.3202  160.6447 H   0  0  0  0  0  0  0  0  0  0  0  0
  149.9325  144.5006  161.3440 H   0  0  0  0  0  0  0  0  0  0  0  0
  149.4919  145.1567  159.7796 H   0  0  0  0  0  0  0  0  0  0  0  0
  149.5604  137.3163  153.0356 H   0  0  0  0  0  0  0  0  0  0  0  0
  149.6075  139.0110  152.7293 H   0  0  0  0  0  0  0  0  0  0  0  0
  1  2  3  0  0  0  0
  2  3  1  0  0  0  0
  3 16  1  0  0  0  0
  3  4  2  0  0  0  0
  4  5  1  0  0  0  0
  4 18  1  0  0  0  0
  5  6  2  0  0  0  0
  6  7  1  0  0  0  0
  6 15  1  0  0  0  0
  7  8  1  0  0  0  0
  8  9  1  0  0  0  0
  8 19  1  0  0  0  0
  8 20  1  0  0  0  0
  9 14  1  0  0  0  0
  9 10  1  0  0  0  0
  9 21  1  0  0  0  0
 10 11  1  0  0  0  0
 10 22  1  0  0  0  0
 10 23  1  0  0  0  0
 11 12  1  0  0  0  0
 11 24  1  0  0  0  0
 11 25  1  0  0  0  0
 12 13  1  0  0  0  0
 12 26  1  0  0  0  0
 12 27  1  0  0  0  0
 13 14  1  0  0  0  0
 13 28  1  0  0  0  0
 13 29  1  0  0  0  0
 15 16  2  0  0  0  0
 16 17  1  0  0  0  0
 17 30  1  0  0  0  0
 17 31  1  0  0  0  0
M  END
> <s_m_source_file>
AV-unprocessed.smi

> <i_m_source_file_index>
1366

> <i_lp_mmshare_version>
43012

> <i_f3d_flags>
0

> <s_epik_input>
TiNDYzFbY0hdbmMobmMxW05IMl0pU1tDSDJdW0NAQEhdMltDSDJdW0NIMl1bQ0gyXVtDSDJdTzI=

> <s_epik_cmdline>
J2VwaWtfcHl0aG9uJywgJy1waCcsICc3LjAnLCAnLXRuJywgJzgnLCAnLW1hJywgJzIwMCcsICctbWV0YWxfYmluZGluZycsICctaW1hZScsICc8aW5maWxlLm1hZT4nLCAnLW9tYWUnLCAnPG91dGZpbGUubWFlPic=

> <r_lp_tautomer_probability>
1

> <r_epik_Ionization_Penalty>
5.69531e-05

> <r_epik_Ionization_Penalty_Charging>
0

> <r_epik_Ionization_Penalty_Neutral>
5.69531e-05

> <r_epik_State_Penalty>
-0

> <r_epik_Charging_Adjusted_Penalty>
0

> <i_epik_Tot_Q>
0

> <i_epik_Tot_abs_Q>
0

> <r_epik_Metal_State_Penalty>
-0

> <b_epik_Metal_Only>
0

> <s_lp_Force_Field>
OPLS_2005

> <r_lp_Energy>
5.78872

> <b_lp_Chiralities_Consistent>
1

> <s_lp_Variant>
AV-unprocessed.smi:1366-1

> <Gold.Version>
5.8.1

> <Gold.Id.Protein>
6NUR|6NUR_protein|mol2

> <Gold.PLP.Fitness>
40.7559

> <Gold.PLP.PLP>
-32.3577

> <Gold.PLP.part.hbond>
-4.2291

> <Gold.PLP.part.metal>
0.0000

> <Gold.PLP.part.buried>
-6.3588

> <Gold.PLP.part.nonpolar>
-22.7588

> <Gold.PLP.part.repulsive>
0.4064

> <Gold.PLP.ligand.clash>
0.0000

> <Gold.PLP.ligand.torsion>
0.3016

> <Gold.PLP.Chemscore.Hbond>
3.0000

> <Gold.PLP.Chemscore.CHOScore>
0.0000

> <Gold.PLP.Chemscore.Metal>
0.0000

> <Gold.Chemscore.Hbonds>
donor molecule, donor type, donor heavy atom, donor atom, acceptor molecule, acceptor atom, score
      L1  H    17    30       P1  7948  1.00
      L1  H    17    31       P1  7957  1.00
      P1  H  7989  7998       L1    15  1.00

> <Gold.PLP.Chemscore.Internal.Correction>
0.0012

> <Gold.Rescore>
     Score         DG    S(hbond)    S(metal)    S(lipo)     H(rot)  DE(clash)    DE(int)     intcor
     17.41     -19.23       2.64        0.00      79.82       1.73       1.43       0.39       ----

> <Gold.Chemscore.Fitness>
17.4098

> <Gold.Chemscore.DG>
-19.2280

> <Gold.Chemscore.ZeroCoef>
-5.4800

> <Gold.Chemscore.Hbond>
2.6433

> <Gold.Chemscore.Metal>
0.0000

> <Gold.Chemscore.Lipo>
79.8244

> <Gold.Chemscore.Internal_Hbond>
0.0000

> <Gold.Chemscore.DEClash>
1.4329

> <Gold.Chemscore.DEInternal>
0.3852

> <Gold.Chemscore.Rot>
1.7266

> <Gold.Chemscore.Internal.Correction>
   9.000000E+99

> <Gold.Chemscore.Hbonds>
donor molecule, donor type, donor heavy atom, donor atom, acceptor molecule, acceptor atom, score
      L1  H    17    30       P1  7948  0.71
      L1  H    17    31       P1  7957  0.93
      P1  H  7989  7998       L1    15  0.62

> <Gold.Chemscore.Hbond.Weighted>
-8.8285

> <Gold.Chemscore.Metal.Weighted>
-0.0000

> <Gold.Chemscore.Lipo.Weighted>
-9.3395

> <Gold.Chemscore.Internal_Hbond.Weighted>
0.0000

> <Gold.Chemscore.DEClash.Weighted>
1.4329

> <Gold.Chemscore.DEInternal.Weighted>
0.3852

> <Gold.Chemscore.Rot.Weighted>
4.4200

> <Gold.Chemscore.Internal.Correction.Weighted>
   9.000000E+99

> <Gold.Protein.RotatedTorsions>
[ 6907 6896 6895 6894 ] final -130.98 input  -60.11 | X-H torsion
[ 7974 7965 7964 7962 ] final   45.97 input  175.53 | X-H torsion
[ 8008 7997 7996 7995 ] final  127.93 input   59.86 | X-H torsion
[ 10167 10162 10161 10158 ] final   63.89 input  -65.29 | X-H torsion
[ 10718 10713 10712 10709 ] final -136.21 input   66.30 | X-H torsion
[ 10763 10752 10751 10750 ] final    6.23 input  -60.55 | X-H torsion
[ 11005 11000 10999 10996 ] final -138.98 input  -57.11 | X-H torsion

> <Gold.Protein.ActiveResidues>
 VAL166  LYS551  ARG553  GLY616  TRP617  ASP618  TYR619  PRO620  LYS621  CYS622 
 ASP623  PHE694  ASN695  SER759  ASP760  ASP761  ALA762  ILE779  LEU786  VAL792 
 PHE793  MET794  SER795  GLU796  ALA797  LYS798  CYS799  TRP800  GLU811  SER814 

> <Gold.Protein.RotatedAtoms>
  150.9458  133.6604  159.2781 H   0  0  0  0  0  0  0  0  0  0  0  0  # atno 6907 bound_to 6896
  151.3978  135.0965  159.9556 H   0  0  0  0  0  0  0  0  0  0  0  0  # atno 6908 bound_to 6896
  152.5089  133.8959  159.7471 H   0  0  0  0  0  0  0  0  0  0  0  0  # atno 6909 bound_to 6896
  146.0432  139.4907  142.9765 H   0  0  0  0  0  0  0  0  0  0  0  0  # atno 7974 bound_to 7965
  156.2903  140.2657  156.2353 H   0  0  0  0  0  0  0  0  0  0  0  0  # atno 8008 bound_to 7997
  155.0031  140.0387  157.2386 H   0  0  0  0  0  0  0  0  0  0  0  0  # atno 8009 bound_to 7997
  154.7584  140.2756  155.6239 H   0  0  0  0  0  0  0  0  0  0  0  0  # atno 8010 bound_to 7997
  140.1281  144.4668  150.6880 H   0  0  0  0  0  0  0  0  0  0  0  0  # atno 10167 bound_to 10162
  156.2746  130.7285  151.1263 H   0  0  0  0  0  0  0  0  0  0  0  0  # atno 10718 bound_to 10713
  153.2502  135.6913  153.7688 H   0  0  0  0  0  0  0  0  0  0  0  0  # atno 10763 bound_to 10752
  153.6785  135.3332  155.3173 H   0  0  0  0  0  0  0  0  0  0  0  0  # atno 10764 bound_to 10752
  154.8391  135.4517  154.1456 H   0  0  0  0  0  0  0  0  0  0  0  0  # atno 10765 bound_to 10752
  140.8564  134.2223  157.4732 H   0  0  0  0  0  0  0  0  0  0  0  0  # atno 11005 bound_to 11000
  145.6849  141.0181  143.1586 LP  0  0  0  0  0  0  0  0  0  0  0  0  # atno 17320 bound_to 7965
  144.7085  139.8465  143.7422 LP  0  0  0  0  0  0  0  0  0  0  0  0  # atno 17321 bound_to 7965
  140.6833  143.2337  151.5327 LP  0  0  0  0  0  0  0  0  0  0  0  0  # atno 17342 bound_to 10162
  139.5533  144.2338  152.1569 LP  0  0  0  0  0  0  0  0  0  0  0  0  # atno 17343 bound_to 10162
  157.7295  131.0624  150.5771 LP  0  0  0  0  0  0  0  0  0  0  0  0  # atno 17370 bound_to 10713
  156.5871  130.4319  149.5952 LP  0  0  0  0  0  0  0  0  0  0  0  0  # atno 17371 bound_to 10713
  139.8705  134.9708  156.4715 LP  0  0  0  0  0  0  0  0  0  0  0  0  # atno 17394 bound_to 11000
  140.8733  133.7972  155.9387 LP  0  0  0  0  0  0  0  0  0  0  0  0  # atno 17395 bound_to 11000

$$$$
