AV-unprocessed.smi:598|AV-procd|sdf|3022|dock3
  -GOLD-   2262023533D 1   1.00000     0.00000
 Structure written by MMmdl.
 43 44  0  0  0  0  0  0  0  0  3 V2000
  152.2669  144.9782  159.9432 C   0  0  0  0  0  0  0  0  0  0  0  0
  152.2294  143.7262  159.0510 C   0  0  1  0  0  0  0  0  0  0  0  0
  152.3600  142.4313  159.8787 C   0  0  0  0  0  0  0  0  0  0  0  0
  152.4215  141.1892  158.9762 C   0  0  0  0  0  0  0  0  0  0  0  0
  151.2198  141.1272  158.0215 C   0  0  0  0  0  0  0  0  0  0  0  0
  151.0995  142.4200  157.1916 C   0  0  1  0  0  0  0  0  0  0  0  0
  149.9709  142.3132  156.2696 N   0  0  0  0  0  0  0  0  0  0  0  0
  149.8493  141.4028  155.2916 C   0  0  0  0  0  0  0  0  0  0  0  0
  150.6821  140.5199  155.0821 O   0  0  0  0  0  0  0  0  0  0  0  0
  148.5828  141.5040  154.4305 C   0  0  0  0  0  0  0  0  0  0  0  0
  147.7262  140.3101  154.5263 N   0  0  0  0  0  0  0  0  0  0  0  0
  147.3846  139.6651  153.3209 C   0  0  0  0  0  0  0  0  0  0  0  0
  146.6025  138.5682  153.2928 C   0  0  0  0  0  0  0  0  0  0  0  0
  146.2574  137.9215  152.0456 N   0  3  0  0  0  0  0  0  0  0  0  0
  145.4878  136.9663  152.0715 O   0  0  0  0  0  0  0  0  0  0  0  0
  146.7436  138.3443  151.0007 O   0  5  0  0  0  0  0  0  0  0  0  0
  146.1113  138.0577  154.5584 C   0  0  0  0  0  0  0  0  0  0  0  0
  146.4323  138.6716  155.7142 C   0  0  0  0  0  0  0  0  0  0  0  0
  147.2826  139.8660  155.7424 C   0  0  0  0  0  0  0  0  0  0  0  0
  147.5781  140.4328  156.7949 O   0  0  0  0  0  0  0  0  0  0  0  0
  151.0033  143.6775  158.1001 C   0  0  1  0  0  0  0  0  0  0  0  0
  149.6457  143.7980  158.8316 C   0  0  0  0  0  0  0  0  0  0  0  0
  151.4767  144.9646  160.6941 H   0  0  0  0  0  0  0  0  0  0  0  0
  152.1556  145.8875  159.3521 H   0  0  0  0  0  0  0  0  0  0  0  0
  153.2164  145.0474  160.4745 H   0  0  0  0  0  0  0  0  0  0  0  0
  153.1142  143.7847  158.4148 H   0  0  0  0  0  0  0  0  0  0  0  0
  153.2599  142.4732  160.4933 H   0  0  0  0  0  0  0  0  0  0  0  0
  151.5233  142.3415  160.5719 H   0  0  0  0  0  0  0  0  0  0  0  0
  153.3452  141.2065  158.3963 H   0  0  0  0  0  0  0  0  0  0  0  0
  152.4588  140.2866  159.5868 H   0  0  0  0  0  0  0  0  0  0  0  0
  151.3291  140.2680  157.3587 H   0  0  0  0  0  0  0  0  0  0  0  0
  150.3066  140.9570  158.5929 H   0  0  0  0  0  0  0  0  0  0  0  0
  152.0094  142.5019  156.5935 H   0  0  0  0  0  0  0  0  0  0  0  0
  149.2366  142.9988  156.3708 H   0  0  0  0  0  0  0  0  0  0  0  0
  148.0370  142.3977  154.7360 H   0  0  0  0  0  0  0  0  0  0  0  0
  148.8596  141.6801  153.3891 H   0  0  0  0  0  0  0  0  0  0  0  0
  147.7935  140.1269  152.4336 H   0  0  0  0  0  0  0  0  0  0  0  0
  145.4815  137.1807  154.5888 H   0  0  0  0  0  0  0  0  0  0  0  0
  146.0545  138.2757  156.6455 H   0  0  0  0  0  0  0  0  0  0  0  0
  151.0744  144.5505  157.4496 H   0  0  0  0  0  0  0  0  0  0  0  0
  149.4829  142.9800  159.5324 H   0  0  0  0  0  0  0  0  0  0  0  0
  148.8112  143.8007  158.1304 H   0  0  0  0  0  0  0  0  0  0  0  0
  149.5746  144.7300  159.3909 H   0  0  0  0  0  0  0  0  0  0  0  0
  1  2  1  0  0  0  0
  1 23  1  0  0  0  0
  1 24  1  0  0  0  0
  1 25  1  0  0  0  0
  2 21  1  0  0  0  0
  2  3  1  0  0  0  0
  2 26  1  0  0  0  0
  3  4  1  0  0  0  0
  3 27  1  0  0  0  0
  3 28  1  0  0  0  0
  4  5  1  0  0  0  0
  4 29  1  0  0  0  0
  4 30  1  0  0  0  0
  5  6  1  0  0  0  0
  5 31  1  0  0  0  0
  5 32  1  0  0  0  0
  6  7  1  0  0  0  0
  6 21  1  0  0  0  0
  6 33  1  0  0  0  0
  7  8  1  0  0  0  0
  7 34  1  0  0  0  0
  8  9  2  0  0  0  0
  8 10  1  0  0  0  0
 10 11  1  0  0  0  0
 10 35  1  0  0  0  0
 10 36  1  0  0  0  0
 11 19  1  0  0  0  0
 11 12  1  0  0  0  0
 12 13  2  0  0  0  0
 12 37  1  0  0  0  0
 13 14  1  0  0  0  0
 13 17  1  0  0  0  0
 14 15  2  0  0  0  0
 14 16  1  0  0  0  0
 17 18  2  0  0  0  0
 17 38  1  0  0  0  0
 18 19  1  0  0  0  0
 18 39  1  0  0  0  0
 19 20  2  0  0  0  0
 21 22  1  0  0  0  0
 21 40  1  0  0  0  0
 22 41  1  0  0  0  0
 22 42  1  0  0  0  0
 22 43  1  0  0  0  0
M  CHG  1  14   1
M  CHG  1  16  -1
M  END
> <s_m_source_file>
AV-unprocessed.smi

> <i_m_source_file_index>
598

> <i_lp_mmshare_version>
43012

> <i_f3d_flags>
0

> <s_epik_input>
W0NIM11bQ0BASF0xW0NIMl1bQ0gyXVtDSDJdW0NASF0oW0NASF0xW0NIM10pW05IXUMoPU8pW0NIMl1uMltjSF1jKFtOK10oPU8pW08tXSlbY0hdW2NIXWMyPU8=

> <s_epik_cmdline>
J2VwaWtfcHl0aG9uJywgJy1waCcsICc3LjAnLCAnLXRuJywgJzgnLCAnLW1hJywgJzIwMCcsICctbWV0YWxfYmluZGluZycsICctaW1hZScsICc8aW5maWxlLm1hZT4nLCAnLW9tYWUnLCAnPG91dGZpbGUubWFlPic=

> <r_lp_tautomer_probability>
1

> <r_epik_Ionization_Penalty>
1.91291e-08

> <r_epik_Ionization_Penalty_Charging>
8.21931e-11

> <r_epik_Ionization_Penalty_Neutral>
1.90469e-08

> <r_epik_State_Penalty>
-0

> <r_epik_Charging_Adjusted_Penalty>
8.21931e-11

> <i_epik_Tot_Q>
0

> <i_epik_Tot_abs_Q>
2

> <r_epik_Metal_State_Penalty>
-0

> <b_epik_Metal_Only>
0

> <s_lp_Force_Field>
OPLS_2005

> <r_lp_Energy>
25.1906

> <b_lp_Chiralities_Consistent>
1

> <s_lp_Variant>
AV-unprocessed.smi:598-2

> <Gold.Version>
5.8.1

> <Gold.Id.Protein>
6NUR|6NUR_protein|mol2

> <Gold.PLP.Fitness>
49.5091

> <Gold.PLP.PLP>
-38.6578

> <Gold.PLP.part.hbond>
-3.0000

> <Gold.PLP.part.metal>
0.0000

> <Gold.PLP.part.buried>
-4.2605

> <Gold.PLP.part.nonpolar>
-33.0427

> <Gold.PLP.part.repulsive>
0.8461

> <Gold.PLP.ligand.clash>
0.0000

> <Gold.PLP.ligand.torsion>
0.0552

> <Gold.PLP.Chemscore.Hbond>
2.6480

> <Gold.PLP.Chemscore.CHOScore>
1.0000

> <Gold.PLP.Chemscore.Metal>
0.0000

> <Gold.Chemscore.Hbonds>
donor molecule, donor type, donor heavy atom, donor atom, acceptor molecule, acceptor atom, score
      L1  H     7    34       P1  8028  0.72
      P1  H  7954  7966       L1    16  1.00
      P1  H  7989  7998       L1     9  1.00
      L1  C    12    37       P1  7957  1.00

> <Gold.PLP.Chemscore.Internal.Correction>
0.0178

> <Gold.Rescore>
     Score         DG    S(hbond)    S(metal)    S(lipo)     H(rot)  DE(clash)    DE(int)     intcor
     17.96     -20.77       2.42        0.00      95.19       1.54       1.46       1.35       ----

> <Gold.Chemscore.Fitness>
17.9639

> <Gold.Chemscore.DG>
-20.7701

> <Gold.Chemscore.ZeroCoef>
-5.4800

> <Gold.Chemscore.Hbond>
2.4233

> <Gold.Chemscore.Metal>
0.0000

> <Gold.Chemscore.Lipo>
95.1870

> <Gold.Chemscore.Internal_Hbond>
0.0000

> <Gold.Chemscore.DEClash>
1.4607

> <Gold.Chemscore.DEInternal>
1.3455

> <Gold.Chemscore.Rot>
1.5393

> <Gold.Chemscore.Internal.Correction>
   9.000000E+99

> <Gold.Chemscore.Hbonds>
donor molecule, donor type, donor heavy atom, donor atom, acceptor molecule, acceptor atom, score
      L1  H     7    34       P1  8028  0.72
      P1  H  7954  7966       L1    16  0.98
      P1  H  7989  7998       L1     9  0.70

> <Gold.Chemscore.Hbond.Weighted>
-8.0940

> <Gold.Chemscore.Metal.Weighted>
-0.0000

> <Gold.Chemscore.Lipo.Weighted>
-11.1369

> <Gold.Chemscore.Internal_Hbond.Weighted>
0.0000

> <Gold.Chemscore.DEClash.Weighted>
1.4607

> <Gold.Chemscore.DEInternal.Weighted>
1.3455

> <Gold.Chemscore.Rot.Weighted>
3.9407

> <Gold.Chemscore.Internal.Correction.Weighted>
   9.000000E+99

> <Gold.Protein.RotatedTorsions>
[ 6907 6896 6895 6894 ] final  109.20 input  -60.11 | X-H torsion
[ 7974 7965 7964 7962 ] final   52.87 input  175.53 | X-H torsion
[ 8008 7997 7996 7995 ] final -146.28 input   59.86 | X-H torsion
[ 10167 10162 10161 10158 ] final   63.29 input  -65.29 | X-H torsion
[ 10718 10713 10712 10709 ] final   12.51 input   66.30 | X-H torsion
[ 10763 10752 10751 10750 ] final -169.78 input  -60.55 | X-H torsion
[ 11005 11000 10999 10996 ] final  -83.23 input  -57.11 | X-H torsion

> <Gold.Protein.ActiveResidues>
 VAL166  LYS551  ARG553  GLY616  TRP617  ASP618  TYR619  PRO620  LYS621  CYS622 
 ASP623  PHE694  ASN695  SER759  ASP760  ASP761  ALA762  ILE779  LEU786  VAL792 
 PHE793  MET794  SER795  GLU796  ALA797  LYS798  CYS799  TRP800  GLU811  SER814 

> <Gold.Protein.RotatedAtoms>
  152.5078  133.8979  159.7425 H   0  0  0  0  0  0  0  0  0  0  0  0  # atno 6907 bound_to 6896
  150.9402  133.6657  159.2799 H   0  0  0  0  0  0  0  0  0  0  0  0  # atno 6908 bound_to 6896
  151.3971  135.0970  159.9597 H   0  0  0  0  0  0  0  0  0  0  0  0  # atno 6909 bound_to 6896
  145.9769  139.4204  143.0155 H   0  0  0  0  0  0  0  0  0  0  0  0  # atno 7974 bound_to 7965
  155.5568  140.0621  157.2838 H   0  0  0  0  0  0  0  0  0  0  0  0  # atno 8008 bound_to 7997
  154.4403  140.1893  156.0787 H   0  0  0  0  0  0  0  0  0  0  0  0  # atno 8009 bound_to 7997
  156.0476  140.3288  155.7318 H   0  0  0  0  0  0  0  0  0  0  0  0  # atno 8010 bound_to 7997
  140.1346  144.4611  150.6845 H   0  0  0  0  0  0  0  0  0  0  0  0  # atno 10167 bound_to 10162
  157.0112  130.6118  149.5708 H   0  0  0  0  0  0  0  0  0  0  0  0  # atno 10718 bound_to 10713
  154.6486  135.2908  155.0015 H   0  0  0  0  0  0  0  0  0  0  0  0  # atno 10763 bound_to 10752
  154.1116  135.6561  153.4890 H   0  0  0  0  0  0  0  0  0  0  0  0  # atno 10764 bound_to 10752
  153.0364  135.5266  154.7384 H   0  0  0  0  0  0  0  0  0  0  0  0  # atno 10765 bound_to 10752
  141.1659  133.7284  156.8689 H   0  0  0  0  0  0  0  0  0  0  0  0  # atno 11005 bound_to 11000
  145.7825  140.9850  143.1091 LP  0  0  0  0  0  0  0  0  0  0  0  0  # atno 17320 bound_to 7965
  144.6851  139.9582  143.7479 LP  0  0  0  0  0  0  0  0  0  0  0  0  # atno 17321 bound_to 7965
  140.6796  143.2321  151.5417 LP  0  0  0  0  0  0  0  0  0  0  0  0  # atno 17342 bound_to 10162
  139.5502  144.2415  152.1516 LP  0  0  0  0  0  0  0  0  0  0  0  0  # atno 17343 bound_to 10162
  156.0135  130.5228  150.8064 LP  0  0  0  0  0  0  0  0  0  0  0  0  # atno 17370 bound_to 10713
  157.5319  131.0937  150.9944 LP  0  0  0  0  0  0  0  0  0  0  0  0  # atno 17371 bound_to 10713
  140.1795  134.9043  157.2931 LP  0  0  0  0  0  0  0  0  0  0  0  0  # atno 17394 bound_to 11000
  140.2411  134.3795  155.7480 LP  0  0  0  0  0  0  0  0  0  0  0  0  # atno 17395 bound_to 11000

$$$$
