AV-unprocessed.smi:1501|AV-procd|sdf|6064|dock3
  -GOLD-   22720 6183D 1   1.00000     0.00000
 Structure written by MMmdl.
 49 50  0  0  0  0  0  0  0  0  1 V2000
  151.1076  138.1665  155.1428 C   0  0  0  0  0  0  0  0  0  0  0  0
  150.6078  139.5931  155.2858 C   0  0  0  0  0  0  0  0  0  0  0  0
  151.1915  140.3398  156.3168 N   0  0  0  0  0  0  0  0  0  0  0  0
  150.8355  141.5701  156.5173 C   0  0  0  0  0  0  0  0  0  0  0  0
  151.3364  142.4139  157.5126 N   0  0  0  0  0  0  0  0  0  0  0  0
  152.2498  141.8818  158.5245 C   0  0  0  0  0  0  0  0  0  0  0  0
  152.2332  142.7354  159.8035 C   0  0  0  0  0  0  0  0  0  0  0  0
  152.5317  144.0866  159.4809 O   0  0  0  0  0  0  0  0  0  0  0  0
  151.5602  144.6335  158.6001 C   0  0  0  0  0  0  0  0  0  0  0  0
  151.5535  143.8448  157.2797 C   0  0  0  0  0  0  0  0  0  0  0  0
  149.8557  142.1563  155.7078 N   0  0  0  0  0  0  0  0  0  0  0  0
  149.2378  141.5241  154.6858 C   0  0  0  0  0  0  0  0  0  0  0  0
  148.3934  142.1100  154.0099 O   0  0  0  0  0  0  0  0  0  0  0  0
  149.6595  140.1308  154.4692 C   0  0  0  0  0  0  0  0  0  0  0  0
  148.9892  139.3503  153.3419 C   0  0  0  0  0  0  0  0  0  0  0  0
  147.4534  139.4080  153.4343 C   0  0  0  0  0  0  0  0  0  0  0  0
  146.7683  138.5682  152.3538 C   0  0  0  0  0  0  0  0  0  0  0  0
  146.9402  138.8263  151.1624 O   0  0  0  0  0  0  0  0  0  0  0  0
  145.9989  137.5577  152.7830 N   0  0  0  0  0  0  0  0  0  0  0  0
  145.2788  136.6392  151.9101 C   0  0  0  0  0  0  0  0  0  0  0  0
  144.1218  135.9393  152.6494 C   0  0  0  0  0  0  0  0  0  0  0  0
  143.5510  134.7503  151.8568 C   0  0  0  0  0  0  0  0  0  0  0  0
  143.0117  136.9430  152.9944 C   0  0  0  0  0  0  0  0  0  0  0  0
  149.5897  143.1127  155.8906 H   0  0  0  0  0  0  0  0  0  0  0  0
  151.4314  137.9720  154.1201 H   0  0  0  0  0  0  0  0  0  0  0  0
  150.3182  137.4595  155.3984 H   0  0  0  0  0  0  0  0  0  0  0  0
  151.9550  137.9758  155.8022 H   0  0  0  0  0  0  0  0  0  0  0  0
  151.9831  140.8559  158.7818 H   0  0  0  0  0  0  0  0  0  0  0  0
  153.2579  141.8532  158.1088 H   0  0  0  0  0  0  0  0  0  0  0  0
  151.2639  142.6717  160.3010 H   0  0  0  0  0  0  0  0  0  0  0  0
  152.9773  142.3667  160.5096 H   0  0  0  0  0  0  0  0  0  0  0  0
  150.5747  144.6156  159.0682 H   0  0  0  0  0  0  0  0  0  0  0  0
  151.8031  145.6791  158.4106 H   0  0  0  0  0  0  0  0  0  0  0  0
  152.5091  143.9714  156.7689 H   0  0  0  0  0  0  0  0  0  0  0  0
  150.7919  144.2710  156.6269 H   0  0  0  0  0  0  0  0  0  0  0  0
  149.3145  139.7368  152.3762 H   0  0  0  0  0  0  0  0  0  0  0  0
  149.3349  138.3154  153.3636 H   0  0  0  0  0  0  0  0  0  0  0  0
  147.1233  139.0440  154.4077 H   0  0  0  0  0  0  0  0  0  0  0  0
  147.1189  140.4440  153.3608 H   0  0  0  0  0  0  0  0  0  0  0  0
  145.9113  137.4111  153.7780 H   0  0  0  0  0  0  0  0  0  0  0  0
  144.8886  137.1947  151.0554 H   0  0  0  0  0  0  0  0  0  0  0  0
  145.9768  135.8988  151.5164 H   0  0  0  0  0  0  0  0  0  0  0  0
  144.5128  135.5515  153.5912 H   0  0  0  0  0  0  0  0  0  0  0  0
  143.1675  135.0691  150.8871 H   0  0  0  0  0  0  0  0  0  0  0  0
  142.7313  134.2770  152.3979 H   0  0  0  0  0  0  0  0  0  0  0  0
  144.3056  133.9834  151.6810 H   0  0  0  0  0  0  0  0  0  0  0  0
  142.5690  137.3695  152.0934 H   0  0  0  0  0  0  0  0  0  0  0  0
  143.3979  137.7659  153.5967 H   0  0  0  0  0  0  0  0  0  0  0  0
  142.2134  136.4663  153.5640 H   0  0  0  0  0  0  0  0  0  0  0  0
  1  2  1  0  0  0  0
  1 25  1  0  0  0  0
  1 26  1  0  0  0  0
  1 27  1  0  0  0  0
  2 14  2  0  0  0  0
  2  3  1  0  0  0  0
  3  4  2  0  0  0  0
  4  5  1  0  0  0  0
  4 11  1  0  0  0  0
  5 10  1  0  0  0  0
  5  6  1  0  0  0  0
  6  7  1  0  0  0  0
  6 28  1  0  0  0  0
  6 29  1  0  0  0  0
  7  8  1  0  0  0  0
  7 30  1  0  0  0  0
  7 31  1  0  0  0  0
  8  9  1  0  0  0  0
  9 10  1  0  0  0  0
  9 32  1  0  0  0  0
  9 33  1  0  0  0  0
 10 34  1  0  0  0  0
 10 35  1  0  0  0  0
 11 24  1  0  0  0  0
 11 12  1  0  0  0  0
 12 13  2  0  0  0  0
 12 14  1  0  0  0  0
 14 15  1  0  0  0  0
 15 16  1  0  0  0  0
 15 36  1  0  0  0  0
 15 37  1  0  0  0  0
 16 17  1  0  0  0  0
 16 38  1  0  0  0  0
 16 39  1  0  0  0  0
 17 18  2  0  0  0  0
 17 19  1  0  0  0  0
 19 20  1  0  0  0  0
 19 40  1  0  0  0  0
 20 21  1  0  0  0  0
 20 41  1  0  0  0  0
 20 42  1  0  0  0  0
 21 22  1  0  0  0  0
 21 23  1  0  0  0  0
 21 43  1  0  0  0  0
 22 44  1  0  0  0  0
 22 45  1  0  0  0  0
 22 46  1  0  0  0  0
 23 47  1  0  0  0  0
 23 48  1  0  0  0  0
 23 49  1  0  0  0  0
M  END
> <s_m_source_file>
AV-unprocessed.smi

> <i_m_source_file_index>
1501

> <i_lp_mmshare_version>
43012

> <i_f3d_flags>
0

> <s_epik_input>
W0NIMl0xW0NIMl1PW0NIMl1bQ0gyXU4xYyhuYzJbQ0gzXSlbbkhdYyg9TyljMltDSDJdW0NIMl1DKD1PKVtOSF1bQ0gyXVtDSF0oW0NIM10pW0NIM10=

> <s_epik_cmdline>
J2VwaWtfcHl0aG9uJywgJy1waCcsICc3LjAnLCAnLXRuJywgJzgnLCAnLW1hJywgJzIwMCcsICctbWV0YWxfYmluZGluZycsICctaW1hZScsICc8aW5maWxlLm1hZT4nLCAnLW9tYWUnLCAnPG91dGZpbGUubWFlPic=

> <r_lp_tautomer_probability>
0.878553

> <r_epik_Ionization_Penalty>
0.00122307

> <r_epik_Ionization_Penalty_Charging>
0.0011975

> <r_epik_Ionization_Penalty_Neutral>
2.55789e-05

> <r_epik_State_Penalty>
0.0424099

> <r_epik_Charging_Adjusted_Penalty>
0.0436074

> <i_epik_Tot_Q>
0

> <i_epik_Tot_abs_Q>
0

> <r_epik_Metal_State_Penalty>
1.02628

> <b_epik_Metal_Only>
0

> <s_lp_Force_Field>
OPLS_2005

> <r_lp_Energy>
24.4519

> <b_lp_Chiralities_Consistent>
1

> <s_lp_Variant>
AV-unprocessed.smi:1501-1

> <Gold.Version>
5.8.1

> <Gold.Id.Protein>
6NUR|6NUR_protein|mol2

> <Gold.PLP.Fitness>
48.8443

> <Gold.PLP.PLP>
-43.3774

> <Gold.PLP.part.hbond>
-3.0000

> <Gold.PLP.part.metal>
0.0000

> <Gold.PLP.part.buried>
-2.1253

> <Gold.PLP.part.nonpolar>
-41.3222

> <Gold.PLP.part.repulsive>
2.0865

> <Gold.PLP.ligand.clash>
0.0000

> <Gold.PLP.ligand.torsion>
0.5459

> <Gold.PLP.Chemscore.Hbond>
2.1081

> <Gold.PLP.Chemscore.CHOScore>
0.0000

> <Gold.PLP.Chemscore.Metal>
0.0000

> <Gold.Chemscore.Hbonds>
donor molecule, donor type, donor heavy atom, donor atom, acceptor molecule, acceptor atom, score
      L1  H    11    24       P1  8028  1.00
      P1  H  7954  7966       L1    18  0.93
      P1  H  8011  8017       L1    13  0.13

> <Gold.PLP.Chemscore.Internal.Correction>
0.2342

> <Gold.Rescore>
     Score         DG    S(hbond)    S(metal)    S(lipo)     H(rot)  DE(clash)    DE(int)     intcor
     15.11     -18.35       1.93        0.00      94.98       1.83       1.80       1.44       ----

> <Gold.Chemscore.Fitness>
15.1129

> <Gold.Chemscore.DG>
-18.3524

> <Gold.Chemscore.ZeroCoef>
-5.4800

> <Gold.Chemscore.Hbond>
1.9323

> <Gold.Chemscore.Metal>
0.0000

> <Gold.Chemscore.Lipo>
94.9775

> <Gold.Chemscore.Internal_Hbond>
0.0000

> <Gold.Chemscore.DEClash>
1.7994

> <Gold.Chemscore.DEInternal>
1.4401

> <Gold.Chemscore.Rot>
1.8335

> <Gold.Chemscore.Internal.Correction>
   9.000000E+99

> <Gold.Chemscore.Hbonds>
donor molecule, donor type, donor heavy atom, donor atom, acceptor molecule, acceptor atom, score
      L1  H    11    24       P1  8028  1.00
      P1  H  7954  7966       L1    18  0.86
      P1  H  8011  8017       L1    13  0.01

> <Gold.Chemscore.Hbond.Weighted>
-6.4538

> <Gold.Chemscore.Metal.Weighted>
-0.0000

> <Gold.Chemscore.Lipo.Weighted>
-11.1124

> <Gold.Chemscore.Internal_Hbond.Weighted>
0.0000

> <Gold.Chemscore.DEClash.Weighted>
1.7994

> <Gold.Chemscore.DEInternal.Weighted>
1.4401

> <Gold.Chemscore.Rot.Weighted>
4.6938

> <Gold.Chemscore.Internal.Correction.Weighted>
   9.000000E+99

> <Gold.Protein.RotatedTorsions>
[ 6907 6896 6895 6894 ] final   55.84 input  -60.11 | X-H torsion
[ 7974 7965 7964 7962 ] final  121.47 input  175.53 | X-H torsion
[ 8008 7997 7996 7995 ] final  140.31 input   59.86 | X-H torsion
[ 10167 10162 10161 10158 ] final   58.19 input  -65.29 | X-H torsion
[ 10718 10713 10712 10709 ] final   51.91 input   66.30 | X-H torsion
[ 10763 10752 10751 10750 ] final  -71.87 input  -60.55 | X-H torsion
[ 11005 11000 10999 10996 ] final  -59.96 input  -57.11 | X-H torsion

> <Gold.Protein.ActiveResidues>
 VAL166  LYS551  ARG553  GLY616  TRP617  ASP618  TYR619  PRO620  LYS621  CYS622 
 ASP623  PHE694  ASN695  SER759  ASP760  ASP761  ALA762  ILE779  LEU786  VAL792 
 PHE793  MET794  SER795  GLU796  ALA797  LYS798  CYS799  TRP800  GLU811  SER814 

> <Gold.Protein.RotatedAtoms>
  152.3578  134.6916  160.0216 H   0  0  0  0  0  0  0  0  0  0  0  0  # atno 6907 bound_to 6896
  151.7249  133.3310  159.3333 H   0  0  0  0  0  0  0  0  0  0  0  0  # atno 6908 bound_to 6896
  150.7583  134.6349  159.6250 H   0  0  0  0  0  0  0  0  0  0  0  0  # atno 6909 bound_to 6896
  145.1189  139.3402  143.4724 H   0  0  0  0  0  0  0  0  0  0  0  0  # atno 7974 bound_to 7965
  156.2980  140.2345  156.4380 H   0  0  0  0  0  0  0  0  0  0  0  0  # atno 8008 bound_to 7997
  154.8211  140.0438  157.1432 H   0  0  0  0  0  0  0  0  0  0  0  0  # atno 8009 bound_to 7997
  154.9314  140.3017  155.5169 H   0  0  0  0  0  0  0  0  0  0  0  0  # atno 8010 bound_to 7997
  140.1898  144.4097  150.6576 H   0  0  0  0  0  0  0  0  0  0  0  0  # atno 10167 bound_to 10162
  157.5026  130.8447  149.8335 H   0  0  0  0  0  0  0  0  0  0  0  0  # atno 10718 bound_to 10713
  154.4378  135.5948  153.6109 H   0  0  0  0  0  0  0  0  0  0  0  0  # atno 10763 bound_to 10752
  152.9803  135.5990  154.3760 H   0  0  0  0  0  0  0  0  0  0  0  0  # atno 10764 bound_to 10752
  154.3606  135.2841  155.2300 H   0  0  0  0  0  0  0  0  0  0  0  0  # atno 10765 bound_to 10752
  141.1269  133.6619  156.5151 H   0  0  0  0  0  0  0  0  0  0  0  0  # atno 11005 bound_to 11000
  146.3522  140.1140  142.8603 LP  0  0  0  0  0  0  0  0  0  0  0  0  # atno 17320 bound_to 7965
  145.0762  140.9190  143.4852 LP  0  0  0  0  0  0  0  0  0  0  0  0  # atno 17321 bound_to 7965
  140.6463  143.2214  151.6178 LP  0  0  0  0  0  0  0  0  0  0  0  0  # atno 17342 bound_to 10162
  139.5260  144.3057  152.1036 LP  0  0  0  0  0  0  0  0  0  0  0  0  # atno 17343 bound_to 10162
  156.0238  130.3786  150.1882 LP  0  0  0  0  0  0  0  0  0  0  0  0  # atno 17370 bound_to 10713
  157.0072  130.9940  151.3375 LP  0  0  0  0  0  0  0  0  0  0  0  0  # atno 17371 bound_to 10713
  140.4337  134.7078  157.4955 LP  0  0  0  0  0  0  0  0  0  0  0  0  # atno 17394 bound_to 11000
  140.0276  134.6454  155.9151 LP  0  0  0  0  0  0  0  0  0  0  0  0  # atno 17395 bound_to 11000

$$$$
