#       Name:                AV-unprocessed.smi:1914
#       Creating user name   scv26
#       Creation time:       Fri Mar 27 09:49:51 2020


#       File generated by GOLD software.
#

@<TRIPOS>MOLECULE
AV-unprocessed.smi:1914
    48    49     1
SMALL
NO_CHARGES


@<TRIPOS>ATOM
      1 ****        -0.3767   4.8864  -0.8722 C.3            1 S1                 0.0000
      2 ****        -1.1612   4.0936   0.1887 C.3            1 S1                 0.0000
      3 ****        -2.6815   4.1132  -0.0551 C.3            1 S1                 0.0000
      4 ****        -3.0677   3.2073  -1.2325 C.3            1 S1                 0.0000
      5 ****        -2.5096   1.7881  -1.0435 C.3            1 S1                 0.0000
      6 ****        -1.0367   1.8108  -0.8488 N.4            1 S1                 1.0000
      7 ****        -0.4589   0.4440  -0.8111 C.3            1 S1                 0.0000
      8 ****         1.0450   0.4255  -1.1504 C.3            1 S1                 0.0000
      9 ****         1.5701  -0.9343  -1.1581 N.am           1 S1                 0.0000
     10 ****         1.8266  -1.6630  -0.0612 C.2            1 S1                 0.0000
     11 ****         1.6684  -1.2345   1.0827 O.2            1 S1                 0.0000
     12 ****         2.3525  -3.0850  -0.2984 C.3            1 S1                 0.0000
     13 ****         1.9128  -4.0363   0.7357 N.am           1 S1                 0.0000
     14 ****         2.8341  -4.3521   1.7541 C.2            1 S1                 0.0000
     15 ****         2.5313  -5.2052   2.7453 C.2            1 S1                 0.0000
     16 ****         1.2191  -5.8074   2.7513 C.2            1 S1                 0.0000
     17 ****         0.3288  -5.5094   1.7843 C.2            1 S1                 0.0000
     18 ****         0.6541  -4.5743   0.7010 C.2            1 S1                 0.0000
     19 ****        -0.1556  -4.2894  -0.1824 O.2            1 S1                 0.0000
     20 ****        -0.6549   2.6426   0.3255 C.3            1 S1                 0.0000
     21 ****        -0.4730   4.4466  -1.8649 H              1 S1                 0.0000
     22 ****         0.6857   4.9190  -0.6292 H              1 S1                 0.0000
     23 ****        -0.7291   5.9167  -0.9311 H              1 S1                 0.0000
     24 ****        -0.9797   4.5940   1.1409 H              1 S1                 0.0000
     25 ****        -3.1928   3.7650   0.8435 H              1 S1                 0.0000
     26 ****        -3.0303   5.1318  -0.2289 H              1 S1                 0.0000
     27 ****        -4.1531   3.1685  -1.3282 H              1 S1                 0.0000
     28 ****        -2.6946   3.6288  -2.1664 H              1 S1                 0.0000
     29 ****        -2.9833   1.3068  -0.1862 H              1 S1                 0.0000
     30 ****        -2.7589   1.1899  -1.9206 H              1 S1                 0.0000
     31 ****        -0.6503  -0.0027   0.1659 H              1 S1                 0.0000
     32 ****        -0.9730  -0.1836  -1.5408 H              1 S1                 0.0000
     33 ****         1.2089   0.8575  -2.1381 H              1 S1                 0.0000
     34 ****         1.6255   1.0247  -0.4485 H              1 S1                 0.0000
     35 ****         1.7360  -1.3582  -2.0599 H              1 S1                 0.0000
     36 ****         2.0380  -3.4363  -1.2834 H              1 S1                 0.0000
     37 ****         3.4413  -3.0397  -0.3443 H              1 S1                 0.0000
     38 ****         3.7902  -3.8546   1.6818 H              1 S1                 0.0000
     39 ****         3.2486  -5.4326   3.5201 H              1 S1                 0.0000
     40 ****         0.9493  -6.4989   3.5358 H              1 S1                 0.0000
     41 ****        -0.6483  -5.9691   1.8060 H              1 S1                 0.0000
     42 ****         0.4262   2.6531   0.4579 H              1 S1                 0.0000
     43 ****        -1.0701   2.1918   1.2286 H              1 S1                 0.0000
     44 ****        -0.6525   2.2611  -1.6670 H              1 S1                 0.0000
     45 ****         1.3341  -0.3030   1.2260 LP             1 S1                 0.0000
     46 ****         1.8742  -1.8182   1.8682 LP             1 S1                 0.0000
     47 ****         0.0983  -3.6463  -0.9048 LP             1 S1                 0.0000
     48 ****        -1.0669  -4.7012  -0.1771 LP             1 S1                 0.0000
@<TRIPOS>BOND
    1    1    2 1     
    2    1   21 1     
    3    1   22 1     
    4    1   23 1     
    5    2   20 1     
    6    2    3 1     
    7    2   24 1     
    8    3    4 1     
    9    3   25 1     
   10    3   26 1     
   11    4    5 1     
   12    4   27 1     
   13    4   28 1     
   14    5    6 1     
   15    5   29 1     
   16    5   30 1     
   17    6    7 1     
   18    6   20 1     
   19    6   44 1     
   20    7    8 1     
   21    7   31 1     
   22    7   32 1     
   23    8    9 1     
   24    8   33 1     
   25    8   34 1     
   26    9   10 am    
   27    9   35 1     
   28   10   11 2     
   29   10   12 1     
   30   12   13 1     
   31   12   36 1     
   32   12   37 1     
   33   13   18 am    
   34   13   14 1     
   35   14   15 2     
   36   14   38 1     
   37   15   16 1     
   38   15   39 1     
   39   16   17 2     
   40   16   40 1     
   41   17   18 1     
   42   17   41 1     
   43   18   19 2     
   44   20   42 1     
   45   20   43 1     
   46   11   45 1     
   47   11   46 1     
   48   19   47 1     
   49   19   48 1     
@<TRIPOS>SUBSTRUCTURE
      1 S1             1
@<TRIPOS>SET
LONE_PAIRS      STATIC     ATOMS    <user>   **** ""
4 45 46 47 48
DONOR_HYDROGENS      STATIC     ATOMS    <user>   **** ""
2 44 35
ATOM$BLUE        STATIC     ATOMS    COLORGROUP SYSTEM
4 45 46 47 48
ATOM$RED        STATIC     ATOMS    COLORGROUP SYSTEM
2 44 35
