AV-unprocessed.smi:3234|AV-procd|sdf|12353|dock2
  -GOLD-   2272018213D 1   1.00000     0.00000
 Structure written by MMmdl.
 38 40  0  0  0  0  0  0  0  0  3 V2000
  145.4405  137.8511  154.4437 O   0  0  0  0  0  0  0  0  0  0  0  0
  146.4195  137.3754  153.8703 C   0  0  0  0  0  0  0  0  0  0  0  0
  147.5825  138.0116  153.6430 N   0  0  0  0  0  0  0  0  0  0  0  0
  147.9771  139.3329  153.9967 C   0  0  0  0  0  0  0  0  0  0  0  0
  147.0009  140.3479  153.8781 C   0  0  0  0  0  0  0  0  0  0  0  0
  147.3332  141.6786  154.2038 C   0  0  0  0  0  0  0  0  0  0  0  0
  148.5814  141.9760  154.6228 N   0  3  0  0  0  0  0  0  0  0  0  0
  149.5504  141.0443  154.7461 C   0  0  0  0  0  0  0  0  0  0  0  0
  149.2777  139.6966  154.4333 C   0  0  0  0  0  0  0  0  0  0  0  0
  146.4461  136.1277  153.3801 N   0  0  0  0  0  0  0  0  0  0  0  0
  145.3416  135.1768  153.4625 C   0  0  1  0  0  0  0  0  0  0  0  0
  144.1093  135.6024  152.6655 C   0  0  0  0  0  0  0  0  0  0  0  0
  143.4202  134.2790  152.2906 C   0  0  0  0  0  0  0  0  0  0  0  0
  144.3704  133.1891  152.6167 N   0  3  1  0  0  0  0  0  0  0  0  0
  144.3956  132.0889  151.6299 C   0  0  0  0  0  0  0  0  0  0  0  0
  145.4236  132.2786  150.5407 C   0  0  0  0  0  0  0  0  0  0  0  0
  143.9565  132.5072  150.2472 C   0  0  0  0  0  0  0  0  0  0  0  0
  145.6820  133.8212  152.8439 C   0  0  0  0  0  0  0  0  0  0  0  0
  148.2707  137.4874  153.1226 H   0  0  0  0  0  0  0  0  0  0  0  0
  146.0012  140.1129  153.5416 H   0  0  0  0  0  0  0  0  0  0  0  0
  146.6433  142.5075  154.1405 H   0  0  0  0  0  0  0  0  0  0  0  0
  150.5117  141.4024  155.0850 H   0  0  0  0  0  0  0  0  0  0  0  0
  150.0780  138.9805  154.5305 H   0  0  0  0  0  0  0  0  0  0  0  0
  147.2852  135.8142  152.9138 H   0  0  0  0  0  0  0  0  0  0  0  0
  145.0527  135.0363  154.5065 H   0  0  0  0  0  0  0  0  0  0  0  0
  143.4573  136.2684  153.2317 H   0  0  0  0  0  0  0  0  0  0  0  0
  144.4077  136.1253  151.7552 H   0  0  0  0  0  0  0  0  0  0  0  0
  142.5026  134.1321  152.8611 H   0  0  0  0  0  0  0  0  0  0  0  0
  143.1546  134.2777  151.2320 H   0  0  0  0  0  0  0  0  0  0  0  0
  144.1660  131.0930  152.0056 H   0  0  0  0  0  0  0  0  0  0  0  0
  146.0690  133.1540  150.5879 H   0  0  0  0  0  0  0  0  0  0  0  0
  145.8824  131.3847  150.1229 H   0  0  0  0  0  0  0  0  0  0  0  0
  143.4487  131.7640  149.6355 H   0  0  0  0  0  0  0  0  0  0  0  0
  143.6286  133.5347  150.0985 H   0  0  0  0  0  0  0  0  0  0  0  0
  146.1984  133.9550  151.8914 H   0  0  0  0  0  0  0  0  0  0  0  0
  146.3119  133.2086  153.4899 H   0  0  0  0  0  0  0  0  0  0  0  0
  144.0768  132.8050  153.5036 H   0  0  0  0  0  0  0  0  0  0  0  0
  148.8028  142.9455  154.8527 H   0  0  0  0  0  0  0  0  0  0  0  0
  1  2  2  0  0  0  0
  2  3  1  0  0  0  0
  2 10  1  0  0  0  0
  3  4  1  0  0  0  0
  3 19  1  0  0  0  0
  4  9  1  0  0  0  0
  4  5  2  0  0  0  0
  5  6  1  0  0  0  0
  5 20  1  0  0  0  0
  6  7  2  0  0  0  0
  6 21  1  0  0  0  0
  7  8  1  0  0  0  0
  7 38  1  0  0  0  0
  8  9  2  0  0  0  0
  8 22  1  0  0  0  0
  9 23  1  0  0  0  0
 10 11  1  0  0  0  0
 10 24  1  0  0  0  0
 11 18  1  0  0  0  0
 11 12  1  0  0  0  0
 11 25  1  0  0  0  0
 12 13  1  0  0  0  0
 12 26  1  0  0  0  0
 12 27  1  0  0  0  0
 13 14  1  0  0  0  0
 13 28  1  0  0  0  0
 13 29  1  0  0  0  0
 14 15  1  0  0  0  0
 14 18  1  0  0  0  0
 14 37  1  0  0  0  0
 15 17  1  0  0  0  0
 15 16  1  0  0  0  0
 15 30  1  0  0  0  0
 16 17  1  0  0  0  0
 16 31  1  0  0  0  0
 16 32  1  0  0  0  0
 17 33  1  0  0  0  0
 17 34  1  0  0  0  0
 18 35  1  0  0  0  0
 18 36  1  0  0  0  0
M  CHG  1   7   1
M  CHG  1  14   1
M  END
> <s_m_source_file>
AV-unprocessed.smi

> <i_m_source_file_index>
3234

> <i_lp_mmshare_version>
43012

> <i_f3d_flags>
0

> <s_epik_input>
W2NIXTFbY0hdbltjSF1bY0hdYzFbTkhdQyg9TylbTkhdW0NAQEhdMltDSDJdW0NIMl1OKFtDSDJdMilbQ0hdM1tDSDJdW0NIMl0z

> <s_epik_cmdline>
J2VwaWtfcHl0aG9uJywgJy1waCcsICc3LjAnLCAnLXRuJywgJzgnLCAnLW1hJywgJzIwMCcsICctbWV0YWxfYmluZGluZycsICctaW1hZScsICc8aW5maWxlLm1hZT4nLCAnLW9tYWUnLCAnPG91dGZpbGUubWFlPic=

> <r_epik_Ionization_Penalty>
1.14489

> <r_epik_Ionization_Penalty_Charging>
1.14487

> <r_epik_Ionization_Penalty_Neutral>
1.95212e-05

> <r_epik_State_Penalty>
1.205

> <r_epik_Charging_Adjusted_Penalty>
2.34987

> <i_epik_Tot_Q>
2

> <i_epik_Tot_abs_Q>
2

> <r_epik_Metal_State_Penalty>
1.28709

> <b_epik_Metal_Only>
0

> <s_lp_Force_Field>
OPLS_2005

> <r_lp_Energy>
48.5757

> <b_lp_Chiralities_Consistent>
1

> <s_lp_Variant>
AV-unprocessed.smi:3234-6

> <Gold.Version>
5.8.1

> <Gold.Id.Protein>
6NUR|6NUR_protein|mol2

> <Gold.PLP.Fitness>
45.8162

> <Gold.PLP.PLP>
-30.6440

> <Gold.PLP.part.hbond>
-3.8191

> <Gold.PLP.part.metal>
0.0000

> <Gold.PLP.part.buried>
-5.4595

> <Gold.PLP.part.nonpolar>
-22.8817

> <Gold.PLP.part.repulsive>
0.4253

> <Gold.PLP.ligand.clash>
0.0000

> <Gold.PLP.ligand.torsion>
1.1797

> <Gold.PLP.Chemscore.Hbond>
5.4220

> <Gold.PLP.Chemscore.CHOScore>
0.0000

> <Gold.PLP.Chemscore.Metal>
0.0000

> <Gold.Chemscore.Hbonds>
donor molecule, donor type, donor heavy atom, donor atom, acceptor molecule, acceptor atom, score
      L1  H     3    19       P1  7948  1.00
      L1  H     7    38       P1  8028  2.00
      L1  H    10    24       P1  7948  1.00
      L1  H    14    37       P1 10957  1.33

> <Gold.PLP.Chemscore.Internal.Correction>
1.2655

> <Gold.Rescore>
     Score         DG    S(hbond)    S(metal)    S(lipo)     H(rot)  DE(clash)    DE(int)     intcor
     19.96     -22.25       3.39        0.00      73.46       1.22       0.02       2.27       ----

> <Gold.Chemscore.Fitness>
19.9578

> <Gold.Chemscore.DG>
-22.2493

> <Gold.Chemscore.ZeroCoef>
-5.4800

> <Gold.Chemscore.Hbond>
3.3863

> <Gold.Chemscore.Metal>
0.0000

> <Gold.Chemscore.Lipo>
73.4575

> <Gold.Chemscore.Internal_Hbond>
0.0000

> <Gold.Chemscore.DEClash>
0.0202

> <Gold.Chemscore.DEInternal>
2.2713

> <Gold.Chemscore.Rot>
1.2248

> <Gold.Chemscore.Internal.Correction>
   9.000000E+99

> <Gold.Chemscore.Hbonds>
donor molecule, donor type, donor heavy atom, donor atom, acceptor molecule, acceptor atom, score
      L1  H     3    19       P1  7948  0.99
      L1  H     7    38       P1  8028  0.99
      L1  H    10    24       P1  7948  0.91
      L1  H    14    37       P1 10957  0.42

> <Gold.Chemscore.Hbond.Weighted>
-11.3102

> <Gold.Chemscore.Metal.Weighted>
-0.0000

> <Gold.Chemscore.Lipo.Weighted>
-8.5945

> <Gold.Chemscore.Internal_Hbond.Weighted>
0.0000

> <Gold.Chemscore.DEClash.Weighted>
0.0202

> <Gold.Chemscore.DEInternal.Weighted>
2.2713

> <Gold.Chemscore.Rot.Weighted>
3.1355

> <Gold.Chemscore.Internal.Correction.Weighted>
   9.000000E+99

> <Gold.Protein.RotatedTorsions>
[ 6907 6896 6895 6894 ] final   95.96 input  -60.11 | X-H torsion
[ 7974 7965 7964 7962 ] final -178.56 input  175.53 | X-H torsion
[ 8008 7997 7996 7995 ] final   39.39 input   59.86 | X-H torsion
[ 10167 10162 10161 10158 ] final  -28.54 input  -65.29 | X-H torsion
[ 10718 10713 10712 10709 ] final  147.20 input   66.30 | X-H torsion
[ 10763 10752 10751 10750 ] final -159.74 input  -60.55 | X-H torsion
[ 11005 11000 10999 10996 ] final   90.91 input  -57.11 | X-H torsion

> <Gold.Protein.ActiveResidues>
 VAL166  LYS551  ARG553  GLY616  TRP617  ASP618  TYR619  PRO620  LYS621  CYS622 
 ASP623  PHE694  ASN695  SER759  ASP760  ASP761  ALA762  ILE779  LEU786  VAL792 
 PHE793  MET794  SER795  GLU796  ALA797  LYS798  CYS799  TRP800  GLU811  SER814 

> <Gold.Protein.RotatedAtoms>
  152.5439  134.0960  159.8297 H   0  0  0  0  0  0  0  0  0  0  0  0  # atno 6907 bound_to 6896
  151.1044  133.5212  159.2616 H   0  0  0  0  0  0  0  0  0  0  0  0  # atno 6908 bound_to 6896
  151.1955  135.0430  159.8904 H   0  0  0  0  0  0  0  0  0  0  0  0  # atno 6909 bound_to 6896
  144.7131  140.0850  143.6424 H   0  0  0  0  0  0  0  0  0  0  0  0  # atno 7974 bound_to 7965
  155.2358  140.3341  155.4298 H   0  0  0  0  0  0  0  0  0  0  0  0  # atno 8008 bound_to 7997
  156.2276  140.1836  156.7369 H   0  0  0  0  0  0  0  0  0  0  0  0  # atno 8009 bound_to 7997
  154.5925  140.0636  156.9243 H   0  0  0  0  0  0  0  0  0  0  0  0  # atno 8010 bound_to 7997
  140.7269  143.4001  151.1279 H   0  0  0  0  0  0  0  0  0  0  0  0  # atno 10167 bound_to 10162
  157.3239  131.0909  151.1218 H   0  0  0  0  0  0  0  0  0  0  0  0  # atno 10718 bound_to 10713
  154.7449  135.3078  154.8662 H   0  0  0  0  0  0  0  0  0  0  0  0  # atno 10763 bound_to 10752
  153.9466  135.6768  153.4748 H   0  0  0  0  0  0  0  0  0  0  0  0  # atno 10764 bound_to 10752
  153.1046  135.4895  154.8854 H   0  0  0  0  0  0  0  0  0  0  0  0  # atno 10765 bound_to 10752
  139.8848  134.8642  156.3352 H   0  0  0  0  0  0  0  0  0  0  0  0  # atno 11005 bound_to 11000
  145.9669  139.2841  143.1122 LP  0  0  0  0  0  0  0  0  0  0  0  0  # atno 17320 bound_to 7965
  145.9159  140.9148  143.0430 LP  0  0  0  0  0  0  0  0  0  0  0  0  # atno 17321 bound_to 7965
  139.7620  143.8621  152.3102 LP  0  0  0  0  0  0  0  0  0  0  0  0  # atno 17342 bound_to 10162
  139.8510  144.7164  150.9214 LP  0  0  0  0  0  0  0  0  0  0  0  0  # atno 17343 bound_to 10162
  157.2492  130.6606  149.5924 LP  0  0  0  0  0  0  0  0  0  0  0  0  # atno 17370 bound_to 10713
  155.9688  130.4544  150.5847 LP  0  0  0  0  0  0  0  0  0  0  0  0  # atno 17371 bound_to 10713
  140.9696  133.7336  156.0515 LP  0  0  0  0  0  0  0  0  0  0  0  0  # atno 17394 bound_to 11000
  140.7888  134.3642  157.5470 LP  0  0  0  0  0  0  0  0  0  0  0  0  # atno 17395 bound_to 11000

$$$$
