AV-unprocessed.smi:1254|AV-procd|sdf|5276|dock3
  -GOLD-   22720 4393D 1   1.00000     0.00000
 Structure written by MMmdl.
 45 46  0  0  0  0  0  0  0  0  3 V2000
  151.4928  140.2969  158.1353 C   0  0  0  0  0  0  0  0  0  0  0  0
  151.5208  139.3691  156.9688 C   0  0  0  0  0  0  0  0  0  0  0  0
  150.8931  138.1834  156.7112 C   0  0  0  0  0  0  0  0  0  0  0  0
  151.3759  137.8341  155.4203 C   0  0  0  0  0  0  0  0  0  0  0  0
  151.0370  136.7408  154.7195 N   0  5  0  0  0  0  0  0  0  0  0  0
  150.3372  135.7446  155.3089 C   0  0  0  0  0  0  0  0  0  0  0  0
  150.5130  135.2961  156.4440 O   0  0  0  0  0  0  0  0  0  0  0  0
  149.3739  135.2324  154.5328 N   0  0  0  0  0  0  0  0  0  0  0  0
  148.4881  134.1395  154.9100 C   0  0  0  0  0  0  0  0  0  0  0  0
  147.3814  133.9540  153.8632 C   0  0  1  0  0  0  0  0  0  0  0  0
  146.2770  132.9991  154.3620 C   0  0  0  0  0  0  0  0  0  0  0  0
  145.1766  132.8824  153.3742 N   0  3  2  0  0  0  0  0  0  0  0  0
  145.4995  132.0014  152.2191 C   0  0  0  0  0  0  0  0  0  0  0  0
  145.1205  132.6324  150.8619 C   0  0  0  0  0  0  0  0  0  0  0  0
  143.6483  132.3719  150.5006 C   0  0  0  0  0  0  0  0  0  0  0  0
  146.0442  132.1158  149.7489 C   0  0  0  0  0  0  0  0  0  0  0  0
  144.6646  134.2268  153.0056 C   0  0  0  0  0  0  0  0  0  0  0  0
  145.8066  135.1690  152.5785 C   0  0  0  0  0  0  0  0  0  0  0  0
  146.7921  135.2242  153.6017 O   0  0  0  0  0  0  0  0  0  0  0  0
  152.2086  138.7374  154.9305 N   0  0  0  0  0  0  0  0  0  0  0  0
  152.3130  139.7213  155.9209 O   0  0  0  0  0  0  0  0  0  0  0  0
  150.4664  140.5377  158.4121 H   0  0  0  0  0  0  0  0  0  0  0  0
  152.0084  141.2303  157.9081 H   0  0  0  0  0  0  0  0  0  0  0  0
  151.9795  139.8439  158.9990 H   0  0  0  0  0  0  0  0  0  0  0  0
  150.2026  137.6483  157.3458 H   0  0  0  0  0  0  0  0  0  0  0  0
  149.2554  135.6285  153.6120 H   0  0  0  0  0  0  0  0  0  0  0  0
  149.0731  133.2221  154.9938 H   0  0  0  0  0  0  0  0  0  0  0  0
  148.0572  134.3389  155.8923 H   0  0  0  0  0  0  0  0  0  0  0  0
  147.8261  133.5593  152.9475 H   0  0  0  0  0  0  0  0  0  0  0  0
  146.6867  132.0151  154.5937 H   0  0  0  0  0  0  0  0  0  0  0  0
  145.8592  133.3818  155.2945 H   0  0  0  0  0  0  0  0  0  0  0  0
  146.5576  131.7398  152.2353 H   0  0  0  0  0  0  0  0  0  0  0  0
  144.9587  131.0590  152.3165 H   0  0  0  0  0  0  0  0  0  0  0  0
  145.2660  133.7108  150.9150 H   0  0  0  0  0  0  0  0  0  0  0  0
  143.4400  131.3039  150.4292 H   0  0  0  0  0  0  0  0  0  0  0  0
  143.3949  132.8235  149.5410 H   0  0  0  0  0  0  0  0  0  0  0  0
  142.9727  132.7942  151.2445 H   0  0  0  0  0  0  0  0  0  0  0  0
  145.9499  131.0366  149.6228 H   0  0  0  0  0  0  0  0  0  0  0  0
  147.0892  132.3350  149.9698 H   0  0  0  0  0  0  0  0  0  0  0  0
  145.8076  132.5835  148.7926 H   0  0  0  0  0  0  0  0  0  0  0  0
  143.9082  134.1628  152.2245 H   0  0  0  0  0  0  0  0  0  0  0  0
  144.1641  134.6475  153.8786 H   0  0  0  0  0  0  0  0  0  0  0  0
  146.2586  134.8523  151.6377 H   0  0  0  0  0  0  0  0  0  0  0  0
  145.4169  136.1738  152.4139 H   0  0  0  0  0  0  0  0  0  0  0  0
  144.4264  132.4100  153.8582 H   0  0  0  0  0  0  0  0  0  0  0  0
  1  2  1  0  0  0  0
  1 22  1  0  0  0  0
  1 23  1  0  0  0  0
  1 24  1  0  0  0  0
  2 21  1  0  0  0  0
  2  3  2  0  0  0  0
  3  4  1  0  0  0  0
  3 25  1  0  0  0  0
  4  5  1  0  0  0  0
  4 20  2  0  0  0  0
  5  6  1  0  0  0  0
  6  7  2  0  0  0  0
  6  8  1  0  0  0  0
  8  9  1  0  0  0  0
  8 26  1  0  0  0  0
  9 10  1  0  0  0  0
  9 27  1  0  0  0  0
  9 28  1  0  0  0  0
 10 19  1  0  0  0  0
 10 11  1  0  0  0  0
 10 29  1  0  0  0  0
 11 12  1  0  0  0  0
 11 30  1  0  0  0  0
 11 31  1  0  0  0  0
 12 13  1  0  0  0  0
 12 17  1  0  0  0  0
 12 45  1  0  0  0  0
 13 14  1  0  0  0  0
 13 32  1  0  0  0  0
 13 33  1  0  0  0  0
 14 15  1  0  0  0  0
 14 16  1  0  0  0  0
 14 34  1  0  0  0  0
 15 35  1  0  0  0  0
 15 36  1  0  0  0  0
 15 37  1  0  0  0  0
 16 38  1  0  0  0  0
 16 39  1  0  0  0  0
 16 40  1  0  0  0  0
 17 18  1  0  0  0  0
 17 41  1  0  0  0  0
 17 42  1  0  0  0  0
 18 19  1  0  0  0  0
 18 43  1  0  0  0  0
 18 44  1  0  0  0  0
 20 21  1  0  0  0  0
M  CHG  1   5  -1
M  CHG  1  12   1
M  END
> <s_m_source_file>
AV-unprocessed.smi

> <i_m_source_file_index>
1254

> <i_lp_mmshare_version>
43012

> <i_f3d_flags>
0

> <s_epik_input>
W0NIM11jMVtjSF1jKG5vMSlbTkhdQyg9TylbTkhdW0NIMl1bQ0BASF0yW0NIMl1OKFtDSDJdW0NIMl1PMilbQ0gyXVtDSF0oW0NIM10pW0NIM10=

> <s_epik_cmdline>
J2VwaWtfcHl0aG9uJywgJy1waCcsICc3LjAnLCAnLXRuJywgJzgnLCAnLW1hJywgJzIwMCcsICctbWV0YWxfYmluZGluZycsICctaW1hZScsICc8aW5maWxlLm1hZT4nLCAnLW9tYWUnLCAnPG91dGZpbGUubWFlPic=

> <r_epik_Ionization_Penalty>
6.33139

> <r_epik_Ionization_Penalty_Charging>
6.33128

> <r_epik_Ionization_Penalty_Neutral>
0.000104968

> <r_epik_State_Penalty>
6.32522

> <r_epik_Charging_Adjusted_Penalty>
12.6565

> <i_epik_Tot_Q>
0

> <i_epik_Tot_abs_Q>
2

> <r_epik_Metal_State_Penalty>
2.26285

> <b_epik_Metal_Only>
1

> <s_lp_Force_Field>
OPLS_2005

> <r_lp_Energy>
8.57964

> <b_lp_Chiralities_Consistent>
1

> <s_lp_Variant>
AV-unprocessed.smi:1254-8

> <Gold.Version>
5.8.1

> <Gold.Id.Protein>
6NUR|6NUR_protein|mol2

> <Gold.PLP.Fitness>
42.7822

> <Gold.PLP.PLP>
-29.0112

> <Gold.PLP.part.hbond>
-3.9847

> <Gold.PLP.part.metal>
0.0000

> <Gold.PLP.part.buried>
-7.4961

> <Gold.PLP.part.nonpolar>
-20.4611

> <Gold.PLP.part.repulsive>
2.1641

> <Gold.PLP.ligand.clash>
1.4347

> <Gold.PLP.ligand.torsion>
1.4611

> <Gold.PLP.Chemscore.Hbond>
5.9825

> <Gold.PLP.Chemscore.CHOScore>
0.0000

> <Gold.PLP.Chemscore.Metal>
0.0000

> <Gold.Chemscore.Hbonds>
donor molecule, donor type, donor heavy atom, donor atom, acceptor molecule, acceptor atom, score
      L1  H     8    26       P1  7948  1.00
      L1  H    12    45       P1 10957  1.79
      P1  H  7997  8009       L1    21  0.78
      P1  H 10752 10763       L1     5  0.64

> <Gold.PLP.Chemscore.Internal.Correction>
0.1803

> <Gold.Rescore>
     Score         DG    S(hbond)    S(metal)    S(lipo)     H(rot)  DE(clash)    DE(int)     intcor
     14.24     -17.06       2.71        0.00      58.63       1.69       0.10       2.71       ----

> <Gold.Chemscore.Fitness>
14.2439

> <Gold.Chemscore.DG>
-17.0552

> <Gold.Chemscore.ZeroCoef>
-5.4800

> <Gold.Chemscore.Hbond>
2.7090

> <Gold.Chemscore.Metal>
0.0000

> <Gold.Chemscore.Lipo>
58.6348

> <Gold.Chemscore.Internal_Hbond>
0.0000

> <Gold.Chemscore.DEClash>
0.1036

> <Gold.Chemscore.DEInternal>
2.7077

> <Gold.Chemscore.Rot>
1.6926

> <Gold.Chemscore.Internal.Correction>
   9.000000E+99

> <Gold.Chemscore.Hbonds>
donor molecule, donor type, donor heavy atom, donor atom, acceptor molecule, acceptor atom, score
      L1  H     8    26       P1  7948  0.55
      L1  H    12    45       P1 10957  0.30
      P1  H  7997  8009       L1    21  0.56
      P1  H 10752 10763       L1     5  0.07

> <Gold.Chemscore.Hbond.Weighted>
-9.0480

> <Gold.Chemscore.Metal.Weighted>
-0.0000

> <Gold.Chemscore.Lipo.Weighted>
-6.8603

> <Gold.Chemscore.Internal_Hbond.Weighted>
0.0000

> <Gold.Chemscore.DEClash.Weighted>
0.1036

> <Gold.Chemscore.DEInternal.Weighted>
2.7077

> <Gold.Chemscore.Rot.Weighted>
4.3330

> <Gold.Chemscore.Internal.Correction.Weighted>
   9.000000E+99

> <Gold.Protein.RotatedTorsions>
[ 6907 6896 6895 6894 ] final   41.98 input  -60.11 | X-H torsion
[ 7974 7965 7964 7962 ] final  117.32 input  175.53 | X-H torsion
[ 8008 7997 7996 7995 ] final -167.38 input   59.86 | X-H torsion
[ 10167 10162 10161 10158 ] final  -82.38 input  -65.29 | X-H torsion
[ 10718 10713 10712 10709 ] final  147.79 input   66.30 | X-H torsion
[ 10763 10752 10751 10750 ] final   29.39 input  -60.55 | X-H torsion
[ 11005 11000 10999 10996 ] final   40.13 input  -57.11 | X-H torsion

> <Gold.Protein.ActiveResidues>
 VAL166  LYS551  ARG553  GLY616  TRP617  ASP618  TYR619  PRO620  LYS621  CYS622 
 ASP623  PHE694  ASN695  SER759  ASP760  ASP761  ALA762  ILE779  LEU786  VAL792 
 PHE793  MET794  SER795  GLU796  ALA797  LYS798  CYS799  TRP800  GLU811  SER814 

> <Gold.Protein.RotatedAtoms>
  152.2021  134.8578  160.0506 H   0  0  0  0  0  0  0  0  0  0  0  0  # atno 6907 bound_to 6896
  151.9427  133.3638  159.3979 H   0  0  0  0  0  0  0  0  0  0  0  0  # atno 6908 bound_to 6896
  150.6957  134.4346  159.5308 H   0  0  0  0  0  0  0  0  0  0  0  0  # atno 6909 bound_to 6896
  145.1688  139.3113  143.4479 H   0  0  0  0  0  0  0  0  0  0  0  0  # atno 7974 bound_to 7965
  155.8769  140.1002  157.1512 H   0  0  0  0  0  0  0  0  0  0  0  0  # atno 8008 bound_to 7997
  154.4002  140.1336  156.4211 H   0  0  0  0  0  0  0  0  0  0  0  0  # atno 8009 bound_to 7997
  155.7687  140.3461  155.5238 H   0  0  0  0  0  0  0  0  0  0  0  0  # atno 8010 bound_to 7997
  140.4325  143.2543  151.8740 H   0  0  0  0  0  0  0  0  0  0  0  0  # atno 10167 bound_to 10162
  157.3166  131.0897  151.1274 H   0  0  0  0  0  0  0  0  0  0  0  0  # atno 10718 bound_to 10713
  153.0433  135.6490  154.0883 H   0  0  0  0  0  0  0  0  0  0  0  0  # atno 10763 bound_to 10752
  154.0585  135.2890  155.3330 H   0  0  0  0  0  0  0  0  0  0  0  0  # atno 10764 bound_to 10752
  154.6673  135.5369  153.8159 H   0  0  0  0  0  0  0  0  0  0  0  0  # atno 10765 bound_to 10752
  140.1961  134.3927  155.8120 H   0  0  0  0  0  0  0  0  0  0  0  0  # atno 11005 bound_to 11000
  146.3472  140.1825  142.8589 LP  0  0  0  0  0  0  0  0  0  0  0  0  # atno 17320 bound_to 7965
  145.0255  140.8828  143.5141 LP  0  0  0  0  0  0  0  0  0  0  0  0  # atno 17321 bound_to 7965
  139.4785  144.5319  151.8654 LP  0  0  0  0  0  0  0  0  0  0  0  0  # atno 17342 bound_to 10162
  140.4411  144.1985  150.5891 LP  0  0  0  0  0  0  0  0  0  0  0  0  # atno 17343 bound_to 10162
  157.2575  130.6643  149.5959 LP  0  0  0  0  0  0  0  0  0  0  0  0  # atno 17370 bound_to 10713
  155.9682  130.4519  150.5753 LP  0  0  0  0  0  0  0  0  0  0  0  0  # atno 17371 bound_to 10713
  141.2227  133.7070  156.8178 LP  0  0  0  0  0  0  0  0  0  0  0  0  # atno 17394 bound_to 11000
  140.2106  134.8830  157.3270 LP  0  0  0  0  0  0  0  0  0  0  0  0  # atno 17395 bound_to 11000

$$$$
