#       Name:                AV-unprocessed.smi:3222
#       Creating user name   scv26
#       Creation time:       Fri Mar 27 18:14:55 2020


#       File generated by GOLD software.
#

@<TRIPOS>MOLECULE
AV-unprocessed.smi:3222
    44    45     1
SMALL
NO_CHARGES


@<TRIPOS>ATOM
      1 ****        -1.8464  -0.5680  -2.4193 C.3            1 S1                 0.0000
      2 ****        -1.2947  -0.5226  -0.9824 C.3            1 S1                 0.0000
      3 ****         0.1837  -0.5794  -1.0401 N.4            1 S1                 1.0000
      4 ****         0.8770   0.5075  -0.3195 C.3            1 S1                 0.0000
      5 ****         2.4014   0.3313  -0.3956 C.3            1 S1                 0.0000
      6 ****         3.1028   1.3973   0.3146 N.am           1 S1                 0.0000
      7 ****         3.7844   1.1314   1.5702 C.3            1 S1                 0.0000
      8 ****         4.2376   2.5077   2.0787 C.3            1 S1                 0.0000
      9 ****         4.0667   3.4682   0.8967 C.3            1 S1                 0.0000
     10 ****         3.2506   2.6614  -0.0986 C.2            1 S1                 0.0000
     11 ****         2.8013   3.1396  -1.1389 O.2            1 S1                 0.0000
     12 ****        -1.8503  -1.6598  -0.0819 C.3            1 S1                 0.0000
     13 ****        -1.4000  -1.5418   1.3868 C.3            1 S1                 0.0000
     14 ****        -3.3034  -1.7512  -0.1489 N.pl3          1 S1                 0.0000
     15 ****        -4.0739  -2.8091  -0.5863 C.2            1 S1                 0.0000
     16 ****        -5.3826  -2.4400  -0.4624 C.2            1 S1                 0.0000
     17 ****        -5.3139  -1.1223   0.0695 C.2            1 S1                 0.0000
     18 ****        -4.0697  -0.7131   0.2567 N.2            1 S1                 0.0000
     19 ****        -2.9266  -0.4240  -2.4454 H              1 S1                 0.0000
     20 ****        -1.6260  -1.5221  -2.8991 H              1 S1                 0.0000
     21 ****        -1.4069   0.2206  -3.0309 H              1 S1                 0.0000
     22 ****        -1.5966   0.4368  -0.5579 H              1 S1                 0.0000
     23 ****         0.4857  -1.4675  -0.6658 H              1 S1                 0.0000
     24 ****         0.5814   1.4616  -0.7576 H              1 S1                 0.0000
     25 ****         0.5567   0.5192   0.7229 H              1 S1                 0.0000
     26 ****         2.6859  -0.6325   0.0292 H              1 S1                 0.0000
     27 ****         2.7295   0.3180  -1.4363 H              1 S1                 0.0000
     28 ****         3.1246   0.6349   2.2829 H              1 S1                 0.0000
     29 ****         4.6412   0.4819   1.3856 H              1 S1                 0.0000
     30 ****         3.6080   2.8272   2.9102 H              1 S1                 0.0000
     31 ****         5.2670   2.4848   2.4379 H              1 S1                 0.0000
     32 ****         3.5513   4.3856   1.1827 H              1 S1                 0.0000
     33 ****         5.0277   3.7291   0.4525 H              1 S1                 0.0000
     34 ****        -1.4643  -2.6059  -0.4650 H              1 S1                 0.0000
     35 ****        -0.3182  -1.6318   1.4831 H              1 S1                 0.0000
     36 ****        -1.8417  -2.3321   1.9947 H              1 S1                 0.0000
     37 ****        -1.6951  -0.5859   1.8210 H              1 S1                 0.0000
     38 ****        -3.6329  -3.7271  -0.9462 H              1 S1                 0.0000
     39 ****        -6.2565  -3.0233  -0.7123 H              1 S1                 0.0000
     40 ****        -6.1252  -0.4561   0.3235 H              1 S1                 0.0000
     41 ****         0.4611  -0.5300  -2.0100 H              1 S1                 0.0000
     42 ****         2.2703   2.5673  -1.7638 LP             1 S1                 0.0000
     43 ****         2.9670   4.1008  -1.3598 LP             1 S1                 0.0000
     44 ****        -3.7639   0.1679   0.6178 LP             1 S1                 0.0000
@<TRIPOS>BOND
    1    1    2 1     
    2    1   19 1     
    3    1   20 1     
    4    1   21 1     
    5    2    3 1     
    6    2   12 1     
    7    2   22 1     
    8    3    4 1     
    9    3   23 1     
   10    3   41 1     
   11    4    5 1     
   12    4   24 1     
   13    4   25 1     
   14    5    6 1     
   15    5   26 1     
   16    5   27 1     
   17    6   10 am    
   18    6    7 1     
   19    7    8 1     
   20    7   28 1     
   21    7   29 1     
   22    8    9 1     
   23    8   30 1     
   24    8   31 1     
   25    9   10 1     
   26    9   32 1     
   27    9   33 1     
   28   10   11 2     
   29   12   13 1     
   30   12   14 1     
   31   12   34 1     
   32   13   35 1     
   33   13   36 1     
   34   13   37 1     
   35   14   18 1     
   36   14   15 1     
   37   15   16 2     
   38   15   38 1     
   39   16   17 1     
   40   16   39 1     
   41   17   18 2     
   42   17   40 1     
   43   11   42 1     
   44   11   43 1     
   45   18   44 1     
@<TRIPOS>SUBSTRUCTURE
      1 S1             1
@<TRIPOS>SET
LONE_PAIRS      STATIC     ATOMS    <user>   **** ""
3 42 43 44
DONOR_HYDROGENS      STATIC     ATOMS    <user>   **** ""
2 23 41
ATOM$BLUE        STATIC     ATOMS    COLORGROUP SYSTEM
3 42 43 44
ATOM$RED        STATIC     ATOMS    COLORGROUP SYSTEM
2 23 41
