AV-unprocessed.smi:1442|AV-procd|sdf|5876|dock9
  -GOLD-   22720 5553D 1   1.00000     0.00000
 Structure written by MMmdl.
 44 45  0  0  0  0  0  0  0  0  1 V2000
  146.6218  144.0660  160.0323 C   0  0  0  0  0  0  0  0  0  0  0  0
  146.9603  143.7409  158.6551 N   0  0  0  0  0  0  0  0  0  0  0  0
  146.8577  142.5153  158.1211 C   0  0  0  0  0  0  0  0  0  0  0  0
  146.4603  141.5367  158.7544 O   0  0  0  0  0  0  0  0  0  0  0  0
  147.2643  142.3728  156.6482 C   0  0  0  0  0  0  0  0  0  0  0  0
  146.0793  141.8706  155.7892 C   0  0  0  0  0  0  0  0  0  0  0  0
  146.5227  141.5973  154.3407 C   0  0  0  0  0  0  0  0  0  0  0  0
  147.6252  140.6207  154.3624 N   0  0  0  0  0  0  0  0  0  0  0  0
  147.5378  139.3043  154.0431 C   0  0  0  0  0  0  0  0  0  0  0  0
  148.4254  138.4883  154.2956 O   0  0  0  0  0  0  0  0  0  0  0  0
  146.4065  138.9534  153.4082 N   0  0  0  0  0  0  0  0  0  0  0  0
  146.0634  137.6023  152.9818 C   0  0  0  0  0  0  0  0  0  0  0  0
  146.1604  137.4520  151.4549 C   0  0  0  0  0  0  0  0  0  0  0  0
  145.7557  136.0753  151.0087 C   0  0  0  0  0  0  0  0  0  0  0  0
  144.6906  135.7186  150.1332 C   0  0  0  0  0  0  0  0  0  0  0  0
  144.5960  134.4126  149.9429 N   0  0  0  0  0  0  0  0  0  0  0  0
  145.5958  133.8923  150.6838 N   0  0  0  0  0  0  0  0  0  0  0  0
  145.7921  132.4587  150.7114 C   0  0  0  0  0  0  0  0  0  0  0  0
  146.3119  134.8715  151.3381 C   0  0  0  0  0  0  0  0  0  0  0  0
  148.8140  141.1831  155.0146 C   0  0  0  0  0  0  0  0  0  0  0  0
  148.4897  141.4401  156.4978 C   0  0  0  0  0  0  0  0  0  0  0  0
  146.8193  145.1207  160.2246 H   0  0  0  0  0  0  0  0  0  0  0  0
  147.2171  143.4751  160.7294 H   0  0  0  0  0  0  0  0  0  0  0  0
  145.5655  143.8759  160.2274 H   0  0  0  0  0  0  0  0  0  0  0  0
  147.2946  144.4936  158.0707 H   0  0  0  0  0  0  0  0  0  0  0  0
  147.5506  143.3568  156.2721 H   0  0  0  0  0  0  0  0  0  0  0  0
  145.6614  140.9554  156.2120 H   0  0  0  0  0  0  0  0  0  0  0  0
  145.2755  142.6080  155.7940 H   0  0  0  0  0  0  0  0  0  0  0  0
  145.6658  141.2856  153.7437 H   0  0  0  0  0  0  0  0  0  0  0  0
  146.8720  142.5219  153.8788 H   0  0  0  0  0  0  0  0  0  0  0  0
  145.7268  139.6762  153.2220 H   0  0  0  0  0  0  0  0  0  0  0  0
  146.7528  136.9111  153.4676 H   0  0  0  0  0  0  0  0  0  0  0  0
  145.0630  137.3420  153.3327 H   0  0  0  0  0  0  0  0  0  0  0  0
  145.5323  138.2020  150.9729 H   0  0  0  0  0  0  0  0  0  0  0  0
  147.1802  137.6725  151.1367 H   0  0  0  0  0  0  0  0  0  0  0  0
  143.9853  136.3682  149.6357 H   0  0  0  0  0  0  0  0  0  0  0  0
  146.7305  132.2197  151.2125 H   0  0  0  0  0  0  0  0  0  0  0  0
  145.8255  132.0683  149.6936 H   0  0  0  0  0  0  0  0  0  0  0  0
  144.9708  131.9857  151.2502 H   0  0  0  0  0  0  0  0  0  0  0  0
  147.1494  134.6342  151.9778 H   0  0  0  0  0  0  0  0  0  0  0  0
  149.6872  140.5346  154.9304 H   0  0  0  0  0  0  0  0  0  0  0  0
  149.0923  142.1162  154.5226 H   0  0  0  0  0  0  0  0  0  0  0  0
  149.3573  141.8794  156.9919 H   0  0  0  0  0  0  0  0  0  0  0  0
  148.3041  140.4850  156.9925 H   0  0  0  0  0  0  0  0  0  0  0  0
  1  2  1  0  0  0  0
  1 22  1  0  0  0  0
  1 23  1  0  0  0  0
  1 24  1  0  0  0  0
  2  3  1  0  0  0  0
  2 25  1  0  0  0  0
  3  4  2  0  0  0  0
  3  5  1  0  0  0  0
  5 21  1  0  0  0  0
  5  6  1  0  0  0  0
  5 26  1  0  0  0  0
  6  7  1  0  0  0  0
  6 27  1  0  0  0  0
  6 28  1  0  0  0  0
  7  8  1  0  0  0  0
  7 29  1  0  0  0  0
  7 30  1  0  0  0  0
  8  9  1  0  0  0  0
  8 20  1  0  0  0  0
  9 10  2  0  0  0  0
  9 11  1  0  0  0  0
 11 12  1  0  0  0  0
 11 31  1  0  0  0  0
 12 13  1  0  0  0  0
 12 32  1  0  0  0  0
 12 33  1  0  0  0  0
 13 14  1  0  0  0  0
 13 34  1  0  0  0  0
 13 35  1  0  0  0  0
 14 19  2  0  0  0  0
 14 15  1  0  0  0  0
 15 16  2  0  0  0  0
 15 36  1  0  0  0  0
 16 17  1  0  0  0  0
 17 18  1  0  0  0  0
 17 19  1  0  0  0  0
 18 37  1  0  0  0  0
 18 38  1  0  0  0  0
 18 39  1  0  0  0  0
 19 40  1  0  0  0  0
 20 21  1  0  0  0  0
 20 41  1  0  0  0  0
 20 42  1  0  0  0  0
 21 43  1  0  0  0  0
 21 44  1  0  0  0  0
M  END
> <s_m_source_file>
AV-unprocessed.smi

> <i_m_source_file_index>
1442

> <i_lp_mmshare_version>
43012

> <i_f3d_flags>
0

> <s_epik_input>
W0NIM11bTkhdQyg9TylbQ0hdMVtDSDJdW0NIMl1OKFtDSDJdW0NIMl0xKUMoPU8pW05IXVtDSDJdW0NIMl1jMltjSF1ubihbQ0gzXSlbY0hdMg==

> <s_epik_cmdline>
J2VwaWtfcHl0aG9uJywgJy1waCcsICc3LjAnLCAnLXRuJywgJzgnLCAnLW1hJywgJzIwMCcsICctbWV0YWxfYmluZGluZycsICctaW1hZScsICc8aW5maWxlLm1hZT4nLCAnLW9tYWUnLCAnPG91dGZpbGUubWFlPic=

> <r_lp_tautomer_probability>
1

> <r_epik_Ionization_Penalty>
0.000562975

> <r_epik_Ionization_Penalty_Charging>
0

> <r_epik_Ionization_Penalty_Neutral>
0.000562975

> <r_epik_State_Penalty>
-0

> <r_epik_Charging_Adjusted_Penalty>
0

> <i_epik_Tot_Q>
0

> <i_epik_Tot_abs_Q>
0

> <r_epik_Metal_State_Penalty>
-0

> <b_epik_Metal_Only>
0

> <s_lp_Force_Field>
OPLS_2005

> <r_lp_Energy>
25.7174

> <b_lp_Chiralities_Consistent>
1

> <s_lp_Variant>
AV-unprocessed.smi:1442-1

> <Gold.Version>
5.8.1

> <Gold.Id.Protein>
6NUR|6NUR_protein|mol2

> <Gold.PLP.Fitness>
40.6381

> <Gold.PLP.PLP>
-28.9601

> <Gold.PLP.part.hbond>
-2.7372

> <Gold.PLP.part.metal>
0.0000

> <Gold.PLP.part.buried>
-0.1896

> <Gold.PLP.part.nonpolar>
-26.2333

> <Gold.PLP.part.repulsive>
0.5730

> <Gold.PLP.ligand.clash>
0.0000

> <Gold.PLP.ligand.torsion>
0.1238

> <Gold.PLP.Chemscore.Hbond>
2.3173

> <Gold.PLP.Chemscore.CHOScore>
1.6339

> <Gold.PLP.Chemscore.Metal>
0.0000

> <Gold.Chemscore.Hbonds>
donor molecule, donor type, donor heavy atom, donor atom, acceptor molecule, acceptor atom, score
      L1  H     2    25       P1  8029  1.00
      L1  H    11    31       P1 10175  0.28
      P1  H  6934  6946       L1     4  0.53
      L1  C    15    36       P1 10171  0.96
      L1  C    19    40       P1  7948  0.68

> <Gold.PLP.Chemscore.Internal.Correction>
0.0718

> <Gold.Rescore>
     Score         DG    S(hbond)    S(metal)    S(lipo)     H(rot)  DE(clash)    DE(int)     intcor
     15.49     -16.01       2.59        0.00      54.79       1.77       0.17       0.36       ----

> <Gold.Chemscore.Fitness>
15.4890

> <Gold.Chemscore.DG>
-16.0130

> <Gold.Chemscore.ZeroCoef>
-5.4800

> <Gold.Chemscore.Hbond>
2.5880

> <Gold.Chemscore.Metal>
0.0000

> <Gold.Chemscore.Lipo>
54.7865

> <Gold.Chemscore.Internal_Hbond>
0.0000

> <Gold.Chemscore.DEClash>
0.1675

> <Gold.Chemscore.DEInternal>
0.3564

> <Gold.Chemscore.Rot>
1.7661

> <Gold.Chemscore.Internal.Correction>
   9.000000E+99

> <Gold.Chemscore.Hbonds>
donor molecule, donor type, donor heavy atom, donor atom, acceptor molecule, acceptor atom, score
      L1  H     2    25       P1  8029  0.55
      L1  H    11    31       P1 10175  0.28
      P1  H  6934  6946       L1     4  0.53

> <Gold.Chemscore.Hbond.Weighted>
-8.6440

> <Gold.Chemscore.Metal.Weighted>
-0.0000

> <Gold.Chemscore.Lipo.Weighted>
-6.4100

> <Gold.Chemscore.Internal_Hbond.Weighted>
0.0000

> <Gold.Chemscore.DEClash.Weighted>
0.1675

> <Gold.Chemscore.DEInternal.Weighted>
0.3564

> <Gold.Chemscore.Rot.Weighted>
4.5211

> <Gold.Chemscore.Internal.Correction.Weighted>
   9.000000E+99

> <Gold.Protein.RotatedTorsions>
[ 6907 6896 6895 6894 ] final  124.61 input  -60.11 | X-H torsion
[ 7974 7965 7964 7962 ] final  115.96 input  175.53 | X-H torsion
[ 8008 7997 7996 7995 ] final -130.58 input   59.86 | X-H torsion
[ 10167 10162 10161 10158 ] final   24.05 input  -65.29 | X-H torsion
[ 10718 10713 10712 10709 ] final  149.55 input   66.30 | X-H torsion
[ 10763 10752 10751 10750 ] final  132.17 input  -60.55 | X-H torsion
[ 11005 11000 10999 10996 ] final   19.43 input  -57.11 | X-H torsion

> <Gold.Protein.ActiveResidues>
 VAL166  LYS551  ARG553  GLY616  TRP617  ASP618  TYR619  PRO620  LYS621  CYS622 
 ASP623  PHE694  ASN695  SER759  ASP760  ASP761  ALA762  ILE779  LEU786  VAL792 
 PHE793  MET794  SER795  GLU796  ALA797  LYS798  CYS799  TRP800  GLU811  SER814 

> <Gold.Protein.RotatedAtoms>
  152.4063  133.6894  159.6359 H   0  0  0  0  0  0  0  0  0  0  0  0  # atno 6907 bound_to 6896
  150.7948  133.8702  159.3265 H   0  0  0  0  0  0  0  0  0  0  0  0  # atno 6908 bound_to 6896
  151.6456  135.1009  160.0201 H   0  0  0  0  0  0  0  0  0  0  0  0  # atno 6909 bound_to 6896
  145.1856  139.3027  143.4395 H   0  0  0  0  0  0  0  0  0  0  0  0  # atno 7974 bound_to 7965
  155.2981  140.0451  157.3027 H   0  0  0  0  0  0  0  0  0  0  0  0  # atno 8008 bound_to 7997
  154.5502  140.2315  155.8464 H   0  0  0  0  0  0  0  0  0  0  0  0  # atno 8009 bound_to 7997
  156.1960  140.3038  155.9435 H   0  0  0  0  0  0  0  0  0  0  0  0  # atno 8010 bound_to 7997
  140.5220  143.9987  150.6421 H   0  0  0  0  0  0  0  0  0  0  0  0  # atno 10167 bound_to 10162
  157.2947  131.0860  151.1435 H   0  0  0  0  0  0  0  0  0  0  0  0  # atno 10718 bound_to 10713
  153.7863  135.3161  155.3372 H   0  0  0  0  0  0  0  0  0  0  0  0  # atno 10763 bound_to 10752
  154.8142  135.4647  154.0602 H   0  0  0  0  0  0  0  0  0  0  0  0  # atno 10764 bound_to 10752
  153.1906  135.6908  153.8443 H   0  0  0  0  0  0  0  0  0  0  0  0  # atno 10765 bound_to 10752
  140.4138  134.1590  155.7668 H   0  0  0  0  0  0  0  0  0  0  0  0  # atno 11005 bound_to 11000
  146.3445  140.2050  142.8589 LP  0  0  0  0  0  0  0  0  0  0  0  0  # atno 17320 bound_to 7965
  145.0093  140.8700  143.5234 LP  0  0  0  0  0  0  0  0  0  0  0  0  # atno 17321 bound_to 7965
  140.3338  143.3061  152.0659 LP  0  0  0  0  0  0  0  0  0  0  0  0  # atno 17342 bound_to 10162
  139.4926  144.6490  151.6716 LP  0  0  0  0  0  0  0  0  0  0  0  0  # atno 17343 bound_to 10162
  157.2818  130.6753  149.6069 LP  0  0  0  0  0  0  0  0  0  0  0  0  # atno 17370 bound_to 10713
  155.9668  130.4447  150.5474 LP  0  0  0  0  0  0  0  0  0  0  0  0  # atno 17371 bound_to 10713
  141.1811  133.8412  157.1255 LP  0  0  0  0  0  0  0  0  0  0  0  0  # atno 17394 bound_to 11000
  140.0248  134.9929  157.0665 LP  0  0  0  0  0  0  0  0  0  0  0  0  # atno 17395 bound_to 11000

$$$$
