AV-unprocessed.smi:1100|AV-procd|sdf|4763|dock1
  -GOLD-   22720 3303D 1   1.00000     0.00000
 Structure written by MMmdl.
 43 44  0  0  0  0  0  0  0  0  3 V2000
  147.9490  139.0463  153.8844 C   0  0  0  0  0  0  0  0  0  0  0  0
  149.0858  138.2066  154.5198 C   0  0  2  0  0  0  0  0  0  0  0  0
  150.5151  138.6400  154.0891 C   0  0  0  0  0  0  0  0  0  0  0  0
  150.8321  139.9827  154.5794 N   0  5  0  0  0  0  0  0  0  0  0  0
  151.4780  140.2551  155.7466 C   0  0  0  0  0  0  0  0  0  0  0  0
  152.4463  139.6506  156.2206 O   0  0  0  0  0  0  0  0  0  0  0  0
  150.9398  141.3168  156.3790 N   0  0  0  0  0  0  0  0  0  0  0  0
  151.2599  141.8992  157.6164 C   0  0  0  0  0  0  0  0  0  0  0  0
  151.8073  141.0334  158.6390 C   0  0  0  0  0  0  0  0  0  0  0  0
  152.1578  141.5126  159.8482 C   0  0  0  0  0  0  0  0  0  0  0  0
  152.0029  142.9296  160.1838 C   0  0  0  0  0  0  0  0  0  0  0  0
  152.3151  143.3819  161.2859 O   0  0  0  0  0  0  0  0  0  0  0  0
  151.4911  143.7169  159.1941 N   0  0  0  0  0  0  0  0  0  0  0  0
  151.3055  145.1510  159.4311 C   0  0  0  0  0  0  0  0  0  0  0  0
  151.1307  143.2075  157.9314 C   0  0  0  0  0  0  0  0  0  0  0  0
  148.9031  136.7347  154.3225 N   0  3  0  0  0  0  0  0  0  0  0  0
  150.0076  135.9185  154.8852 C   0  0  0  0  0  0  0  0  0  0  0  0
  149.8415  134.4443  154.4785 C   0  0  0  0  0  0  0  0  0  0  0  0
  148.5708  133.9653  154.9025 O   0  0  0  0  0  0  0  0  0  0  0  0
  147.5016  134.6892  154.3056 C   0  0  0  0  0  0  0  0  0  0  0  0
  147.5866  136.1651  154.7251 C   0  0  0  0  0  0  0  0  0  0  0  0
  148.0130  140.0975  154.1709 H   0  0  0  0  0  0  0  0  0  0  0  0
  146.9732  138.6946  154.2199 H   0  0  0  0  0  0  0  0  0  0  0  0
  147.9540  139.0077  152.7938 H   0  0  0  0  0  0  0  0  0  0  0  0
  149.0331  138.3784  155.5961 H   0  0  0  0  0  0  0  0  0  0  0  0
  151.2321  137.9033  154.4555 H   0  0  0  0  0  0  0  0  0  0  0  0
  150.5888  138.5887  153.0026 H   0  0  0  0  0  0  0  0  0  0  0  0
  150.1870  141.7723  155.8844 H   0  0  0  0  0  0  0  0  0  0  0  0
  151.9379  139.9808  158.4326 H   0  0  0  0  0  0  0  0  0  0  0  0
  152.5626  140.8378  160.5879 H   0  0  0  0  0  0  0  0  0  0  0  0
  150.8863  145.6728  158.5702 H   0  0  0  0  0  0  0  0  0  0  0  0
  152.2593  145.6266  159.6655 H   0  0  0  0  0  0  0  0  0  0  0  0
  150.6285  145.3160  160.2706 H   0  0  0  0  0  0  0  0  0  0  0  0
  150.7616  143.9616  157.2558 H   0  0  0  0  0  0  0  0  0  0  0  0
  150.9688  136.2836  154.5213 H   0  0  0  0  0  0  0  0  0  0  0  0
  150.0182  136.0113  155.9721 H   0  0  0  0  0  0  0  0  0  0  0  0
  149.9443  134.3259  153.3988 H   0  0  0  0  0  0  0  0  0  0  0  0
  150.6205  133.8370  154.9398 H   0  0  0  0  0  0  0  0  0  0  0  0
  147.5363  134.5886  153.2195 H   0  0  0  0  0  0  0  0  0  0  0  0
  146.5559  134.2590  154.6354 H   0  0  0  0  0  0  0  0  0  0  0  0
  147.4579  136.2368  155.8058 H   0  0  0  0  0  0  0  0  0  0  0  0
  146.7687  136.7208  154.2660 H   0  0  0  0  0  0  0  0  0  0  0  0
  148.9670  136.6072  153.3223 H   0  0  0  0  0  0  0  0  0  0  0  0
  1  2  1  0  0  0  0
  1 22  1  0  0  0  0
  1 23  1  0  0  0  0
  1 24  1  0  0  0  0
  2  3  1  0  0  0  0
  2 16  1  0  0  0  0
  2 25  1  0  0  0  0
  3  4  1  0  0  0  0
  3 26  1  0  0  0  0
  3 27  1  0  0  0  0
  4  5  1  0  0  0  0
  5  6  2  0  0  0  0
  5  7  1  0  0  0  0
  7  8  1  0  0  0  0
  7 28  1  0  0  0  0
  8 15  2  0  0  0  0
  8  9  1  0  0  0  0
  9 10  2  0  0  0  0
  9 29  1  0  0  0  0
 10 11  1  0  0  0  0
 10 30  1  0  0  0  0
 11 12  2  0  0  0  0
 11 13  1  0  0  0  0
 13 14  1  0  0  0  0
 13 15  1  0  0  0  0
 14 31  1  0  0  0  0
 14 32  1  0  0  0  0
 14 33  1  0  0  0  0
 15 34  1  0  0  0  0
 16 21  1  0  0  0  0
 16 17  1  0  0  0  0
 16 43  1  0  0  0  0
 17 18  1  0  0  0  0
 17 35  1  0  0  0  0
 17 36  1  0  0  0  0
 18 19  1  0  0  0  0
 18 37  1  0  0  0  0
 18 38  1  0  0  0  0
 19 20  1  0  0  0  0
 20 21  1  0  0  0  0
 20 39  1  0  0  0  0
 20 40  1  0  0  0  0
 21 41  1  0  0  0  0
 21 42  1  0  0  0  0
M  CHG  1   4  -1
M  CHG  1  16   1
M  END
> <s_m_source_file>
AV-unprocessed.smi

> <i_m_source_file_index>
1100

> <i_lp_mmshare_version>
43012

> <i_f3d_flags>
0

> <s_epik_input>
W0NIMl0xW0NIMl1PW0NIMl1bQ0gyXU4xW0NASF0oW0NIM10pW0NIMl1bTkhdQyg9TylbTkhdYzJbY0hdW2NIXWMoPU8pbihbQ0gzXSlbY0hdMg==

> <s_epik_cmdline>
J2VwaWtfcHl0aG9uJywgJy1waCcsICc3LjAnLCAnLXRuJywgJzgnLCAnLW1hJywgJzIwMCcsICctbWV0YWxfYmluZGluZycsICctaW1hZScsICc8aW5maWxlLm1hZT4nLCAnLW9tYWUnLCAnPG91dGZpbGUubWFlPic=

> <r_lp_tautomer_probability>
1

> <r_epik_Ionization_Penalty>
6.79272

> <r_epik_Ionization_Penalty_Charging>
6.79272

> <r_epik_Ionization_Penalty_Neutral>
3.37009e-06

> <r_epik_State_Penalty>
7.34577

> <r_epik_Charging_Adjusted_Penalty>
14.1385

> <i_epik_Tot_Q>
0

> <i_epik_Tot_abs_Q>
2

> <r_epik_Metal_State_Penalty>
3.26257

> <b_epik_Metal_Only>
1

> <s_lp_Force_Field>
OPLS_2005

> <r_lp_Energy>
31.7412

> <b_lp_Chiralities_Consistent>
1

> <s_lp_Variant>
AV-unprocessed.smi:1100-5

> <Gold.Version>
5.8.1

> <Gold.Id.Protein>
6NUR|6NUR_protein|mol2

> <Gold.PLP.Fitness>
53.2167

> <Gold.PLP.PLP>
-39.3585

> <Gold.PLP.part.hbond>
-3.0000

> <Gold.PLP.part.metal>
0.0000

> <Gold.PLP.part.buried>
-6.3931

> <Gold.PLP.part.nonpolar>
-31.6939

> <Gold.PLP.part.repulsive>
0.3553

> <Gold.PLP.ligand.clash>
0.0000

> <Gold.PLP.ligand.torsion>
0.7929

> <Gold.PLP.Chemscore.Hbond>
4.0000

> <Gold.PLP.Chemscore.CHOScore>
1.0000

> <Gold.PLP.Chemscore.Metal>
0.0000

> <Gold.Chemscore.Hbonds>
donor molecule, donor type, donor heavy atom, donor atom, acceptor molecule, acceptor atom, score
      L1  H    16    43       P1  7948  1.82
      P1  H  7989  7998       L1     4  1.00
      P1  H  7997  8009       L1     6  1.00
      L1  C    15    34       P1  8028  0.94

> <Gold.PLP.Chemscore.Internal.Correction>
0.4440

> <Gold.Rescore>
     Score         DG    S(hbond)    S(metal)    S(lipo)     H(rot)  DE(clash)    DE(int)     intcor
     18.23     -20.46       2.84        0.00      80.11       1.51       0.07       2.15       ----

> <Gold.Chemscore.Fitness>
18.2346

> <Gold.Chemscore.DG>
-20.4564

> <Gold.Chemscore.ZeroCoef>
-5.4800

> <Gold.Chemscore.Hbond>
2.8370

> <Gold.Chemscore.Metal>
0.0000

> <Gold.Chemscore.Lipo>
80.1140

> <Gold.Chemscore.Internal_Hbond>
0.0000

> <Gold.Chemscore.DEClash>
0.0689

> <Gold.Chemscore.DEInternal>
2.1529

> <Gold.Chemscore.Rot>
1.5128

> <Gold.Chemscore.Internal.Correction>
   9.000000E+99

> <Gold.Chemscore.Hbonds>
donor molecule, donor type, donor heavy atom, donor atom, acceptor molecule, acceptor atom, score
      L1  H    16    43       P1  7948  0.87
      P1  H  7989  7998       L1     4  0.33
      P1  H  7997  8009       L1     6  0.99

> <Gold.Chemscore.Hbond.Weighted>
-9.4757

> <Gold.Chemscore.Metal.Weighted>
-0.0000

> <Gold.Chemscore.Lipo.Weighted>
-9.3733

> <Gold.Chemscore.Internal_Hbond.Weighted>
0.0000

> <Gold.Chemscore.DEClash.Weighted>
0.0689

> <Gold.Chemscore.DEInternal.Weighted>
2.1529

> <Gold.Chemscore.Rot.Weighted>
3.8726

> <Gold.Chemscore.Internal.Correction.Weighted>
   9.000000E+99

> <Gold.Protein.RotatedTorsions>
[ 6907 6896 6895 6894 ] final    9.12 input  -60.11 | X-H torsion
[ 7974 7965 7964 7962 ] final -113.90 input  175.53 | X-H torsion
[ 8008 7997 7996 7995 ] final -169.23 input   59.86 | X-H torsion
[ 10167 10162 10161 10158 ] final   69.71 input  -65.29 | X-H torsion
[ 10718 10713 10712 10709 ] final -157.45 input   66.30 | X-H torsion
[ 10763 10752 10751 10750 ] final   74.31 input  -60.55 | X-H torsion
[ 11005 11000 10999 10996 ] final  -81.59 input  -57.11 | X-H torsion

> <Gold.Protein.ActiveResidues>
 VAL166  LYS551  ARG553  GLY616  TRP617  ASP618  TYR619  PRO620  LYS621  CYS622 
 ASP623  PHE694  ASN695  SER759  ASP760  ASP761  ALA762  ILE779  LEU786  VAL792 
 PHE793  MET794  SER795  GLU796  ALA797  LYS798  CYS799  TRP800  GLU811  SER814 

> <Gold.Protein.RotatedAtoms>
  151.7171  135.0901  160.0277 H   0  0  0  0  0  0  0  0  0  0  0  0  # atno 6907 bound_to 6896
  152.3625  133.6311  159.6034 H   0  0  0  0  0  0  0  0  0  0  0  0  # atno 6908 bound_to 6896
  150.7615  133.9316  159.3470 H   0  0  0  0  0  0  0  0  0  0  0  0  # atno 6909 bound_to 6896
  145.1265  140.8700  143.3783 H   0  0  0  0  0  0  0  0  0  0  0  0  # atno 7974 bound_to 7965
  155.9021  140.1043  157.1342 H   0  0  0  0  0  0  0  0  0  0  0  0  # atno 8008 bound_to 7997
  154.4027  140.1290  156.4513 H   0  0  0  0  0  0  0  0  0  0  0  0  # atno 8009 bound_to 7997
  155.7410  140.3467  155.5107 H   0  0  0  0  0  0  0  0  0  0  0  0  # atno 8010 bound_to 7997
  140.0649  144.5202  150.7268 H   0  0  0  0  0  0  0  0  0  0  0  0  # atno 10167 bound_to 10162
  156.5404  130.8561  151.2747 H   0  0  0  0  0  0  0  0  0  0  0  0  # atno 10718 bound_to 10713
  153.0578  135.5030  154.8023 H   0  0  0  0  0  0  0  0  0  0  0  0  # atno 10763 bound_to 10752
  154.6835  135.2972  154.9582 H   0  0  0  0  0  0  0  0  0  0  0  0  # atno 10764 bound_to 10752
  154.0360  135.6723  153.4838 H   0  0  0  0  0  0  0  0  0  0  0  0  # atno 10765 bound_to 10752
  141.1666  133.7204  156.8446 H   0  0  0  0  0  0  0  0  0  0  0  0  # atno 11005 bound_to 11000
  145.0682  139.3052  143.5845 LP  0  0  0  0  0  0  0  0  0  0  0  0  # atno 17320 bound_to 7965
  146.3517  140.0148  142.8664 LP  0  0  0  0  0  0  0  0  0  0  0  0  # atno 17321 bound_to 7965
  140.7154  143.2540  151.4450 LP  0  0  0  0  0  0  0  0  0  0  0  0  # atno 17342 bound_to 10162
  139.5871  144.1580  152.2043 LP  0  0  0  0  0  0  0  0  0  0  0  0  # atno 17343 bound_to 10162
  157.7406  130.9854  150.2390 LP  0  0  0  0  0  0  0  0  0  0  0  0  # atno 17370 bound_to 10713
  156.2977  130.3754  149.7780 LP  0  0  0  0  0  0  0  0  0  0  0  0  # atno 17371 bound_to 10713
  140.1959  134.8932  157.3114 LP  0  0  0  0  0  0  0  0  0  0  0  0  # atno 17394 bound_to 11000
  140.2240  134.3989  155.7552 LP  0  0  0  0  0  0  0  0  0  0  0  0  # atno 17395 bound_to 11000

$$$$
