#       Name:                AV-unprocessed.smi:2126
#       Creating user name   scv26
#       Creation time:       Fri Mar 27 11:43:04 2020


#       File generated by GOLD software.
#

@<TRIPOS>MOLECULE
AV-unprocessed.smi:2126
    47    49     1
SMALL
NO_CHARGES


@<TRIPOS>ATOM
      1 ****        -4.8420   5.9925   0.7252 C.3            1 S1                 0.0000
      2 ****        -3.4243   5.9129   0.7174 O.3            1 S1                 0.0000
      3 ****        -2.8450   4.6625   0.7391 C.ar           1 S1                 0.0000
      4 ****        -3.5718   3.4471   0.7711 C.ar           1 S1                 0.0000
      5 ****        -2.8942   2.2128   0.7917 C.ar           1 S1                 0.0000
      6 ****        -1.4865   2.1577   0.7800 C.ar           1 S1                 0.0000
      7 ****        -0.9075   0.9070   0.8010 O.3            1 S1                 0.0000
      8 ****         0.5112   0.8209   0.7725 C.3            1 S1                 0.0000
      9 ****         0.9219  -0.6590   0.7923 C.3            1 S1                 0.0000
     10 ****         2.3217  -0.7328   0.9775 O.3            1 S1                 0.0000
     11 ****         0.5188  -1.3994  -0.4988 C.3            1 S1                 0.0000
     12 ****         0.8749  -2.8253  -0.4718 N.pl3          1 S1                 0.0000
     13 ****         0.1968  -3.8774   0.0615 C.2            1 S1                 0.0000
     14 ****         0.9328  -5.0003  -0.1661 N.pl3          1 S1                 1.0000
     15 ****         2.0991  -4.6616  -0.8552 C.ar           1 S1                 0.0000
     16 ****         3.1515  -5.4519  -1.3071 C.ar           1 S1                 0.0000
     17 ****         4.1984  -4.7882  -1.9799 C.ar           1 S1                 0.0000
     18 ****         4.1752  -3.3924  -2.1781 C.ar           1 S1                 0.0000
     19 ****         3.1039  -2.6008  -1.7142 C.ar           1 S1                 0.0000
     20 ****         2.0701  -3.2647  -1.0539 C.ar           1 S1                 0.0000
     21 ****        -0.7600   3.3732   0.7488 C.ar           1 S1                 0.0000
     22 ****        -1.4374   4.6074   0.7290 C.ar           1 S1                 0.0000
     23 ****        -5.1427   7.0398   0.7073 H              1 S1                 0.0000
     24 ****        -5.2619   5.5445   1.6268 H              1 S1                 0.0000
     25 ****        -5.2733   5.5103  -0.1530 H              1 S1                 0.0000
     26 ****        -4.6510   3.4338   0.7804 H              1 S1                 0.0000
     27 ****        -3.4642   1.2957   0.8164 H              1 S1                 0.0000
     28 ****         0.9119   1.3092  -0.1175 H              1 S1                 0.0000
     29 ****         0.9201   1.3259   1.6495 H              1 S1                 0.0000
     30 ****         0.4543  -1.1447   1.6499 H              1 S1                 0.0000
     31 ****         2.5399  -0.3019   1.7900 H              1 S1                 0.0000
     32 ****        -0.5619  -1.3453  -0.6360 H              1 S1                 0.0000
     33 ****         0.9594  -0.9321  -1.3797 H              1 S1                 0.0000
     34 ****        -0.7541  -3.8298   0.5726 H              1 S1                 0.0000
     35 ****         3.1732  -6.5209  -1.1537 H              1 S1                 0.0000
     36 ****         5.0368  -5.3609  -2.3496 H              1 S1                 0.0000
     37 ****         4.9969  -2.9182  -2.6952 H              1 S1                 0.0000
     38 ****         3.1005  -1.5316  -1.8656 H              1 S1                 0.0000
     39 ****         0.3191   3.3878   0.7400 H              1 S1                 0.0000
     40 ****        -0.8677   5.5249   0.7057 H              1 S1                 0.0000
     41 ****         0.6562  -5.9283   0.1281 H              1 S1                 0.0000
     42 ****        -3.0945   6.4071   1.5218 LP             1 S1                 0.0000
     43 ****        -3.1054   6.3738  -0.1108 LP             1 S1                 0.0000
     44 ****        -1.2505   0.4085   0.0049 LP             1 S1                 0.0000
     45 ****        -1.2150   0.4523   1.6369 LP             1 S1                 0.0000
     46 ****         2.7869  -0.2771   0.2186 LP             1 S1                 0.0000
     47 ****         2.6068  -1.6905   1.0165 LP             1 S1                 0.0000
@<TRIPOS>BOND
    1    1    2 1     
    2    1   23 1     
    3    1   24 1     
    4    1   25 1     
    5    2    3 1     
    6    3   22 ar    
    7    3    4 ar    
    8    4    5 ar    
    9    4   26 1     
   10    5    6 ar    
   11    5   27 1     
   12    6    7 1     
   13    6   21 ar    
   14    7    8 1     
   15    8    9 1     
   16    8   28 1     
   17    8   29 1     
   18    9   10 1     
   19    9   11 1     
   20    9   30 1     
   21   10   31 1     
   22   11   12 1     
   23   11   32 1     
   24   11   33 1     
   25   12   20 1     
   26   12   13 1     
   27   13   14 2     
   28   13   34 1     
   29   14   15 1     
   30   14   41 1     
   31   15   20 ar    
   32   15   16 ar    
   33   16   17 ar    
   34   16   35 1     
   35   17   18 ar    
   36   17   36 1     
   37   18   19 ar    
   38   18   37 1     
   39   19   20 ar    
   40   19   38 1     
   41   21   22 ar    
   42   21   39 1     
   43   22   40 1     
   44    2   42 1     
   45    2   43 1     
   46    7   44 1     
   47    7   45 1     
   48   10   46 1     
   49   10   47 1     
@<TRIPOS>SUBSTRUCTURE
      1 S1             1
@<TRIPOS>SET
LONE_PAIRS      STATIC     ATOMS    <user>   **** ""
6 42 43 44 45 46 47
DONOR_HYDROGENS      STATIC     ATOMS    <user>   **** ""
2 31 41
ATOM$BLUE        STATIC     ATOMS    COLORGROUP SYSTEM
6 42 43 44 45 46 47
ATOM$RED        STATIC     ATOMS    COLORGROUP SYSTEM
2 31 41
