AV-unprocessed.smi:1452|AV-procd|sdf|5905|dock3
  -GOLD-   22720 5593D 1   1.00000     0.00000
 Structure written by MMmdl.
 40 42  0  0  0  0  0  0  0  0  2 V2000
  150.2040  134.2427  155.7043 O   0  0  0  0  0  0  0  0  0  0  0  0
  149.7742  134.7956  154.6936 C   0  0  0  0  0  0  0  0  0  0  0  0
  150.1323  136.0608  154.3861 N   0  0  0  0  0  0  0  0  0  0  0  0
  150.9891  136.9901  155.0474 C   0  0  0  0  0  0  0  0  0  0  0  0
  150.8534  138.3263  154.6068 C   0  0  0  0  0  0  0  0  0  0  0  0
  151.6490  139.3348  155.1838 C   0  0  0  0  0  0  0  0  0  0  0  0
  152.5656  138.9819  156.1894 C   0  0  0  0  0  0  0  0  0  0  0  0
  152.6423  137.6304  156.5706 C   0  0  0  0  0  0  0  0  0  0  0  0
  151.8802  136.6625  156.0182 N   0  0  0  0  0  0  0  0  0  0  0  0
  148.9328  134.1905  153.8395 N   0  0  0  0  0  0  0  0  0  0  0  0
  148.4080  132.8360  153.9755 C   0  0  2  0  0  0  0  0  0  0  0  0
  149.5025  131.7835  154.1028 C   0  0  0  0  0  0  0  0  0  0  0  0
  148.7613  130.5002  153.7252 C   0  0  0  0  0  0  0  0  0  0  0  0
  147.7641  130.8925  152.7031 N   0  3  1  0  0  0  0  0  0  0  0  0
  146.4907  130.1338  152.7603 C   0  0  0  0  0  0  0  0  0  0  0  0
  145.5268  130.6023  151.6547 C   0  0  0  0  0  0  0  0  0  0  0  0
  145.3549  132.1352  151.6111 C   0  0  0  0  0  0  0  0  0  0  0  0
  146.1572  132.8475  152.7110 C   0  0  0  0  0  0  0  0  0  0  0  0
  147.6294  132.3768  152.7312 C   0  0  1  0  0  0  0  0  0  0  0  0
  149.7323  136.4071  153.5260 H   0  0  0  0  0  0  0  0  0  0  0  0
  150.1446  138.5826  153.8325 H   0  0  0  0  0  0  0  0  0  0  0  0
  151.5568  140.3609  154.8595 H   0  0  0  0  0  0  0  0  0  0  0  0
  153.1931  139.7269  156.6560 H   0  0  0  0  0  0  0  0  0  0  0  0
  153.3330  137.3170  157.3391 H   0  0  0  0  0  0  0  0  0  0  0  0
  148.6317  134.7187  153.0321 H   0  0  0  0  0  0  0  0  0  0  0  0
  147.7715  132.7629  154.8599 H   0  0  0  0  0  0  0  0  0  0  0  0
  150.3042  131.9763  153.3880 H   0  0  0  0  0  0  0  0  0  0  0  0
  149.9399  131.7417  155.1009 H   0  0  0  0  0  0  0  0  0  0  0  0
  149.4310  129.7248  153.3525 H   0  0  0  0  0  0  0  0  0  0  0  0
  148.2544  130.1067  154.6078 H   0  0  0  0  0  0  0  0  0  0  0  0
  146.6967  129.0686  152.6490 H   0  0  0  0  0  0  0  0  0  0  0  0
  146.0281  130.2632  153.7402 H   0  0  0  0  0  0  0  0  0  0  0  0
  145.8951  130.2581  150.6873 H   0  0  0  0  0  0  0  0  0  0  0  0
  144.5569  130.1235  151.7926 H   0  0  0  0  0  0  0  0  0  0  0  0
  145.6807  132.5033  150.6375 H   0  0  0  0  0  0  0  0  0  0  0  0
  144.2999  132.3981  151.6949 H   0  0  0  0  0  0  0  0  0  0  0  0
  146.1092  133.9264  152.5625 H   0  0  0  0  0  0  0  0  0  0  0  0
  145.6893  132.6563  153.6779 H   0  0  0  0  0  0  0  0  0  0  0  0
  148.1320  132.7411  151.8336 H   0  0  0  0  0  0  0  0  0  0  0  0
  148.1766  130.6807  151.8059 H   0  0  0  0  0  0  0  0  0  0  0  0
  1  2  2  0  0  0  0
  2  3  1  0  0  0  0
  2 10  1  0  0  0  0
  3  4  1  0  0  0  0
  3 20  1  0  0  0  0
  4  9  1  0  0  0  0
  4  5  2  0  0  0  0
  5  6  1  0  0  0  0
  5 21  1  0  0  0  0
  6  7  2  0  0  0  0
  6 22  1  0  0  0  0
  7  8  1  0  0  0  0
  7 23  1  0  0  0  0
  8  9  2  0  0  0  0
  8 24  1  0  0  0  0
 10 11  1  0  0  0  0
 10 25  1  0  0  0  0
 11 19  1  0  0  0  0
 11 12  1  0  0  0  0
 11 26  1  0  0  0  0
 12 13  1  0  0  0  0
 12 27  1  0  0  0  0
 12 28  1  0  0  0  0
 13 14  1  0  0  0  0
 13 29  1  0  0  0  0
 13 30  1  0  0  0  0
 14 19  1  0  0  0  0
 14 15  1  0  0  0  0
 14 40  1  0  0  0  0
 15 16  1  0  0  0  0
 15 31  1  0  0  0  0
 15 32  1  0  0  0  0
 16 17  1  0  0  0  0
 16 33  1  0  0  0  0
 16 34  1  0  0  0  0
 17 18  1  0  0  0  0
 17 35  1  0  0  0  0
 17 36  1  0  0  0  0
 18 19  1  0  0  0  0
 18 37  1  0  0  0  0
 18 38  1  0  0  0  0
 19 39  1  0  0  0  0
M  CHG  1  14   1
M  END
> <s_m_source_file>
AV-unprocessed.smi

> <i_m_source_file_index>
1452

> <i_lp_mmshare_version>
43012

> <i_f3d_flags>
0

> <s_epik_input>
W0NIMl0xW0NIMl1bQ0gyXVtDSDJdW0NASF0oTjEyKVtDQEBIXShbQ0gyXVtDSDJdMilbTkhdQyg9TylbTkhdYzNbY0hdW2NIXVtjSF1bY0hdbjM=

> <s_epik_cmdline>
J2VwaWtfcHl0aG9uJywgJy1waCcsICc3LjAnLCAnLXRuJywgJzgnLCAnLW1hJywgJzIwMCcsICctbWV0YWxfYmluZGluZycsICctaW1hZScsICc8aW5maWxlLm1hZT4nLCAnLW9tYWUnLCAnPG91dGZpbGUubWFlPic=

> <r_epik_Ionization_Penalty>
0.00100813

> <r_epik_Ionization_Penalty_Charging>
0.000974069

> <r_epik_Ionization_Penalty_Neutral>
3.40643e-05

> <r_epik_State_Penalty>
0.000633842

> <r_epik_Charging_Adjusted_Penalty>
0.00160791

> <i_epik_Tot_Q>
1

> <i_epik_Tot_abs_Q>
1

> <r_epik_Metal_State_Penalty>
-0

> <b_epik_Metal_Only>
0

> <s_lp_Force_Field>
OPLS_2005

> <r_lp_Energy>
44.0476

> <b_lp_Chiralities_Consistent>
1

> <s_lp_Variant>
AV-unprocessed.smi:1452-3

> <Gold.Version>
5.8.1

> <Gold.Id.Protein>
6NUR|6NUR_protein|mol2

> <Gold.PLP.Fitness>
46.4260

> <Gold.PLP.PLP>
-34.7740

> <Gold.PLP.part.hbond>
-4.8824

> <Gold.PLP.part.metal>
0.0000

> <Gold.PLP.part.buried>
-1.0997

> <Gold.PLP.part.nonpolar>
-28.1472

> <Gold.PLP.part.repulsive>
0.1295

> <Gold.PLP.ligand.clash>
0.0000

> <Gold.PLP.ligand.torsion>
0.0939

> <Gold.PLP.Chemscore.Hbond>
3.9440

> <Gold.PLP.Chemscore.CHOScore>
0.0000

> <Gold.PLP.Chemscore.Metal>
0.0000

> <Gold.Chemscore.Hbonds>
donor molecule, donor type, donor heavy atom, donor atom, acceptor molecule, acceptor atom, score
      L1  H     3    20       P1  7948  1.00
      L1  H    10    25       P1  7948  0.94
      L1  H    14    40       P1 10747  1.00
      P1  H 10752 10763       L1     9  1.00

> <Gold.PLP.Chemscore.Internal.Correction>
0.0077

> <Gold.Rescore>
     Score         DG    S(hbond)    S(metal)    S(lipo)     H(rot)  DE(clash)    DE(int)     intcor
     19.41     -21.60       3.04        0.00      72.94       1.00       0.01       2.18       ----

> <Gold.Chemscore.Fitness>
19.4138

> <Gold.Chemscore.DG>
-21.6001

> <Gold.Chemscore.ZeroCoef>
-5.4800

> <Gold.Chemscore.Hbond>
3.0378

> <Gold.Chemscore.Metal>
0.0000

> <Gold.Chemscore.Lipo>
72.9380

> <Gold.Chemscore.Internal_Hbond>
0.0000

> <Gold.Chemscore.DEClash>
0.0060

> <Gold.Chemscore.DEInternal>
2.1803

> <Gold.Chemscore.Rot>
1.0000

> <Gold.Chemscore.Internal.Correction>
   9.000000E+99

> <Gold.Chemscore.Hbonds>
donor molecule, donor type, donor heavy atom, donor atom, acceptor molecule, acceptor atom, score
      L1  H     3    20       P1  7948  0.34
      L1  H    10    25       P1  7948  0.27
      L1  H    14    40       P1 10747  1.00
      P1  H 10752 10763       L1     9  0.19

> <Gold.Chemscore.Hbond.Weighted>
-10.1464

> <Gold.Chemscore.Metal.Weighted>
-0.0000

> <Gold.Chemscore.Lipo.Weighted>
-8.5338

> <Gold.Chemscore.Internal_Hbond.Weighted>
0.0000

> <Gold.Chemscore.DEClash.Weighted>
0.0060

> <Gold.Chemscore.DEInternal.Weighted>
2.1803

> <Gold.Chemscore.Rot.Weighted>
2.5600

> <Gold.Chemscore.Internal.Correction.Weighted>
   9.000000E+99

> <Gold.Protein.RotatedTorsions>
[ 6907 6896 6895 6894 ] final    7.41 input  -60.11 | X-H torsion
[ 7974 7965 7964 7962 ] final -116.96 input  175.53 | X-H torsion
[ 8008 7997 7996 7995 ] final  169.53 input   59.86 | X-H torsion
[ 10167 10162 10161 10158 ] final   90.76 input  -65.29 | X-H torsion
[ 10718 10713 10712 10709 ] final  163.26 input   66.30 | X-H torsion
[ 10763 10752 10751 10750 ] final   88.76 input  -60.55 | X-H torsion
[ 11005 11000 10999 10996 ] final  162.16 input  -57.11 | X-H torsion

> <Gold.Protein.ActiveResidues>
 VAL166  LYS551  ARG553  GLY616  TRP617  ASP618  TYR619  PRO620  LYS621  CYS622 
 ASP623  PHE694  ASN695  SER759  ASP760  ASP761  ALA762  ILE779  LEU786  VAL792 
 PHE793  MET794  SER795  GLU796  ALA797  LYS798  CYS799  TRP800  GLU811  SER814 

> <Gold.Protein.RotatedAtoms>
  151.6895  135.0949  160.0230 H   0  0  0  0  0  0  0  0  0  0  0  0  # atno 6907 bound_to 6896
  152.3787  133.6512  159.6152 H   0  0  0  0  0  0  0  0  0  0  0  0  # atno 6908 bound_to 6896
  150.7730  133.9066  159.3398 H   0  0  0  0  0  0  0  0  0  0  0  0  # atno 6909 bound_to 6896
  145.0907  140.8488  143.3984 H   0  0  0  0  0  0  0  0  0  0  0  0  # atno 7974 bound_to 7965
  156.1448  140.1561  156.8863 H   0  0  0  0  0  0  0  0  0  0  0  0  # atno 8008 bound_to 7997
  154.5019  140.0823  156.7853 H   0  0  0  0  0  0  0  0  0  0  0  0  # atno 8009 bound_to 7997
  155.4009  140.3414  155.4259 H   0  0  0  0  0  0  0  0  0  0  0  0  # atno 8010 bound_to 7997
  139.8441  144.6626  150.9248 H   0  0  0  0  0  0  0  0  0  0  0  0  # atno 10167 bound_to 10162
  157.1109  131.0467  151.2457 H   0  0  0  0  0  0  0  0  0  0  0  0  # atno 10718 bound_to 10713
  153.1801  135.4495  155.0017 H   0  0  0  0  0  0  0  0  0  0  0  0  # atno 10763 bound_to 10752
  154.8024  135.3261  154.7518 H   0  0  0  0  0  0  0  0  0  0  0  0  # atno 10764 bound_to 10752
  153.7984  135.6964  153.4915 H   0  0  0  0  0  0  0  0  0  0  0  0  # atno 10765 bound_to 10752
  140.2230  134.8182  157.3240 H   0  0  0  0  0  0  0  0  0  0  0  0  # atno 11005 bound_to 11000
  145.1069  139.2784  143.5657 LP  0  0  0  0  0  0  0  0  0  0  0  0  # atno 17320 bound_to 7965
  146.3531  140.0653  142.8626 LP  0  0  0  0  0  0  0  0  0  0  0  0  # atno 17321 bound_to 7965
  140.7795  143.3886  151.1350 LP  0  0  0  0  0  0  0  0  0  0  0  0  # atno 17342 bound_to 10162
  139.7530  143.8750  152.3081 LP  0  0  0  0  0  0  0  0  0  0  0  0  # atno 17343 bound_to 10162
  157.4560  130.7625  149.7193 LP  0  0  0  0  0  0  0  0  0  0  0  0  # atno 17370 bound_to 10713
  155.9850  130.3986  150.3281 LP  0  0  0  0  0  0  0  0  0  0  0  0  # atno 17371 bound_to 10713
  140.1830  134.4466  155.7761 LP  0  0  0  0  0  0  0  0  0  0  0  0  # atno 17394 bound_to 11000
  141.2222  133.6992  156.7900 LP  0  0  0  0  0  0  0  0  0  0  0  0  # atno 17395 bound_to 11000

$$$$
