AV-unprocessed.smi:694|AV-procd|sdf|3383|dock9
  -GOLD-   22720 0363D 1   1.00000     0.00000
 Structure written by MMmdl.
 42 43  0  0  0  0  0  0  0  0  1 V2000
  152.1705  141.1708  158.2609 C   0  0  0  0  0  0  0  0  0  0  0  0
  151.4144  141.2653  157.0160 N   0  0  0  0  0  0  0  0  0  0  0  0
  151.1218  142.5726  156.4418 C   0  0  0  0  0  0  0  0  0  0  0  0
  150.9271  140.0910  156.3977 C   0  0  0  0  0  0  0  0  0  0  0  0
  150.7929  138.8773  157.1165 C   0  0  0  0  0  0  0  0  0  0  0  0
  150.2987  137.7374  156.4545 C   0  0  0  0  0  0  0  0  0  0  0  0
  149.9395  137.8290  155.0965 C   0  0  0  0  0  0  0  0  0  0  0  0
  149.4579  136.6586  154.4510 N   0  0  0  0  0  0  0  0  0  0  0  0
  148.9680  135.5391  155.0102 C   0  0  0  0  0  0  0  0  0  0  0  0
  148.8675  135.3334  156.2196 O   0  0  0  0  0  0  0  0  0  0  0  0
  148.6194  134.6441  154.0748 N   0  0  0  0  0  0  0  0  0  0  0  0
  148.0886  133.3093  154.3354 C   0  0  0  0  0  0  0  0  0  0  0  0
  147.6090  132.6213  153.0419 C   0  0  1  0  0  0  0  0  0  0  0  0
  147.1866  131.1547  153.2170 C   0  0  0  0  0  0  0  0  0  0  0  0
  146.1811  130.8594  152.0938 C   0  0  0  0  0  0  0  0  0  0  0  0
  145.8441  132.2100  151.4484 C   0  0  0  0  0  0  0  0  0  0  0  0
  146.3642  133.2666  152.4258 C   0  0  2  0  0  0  0  0  0  0  0  0
  146.6615  134.4793  151.7654 O   0  0  0  0  0  0  0  0  0  0  0  0
  150.1199  139.0767  154.4551 C   0  0  0  0  0  0  0  0  0  0  0  0
  150.5952  140.1709  155.0860 N   0  0  0  0  0  0  0  0  0  0  0  0
  151.5442  140.7677  159.0573 H   0  0  0  0  0  0  0  0  0  0  0  0
  152.5338  142.1472  158.5817 H   0  0  0  0  0  0  0  0  0  0  0  0
  153.0365  140.5197  158.1374 H   0  0  0  0  0  0  0  0  0  0  0  0
  151.5586  142.6596  155.4465 H   0  0  0  0  0  0  0  0  0  0  0  0
  151.5298  143.3757  157.0555 H   0  0  0  0  0  0  0  0  0  0  0  0
  150.0450  142.7271  156.3667 H   0  0  0  0  0  0  0  0  0  0  0  0
  151.0569  138.7971  158.1599 H   0  0  0  0  0  0  0  0  0  0  0  0
  150.1926  136.8050  156.9898 H   0  0  0  0  0  0  0  0  0  0  0  0
  149.5554  136.6470  153.4464 H   0  0  0  0  0  0  0  0  0  0  0  0
  148.7412  134.8999  153.1059 H   0  0  0  0  0  0  0  0  0  0  0  0
  148.8232  132.6886  154.8516 H   0  0  0  0  0  0  0  0  0  0  0  0
  147.2497  133.4181  155.0230 H   0  0  0  0  0  0  0  0  0  0  0  0
  148.4132  132.6528  152.3041 H   0  0  0  0  0  0  0  0  0  0  0  0
  148.0406  130.4772  153.1945 H   0  0  0  0  0  0  0  0  0  0  0  0
  146.6919  131.0213  154.1800 H   0  0  0  0  0  0  0  0  0  0  0  0
  146.6007  130.1756  151.3552 H   0  0  0  0  0  0  0  0  0  0  0  0
  145.2868  130.3880  152.5030 H   0  0  0  0  0  0  0  0  0  0  0  0
  146.3723  132.2888  150.4967 H   0  0  0  0  0  0  0  0  0  0  0  0
  144.7792  132.3214  151.2423 H   0  0  0  0  0  0  0  0  0  0  0  0
  145.6170  133.4492  153.1994 H   0  0  0  0  0  0  0  0  0  0  0  0
  147.5513  134.7223  151.9710 H   0  0  0  0  0  0  0  0  0  0  0  0
  149.9049  139.2193  153.4077 H   0  0  0  0  0  0  0  0  0  0  0  0
  1  2  1  0  0  0  0
  1 21  1  0  0  0  0
  1 22  1  0  0  0  0
  1 23  1  0  0  0  0
  2  3  1  0  0  0  0
  2  4  1  0  0  0  0
  3 24  1  0  0  0  0
  3 25  1  0  0  0  0
  3 26  1  0  0  0  0
  4 20  1  0  0  0  0
  4  5  2  0  0  0  0
  5  6  1  0  0  0  0
  5 27  1  0  0  0  0
  6  7  2  0  0  0  0
  6 28  1  0  0  0  0
  7  8  1  0  0  0  0
  7 19  1  0  0  0  0
  8  9  1  0  0  0  0
  8 29  1  0  0  0  0
  9 10  2  0  0  0  0
  9 11  1  0  0  0  0
 11 12  1  0  0  0  0
 11 30  1  0  0  0  0
 12 13  1  0  0  0  0
 12 31  1  0  0  0  0
 12 32  1  0  0  0  0
 13 17  1  0  0  0  0
 13 14  1  0  0  0  0
 13 33  1  0  0  0  0
 14 15  1  0  0  0  0
 14 34  1  0  0  0  0
 14 35  1  0  0  0  0
 15 16  1  0  0  0  0
 15 36  1  0  0  0  0
 15 37  1  0  0  0  0
 16 17  1  0  0  0  0
 16 38  1  0  0  0  0
 16 39  1  0  0  0  0
 17 18  1  0  0  0  0
 17 40  1  0  0  0  0
 18 41  1  0  0  0  0
 19 20  2  0  0  0  0
 19 42  1  0  0  0  0
M  END
> <s_m_source_file>
AV-unprocessed.smi

> <i_m_source_file_index>
694

> <i_lp_mmshare_version>
43012

> <i_f3d_flags>
0

> <s_epik_input>
W0NIM11OKFtDSDNdKWMxW2NIXVtjSF1jKFtjSF1uMSlbTkhdQyg9TylbTkhdW0NIMl1bQ0BASF0yW0NIMl1bQ0gyXVtDSDJdW0NASF0yW09IXQ==

> <s_epik_cmdline>
J2VwaWtfcHl0aG9uJywgJy1waCcsICc3LjAnLCAnLXRuJywgJzgnLCAnLW1hJywgJzIwMCcsICctbWV0YWxfYmluZGluZycsICctaW1hZScsICc8aW5maWxlLm1hZT4nLCAnLW9tYWUnLCAnPG91dGZpbGUubWFlPic=

> <r_lp_tautomer_probability>
1

> <r_epik_Ionization_Penalty>
0.60335

> <r_epik_Ionization_Penalty_Charging>
0

> <r_epik_Ionization_Penalty_Neutral>
0.60335

> <r_epik_State_Penalty>
0.616805

> <r_epik_Charging_Adjusted_Penalty>
0.616805

> <i_epik_Tot_Q>
0

> <i_epik_Tot_abs_Q>
0

> <r_epik_Metal_State_Penalty>
0.301709

> <b_epik_Metal_Only>
0

> <s_lp_Force_Field>
OPLS_2005

> <r_lp_Energy>
25.3577

> <b_lp_Chiralities_Consistent>
1

> <s_lp_Variant>
AV-unprocessed.smi:694-8

> <Gold.Version>
5.8.1

> <Gold.Id.Protein>
6NUR|6NUR_protein|mol2

> <Gold.PLP.Fitness>
42.2533

> <Gold.PLP.PLP>
-28.8294

> <Gold.PLP.part.hbond>
-4.0000

> <Gold.PLP.part.metal>
0.0000

> <Gold.PLP.part.buried>
-3.6193

> <Gold.PLP.part.nonpolar>
-21.0012

> <Gold.PLP.part.repulsive>
0.0993

> <Gold.PLP.ligand.clash>
0.0000

> <Gold.PLP.ligand.torsion>
0.3134

> <Gold.PLP.Chemscore.Hbond>
3.6810

> <Gold.PLP.Chemscore.CHOScore>
1.0000

> <Gold.PLP.Chemscore.Metal>
0.0000

> <Gold.Chemscore.Hbonds>
donor molecule, donor type, donor heavy atom, donor atom, acceptor molecule, acceptor atom, score
      L1  H     8    29       P1  7948  1.00
      L1  H    11    30       P1  7948  0.99
      L1  H    18    41       P1  7948  0.90
      P1  H  7989  7998       L1    20  0.80
      L1  C    19    42       P1  7957  1.00

> <Gold.PLP.Chemscore.Internal.Correction>
0.0077

> <Gold.Rescore>
     Score         DG    S(hbond)    S(metal)    S(lipo)     H(rot)  DE(clash)    DE(int)     intcor
     16.63     -18.39       2.79        0.00      68.45       1.73       0.15       1.61       ----

> <Gold.Chemscore.Fitness>
16.6258

> <Gold.Chemscore.DG>
-18.3943

> <Gold.Chemscore.ZeroCoef>
-5.4800

> <Gold.Chemscore.Hbond>
2.7917

> <Gold.Chemscore.Metal>
0.0000

> <Gold.Chemscore.Lipo>
68.4491

> <Gold.Chemscore.Internal_Hbond>
0.0000

> <Gold.Chemscore.DEClash>
0.1546

> <Gold.Chemscore.DEInternal>
1.6139

> <Gold.Chemscore.Rot>
1.7259

> <Gold.Chemscore.Internal.Correction>
   9.000000E+99

> <Gold.Chemscore.Hbonds>
donor molecule, donor type, donor heavy atom, donor atom, acceptor molecule, acceptor atom, score
      L1  H     8    29       P1  7948  0.67
      L1  H    11    30       P1  7948  0.33
      L1  H    18    41       P1  7948  0.54
      P1  H  7989  7998       L1    20  0.11

> <Gold.Chemscore.Hbond.Weighted>
-9.3241

> <Gold.Chemscore.Metal.Weighted>
-0.0000

> <Gold.Chemscore.Lipo.Weighted>
-8.0085

> <Gold.Chemscore.Internal_Hbond.Weighted>
0.0000

> <Gold.Chemscore.DEClash.Weighted>
0.1546

> <Gold.Chemscore.DEInternal.Weighted>
1.6139

> <Gold.Chemscore.Rot.Weighted>
4.4184

> <Gold.Chemscore.Internal.Correction.Weighted>
   9.000000E+99

> <Gold.Protein.RotatedTorsions>
[ 6907 6896 6895 6894 ] final   27.29 input  -60.11 | X-H torsion
[ 7974 7965 7964 7962 ] final   90.78 input  175.53 | X-H torsion
[ 8008 7997 7996 7995 ] final  134.53 input   59.86 | X-H torsion
[ 10167 10162 10161 10158 ] final -115.20 input  -65.29 | X-H torsion
[ 10718 10713 10712 10709 ] final -129.18 input   66.30 | X-H torsion
[ 10763 10752 10751 10750 ] final  -85.11 input  -60.55 | X-H torsion
[ 11005 11000 10999 10996 ] final   15.77 input  -57.11 | X-H torsion

> <Gold.Protein.ActiveResidues>
 VAL166  LYS551  ARG553  GLY616  TRP617  ASP618  TYR619  PRO620  LYS621  CYS622 
 ASP623  PHE694  ASN695  SER759  ASP760  ASP761  ALA762  ILE779  LEU786  VAL792 
 PHE793  MET794  SER795  GLU796  ALA797  LYS798  CYS799  TRP800  GLU811  SER814 

> <Gold.Protein.RotatedAtoms>
  152.0000  134.9933  160.0564 H   0  0  0  0  0  0  0  0  0  0  0  0  # atno 6907 bound_to 6896
  152.1528  133.4528  159.4830 H   0  0  0  0  0  0  0  0  0  0  0  0  # atno 6908 bound_to 6896
  150.6877  134.2086  159.4393 H   0  0  0  0  0  0  0  0  0  0  0  0  # atno 6909 bound_to 6896
  145.5145  139.2277  143.2706 H   0  0  0  0  0  0  0  0  0  0  0  0  # atno 7974 bound_to 7965
  156.2999  140.2493  156.3433 H   0  0  0  0  0  0  0  0  0  0  0  0  # atno 8008 bound_to 7997
  154.9035  140.0405  157.1925 H   0  0  0  0  0  0  0  0  0  0  0  0  # atno 8009 bound_to 7997
  154.8477  140.2901  155.5622 H   0  0  0  0  0  0  0  0  0  0  0  0  # atno 8010 bound_to 7997
  140.0926  143.4685  152.1860 H   0  0  0  0  0  0  0  0  0  0  0  0  # atno 10167 bound_to 10162
  156.2022  130.6864  151.0552 H   0  0  0  0  0  0  0  0  0  0  0  0  # atno 10718 bound_to 10713
  154.6073  135.5497  153.7436 H   0  0  0  0  0  0  0  0  0  0  0  0  # atno 10763 bound_to 10752
  153.0180  135.6381  154.1629 H   0  0  0  0  0  0  0  0  0  0  0  0  # atno 10764 bound_to 10752
  154.1568  135.2899  155.3100 H   0  0  0  0  0  0  0  0  0  0  0  0  # atno 10765 bound_to 10752
  140.4546  134.1189  155.7707 H   0  0  0  0  0  0  0  0  0  0  0  0  # atno 11005 bound_to 11000
  146.2146  140.5953  142.9044 LP  0  0  0  0  0  0  0  0  0  0  0  0  # atno 17320 bound_to 7965
  144.7709  140.5636  143.6670 LP  0  0  0  0  0  0  0  0  0  0  0  0  # atno 17321 bound_to 7965
  139.5716  144.7465  151.3876 LP  0  0  0  0  0  0  0  0  0  0  0  0  # atno 17342 bound_to 10162
  140.7020  143.7608  150.7419 LP  0  0  0  0  0  0  0  0  0  0  0  0  # atno 17343 bound_to 10162
  157.6992  131.0782  150.6874 LP  0  0  0  0  0  0  0  0  0  0  0  0  # atno 17370 bound_to 10713
  156.6932  130.4601  149.5594 LP  0  0  0  0  0  0  0  0  0  0  0  0  # atno 17371 bound_to 10713
  141.1649  133.8723  157.1744 LP  0  0  0  0  0  0  0  0  0  0  0  0  # atno 17394 bound_to 11000
  139.9984  135.0037  157.0135 LP  0  0  0  0  0  0  0  0  0  0  0  0  # atno 17395 bound_to 11000

$$$$
