#       Name:                AV-unprocessed.smi:3155
#       Creating user name   scv26
#       Creation time:       Fri Mar 27 17:44:26 2020


#       File generated by GOLD software.
#

@<TRIPOS>MOLECULE
AV-unprocessed.smi:3155
    41    42     1
SMALL
NO_CHARGES


@<TRIPOS>ATOM
      1 ****        -2.5707  -1.3177   2.7662 C.3            1 S1                 0.0000
      2 ****        -2.1742  -0.5996   1.4684 C.3            1 S1                 0.0000
      3 ****        -2.3387  -1.5423   0.2529 C.3            1 S1                 0.0000
      4 ****        -2.1851  -0.8828  -1.0322 N.pl3          1 S1                 0.0000
      5 ****        -1.2585  -1.1403  -2.0207 C.2            1 S1                 0.0000
      6 ****        -1.5103  -0.2791  -3.0496 C.2            1 S1                 0.0000
      7 ****        -2.6373   0.4638  -2.5997 C.2            1 S1                 0.0000
      8 ****        -3.0444   0.0941  -1.3963 N.2            1 S1                 0.0000
      9 ****        -0.7843  -0.1787   1.6235 N.3            1 S1                 0.0000
     10 ****        -0.5085   1.1324   1.0221 C.3            1 S1                 0.0000
     11 ****         0.9377   1.5738   1.2707 C.2            1 S1                 0.0000
     12 ****         1.1668   2.3555   2.1939 O.2            1 S1                 0.0000
     13 ****         1.9153   1.0963   0.4711 N.am           1 S1                 0.0000
     14 ****         3.3217   1.4691   0.6092 C.3            1 S1                 0.0000
     15 ****         4.0176   0.9299  -0.6405 C.3            1 S1                 0.0000
     16 ****         3.1469  -0.2408  -1.0741 C.3            1 S1                 0.0000
     17 ****         1.7377   0.1597  -0.6382 C.3            1 S1                 0.0000
     18 ****        -3.6108  -1.6430   2.7302 H              1 S1                 0.0000
     19 ****        -2.4651  -0.6598   3.6297 H              1 S1                 0.0000
     20 ****        -1.9540  -2.2000   2.9415 H              1 S1                 0.0000
     21 ****        -2.8302   0.2668   1.3668 H              1 S1                 0.0000
     22 ****        -1.6269  -2.3671   0.3111 H              1 S1                 0.0000
     23 ****        -3.3316  -1.9940   0.2687 H              1 S1                 0.0000
     24 ****        -0.5009  -1.9019  -1.9081 H              1 S1                 0.0000
     25 ****        -0.9744  -0.1955  -3.9834 H              1 S1                 0.0000
     26 ****        -3.1698   1.2529  -3.1098 H              1 S1                 0.0000
     27 ****        -0.1707  -0.8969   1.2668 H              1 S1                 0.0000
     28 ****        -0.7151   1.1213  -0.0467 H              1 S1                 0.0000
     29 ****        -1.1749   1.8784   1.4580 H              1 S1                 0.0000
     30 ****         3.4545   2.5483   0.7016 H              1 S1                 0.0000
     31 ****         3.7262   0.9994   1.5070 H              1 S1                 0.0000
     32 ****         4.0142   1.6943  -1.4187 H              1 S1                 0.0000
     33 ****         5.0538   0.6435  -0.4581 H              1 S1                 0.0000
     34 ****         3.2161  -0.4482  -2.1422 H              1 S1                 0.0000
     35 ****         3.4533  -1.1402  -0.5385 H              1 S1                 0.0000
     36 ****         1.1568  -0.7169  -0.3506 H              1 S1                 0.0000
     37 ****         1.2171   0.6653  -1.4527 H              1 S1                 0.0000
     38 ****        -3.8157   0.4567  -0.8732 LP             1 S1                 0.0000
     39 ****        -0.6087  -0.0587   2.6006 LP             1 S1                 0.0000
     40 ****         0.4163   2.6895   2.7641 LP             1 S1                 0.0000
     41 ****         2.1034   2.6564   2.3736 LP             1 S1                 0.0000
@<TRIPOS>BOND
    1    1    2 1     
    2    1   18 1     
    3    1   19 1     
    4    1   20 1     
    5    2    3 1     
    6    2    9 1     
    7    2   21 1     
    8    3    4 1     
    9    3   22 1     
   10    3   23 1     
   11    4    8 1     
   12    4    5 1     
   13    5    6 2     
   14    5   24 1     
   15    6    7 1     
   16    6   25 1     
   17    7    8 2     
   18    7   26 1     
   19    9   10 1     
   20    9   27 1     
   21   10   11 1     
   22   10   28 1     
   23   10   29 1     
   24   11   12 2     
   25   11   13 am    
   26   13   17 1     
   27   13   14 1     
   28   14   15 1     
   29   14   30 1     
   30   14   31 1     
   31   15   16 1     
   32   15   32 1     
   33   15   33 1     
   34   16   17 1     
   35   16   34 1     
   36   16   35 1     
   37   17   36 1     
   38   17   37 1     
   39    8   38 1     
   40    9   39 1     
   41   12   40 1     
   42   12   41 1     
@<TRIPOS>SUBSTRUCTURE
      1 S1             1
@<TRIPOS>SET
LONE_PAIRS      STATIC     ATOMS    <user>   **** ""
4 38 39 40 41
DONOR_HYDROGENS      STATIC     ATOMS    <user>   **** ""
1 27
ATOM$BLUE        STATIC     ATOMS    COLORGROUP SYSTEM
4 38 39 40 41
ATOM$RED        STATIC     ATOMS    COLORGROUP SYSTEM
1 27
