AV-unprocessed.smi:186|AV-procd|sdf|1467|dock3
  -GOLD-   2262019283D 1   1.00000     0.00000
 Structure written by MMmdl.
 48 51  0  0  0  0  0  0  0  0  1 V2000
  145.4373  131.9517  151.1997 C   0  0  0  0  0  0  0  0  0  0  0  0
  146.3817  132.0522  152.2510 O   0  0  0  0  0  0  0  0  0  0  0  0
  147.2446  133.1690  152.1003 C   0  0  0  0  0  0  0  0  0  0  0  0
  148.0928  133.3393  153.3618 C   0  0  0  0  0  0  0  0  0  0  0  0
  148.8447  132.4415  153.7428 O   0  0  0  0  0  0  0  0  0  0  0  0
  147.9580  134.5070  154.0066 N   0  0  0  0  0  0  0  0  0  0  0  0
  148.6770  134.8659  155.2221 C   0  0  0  0  0  0  0  0  0  0  0  0
  148.5498  136.3425  155.6060 C   0  0  0  0  0  0  0  0  0  0  0  0
  149.9691  136.2544  155.9282 N   0  0  0  0  0  0  0  0  0  0  0  0
  150.7267  137.4376  155.6967 C   0  0  0  0  0  0  0  0  0  0  0  0
  151.8537  137.3726  154.9379 N   0  0  0  0  0  0  0  0  0  0  0  0
  152.5952  138.4598  154.7081 C   0  0  0  0  0  0  0  0  0  0  0  0
  152.4058  139.7041  155.1460 N   0  0  0  0  0  0  0  0  0  0  0  0
  151.2943  139.7829  155.9303 C   0  0  0  0  0  0  0  0  0  0  0  0
  150.4100  138.7128  156.2491 C   0  0  0  0  0  0  0  0  0  0  0  0
  149.3888  139.1780  157.0696 N   0  0  0  0  0  0  0  0  0  0  0  0
  149.6510  140.4471  157.2216 C   0  0  0  0  0  0  0  0  0  0  0  0
  150.7863  140.8928  156.5836 N   0  0  0  0  0  0  0  0  0  0  0  0
  151.3158  142.2487  156.5868 C   0  0  0  0  0  0  0  0  0  0  0  0
  151.0501  143.0330  157.8975 C   0  0  2  0  0  0  0  0  0  0  0  0
  149.6885  143.4181  157.9462 O   0  0  0  0  0  0  0  0  0  0  0  0
  151.9269  144.2757  158.0751 C   0  0  0  0  0  0  0  0  0  0  0  0
  153.0033  143.8050  159.0429 C   0  0  0  0  0  0  0  0  0  0  0  0
  152.2731  142.9735  159.9262 O   0  0  0  0  0  0  0  0  0  0  0  0
  151.3870  142.1858  159.1414 C   0  0  0  0  0  0  0  0  0  0  0  0
  150.1567  135.1615  154.9785 C   0  0  0  0  0  0  0  0  0  0  0  0
  144.7985  131.0836  151.3619 H   0  0  0  0  0  0  0  0  0  0  0  0
  145.9330  131.8293  150.2359 H   0  0  0  0  0  0  0  0  0  0  0  0
  144.7999  132.8357  151.1561 H   0  0  0  0  0  0  0  0  0  0  0  0
  147.8996  133.0257  151.2392 H   0  0  0  0  0  0  0  0  0  0  0  0
  146.6642  134.0782  151.9352 H   0  0  0  0  0  0  0  0  0  0  0  0
  147.3189  135.1919  153.6302 H   0  0  0  0  0  0  0  0  0  0  0  0
  148.5119  134.1865  156.0620 H   0  0  0  0  0  0  0  0  0  0  0  0
  148.3391  137.0042  154.7633 H   0  0  0  0  0  0  0  0  0  0  0  0
  147.9065  136.5325  156.4655 H   0  0  0  0  0  0  0  0  0  0  0  0
  153.4660  138.3104  154.0872 H   0  0  0  0  0  0  0  0  0  0  0  0
  149.0215  141.0958  157.8134 H   0  0  0  0  0  0  0  0  0  0  0  0
  152.3886  142.1920  156.3969 H   0  0  0  0  0  0  0  0  0  0  0  0
  150.8853  142.7819  155.7378 H   0  0  0  0  0  0  0  0  0  0  0  0
  149.5329  144.0564  157.2671 H   0  0  0  0  0  0  0  0  0  0  0  0
  152.3442  144.6710  157.1507 H   0  0  0  0  0  0  0  0  0  0  0  0
  151.3641  145.0832  158.5467 H   0  0  0  0  0  0  0  0  0  0  0  0
  153.7680  143.2210  158.5282 H   0  0  0  0  0  0  0  0  0  0  0  0
  153.4877  144.6274  159.5696 H   0  0  0  0  0  0  0  0  0  0  0  0
  150.5095  141.9017  159.7241 H   0  0  0  0  0  0  0  0  0  0  0  0
  151.9041  141.2661  158.8636 H   0  0  0  0  0  0  0  0  0  0  0  0
  150.8390  134.3841  155.3234 H   0  0  0  0  0  0  0  0  0  0  0  0
  150.3755  135.4978  153.9629 H   0  0  0  0  0  0  0  0  0  0  0  0
  1  2  1  0  0  0  0
  1 27  1  0  0  0  0
  1 28  1  0  0  0  0
  1 29  1  0  0  0  0
  2  3  1  0  0  0  0
  3  4  1  0  0  0  0
  3 30  1  0  0  0  0
  3 31  1  0  0  0  0
  4  5  2  0  0  0  0
  4  6  1  0  0  0  0
  6  7  1  0  0  0  0
  6 32  1  0  0  0  0
  7 26  1  0  0  0  0
  7  8  1  0  0  0  0
  7 33  1  0  0  0  0
  8  9  1  0  0  0  0
  8 34  1  0  0  0  0
  8 35  1  0  0  0  0
  9 10  1  0  0  0  0
  9 26  1  0  0  0  0
 10 15  1  0  0  0  0
 10 11  2  0  0  0  0
 11 12  1  0  0  0  0
 12 13  2  0  0  0  0
 12 36  1  0  0  0  0
 13 14  1  0  0  0  0
 14 18  1  0  0  0  0
 14 15  2  0  0  0  0
 15 16  1  0  0  0  0
 16 17  2  0  0  0  0
 17 18  1  0  0  0  0
 17 37  1  0  0  0  0
 18 19  1  0  0  0  0
 19 20  1  0  0  0  0
 19 38  1  0  0  0  0
 19 39  1  0  0  0  0
 20 25  1  0  0  0  0
 20 21  1  0  0  0  0
 20 22  1  0  0  0  0
 21 40  1  0  0  0  0
 22 23  1  0  0  0  0
 22 41  1  0  0  0  0
 22 42  1  0  0  0  0
 23 24  1  0  0  0  0
 23 43  1  0  0  0  0
 23 44  1  0  0  0  0
 24 25  1  0  0  0  0
 25 45  1  0  0  0  0
 25 46  1  0  0  0  0
 26 47  1  0  0  0  0
 26 48  1  0  0  0  0
M  END
> <s_m_source_file>
AV-unprocessed.smi

> <i_m_source_file_index>
186

> <i_lp_mmshare_version>
43012

> <i_f3d_flags>
0

> <s_epik_input>
W0NIM11PW0NIMl1DKD1PKVtOSF1bQ0hdMVtDSDJdTihbQ0gyXTEpYyhuW2NIXW4yKWMoYzIzKW5bY0hdbjNbQ0gyXVtDQEBdNChbT0hdKVtDSDJdW0NIMl1PW0NIMl00

> <s_epik_cmdline>
J2VwaWtfcHl0aG9uJywgJy1waCcsICc3LjAnLCAnLXRuJywgJzgnLCAnLW1hJywgJzIwMCcsICctbWV0YWxfYmluZGluZycsICctaW1hZScsICc8aW5maWxlLm1hZT4nLCAnLW9tYWUnLCAnPG91dGZpbGUubWFlPic=

> <r_lp_tautomer_probability>
1

> <r_epik_Ionization_Penalty>
0.00138671

> <r_epik_Ionization_Penalty_Charging>
0

> <r_epik_Ionization_Penalty_Neutral>
0.00138671

> <r_epik_State_Penalty>
0.000746021

> <r_epik_Charging_Adjusted_Penalty>
0.000746021

> <i_epik_Tot_Q>
0

> <i_epik_Tot_abs_Q>
0

> <r_epik_Metal_State_Penalty>
-0

> <b_epik_Metal_Only>
0

> <s_lp_Force_Field>
OPLS_2005

> <r_lp_Energy>
43.6542

> <b_lp_Chiralities_Consistent>
1

> <s_lp_Variant>
AV-unprocessed.smi:186-2

> <Gold.Version>
5.8.1

> <Gold.Id.Protein>
6NUR|6NUR_protein|mol2

> <Gold.PLP.Fitness>
51.6781

> <Gold.PLP.PLP>
-44.2495

> <Gold.PLP.part.hbond>
-4.5752

> <Gold.PLP.part.metal>
0.0000

> <Gold.PLP.part.buried>
-8.4270

> <Gold.PLP.part.nonpolar>
-32.0228

> <Gold.PLP.part.repulsive>
0.4718

> <Gold.PLP.ligand.clash>
0.0000

> <Gold.PLP.ligand.torsion>
0.9981

> <Gold.PLP.Chemscore.Hbond>
2.9540

> <Gold.PLP.Chemscore.CHOScore>
0.0000

> <Gold.PLP.Chemscore.Metal>
0.0000

> <Gold.Chemscore.Hbonds>
donor molecule, donor type, donor heavy atom, donor atom, acceptor molecule, acceptor atom, score
      L1  H    21    40       P1  8028  1.00
      P1  H  7989  7998       L1    13  0.46
      P1  H  7997  8008       L1    13  0.50
      P1  H 10752 10765       L1    11  0.80

> <Gold.PLP.Chemscore.Internal.Correction>
0.5628

> <Gold.Rescore>
     Score         DG    S(hbond)    S(metal)    S(lipo)     H(rot)  DE(clash)    DE(int)     intcor
     11.73     -15.15       2.40        0.00      87.84       3.36       1.59       1.83       ----

> <Gold.Chemscore.Fitness>
11.7285

> <Gold.Chemscore.DG>
-15.1519

> <Gold.Chemscore.ZeroCoef>
-5.4800

> <Gold.Chemscore.Hbond>
2.3958

> <Gold.Chemscore.Metal>
0.0000

> <Gold.Chemscore.Lipo>
87.8361

> <Gold.Chemscore.Internal_Hbond>
0.0000

> <Gold.Chemscore.DEClash>
1.5934

> <Gold.Chemscore.DEInternal>
1.8300

> <Gold.Chemscore.Rot>
3.3620

> <Gold.Chemscore.Internal.Correction>
   9.000000E+99

> <Gold.Chemscore.Hbonds>
donor molecule, donor type, donor heavy atom, donor atom, acceptor molecule, acceptor atom, score
      L1  H    21    40       P1  8028  0.39
      P1  H  7989  7998       L1    13  0.06
      P1  H  7997  8008       L1    13  0.15
      P1  H 10752 10765       L1    11  0.56

> <Gold.Chemscore.Hbond.Weighted>
-8.0018

> <Gold.Chemscore.Metal.Weighted>
-0.0000

> <Gold.Chemscore.Lipo.Weighted>
-10.2768

> <Gold.Chemscore.Internal_Hbond.Weighted>
0.0000

> <Gold.Chemscore.DEClash.Weighted>
1.5934

> <Gold.Chemscore.DEInternal.Weighted>
1.8300

> <Gold.Chemscore.Rot.Weighted>
8.6067

> <Gold.Chemscore.Internal.Correction.Weighted>
   9.000000E+99

> <Gold.Protein.RotatedTorsions>
[ 6907 6896 6895 6894 ] final   20.14 input  -60.11 | X-H torsion
[ 7974 7965 7964 7962 ] final  -20.37 input  175.53 | X-H torsion
[ 8008 7997 7996 7995 ] final  -16.23 input   59.86 | X-H torsion
[ 10167 10162 10161 10158 ] final -111.48 input  -65.29 | X-H torsion
[ 10718 10713 10712 10709 ] final   42.77 input   66.30 | X-H torsion
[ 10763 10752 10751 10750 ] final  173.33 input  -60.55 | X-H torsion
[ 11005 11000 10999 10996 ] final -131.77 input  -57.11 | X-H torsion

> <Gold.Protein.ActiveResidues>
 VAL166  LYS551  ARG553  GLY616  TRP617  ASP618  TYR619  PRO620  LYS621  CYS622 
 ASP623  PHE694  ASN695  SER759  ASP760  ASP761  ALA762  ILE779  LEU786  VAL792 
 PHE793  MET794  SER795  GLU796  ALA797  LYS798  CYS799  TRP800  GLU811  SER814 

> <Gold.Protein.RotatedAtoms>
  151.8918  135.0413  160.0498 H   0  0  0  0  0  0  0  0  0  0  0  0  # atno 6907 bound_to 6896
  152.2430  133.5147  159.5289 H   0  0  0  0  0  0  0  0  0  0  0  0  # atno 6908 bound_to 6896
  150.7059  134.0980  159.3998 H   0  0  0  0  0  0  0  0  0  0  0  0  # atno 6909 bound_to 6896
  146.1792  140.4192  142.8501 H   0  0  0  0  0  0  0  0  0  0  0  0  # atno 7974 bound_to 7965
  154.5068  140.2175  155.9234 H   0  0  0  0  0  0  0  0  0  0  0  0  # atno 8008 bound_to 7997
  156.1504  140.3162  155.8605 H   0  0  0  0  0  0  0  0  0  0  0  0  # atno 8009 bound_to 7997
  155.3950  140.0480  157.3030 H   0  0  0  0  0  0  0  0  0  0  0  0  # atno 8010 bound_to 7997
  140.1331  143.4343  152.1614 H   0  0  0  0  0  0  0  0  0  0  0  0  # atno 10167 bound_to 10162
  157.4085  130.7900  149.7409 H   0  0  0  0  0  0  0  0  0  0  0  0  # atno 10718 bound_to 10713
  154.4386  135.2761  155.1863 H   0  0  0  0  0  0  0  0  0  0  0  0  # atno 10763 bound_to 10752
  154.3739  135.6102  153.5758 H   0  0  0  0  0  0  0  0  0  0  0  0  # atno 10764 bound_to 10752
  152.9839  135.5864  154.4709 H   0  0  0  0  0  0  0  0  0  0  0  0  # atno 10765 bound_to 10752
  140.9229  134.1420  157.4299 H   0  0  0  0  0  0  0  0  0  0  0  0  # atno 11005 bound_to 11000
  144.8286  140.6670  143.6306 LP  0  0  0  0  0  0  0  0  0  0  0  0  # atno 17320 bound_to 7965
  145.4125  139.1577  143.4118 LP  0  0  0  0  0  0  0  0  0  0  0  0  # atno 17321 bound_to 7965
  139.5509  144.7337  151.4437 LP  0  0  0  0  0  0  0  0  0  0  0  0  # atno 17342 bound_to 10162
  140.6805  143.8092  150.7115 LP  0  0  0  0  0  0  0  0  0  0  0  0  # atno 17343 bound_to 10162
  155.9843  130.3992  150.3316 LP  0  0  0  0  0  0  0  0  0  0  0  0  # atno 17370 bound_to 10713
  157.1452  131.0307  151.2910 LP  0  0  0  0  0  0  0  0  0  0  0  0  # atno 17371 bound_to 10713
  139.8779  134.9978  156.5865 LP  0  0  0  0  0  0  0  0  0  0  0  0  # atno 17394 bound_to 11000
  140.7964  133.8541  155.8689 LP  0  0  0  0  0  0  0  0  0  0  0  0  # atno 17395 bound_to 11000

$$$$
