AV-unprocessed.smi:2718|AV-procd|sdf|10487|dock6
  -GOLD-   2272014533D 1   1.00000     0.00000
 Structure written by MMmdl.
 47 48  0  0  0  0  0  0  0  0  1 V2000
  142.4912  136.9127  162.5927 C   0  0  0  0  0  0  0  0  0  0  0  0
  143.4287  135.7648  162.2759 C   0  0  0  0  0  0  0  0  0  0  0  0
  142.8972  134.3924  162.6502 C   0  0  0  0  0  0  0  0  0  0  0  0
  144.6313  135.9717  161.7046 C   0  0  0  0  0  0  0  0  0  0  0  0
  145.6397  134.9364  161.3326 C   0  0  1  0  0  0  0  0  0  0  0  0
  146.8586  135.1983  160.4540 C   0  0  1  0  0  0  0  0  0  0  0  0
  147.1038  136.5713  159.8931 C   0  0  0  0  0  0  0  0  0  0  0  0
  146.4144  137.5597  160.1460 O   0  0  0  0  0  0  0  0  0  0  0  0
  148.1391  136.6212  159.0409 N   0  0  0  0  0  0  0  0  0  0  0  0
  148.5242  137.7968  158.2665 C   0  0  0  0  0  0  0  0  0  0  0  0
  150.0572  137.9473  158.1631 C   0  0  2  0  0  0  0  0  0  0  0  0
  150.5329  139.3998  158.3421 C   0  0  0  0  0  0  0  0  0  0  0  0
  150.5764  137.3564  156.8827 C   0  0  0  0  0  0  0  0  0  0  0  0
  151.2539  136.2020  156.8193 N   0  0  0  0  0  0  0  0  0  0  0  0
  151.5579  136.0187  155.4855 N   0  0  0  0  0  0  0  0  0  0  0  0
  151.0370  137.0819  154.8746 C   0  0  0  0  0  0  0  0  0  0  0  0
  150.4145  137.9533  155.6825 N   0  0  0  0  0  0  0  0  0  0  0  0
  149.7567  139.1963  155.3300 C   0  0  0  0  0  0  0  0  0  0  0  0
  147.0339  134.8995  161.9407 C   0  0  0  0  0  0  0  0  0  0  0  0
  147.4798  135.9427  162.9639 C   0  0  0  0  0  0  0  0  0  0  0  0
  147.6369  133.5563  162.3154 C   0  0  0  0  0  0  0  0  0  0  0  0
  142.2742  136.9409  163.6606 H   0  0  0  0  0  0  0  0  0  0  0  0
  141.5512  136.7908  162.0540 H   0  0  0  0  0  0  0  0  0  0  0  0
  142.9218  137.8735  162.3085 H   0  0  0  0  0  0  0  0  0  0  0  0
  141.9796  134.1845  162.0999 H   0  0  0  0  0  0  0  0  0  0  0  0
  142.6702  134.3559  163.7157 H   0  0  0  0  0  0  0  0  0  0  0  0
  143.6077  133.5954  162.4336 H   0  0  0  0  0  0  0  0  0  0  0  0
  144.9218  136.9895  161.4889 H   0  0  0  0  0  0  0  0  0  0  0  0
  145.1542  133.9725  161.1919 H   0  0  0  0  0  0  0  0  0  0  0  0
  147.1184  134.3865  159.7758 H   0  0  0  0  0  0  0  0  0  0  0  0
  148.6645  135.7740  158.8795 H   0  0  0  0  0  0  0  0  0  0  0  0
  148.0834  137.7351  157.2698 H   0  0  0  0  0  0  0  0  0  0  0  0
  148.0898  138.6785  158.7386 H   0  0  0  0  0  0  0  0  0  0  0  0
  150.4899  137.3826  158.9880 H   0  0  0  0  0  0  0  0  0  0  0  0
  151.6210  139.4599  158.3063 H   0  0  0  0  0  0  0  0  0  0  0  0
  150.2168  139.8101  159.3012 H   0  0  0  0  0  0  0  0  0  0  0  0
  150.1378  140.0465  157.5580 H   0  0  0  0  0  0  0  0  0  0  0  0
  151.1144  137.2296  153.8073 H   0  0  0  0  0  0  0  0  0  0  0  0
  149.8188  139.3625  154.2539 H   0  0  0  0  0  0  0  0  0  0  0  0
  150.2399  140.0273  155.8451 H   0  0  0  0  0  0  0  0  0  0  0  0
  148.7068  139.1539  155.6208 H   0  0  0  0  0  0  0  0  0  0  0  0
  148.5445  136.1481  162.8508 H   0  0  0  0  0  0  0  0  0  0  0  0
  147.3076  135.5766  163.9764 H   0  0  0  0  0  0  0  0  0  0  0  0
  146.9379  136.8813  162.8673 H   0  0  0  0  0  0  0  0  0  0  0  0
  148.7256  133.6177  162.3237 H   0  0  0  0  0  0  0  0  0  0  0  0
  147.3438  132.7860  161.6014 H   0  0  0  0  0  0  0  0  0  0  0  0
  147.2962  133.2479  163.3041 H   0  0  0  0  0  0  0  0  0  0  0  0
  1  2  1  0  0  0  0
  1 22  1  0  0  0  0
  1 23  1  0  0  0  0
  1 24  1  0  0  0  0
  2  3  1  0  0  0  0
  2  4  2  0  0  0  0
  3 25  1  0  0  0  0
  3 26  1  0  0  0  0
  3 27  1  0  0  0  0
  4  5  1  0  0  0  0
  4 28  1  0  0  0  0
  5 19  1  0  0  0  0
  5  6  1  0  0  0  0
  5 29  1  0  0  0  0
  6  7  1  0  0  0  0
  6 19  1  0  0  0  0
  6 30  1  0  0  0  0
  7  8  2  0  0  0  0
  7  9  1  0  0  0  0
  9 10  1  0  0  0  0
  9 31  1  0  0  0  0
 10 11  1  0  0  0  0
 10 32  1  0  0  0  0
 10 33  1  0  0  0  0
 11 12  1  0  0  0  0
 11 13  1  0  0  0  0
 11 34  1  0  0  0  0
 12 35  1  0  0  0  0
 12 36  1  0  0  0  0
 12 37  1  0  0  0  0
 13 17  1  0  0  0  0
 13 14  2  0  0  0  0
 14 15  1  0  0  0  0
 15 16  2  0  0  0  0
 16 17  1  0  0  0  0
 16 38  1  0  0  0  0
 17 18  1  0  0  0  0
 18 39  1  0  0  0  0
 18 40  1  0  0  0  0
 18 41  1  0  0  0  0
 19 20  1  0  0  0  0
 19 21  1  0  0  0  0
 20 42  1  0  0  0  0
 20 43  1  0  0  0  0
 20 44  1  0  0  0  0
 21 45  1  0  0  0  0
 21 46  1  0  0  0  0
 21 47  1  0  0  0  0
M  END
> <s_m_source_file>
AV-unprocessed.smi

> <i_m_source_file_index>
2718

> <i_lp_mmshare_version>
43012

> <i_f3d_flags>
0

> <s_epik_input>
W0NIM11DKFtDSDNdKT1bQ0hdW0NAQEhdKEMxKFtDSDNdKVtDSDNdKVtDQEhdMUMoPU8pW05IXVtDSDJdW0NASF0oW0NIM10pYzJubltjSF1uMltDSDNd

> <s_epik_cmdline>
J2VwaWtfcHl0aG9uJywgJy1waCcsICc3LjAnLCAnLXRuJywgJzgnLCAnLW1hJywgJzIwMCcsICctbWV0YWxfYmluZGluZycsICctaW1hZScsICc8aW5maWxlLm1hZT4nLCAnLW9tYWUnLCAnPG91dGZpbGUubWFlPic=

> <r_lp_tautomer_probability>
1

> <r_epik_Ionization_Penalty>
0.000449586

> <r_epik_Ionization_Penalty_Charging>
0

> <r_epik_Ionization_Penalty_Neutral>
0.000449586

> <r_epik_State_Penalty>
0.000243372

> <r_epik_Charging_Adjusted_Penalty>
0.000243372

> <i_epik_Tot_Q>
0

> <i_epik_Tot_abs_Q>
0

> <r_epik_Metal_State_Penalty>
-0

> <b_epik_Metal_Only>
0

> <s_lp_Force_Field>
OPLS_2005

> <r_lp_Energy>
16.2745

> <b_lp_Chiralities_Consistent>
1

> <s_lp_Variant>
AV-unprocessed.smi:2718-2

> <Gold.Version>
5.8.1

> <Gold.Id.Protein>
6NUR|6NUR_protein|mol2

> <Gold.PLP.Fitness>
38.3736

> <Gold.PLP.PLP>
-30.8726

> <Gold.PLP.part.hbond>
-2.0000

> <Gold.PLP.part.metal>
0.0000

> <Gold.PLP.part.buried>
-4.9695

> <Gold.PLP.part.nonpolar>
-24.3236

> <Gold.PLP.part.repulsive>
0.2298

> <Gold.PLP.ligand.clash>
0.0000

> <Gold.PLP.ligand.torsion>
1.0355

> <Gold.PLP.Chemscore.Hbond>
2.0000

> <Gold.PLP.Chemscore.CHOScore>
1.0880

> <Gold.PLP.Chemscore.Metal>
0.0000

> <Gold.Chemscore.Hbonds>
donor molecule, donor type, donor heavy atom, donor atom, acceptor molecule, acceptor atom, score
      P1  H  6934  6947       L1     8  1.00
      P1  H 10752 10765       L1    15  1.00
      L1  C    16    38       P1  7949  0.75

> <Gold.PLP.Chemscore.Internal.Correction>
0.3079

> <Gold.Rescore>
     Score         DG    S(hbond)    S(metal)    S(lipo)     H(rot)  DE(clash)    DE(int)     intcor
     13.12     -15.35       1.97        0.00      70.94       1.95       0.02       2.21       ----

> <Gold.Chemscore.Fitness>
13.1239

> <Gold.Chemscore.DG>
-15.3487

> <Gold.Chemscore.ZeroCoef>
-5.4800

> <Gold.Chemscore.Hbond>
1.9668

> <Gold.Chemscore.Metal>
0.0000

> <Gold.Chemscore.Lipo>
70.9421

> <Gold.Chemscore.Internal_Hbond>
0.0000

> <Gold.Chemscore.DEClash>
0.0170

> <Gold.Chemscore.DEInternal>
2.2079

> <Gold.Chemscore.Rot>
1.9533

> <Gold.Chemscore.Internal.Correction>
   9.000000E+99

> <Gold.Chemscore.Hbonds>
donor molecule, donor type, donor heavy atom, donor atom, acceptor molecule, acceptor atom, score
      P1  H  6934  6947       L1     8  0.98
      P1  H 10752 10765       L1    15  0.74

> <Gold.Chemscore.Hbond.Weighted>
-6.5691

> <Gold.Chemscore.Metal.Weighted>
-0.0000

> <Gold.Chemscore.Lipo.Weighted>
-8.3002

> <Gold.Chemscore.Internal_Hbond.Weighted>
0.0000

> <Gold.Chemscore.DEClash.Weighted>
0.0170

> <Gold.Chemscore.DEInternal.Weighted>
2.2079

> <Gold.Chemscore.Rot.Weighted>
5.0005

> <Gold.Chemscore.Internal.Correction.Weighted>
   9.000000E+99

> <Gold.Protein.RotatedTorsions>
[ 6907 6896 6895 6894 ] final   62.25 input  -60.11 | X-H torsion
[ 7974 7965 7964 7962 ] final  -63.54 input  175.53 | X-H torsion
[ 8008 7997 7996 7995 ] final   73.40 input   59.86 | X-H torsion
[ 10167 10162 10161 10158 ] final  165.76 input  -65.29 | X-H torsion
[ 10718 10713 10712 10709 ] final  176.97 input   66.30 | X-H torsion
[ 10763 10752 10751 10750 ] final -172.53 input  -60.55 | X-H torsion
[ 11005 11000 10999 10996 ] final -116.93 input  -57.11 | X-H torsion

> <Gold.Protein.ActiveResidues>
 VAL166  LYS551  ARG553  GLY616  TRP617  ASP618  TYR619  PRO620  LYS621  CYS622 
 ASP623  PHE694  ASN695  SER759  ASP760  ASP761  ALA762  ILE779  LEU786  VAL792 
 PHE793  MET794  SER795  GLU796  ALA797  LYS798  CYS799  TRP800  GLU811  SER814 

> <Gold.Protein.RotatedAtoms>
  152.4157  134.6046  160.0009 H   0  0  0  0  0  0  0  0  0  0  0  0  # atno 6907 bound_to 6896
  151.6210  133.3333  159.3096 H   0  0  0  0  0  0  0  0  0  0  0  0  # atno 6908 bound_to 6896
  150.8045  134.7201  159.6698 H   0  0  0  0  0  0  0  0  0  0  0  0  # atno 6909 bound_to 6896
  145.7778  140.8779  143.0346 H   0  0  0  0  0  0  0  0  0  0  0  0  # atno 7974 bound_to 7965
  155.7831  140.3481  155.5308 H   0  0  0  0  0  0  0  0  0  0  0  0  # atno 8008 bound_to 7997
  155.8708  140.0986  157.1572 H   0  0  0  0  0  0  0  0  0  0  0  0  # atno 8009 bound_to 7997
  154.4017  140.1341  156.4063 H   0  0  0  0  0  0  0  0  0  0  0  0  # atno 8010 bound_to 7997
  139.4912  144.4099  151.9312 H   0  0  0  0  0  0  0  0  0  0  0  0  # atno 10167 bound_to 10162
  156.9122  130.9913  151.3019 H   0  0  0  0  0  0  0  0  0  0  0  0  # atno 10718 bound_to 10713
  154.6182  135.2872  155.0356 H   0  0  0  0  0  0  0  0  0  0  0  0  # atno 10763 bound_to 10752
  154.1560  135.6496  153.4978 H   0  0  0  0  0  0  0  0  0  0  0  0  # atno 10764 bound_to 10752
  153.0224  135.5367  154.6962 H   0  0  0  0  0  0  0  0  0  0  0  0  # atno 10765 bound_to 10752
  141.0389  133.9867  157.3027 H   0  0  0  0  0  0  0  0  0  0  0  0  # atno 11005 bound_to 11000
  144.6801  139.9945  143.7484 LP  0  0  0  0  0  0  0  0  0  0  0  0  # atno 17320 bound_to 7965
  146.0105  139.3166  143.0873 LP  0  0  0  0  0  0  0  0  0  0  0  0  # atno 17321 bound_to 7965
  140.3540  144.3054  150.5944 LP  0  0  0  0  0  0  0  0  0  0  0  0  # atno 17342 bound_to 10162
  140.5461  143.2214  151.8005 LP  0  0  0  0  0  0  0  0  0  0  0  0  # atno 17343 bound_to 10162
  157.5960  130.8478  149.8730 LP  0  0  0  0  0  0  0  0  0  0  0  0  # atno 17370 bound_to 10713
  156.0530  130.3714  150.1156 LP  0  0  0  0  0  0  0  0  0  0  0  0  # atno 17371 bound_to 10713
  139.9261  135.0201  156.8238 LP  0  0  0  0  0  0  0  0  0  0  0  0  # atno 17394 bound_to 11000
  140.6271  133.9940  155.7645 LP  0  0  0  0  0  0  0  0  0  0  0  0  # atno 17395 bound_to 11000

$$$$
