AV-unprocessed.smi:175|AV-procd|sdf|1432|dock9
  -GOLD-   2262019213D 1   1.00000     0.00000
 Structure written by MMmdl.
 47 50  0  0  0  0  0  0  0  0  1 V2000
  145.5441  135.4653  151.2292 C   0  0  0  0  0  0  0  0  0  0  0  0
  144.9376  134.1115  151.6305 C   0  0  1  0  0  0  0  0  0  0  0  0
  144.3208  133.5545  150.4722 O   0  0  0  0  0  0  0  0  0  0  0  0
  144.3858  132.1418  150.5510 C   0  0  0  0  0  0  0  0  0  0  0  0
  145.7798  131.9103  151.1131 C   0  0  0  0  0  0  0  0  0  0  0  0
  145.9246  133.0256  152.1454 C   0  0  2  0  0  0  0  0  0  0  0  0
  145.4239  132.5392  153.3795 O   0  0  0  0  0  0  0  0  0  0  0  0
  147.3922  133.4773  152.3677 C   0  0  0  0  0  0  0  0  0  0  0  0
  147.6712  133.8803  153.7377 N   0  0  0  0  0  0  0  0  0  0  0  0
  147.0617  134.8962  154.4407 C   0  0  0  0  0  0  0  0  0  0  0  0
  147.4942  135.0688  155.6602 N   0  0  0  0  0  0  0  0  0  0  0  0
  148.4694  134.0918  155.8102 C   0  0  0  0  0  0  0  0  0  0  0  0
  149.3338  133.7175  156.8706 C   0  0  0  0  0  0  0  0  0  0  0  0
  149.3172  134.3537  158.0622 N   0  0  0  0  0  0  0  0  0  0  0  0
  149.3846  135.8115  157.9801 C   0  0  0  0  0  0  0  0  0  0  0  0
  148.3422  136.2514  158.9888 C   0  0  0  0  0  0  0  0  0  0  0  0
  148.0891  137.4313  159.2258 O   0  0  0  0  0  0  0  0  0  0  0  0
  147.7654  135.1860  159.5478 N   0  0  0  0  0  0  0  0  0  0  0  0
  146.7019  135.1893  160.5499 C   0  0  0  0  0  0  0  0  0  0  0  0
  147.2355  134.9615  161.9755 C   0  0  0  0  0  0  0  0  0  0  0  0
  146.2035  134.8274  162.8074 F   0  0  0  0  0  0  0  0  0  0  0  0
  147.9672  133.8485  162.0244 F   0  0  0  0  0  0  0  0  0  0  0  0
  147.9762  135.9913  162.3844 F   0  0  0  0  0  0  0  0  0  0  0  0
  148.2779  133.9395  159.0056 C   0  0  0  0  0  0  0  0  0  0  0  0
  150.1813  132.6746  156.6665 N   0  0  0  0  0  0  0  0  0  0  0  0
  150.1853  132.0415  155.4891 C   0  0  0  0  0  0  0  0  0  0  0  0
  149.4403  132.2838  154.4079 N   0  0  0  0  0  0  0  0  0  0  0  0
  148.5888  133.3296  154.6153 C   0  0  0  0  0  0  0  0  0  0  0  0
  146.0263  135.9536  152.0763 H   0  0  0  0  0  0  0  0  0  0  0  0
  144.7692  136.1397  150.8641 H   0  0  0  0  0  0  0  0  0  0  0  0
  146.2805  135.3542  150.4330 H   0  0  0  0  0  0  0  0  0  0  0  0
  144.1525  134.2922  152.3672 H   0  0  0  0  0  0  0  0  0  0  0  0
  143.6183  131.7723  151.2327 H   0  0  0  0  0  0  0  0  0  0  0  0
  144.2399  131.6757  149.5765 H   0  0  0  0  0  0  0  0  0  0  0  0
  145.9181  130.9082  151.5213 H   0  0  0  0  0  0  0  0  0  0  0  0
  146.5061  132.0451  150.3109 H   0  0  0  0  0  0  0  0  0  0  0  0
  144.4800  132.5267  153.3364 H   0  0  0  0  0  0  0  0  0  0  0  0
  148.0826  132.6718  152.1160 H   0  0  0  0  0  0  0  0  0  0  0  0
  147.6377  134.3120  151.7101 H   0  0  0  0  0  0  0  0  0  0  0  0
  146.2842  135.5141  154.0161 H   0  0  0  0  0  0  0  0  0  0  0  0
  150.3738  136.1646  158.2723 H   0  0  0  0  0  0  0  0  0  0  0  0
  149.1462  136.2045  156.9900 H   0  0  0  0  0  0  0  0  0  0  0  0
  146.1577  136.1337  160.5002 H   0  0  0  0  0  0  0  0  0  0  0  0
  145.9798  134.4103  160.3015 H   0  0  0  0  0  0  0  0  0  0  0  0
  147.4721  133.3656  158.5448 H   0  0  0  0  0  0  0  0  0  0  0  0
  148.7186  133.3340  159.7980 H   0  0  0  0  0  0  0  0  0  0  0  0
  150.8854  131.2239  155.4006 H   0  0  0  0  0  0  0  0  0  0  0  0
  1  2  1  0  0  0  0
  1 29  1  0  0  0  0
  1 30  1  0  0  0  0
  1 31  1  0  0  0  0
  2  6  1  0  0  0  0
  2  3  1  0  0  0  0
  2 32  1  0  0  0  0
  3  4  1  0  0  0  0
  4  5  1  0  0  0  0
  4 33  1  0  0  0  0
  4 34  1  0  0  0  0
  5  6  1  0  0  0  0
  5 35  1  0  0  0  0
  5 36  1  0  0  0  0
  6  7  1  0  0  0  0
  6  8  1  0  0  0  0
  7 37  1  0  0  0  0
  8  9  1  0  0  0  0
  8 38  1  0  0  0  0
  8 39  1  0  0  0  0
  9 28  1  0  0  0  0
  9 10  1  0  0  0  0
 10 11  2  0  0  0  0
 10 40  1  0  0  0  0
 11 12  1  0  0  0  0
 12 28  2  0  0  0  0
 12 13  1  0  0  0  0
 13 14  1  0  0  0  0
 13 25  2  0  0  0  0
 14 24  1  0  0  0  0
 14 15  1  0  0  0  0
 15 16  1  0  0  0  0
 15 41  1  0  0  0  0
 15 42  1  0  0  0  0
 16 17  2  0  0  0  0
 16 18  1  0  0  0  0
 18 19  1  0  0  0  0
 18 24  1  0  0  0  0
 19 20  1  0  0  0  0
 19 43  1  0  0  0  0
 19 44  1  0  0  0  0
 20 21  1  0  0  0  0
 20 22  1  0  0  0  0
 20 23  1  0  0  0  0
 24 45  1  0  0  0  0
 24 46  1  0  0  0  0
 25 26  1  0  0  0  0
 26 27  2  0  0  0  0
 26 47  1  0  0  0  0
 27 28  1  0  0  0  0
M  END
> <s_m_source_file>
AV-unprocessed.smi

> <i_m_source_file_index>
175

> <i_lp_mmshare_version>
43012

> <i_f3d_flags>
0

> <s_epik_input>
W0NIMl0xW0NIMl1PW0NAQEhdKFtDSDNdKVtDQEBdMShbT0hdKVtDSDJdbihbY0hdbjIpYyhjMjMpbltjSF1uYzNONFtDSDJdQyg9TylOKFtDSDJdNClbQ0gyXUMoRikoRilG

> <s_epik_cmdline>
J2VwaWtfcHl0aG9uJywgJy1waCcsICc3LjAnLCAnLXRuJywgJzgnLCAnLW1hJywgJzIwMCcsICctbWV0YWxfYmluZGluZycsICctaW1hZScsICc8aW5maWxlLm1hZT4nLCAnLW9tYWUnLCAnPG91dGZpbGUubWFlPic=

> <r_lp_tautomer_probability>
1

> <r_epik_Ionization_Penalty>
0.000307802

> <r_epik_Ionization_Penalty_Charging>
0

> <r_epik_Ionization_Penalty_Neutral>
0.000307802

> <r_epik_State_Penalty>
-0

> <r_epik_Charging_Adjusted_Penalty>
0

> <i_epik_Tot_Q>
0

> <i_epik_Tot_abs_Q>
0

> <r_epik_Metal_State_Penalty>
-0

> <b_epik_Metal_Only>
0

> <s_epik_Chemistry_Notes>
This compound contains an acetal/aminal-like group ( X-CH(R)-Y where X, Y are N, S, or O) that may be acid/base labile, releasing an aldehyde.

> <s_lp_Force_Field>
OPLS_2005

> <r_lp_Energy>
36.4888

> <b_lp_Chiralities_Consistent>
1

> <s_lp_Variant>
AV-unprocessed.smi:175-4

> <Gold.Version>
5.8.1

> <Gold.Id.Protein>
6NUR|6NUR_protein|mol2

> <Gold.PLP.Fitness>
39.9514

> <Gold.PLP.PLP>
-42.0031

> <Gold.PLP.part.hbond>
-2.5458

> <Gold.PLP.part.metal>
0.0000

> <Gold.PLP.part.buried>
-6.1760

> <Gold.PLP.part.nonpolar>
-33.7232

> <Gold.PLP.part.repulsive>
0.2484

> <Gold.PLP.ligand.clash>
0.0000

> <Gold.PLP.ligand.torsion>
1.4354

> <Gold.PLP.Chemscore.Hbond>
0.1656

> <Gold.PLP.Chemscore.CHOScore>
0.0000

> <Gold.PLP.Chemscore.Metal>
0.0000

> <Gold.Chemscore.Hbonds>
donor molecule, donor type, donor heavy atom, donor atom, acceptor molecule, acceptor atom, score
      L1  H     7    37       P1 10957  0.01

> <Gold.PLP.Chemscore.Internal.Correction>
0.3223

> <Gold.Rescore>
     Score         DG    S(hbond)    S(metal)    S(lipo)     H(rot)  DE(clash)    DE(int)     intcor
      7.76      -9.48       1.72        0.00      51.70       3.05       0.53       1.19       ----

> <Gold.Chemscore.Fitness>
7.7627

> <Gold.Chemscore.DG>
-9.4808

> <Gold.Chemscore.ZeroCoef>
-5.4800

> <Gold.Chemscore.Hbond>
1.7234

> <Gold.Chemscore.Metal>
0.0000

> <Gold.Chemscore.Lipo>
51.7027

> <Gold.Chemscore.Internal_Hbond>
0.0000

> <Gold.Chemscore.DEClash>
0.5285

> <Gold.Chemscore.DEInternal>
1.1895

> <Gold.Chemscore.Rot>
3.0487

> <Gold.Chemscore.Internal.Correction>
   9.000000E+99

> <Gold.Chemscore.Hbonds>
donor molecule, donor type, donor heavy atom, donor atom, acceptor molecule, acceptor atom, score
      L1  H     7    37       P1 10957  0.01
      P1  H  6934  6947       L1    17  0.01

> <Gold.Chemscore.Hbond.Weighted>
-5.7561

> <Gold.Chemscore.Metal.Weighted>
-0.0000

> <Gold.Chemscore.Lipo.Weighted>
-6.0492

> <Gold.Chemscore.Internal_Hbond.Weighted>
0.0000

> <Gold.Chemscore.DEClash.Weighted>
0.5285

> <Gold.Chemscore.DEInternal.Weighted>
1.1895

> <Gold.Chemscore.Rot.Weighted>
7.8046

> <Gold.Chemscore.Internal.Correction.Weighted>
   9.000000E+99

> <Gold.Protein.RotatedTorsions>
[ 6907 6896 6895 6894 ] final -165.94 input  -60.11 | X-H torsion
[ 7974 7965 7964 7962 ] final  168.44 input  175.53 | X-H torsion
[ 8008 7997 7996 7995 ] final   83.88 input   59.86 | X-H torsion
[ 10167 10162 10161 10158 ] final  -86.94 input  -65.29 | X-H torsion
[ 10718 10713 10712 10709 ] final   76.22 input   66.30 | X-H torsion
[ 10763 10752 10751 10750 ] final   49.81 input  -60.55 | X-H torsion
[ 11005 11000 10999 10996 ] final -146.25 input  -57.11 | X-H torsion

> <Gold.Protein.ActiveResidues>
 VAL166  LYS551  ARG553  GLY616  TRP617  ASP618  TYR619  PRO620  LYS621  CYS622 
 ASP623  PHE694  ASN695  SER759  ASP760  ASP761  ALA762  ILE779  LEU786  VAL792 
 PHE793  MET794  SER795  GLU796  ALA797  LYS798  CYS799  TRP800  GLU811  SER814 

> <Gold.Protein.RotatedAtoms>
  151.4357  133.3657  159.2774 H   0  0  0  0  0  0  0  0  0  0  0  0  # atno 6907 bound_to 6896
  150.9193  134.8612  159.7489 H   0  0  0  0  0  0  0  0  0  0  0  0  # atno 6908 bound_to 6896
  152.4973  134.4293  159.9559 H   0  0  0  0  0  0  0  0  0  0  0  0  # atno 6909 bound_to 6896
  144.7389  139.8907  143.6403 H   0  0  0  0  0  0  0  0  0  0  0  0  # atno 7974 bound_to 7965
  155.9298  140.3415  155.6239 H   0  0  0  0  0  0  0  0  0  0  0  0  # atno 8008 bound_to 7997
  155.7172  140.0779  157.2365 H   0  0  0  0  0  0  0  0  0  0  0  0  # atno 8009 bound_to 7997
  154.4083  140.1612  156.2349 H   0  0  0  0  0  0  0  0  0  0  0  0  # atno 8010 bound_to 7997
  140.3893  143.2712  151.9285 H   0  0  0  0  0  0  0  0  0  0  0  0  # atno 10167 bound_to 10162
  157.6665  130.9764  150.1465 H   0  0  0  0  0  0  0  0  0  0  0  0  # atno 10718 bound_to 10713
  152.9786  135.5899  154.4150 H   0  0  0  0  0  0  0  0  0  0  0  0  # atno 10763 bound_to 10752
  154.3781  135.2767  155.2229 H   0  0  0  0  0  0  0  0  0  0  0  0  # atno 10764 bound_to 10752
  154.4155  135.6071  153.6033 H   0  0  0  0  0  0  0  0  0  0  0  0  # atno 10765 bound_to 10752
  140.7839  134.3047  157.5036 H   0  0  0  0  0  0  0  0  0  0  0  0  # atno 11005 bound_to 11000
  146.1144  139.4153  143.0267 LP  0  0  0  0  0  0  0  0  0  0  0  0  # atno 17320 bound_to 7965
  145.7396  141.0013  143.1308 LP  0  0  0  0  0  0  0  0  0  0  0  0  # atno 17321 bound_to 7965
  139.4790  144.5743  151.8037 LP  0  0  0  0  0  0  0  0  0  0  0  0  # atno 17342 bound_to 10162
  140.4857  144.1385  150.5940 LP  0  0  0  0  0  0  0  0  0  0  0  0  # atno 17343 bound_to 10162
  156.2275  130.3679  149.8483 LP  0  0  0  0  0  0  0  0  0  0  0  0  # atno 17370 bound_to 10713
  156.6319  130.8669  151.3497 LP  0  0  0  0  0  0  0  0  0  0  0  0  # atno 17371 bound_to 10713
  139.8739  134.9335  156.3581 LP  0  0  0  0  0  0  0  0  0  0  0  0  # atno 17394 bound_to 11000
  140.9455  133.7485  156.0203 LP  0  0  0  0  0  0  0  0  0  0  0  0  # atno 17395 bound_to 11000

$$$$
