AV-unprocessed.smi:39|AV-procd|sdf|351|dock1
  -GOLD-   2262016193D 1   1.00000     0.00000
 Structure written by MMmdl.
 32 33  0  0  0  0  0  0  0  0  3 V2000
  150.0330  143.7011  158.6950 C   0  0  0  0  0  0  0  0  0  0  0  0
  150.9374  142.4919  158.5238 C   0  0  0  0  0  0  0  0  0  0  0  0
  151.0020  141.7904  157.3634 C   0  0  0  0  0  0  0  0  0  0  0  0
  151.8173  140.6818  157.1767 N   0  0  0  0  0  0  0  0  0  0  0  0
  151.8437  139.9315  155.8632 C   0  0  1  0  0  0  0  0  0  0  0  0
  151.4572  138.4651  156.0768 C   0  0  0  0  0  0  0  0  0  0  0  0
  150.0065  138.4525  155.6300 C   0  0  2  0  0  0  0  0  0  0  0  0
  149.5630  137.1331  155.1751 N   0  0  0  0  0  0  0  0  0  0  0  0
  150.3636  136.2006  155.3257 N   0  3  0  0  0  0  0  0  0  0  0  0
  151.1815  135.4298  155.5042 N   0  5  0  0  0  0  0  0  0  0  0  0
  150.0312  139.4850  154.5000 C   0  0  1  0  0  0  0  0  0  0  0  0
  148.6526  140.0883  154.1887 C   0  0  0  0  0  0  0  0  0  0  0  0
  148.7763  141.1058  153.2184 O   0  0  0  0  0  0  0  0  0  0  0  0
  150.9030  140.4966  154.9983 O   0  0  0  0  0  0  0  0  0  0  0  0
  152.6131  140.2228  158.2471 C   0  0  0  0  0  0  0  0  0  0  0  0
  153.3333  139.2283  158.1685 O   0  0  0  0  0  0  0  0  0  0  0  0
  152.5521  140.9466  159.4366 N   0  0  0  0  0  0  0  0  0  0  0  0
  151.7614  142.0758  159.6621 C   0  0  0  0  0  0  0  0  0  0  0  0
  151.7966  142.6331  160.7580 O   0  0  0  0  0  0  0  0  0  0  0  0
  152.8396  140.0638  155.4372 H   0  0  0  0  0  0  0  0  0  0  0  0
  149.3740  138.8224  156.4397 H   0  0  0  0  0  0  0  0  0  0  0  0
  150.4769  139.0388  153.6083 H   0  0  0  0  0  0  0  0  0  0  0  0
  153.1259  140.6250  160.2025 H   0  0  0  0  0  0  0  0  0  0  0  0
  149.4613  143.9104  157.7904 H   0  0  0  0  0  0  0  0  0  0  0  0
  150.6232  144.5876  158.9298 H   0  0  0  0  0  0  0  0  0  0  0  0
  149.3244  143.5354  159.5070 H   0  0  0  0  0  0  0  0  0  0  0  0
  150.3773  142.1168  156.5454 H   0  0  0  0  0  0  0  0  0  0  0  0
  152.0744  137.8475  155.4226 H   0  0  0  0  0  0  0  0  0  0  0  0
  151.6051  138.1426  157.1082 H   0  0  0  0  0  0  0  0  0  0  0  0
  147.9926  139.3244  153.7763 H   0  0  0  0  0  0  0  0  0  0  0  0
  148.1754  140.4762  155.0890 H   0  0  0  0  0  0  0  0  0  0  0  0
  149.1491  140.7309  152.4350 H   0  0  0  0  0  0  0  0  0  0  0  0
  1  2  1  0  0  0  0
  1 24  1  0  0  0  0
  1 25  1  0  0  0  0
  1 26  1  0  0  0  0
  2 18  1  0  0  0  0
  2  3  2  0  0  0  0
  3  4  1  0  0  0  0
  3 27  1  0  0  0  0
  4  5  1  0  0  0  0
  4 15  1  0  0  0  0
  5 20  1  0  0  0  0
  5 14  1  0  0  0  0
  5  6  1  0  0  0  0
  6  7  1  0  0  0  0
  6 28  1  0  0  0  0
  6 29  1  0  0  0  0
  7 21  1  0  0  0  0
  7  8  1  0  0  0  0
  7 11  1  0  0  0  0
  8  9  2  0  0  0  0
  9 10  2  0  0  0  0
 11 22  1  0  0  0  0
 11 12  1  0  0  0  0
 11 14  1  0  0  0  0
 12 13  1  0  0  0  0
 12 30  1  0  0  0  0
 12 31  1  0  0  0  0
 13 32  1  0  0  0  0
 15 16  2  0  0  0  0
 15 17  1  0  0  0  0
 17 23  1  0  0  0  0
 17 18  1  0  0  0  0
 18 19  2  0  0  0  0
M  CHG  1   9   1
M  CHG  1  10  -1
M  END
> <s_m_source_file>
AV-unprocessed.smi

> <i_m_source_file_index>
39

> <i_lp_mmshare_version>
43012

> <i_f3d_flags>
0

> <s_epik_input>
Tz1jMVtuSF1jKD1PKW4oW2NIXWMxW0NIM10pW0NASF0yW0NIMl1bQ0BIXShOPVtOK109W04tXSlbQ0BIXShPMilbQ0gyXVtPSF0=

> <s_epik_cmdline>
J2VwaWtfcHl0aG9uJywgJy1waCcsICc3LjAnLCAnLXRuJywgJzgnLCAnLW1hJywgJzIwMCcsICctbWV0YWxfYmluZGluZycsICctaW1hZScsICc8aW5maWxlLm1hZT4nLCAnLW9tYWUnLCAnPG91dGZpbGUubWFlPic=

> <r_lp_tautomer_probability>
0.999537

> <r_epik_Ionization_Penalty>
0.00127512

> <r_epik_Ionization_Penalty_Charging>
0.00127507

> <r_epik_Ionization_Penalty_Neutral>
5.43433e-08

> <r_epik_State_Penalty>
0.000844892

> <r_epik_Charging_Adjusted_Penalty>
0.00211996

> <i_epik_Tot_Q>
0

> <i_epik_Tot_abs_Q>
2

> <r_epik_Metal_State_Penalty>
0.680636

> <b_epik_Metal_Only>
0

> <s_epik_Chemistry_Notes>
This compound contains an acetal/aminal-like group ( X-CH(R)-Y where X, Y are N, S, or O) that may be acid/base labile, releasing an aldehyde.

> <s_lp_Force_Field>
OPLS_2005

> <r_lp_Energy>
24.0553

> <b_lp_Chiralities_Consistent>
1

> <s_lp_Variant>
AV-unprocessed.smi:39-1

> <Gold.Version>
5.8.1

> <Gold.Id.Protein>
6NUR|6NUR_protein|mol2

> <Gold.PLP.Fitness>
39.2778

> <Gold.PLP.PLP>
-27.3354

> <Gold.PLP.part.hbond>
-5.3164

> <Gold.PLP.part.metal>
0.0000

> <Gold.PLP.part.buried>
-3.2634

> <Gold.PLP.part.nonpolar>
-18.3583

> <Gold.PLP.part.repulsive>
0.5554

> <Gold.PLP.ligand.clash>
0.0000

> <Gold.PLP.ligand.torsion>
0.0478

> <Gold.PLP.Chemscore.Hbond>
4.0000

> <Gold.PLP.Chemscore.CHOScore>
0.0000

> <Gold.PLP.Chemscore.Metal>
0.0000

> <Gold.Chemscore.Hbonds>
donor molecule, donor type, donor heavy atom, donor atom, acceptor molecule, acceptor atom, score
      L1  H    13    32       P1  7957  0.96
      P1  H  7989  7998       L1    14  0.85
      P1  H  7997  8010       L1    16  1.00
      P1  H 10752 10763       L1    10  1.00

> <Gold.PLP.Chemscore.Internal.Correction>
0.0380

> <Gold.Rescore>
     Score         DG    S(hbond)    S(metal)    S(lipo)     H(rot)  DE(clash)    DE(int)     intcor
     11.84     -12.96       2.96        0.00      39.53       2.75       0.02       1.10       ----

> <Gold.Chemscore.Fitness>
11.8387

> <Gold.Chemscore.DG>
-12.9566

> <Gold.Chemscore.ZeroCoef>
-5.4800

> <Gold.Chemscore.Hbond>
2.9633

> <Gold.Chemscore.Metal>
0.0000

> <Gold.Chemscore.Lipo>
39.5310

> <Gold.Chemscore.Internal_Hbond>
0.0000

> <Gold.Chemscore.DEClash>
0.0162

> <Gold.Chemscore.DEInternal>
1.1017

> <Gold.Chemscore.Rot>
2.7524

> <Gold.Chemscore.Internal.Correction>
   9.000000E+99

> <Gold.Chemscore.Hbonds>
donor molecule, donor type, donor heavy atom, donor atom, acceptor molecule, acceptor atom, score
      L1  H    13    32       P1  7957  0.91
      P1  H  6933  6945       L1    19  0.01
      P1  H  7989  7998       L1    14  0.10
      P1  H  7997  8010       L1    16  0.24
      P1  H 10752 10763       L1    10  0.97

> <Gold.Chemscore.Hbond.Weighted>
-9.8976

> <Gold.Chemscore.Metal.Weighted>
-0.0000

> <Gold.Chemscore.Lipo.Weighted>
-4.6251

> <Gold.Chemscore.Internal_Hbond.Weighted>
0.0000

> <Gold.Chemscore.DEClash.Weighted>
0.0162

> <Gold.Chemscore.DEInternal.Weighted>
1.1017

> <Gold.Chemscore.Rot.Weighted>
7.0461

> <Gold.Chemscore.Internal.Correction.Weighted>
   9.000000E+99

> <Gold.Protein.RotatedTorsions>
[ 6907 6896 6895 6894 ] final  -40.59 input  -60.11 | X-H torsion
[ 7974 7965 7964 7962 ] final -162.87 input  175.53 | X-H torsion
[ 8008 7997 7996 7995 ] final   13.25 input   59.86 | X-H torsion
[ 10167 10162 10161 10158 ] final  -59.68 input  -65.29 | X-H torsion
[ 10718 10713 10712 10709 ] final  166.16 input   66.30 | X-H torsion
[ 10763 10752 10751 10750 ] final   65.04 input  -60.55 | X-H torsion
[ 11005 11000 10999 10996 ] final -174.75 input  -57.11 | X-H torsion

> <Gold.Protein.ActiveResidues>
 VAL166  LYS551  ARG553  GLY616  TRP617  ASP618  TYR619  PRO620  LYS621  CYS622 
 ASP623  PHE694  ASN695  SER759  ASP760  ASP761  ALA762  ILE779  LEU786  VAL792 
 PHE793  MET794  SER795  GLU796  ALA797  LYS798  CYS799  TRP800  GLU811  SER814 

> <Gold.Protein.RotatedAtoms>
  150.9767  134.9130  159.7819 H   0  0  0  0  0  0  0  0  0  0  0  0  # atno 6907 bound_to 6896
  152.5208  134.3467  159.9246 H   0  0  0  0  0  0  0  0  0  0  0  0  # atno 6908 bound_to 6896
  151.3475  133.3897  159.2711 H   0  0  0  0  0  0  0  0  0  0  0  0  # atno 6909 bound_to 6896
  144.7344  140.3190  143.6174 H   0  0  0  0  0  0  0  0  0  0  0  0  # atno 7974 bound_to 7965
  154.8318  140.2900  155.5717 H   0  0  0  0  0  0  0  0  0  0  0  0  # atno 8008 bound_to 7997
  156.3006  140.2530  156.3176 H   0  0  0  0  0  0  0  0  0  0  0  0  # atno 8009 bound_to 7997
  154.9222  140.0385  157.1993 H   0  0  0  0  0  0  0  0  0  0  0  0  # atno 8010 bound_to 7997
  140.6120  143.2390  151.5688 H   0  0  0  0  0  0  0  0  0  0  0  0  # atno 10167 bound_to 10162
  157.0698  131.0363  151.2616 H   0  0  0  0  0  0  0  0  0  0  0  0  # atno 10718 bound_to 10713
  153.0080  135.5371  154.6605 H   0  0  0  0  0  0  0  0  0  0  0  0  # atno 10763 bound_to 10752
  154.5815  135.2850  155.0730 H   0  0  0  0  0  0  0  0  0  0  0  0  # atno 10764 bound_to 10752
  154.1858  135.6508  153.5099 H   0  0  0  0  0  0  0  0  0  0  0  0  # atno 10765 bound_to 10752
  140.4710  134.6165  157.4882 H   0  0  0  0  0  0  0  0  0  0  0  0  # atno 11005 bound_to 11000
  145.7588  139.1818  143.2279 LP  0  0  0  0  0  0  0  0  0  0  0  0  # atno 17320 bound_to 7965
  146.1003  140.7552  142.9552 LP  0  0  0  0  0  0  0  0  0  0  0  0  # atno 17321 bound_to 7965
  139.5368  144.2758  152.1269 LP  0  0  0  0  0  0  0  0  0  0  0  0  # atno 17342 bound_to 10162
  140.1959  144.4706  150.6455 LP  0  0  0  0  0  0  0  0  0  0  0  0  # atno 17343 bound_to 10162
  157.4887  130.7809  149.7486 LP  0  0  0  0  0  0  0  0  0  0  0  0  # atno 17370 bound_to 10713
  155.9954  130.3912  150.2821 LP  0  0  0  0  0  0  0  0  0  0  0  0  # atno 17371 bound_to 10713
  139.9885  134.7023  155.9731 LP  0  0  0  0  0  0  0  0  0  0  0  0  # atno 17394 bound_to 11000
  141.1577  133.6541  156.4215 LP  0  0  0  0  0  0  0  0  0  0  0  0  # atno 17395 bound_to 11000

$$$$
