AV-unprocessed.smi:3161|AV-procd|sdf|12058|dock1
  -GOLD-   2272017483D 1   1.00000     0.00000
 Structure written by MMmdl.
 41 42  0  0  0  0  0  0  0  0  2 V2000
  143.5572  144.5527  154.1160 C   0  0  0  0  0  0  0  0  0  0  0  0
  144.7366  143.6959  154.4766 C   0  0  0  0  0  0  0  0  0  0  0  0
  145.0708  143.1585  155.7523 C   0  0  0  0  0  0  0  0  0  0  0  0
  146.1839  142.4432  155.7336 N   0  0  0  0  0  0  0  0  0  0  0  0
  146.5947  142.4930  154.4489 N   0  0  0  0  0  0  0  0  0  0  0  0
  147.8145  141.8111  154.0561 C   0  0  0  0  0  0  0  0  0  0  0  0
  148.6072  141.2436  155.2573 C   0  0  1  0  0  0  0  0  0  0  0  0
  149.6310  140.1749  154.8372 C   0  0  0  0  0  0  0  0  0  0  0  0
  149.3030  142.3205  155.9967 N   0  3  0  0  0  0  0  0  0  0  0  0
  149.5267  142.0641  157.4355 C   0  0  0  0  0  0  0  0  0  0  0  0
  150.8927  142.6037  157.8828 C   0  0  1  0  0  0  0  0  0  0  0  0
  150.9543  144.1419  157.8113 C   0  0  0  0  0  0  0  0  0  0  0  0
  152.2964  144.6531  158.3474 C   0  0  0  0  0  0  0  0  0  0  0  0
  152.5449  144.0816  159.7472 C   0  0  0  0  0  0  0  0  0  0  0  0
  152.3939  142.5522  159.7347 C   0  0  0  0  0  0  0  0  0  0  0  0
  151.1095  142.1939  159.2320 O   0  0  0  0  0  0  0  0  0  0  0  0
  145.7440  143.2483  153.6697 C   0  0  0  0  0  0  0  0  0  0  0  0
  142.7484  144.4544  154.8403 H   0  0  0  0  0  0  0  0  0  0  0  0
  143.1479  144.2862  153.1413 H   0  0  0  0  0  0  0  0  0  0  0  0
  143.8258  145.6084  154.0751 H   0  0  0  0  0  0  0  0  0  0  0  0
  144.5408  143.2680  156.6872 H   0  0  0  0  0  0  0  0  0  0  0  0
  147.5493  141.0068  153.3685 H   0  0  0  0  0  0  0  0  0  0  0  0
  148.4192  142.5190  153.4893 H   0  0  0  0  0  0  0  0  0  0  0  0
  147.9088  140.7669  155.9473 H   0  0  0  0  0  0  0  0  0  0  0  0
  149.1471  139.3099  154.3829 H   0  0  0  0  0  0  0  0  0  0  0  0
  150.1928  139.8107  155.6979 H   0  0  0  0  0  0  0  0  0  0  0  0
  150.3463  140.5725  154.1166 H   0  0  0  0  0  0  0  0  0  0  0  0
  150.2138  142.4367  155.5749 H   0  0  0  0  0  0  0  0  0  0  0  0
  148.7397  142.5492  158.0128 H   0  0  0  0  0  0  0  0  0  0  0  0
  149.4624  140.9939  157.6375 H   0  0  0  0  0  0  0  0  0  0  0  0
  151.6703  142.1804  157.2440 H   0  0  0  0  0  0  0  0  0  0  0  0
  150.8115  144.4802  156.7845 H   0  0  0  0  0  0  0  0  0  0  0  0
  150.1410  144.5715  158.3982 H   0  0  0  0  0  0  0  0  0  0  0  0
  153.1007  144.3466  157.6775 H   0  0  0  0  0  0  0  0  0  0  0  0
  152.3073  145.7430  158.3734 H   0  0  0  0  0  0  0  0  0  0  0  0
  153.5389  144.3608  160.0981 H   0  0  0  0  0  0  0  0  0  0  0  0
  151.8317  144.5122  160.4513 H   0  0  0  0  0  0  0  0  0  0  0  0
  153.1752  142.0885  159.1306 H   0  0  0  0  0  0  0  0  0  0  0  0
  152.4988  142.1582  160.7459 H   0  0  0  0  0  0  0  0  0  0  0  0
  145.9217  143.4018  152.6153 H   0  0  0  0  0  0  0  0  0  0  0  0
  148.7887  143.1827  155.8861 H   0  0  0  0  0  0  0  0  0  0  0  0
  1  2  1  0  0  0  0
  1 18  1  0  0  0  0
  1 19  1  0  0  0  0
  1 20  1  0  0  0  0
  2 17  2  0  0  0  0
  2  3  1  0  0  0  0
  3  4  2  0  0  0  0
  3 21  1  0  0  0  0
  4  5  1  0  0  0  0
  5  6  1  0  0  0  0
  5 17  1  0  0  0  0
  6  7  1  0  0  0  0
  6 22  1  0  0  0  0
  6 23  1  0  0  0  0
  7  8  1  0  0  0  0
  7  9  1  0  0  0  0
  7 24  1  0  0  0  0
  8 25  1  0  0  0  0
  8 26  1  0  0  0  0
  8 27  1  0  0  0  0
  9 10  1  0  0  0  0
  9 28  1  0  0  0  0
  9 41  1  0  0  0  0
 10 11  1  0  0  0  0
 10 29  1  0  0  0  0
 10 30  1  0  0  0  0
 11 16  1  0  0  0  0
 11 12  1  0  0  0  0
 11 31  1  0  0  0  0
 12 13  1  0  0  0  0
 12 32  1  0  0  0  0
 12 33  1  0  0  0  0
 13 14  1  0  0  0  0
 13 34  1  0  0  0  0
 13 35  1  0  0  0  0
 14 15  1  0  0  0  0
 14 36  1  0  0  0  0
 14 37  1  0  0  0  0
 15 16  1  0  0  0  0
 15 38  1  0  0  0  0
 15 39  1  0  0  0  0
 17 40  1  0  0  0  0
M  CHG  1   9   1
M  END
> <s_m_source_file>
AV-unprocessed.smi

> <i_m_source_file_index>
3161

> <i_lp_mmshare_version>
43012

> <i_f3d_flags>
0

> <s_epik_input>
W0NIM11jMVtjSF1ubihbY0hdMSlbQ0gyXVtDQEhdKFtDSDNdKVtOSF1bQ0gyXVtDQEBIXTJbQ0gyXVtDSDJdW0NIMl1bQ0gyXU8y

> <s_epik_cmdline>
J2VwaWtfcHl0aG9uJywgJy1waCcsICc3LjAnLCAnLXRuJywgJzgnLCAnLW1hJywgJzIwMCcsICctbWV0YWxfYmluZGluZycsICctaW1hZScsICc8aW5maWxlLm1hZT4nLCAnLW9tYWUnLCAnPG91dGZpbGUubWFlPic=

> <r_lp_tautomer_probability>
1

> <r_epik_Ionization_Penalty>
0.00849661

> <r_epik_Ionization_Penalty_Charging>
0.00848754

> <r_epik_Ionization_Penalty_Neutral>
9.06711e-06

> <r_epik_State_Penalty>
0.00639836

> <r_epik_Charging_Adjusted_Penalty>
0.0148859

> <i_epik_Tot_Q>
1

> <i_epik_Tot_abs_Q>
1

> <r_epik_Metal_State_Penalty>
0.00639921

> <b_epik_Metal_Only>
0

> <s_lp_Force_Field>
OPLS_2005

> <r_lp_Energy>
12.4103

> <b_lp_Chiralities_Consistent>
1

> <s_lp_Variant>
AV-unprocessed.smi:3161-4

> <Gold.Version>
5.8.1

> <Gold.Id.Protein>
6NUR|6NUR_protein|mol2

> <Gold.PLP.Fitness>
46.4703

> <Gold.PLP.PLP>
-41.9358

> <Gold.PLP.part.hbond>
-1.0752

> <Gold.PLP.part.metal>
0.0000

> <Gold.PLP.part.buried>
-4.5327

> <Gold.PLP.part.nonpolar>
-36.7248

> <Gold.PLP.part.repulsive>
0.2772

> <Gold.PLP.ligand.clash>
0.0000

> <Gold.PLP.ligand.torsion>
0.7705

> <Gold.PLP.Chemscore.Hbond>
2.0000

> <Gold.PLP.Chemscore.CHOScore>
0.0000

> <Gold.PLP.Chemscore.Metal>
0.0000

> <Gold.Chemscore.Hbonds>
donor molecule, donor type, donor heavy atom, donor atom, acceptor molecule, acceptor atom, score
      L1  H     9    41       P1  8028  1.86

> <Gold.PLP.Chemscore.Internal.Correction>
0.0755

> <Gold.Rescore>
     Score         DG    S(hbond)    S(metal)    S(lipo)     H(rot)  DE(clash)    DE(int)     intcor
     16.54     -17.28       0.96        0.00     107.79       1.57       0.00       0.73       ----

> <Gold.Chemscore.Fitness>
16.5407

> <Gold.Chemscore.DG>
-17.2798

> <Gold.Chemscore.ZeroCoef>
-5.4800

> <Gold.Chemscore.Hbond>
0.9614

> <Gold.Chemscore.Metal>
0.0000

> <Gold.Chemscore.Lipo>
107.7901

> <Gold.Chemscore.Internal_Hbond>
0.0000

> <Gold.Chemscore.DEClash>
0.0042

> <Gold.Chemscore.DEInternal>
0.7349

> <Gold.Chemscore.Rot>
1.5714

> <Gold.Chemscore.Internal.Correction>
   9.000000E+99

> <Gold.Chemscore.Hbonds>
donor molecule, donor type, donor heavy atom, donor atom, acceptor molecule, acceptor atom, score
      L1  H     9    41       P1  8028  0.87

> <Gold.Chemscore.Hbond.Weighted>
-3.2112

> <Gold.Chemscore.Metal.Weighted>
-0.0000

> <Gold.Chemscore.Lipo.Weighted>
-12.6114

> <Gold.Chemscore.Internal_Hbond.Weighted>
0.0000

> <Gold.Chemscore.DEClash.Weighted>
0.0042

> <Gold.Chemscore.DEInternal.Weighted>
0.7349

> <Gold.Chemscore.Rot.Weighted>
4.0228

> <Gold.Chemscore.Internal.Correction.Weighted>
   9.000000E+99

> <Gold.Protein.RotatedTorsions>
[ 6907 6896 6895 6894 ] final  107.99 input  -60.11 | X-H torsion
[ 7974 7965 7964 7962 ] final   53.34 input  175.53 | X-H torsion
[ 8008 7997 7996 7995 ] final  -65.95 input   59.86 | X-H torsion
[ 10167 10162 10161 10158 ] final  -26.06 input  -65.29 | X-H torsion
[ 10718 10713 10712 10709 ] final -118.31 input   66.30 | X-H torsion
[ 10763 10752 10751 10750 ] final -155.38 input  -60.55 | X-H torsion
[ 11005 11000 10999 10996 ] final -143.50 input  -57.11 | X-H torsion

> <Gold.Protein.ActiveResidues>
 VAL166  LYS551  ARG553  GLY616  TRP617  ASP618  TYR619  PRO620  LYS621  CYS622 
 ASP623  PHE694  ASN695  SER759  ASP760  ASP761  ALA762  ILE779  LEU786  VAL792 
 PHE793  MET794  SER795  GLU796  ALA797  LYS798  CYS799  TRP800  GLU811  SER814 

> <Gold.Protein.RotatedAtoms>
  152.5131  133.9154  159.7508 H   0  0  0  0  0  0  0  0  0  0  0  0  # atno 6907 bound_to 6896
  150.9538  133.6511  159.2774 H   0  0  0  0  0  0  0  0  0  0  0  0  # atno 6908 bound_to 6896
  151.3780  135.0940  159.9540 H   0  0  0  0  0  0  0  0  0  0  0  0  # atno 6909 bound_to 6896
  145.9722  139.4160  143.0183 H   0  0  0  0  0  0  0  0  0  0  0  0  # atno 7974 bound_to 7965
  154.4703  140.0922  156.7128 H   0  0  0  0  0  0  0  0  0  0  0  0  # atno 8008 bound_to 7997
  155.4741  140.3465  155.4312 H   0  0  0  0  0  0  0  0  0  0  0  0  # atno 8009 bound_to 7997
  156.1028  140.1427  156.9433 H   0  0  0  0  0  0  0  0  0  0  0  0  # atno 8010 bound_to 7997
  140.7284  143.4210  151.0951 H   0  0  0  0  0  0  0  0  0  0  0  0  # atno 10167 bound_to 10162
  156.1097  130.6238  150.9274 H   0  0  0  0  0  0  0  0  0  0  0  0  # atno 10718 bound_to 10713
  154.7791  135.3169  154.8028 H   0  0  0  0  0  0  0  0  0  0  0  0  # atno 10763 bound_to 10752
  153.8744  135.6841  153.4776 H   0  0  0  0  0  0  0  0  0  0  0  0  # atno 10764 bound_to 10752
  153.1423  135.4734  154.9451 H   0  0  0  0  0  0  0  0  0  0  0  0  # atno 10765 bound_to 10752
  140.8119  134.2734  157.4937 H   0  0  0  0  0  0  0  0  0  0  0  0  # atno 11005 bound_to 11000
  145.7890  140.9823  143.1059 LP  0  0  0  0  0  0  0  0  0  0  0  0  # atno 17320 bound_to 7965
  144.6839  139.9659  143.7481 LP  0  0  0  0  0  0  0  0  0  0  0  0  # atno 17321 bound_to 7965
  139.7856  143.8292  152.3144 LP  0  0  0  0  0  0  0  0  0  0  0  0  # atno 17342 bound_to 10162
  139.8258  144.7276  150.9514 LP  0  0  0  0  0  0  0  0  0  0  0  0  # atno 17343 bound_to 10162
  157.6277  131.0924  150.8502 LP  0  0  0  0  0  0  0  0  0  0  0  0  # atno 17370 bound_to 10713
  156.8615  130.5115  149.5303 LP  0  0  0  0  0  0  0  0  0  0  0  0  # atno 17371 bound_to 10713
  139.8713  134.9488  156.4006 LP  0  0  0  0  0  0  0  0  0  0  0  0  # atno 17394 bound_to 11000
  140.9189  133.7659  155.9882 LP  0  0  0  0  0  0  0  0  0  0  0  0  # atno 17395 bound_to 11000

$$$$
