#       Name:                AV-unprocessed.smi:1382
#       Creating user name   scv26
#       Creation time:       Fri Mar 27 05:23:26 2020


#       File generated by GOLD software.
#

@<TRIPOS>MOLECULE
AV-unprocessed.smi:1382
    52    53     1
SMALL
NO_CHARGES


@<TRIPOS>ATOM
      1 ****        -5.0443   2.3340  -0.2583 C.3            1 S1                 0.0000
      2 ****        -4.2946   2.6792  -1.5518 C.3            1 S1                 0.0000
      3 ****        -2.7821   2.4189  -1.4769 C.3            1 S1                 0.0000
      4 ****        -2.4172   0.9240  -1.4153 C.3            1 S1                 0.0000
      5 ****        -0.9854   0.7070  -1.3507 N.am           1 S1                 0.0000
      6 ****        -0.2662   0.6448  -0.1533 C.2            1 S1                 0.0000
      7 ****        -0.9675   0.7847   1.0357 N.pl3          1 S1                 0.0000
      8 ****         1.0859   0.4465  -0.1371 C.2            1 S1                 0.0000
      9 ****         1.8127   0.4286   1.0673 N.am           1 S1                 0.0000
     10 ****         1.9807   1.7074   1.7636 C.3            1 S1                 0.0000
     11 ****         2.3155  -0.7085   1.6135 C.2            1 S1                 0.0000
     12 ****         3.0087  -0.6837   2.6324 O.2            1 S1                 0.0000
     13 ****         2.0035  -2.0774   0.9694 C.3            1 S1                 0.0000
     14 ****         1.8994  -3.2394   1.9766 C.3            1 S1                 0.0000
     15 ****         3.1833  -4.0140   1.7632 C.3            1 S1                 0.0000
     16 ****         3.4363  -3.7783   0.2818 C.3            1 S1                 0.0000
     17 ****         3.0874  -2.4143   0.1041 O.3            1 S1                 0.0000
     18 ****         1.8401   0.3389  -1.3937 C.2            1 S1                 0.0000
     19 ****         3.0580   0.1955  -1.4916 O.2            1 S1                 0.0000
     20 ****         1.0684   0.4291  -2.5493 N.am           1 S1                 0.0000
     21 ****        -0.3088   0.6145  -2.5910 C.2            1 S1                 0.0000
     22 ****        -0.8731   0.6987  -3.6823 O.2            1 S1                 0.0000
     23 ****         1.5525   0.3655  -3.4331 H              1 S1                 0.0000
     24 ****        -6.0996   2.5944  -0.3436 H              1 S1                 0.0000
     25 ****        -4.6360   2.8814   0.5917 H              1 S1                 0.0000
     26 ****        -4.9874   1.2693  -0.0325 H              1 S1                 0.0000
     27 ****        -4.7248   2.1260  -2.3873 H              1 S1                 0.0000
     28 ****        -4.4567   3.7347  -1.7731 H              1 S1                 0.0000
     29 ****        -2.3119   2.8633  -2.3549 H              1 S1                 0.0000
     30 ****        -2.3638   2.9405  -0.6152 H              1 S1                 0.0000
     31 ****        -2.8478   0.4344  -0.5430 H              1 S1                 0.0000
     32 ****        -2.8094   0.3698  -2.2697 H              1 S1                 0.0000
     33 ****        -1.9674   0.9277   1.0499 H              1 S1                 0.0000
     34 ****        -0.5107   0.7259   1.9345 H              1 S1                 0.0000
     35 ****         1.5083   1.6783   2.7463 H              1 S1                 0.0000
     36 ****         1.5357   2.5328   1.2062 H              1 S1                 0.0000
     37 ****         3.0384   1.9386   1.8965 H              1 S1                 0.0000
     38 ****         1.0779  -2.0488   0.3944 H              1 S1                 0.0000
     39 ****         1.7706  -2.9293   3.0145 H              1 S1                 0.0000
     40 ****         1.0443  -3.8669   1.7218 H              1 S1                 0.0000
     41 ****         3.9892  -3.5790   2.3557 H              1 S1                 0.0000
     42 ****         3.0963  -5.0695   2.0211 H              1 S1                 0.0000
     43 ****         4.4698  -3.9698  -0.0071 H              1 S1                 0.0000
     44 ****         2.7837  -4.4038  -0.3292 H              1 S1                 0.0000
     45 ****         3.2130   0.1884   3.0771 LP             1 S1                 0.0000
     46 ****         3.3668  -1.5356   3.0144 LP             1 S1                 0.0000
     47 ****         3.8761  -1.8387   0.3200 LP             1 S1                 0.0000
     48 ****         2.8139  -2.2623  -0.8457 LP             1 S1                 0.0000
     49 ****         3.6230   0.1427  -0.6682 LP             1 S1                 0.0000
     50 ****         3.4830   0.1318  -2.3946 LP             1 S1                 0.0000
     51 ****        -1.8622   0.8401  -3.7242 LP             1 S1                 0.0000
     52 ****        -0.3423   0.6257  -4.5266 LP             1 S1                 0.0000
@<TRIPOS>BOND
    1    1    2 1     
    2    1   24 1     
    3    1   25 1     
    4    1   26 1     
    5    2    3 1     
    6    2   27 1     
    7    2   28 1     
    8    3    4 1     
    9    3   29 1     
   10    3   30 1     
   11    4    5 1     
   12    4   31 1     
   13    4   32 1     
   14    5   21 1     
   15    5    6 1     
   16    6    7 1     
   17    6    8 2     
   18    7   33 1     
   19    7   34 1     
   20    8    9 1     
   21    8   18 1     
   22    9   10 1     
   23    9   11 am    
   24   10   35 1     
   25   10   36 1     
   26   10   37 1     
   27   11   12 2     
   28   11   13 1     
   29   13   17 1     
   30   13   14 1     
   31   13   38 1     
   32   14   15 1     
   33   14   39 1     
   34   14   40 1     
   35   15   16 1     
   36   15   41 1     
   37   15   42 1     
   38   16   17 1     
   39   16   43 1     
   40   16   44 1     
   41   18   19 2     
   42   18   20 1     
   43   20   23 1     
   44   20   21 1     
   45   21   22 2     
   46   12   45 1     
   47   12   46 1     
   48   17   47 1     
   49   17   48 1     
   50   19   49 1     
   51   19   50 1     
   52   22   51 1     
   53   22   52 1     
@<TRIPOS>SUBSTRUCTURE
      1 S1             1
@<TRIPOS>SET
LONE_PAIRS      STATIC     ATOMS    <user>   **** ""
8 45 46 47 48 49 50 51 52
DONOR_HYDROGENS      STATIC     ATOMS    <user>   **** ""
3 33 34 23
ATOM$BLUE        STATIC     ATOMS    COLORGROUP SYSTEM
8 45 46 47 48 49 50 51 52
ATOM$RED        STATIC     ATOMS    COLORGROUP SYSTEM
3 33 34 23
