#       Name:                AV-unprocessed.smi:1867
#       Creating user name   scv26
#       Creation time:       Fri Mar 27 09:28:37 2020


#       File generated by GOLD software.
#

@<TRIPOS>MOLECULE
AV-unprocessed.smi:1867
    55    58     1
SMALL
NO_CHARGES


@<TRIPOS>ATOM
      1 ****        -0.3443   2.5882  -1.3912 O.2            1 S1                 0.0000
      2 ****        -0.7650   1.6468  -0.7241 C.2            1 S1                 0.0000
      3 ****         0.0074   0.7272  -0.1110 N.am           1 S1                 0.0000
      4 ****         1.4253   0.6132  -0.0790 C.ar           1 S1                 0.0000
      5 ****         1.9698  -0.5334   0.5376 C.ar           1 S1                 0.0000
      6 ****         3.3682  -0.7001   0.6056 C.ar           1 S1                 0.0000
      7 ****         4.2184   0.2866   0.0536 C.ar           1 S1                 0.0000
      8 ****         5.6228   0.1951   0.0888 N.pl3          1 S1                 0.0000
      9 ****         6.2986  -1.0352   0.4647 C.3            1 S1                 0.0000
     10 ****         7.7809  -0.7483   0.2283 C.3            1 S1                 0.0000
     11 ****         7.7637   0.2185  -0.9560 C.3            1 S1                 0.0000
     12 ****         6.4672   1.0155  -0.7702 C.3            1 S1                 0.0000
     13 ****         3.6541   1.3746  -0.5218 N.pl3          1 S1                 1.0000
     14 ****         2.3211   1.5742  -0.6083 C.ar           1 S1                 0.0000
     15 ****        -2.0860   1.4576  -0.5552 N.am           1 S1                 0.0000
     16 ****        -3.1914   2.2612  -1.0785 C.3            1 S1                 0.0000
     17 ****        -3.5110   2.0092  -2.5501 C.3            1 S1                 0.0000
     18 ****        -4.9436   2.5339  -2.6652 C.3            1 S1                 0.0000
     19 ****        -5.5867   2.2539  -1.3609 N.4            1 S1                 1.0000
     20 ****        -6.5627   3.2800  -0.9189 C.3            1 S1                 0.0000
     21 ****        -7.1831   2.8937   0.4370 C.3            1 S1                 0.0000
     22 ****        -6.1300   2.5145   1.5001 C.3            1 S1                 0.0000
     23 ****        -4.6922   2.6475   0.9750 C.3            1 S1                 0.0000
     24 ****        -4.5161   1.9228  -0.3782 C.3            1 S1                 0.0000
     25 ****        -0.4909   0.0015   0.3826 H              1 S1                 0.0000
     26 ****         1.3210  -1.2871   0.9596 H              1 S1                 0.0000
     27 ****         3.7693  -1.5821   1.0824 H              1 S1                 0.0000
     28 ****         6.1036  -1.3042   1.5032 H              1 S1                 0.0000
     29 ****         5.9559  -1.8486  -0.1764 H              1 S1                 0.0000
     30 ****         8.2054  -0.2514   1.1017 H              1 S1                 0.0000
     31 ****         8.3635  -1.6499   0.0368 H              1 S1                 0.0000
     32 ****         8.6484   0.8544  -0.9995 H              1 S1                 0.0000
     33 ****         7.7137  -0.3483  -1.8868 H              1 S1                 0.0000
     34 ****         6.0000   1.2286  -1.7325 H              1 S1                 0.0000
     35 ****         6.6644   1.9630  -0.2678 H              1 S1                 0.0000
     36 ****         2.0412   2.4970  -1.0921 H              1 S1                 0.0000
     37 ****        -2.3516   0.6620   0.0079 H              1 S1                 0.0000
     38 ****        -2.9799   3.3235  -0.9405 H              1 S1                 0.0000
     39 ****        -2.8228   2.5115  -3.2306 H              1 S1                 0.0000
     40 ****        -3.4848   0.9404  -2.7690 H              1 S1                 0.0000
     41 ****        -4.9175   3.6102  -2.8435 H              1 S1                 0.0000
     42 ****        -5.4925   2.0741  -3.4873 H              1 S1                 0.0000
     43 ****        -6.0684   4.2500  -0.8428 H              1 S1                 0.0000
     44 ****        -7.3450   3.3853  -1.6716 H              1 S1                 0.0000
     45 ****        -7.7986   3.7169   0.8015 H              1 S1                 0.0000
     46 ****        -7.8634   2.0528   0.2947 H              1 S1                 0.0000
     47 ****        -6.2559   3.1315   2.3905 H              1 S1                 0.0000
     48 ****        -6.3001   1.4856   1.8205 H              1 S1                 0.0000
     49 ****        -4.4497   3.7060   0.8689 H              1 S1                 0.0000
     50 ****        -3.9881   2.2507   1.7073 H              1 S1                 0.0000
     51 ****        -4.5798   0.8450  -0.2177 H              1 S1                 0.0000
     52 ****        -6.1133   1.3999  -1.4788 H              1 S1                 0.0000
     53 ****         4.2710   2.0872  -0.9122 H              1 S1                 0.0000
     54 ****         0.6403   2.7153  -1.5115 LP             1 S1                 0.0000
     55 ****        -0.9863   3.2277  -1.8141 LP             1 S1                 0.0000
@<TRIPOS>BOND
    1    1    2 2     
    2    2    3 am    
    3    2   15 am    
    4    3    4 1     
    5    3   25 1     
    6    4   14 ar    
    7    4    5 ar    
    8    5    6 ar    
    9    5   26 1     
   10    6    7 ar    
   11    6   27 1     
   12    7    8 1     
   13    7   13 ar    
   14    8   12 1     
   15    8    9 1     
   16    9   10 1     
   17    9   28 1     
   18    9   29 1     
   19   10   11 1     
   20   10   30 1     
   21   10   31 1     
   22   11   12 1     
   23   11   32 1     
   24   11   33 1     
   25   12   34 1     
   26   12   35 1     
   27   13   14 ar    
   28   13   53 1     
   29   14   36 1     
   30   15   16 1     
   31   15   37 1     
   32   16   24 1     
   33   16   17 1     
   34   16   38 1     
   35   17   18 1     
   36   17   39 1     
   37   17   40 1     
   38   18   19 1     
   39   18   41 1     
   40   18   42 1     
   41   19   24 1     
   42   19   20 1     
   43   19   52 1     
   44   20   21 1     
   45   20   43 1     
   46   20   44 1     
   47   21   22 1     
   48   21   45 1     
   49   21   46 1     
   50   22   23 1     
   51   22   47 1     
   52   22   48 1     
   53   23   24 1     
   54   23   49 1     
   55   23   50 1     
   56   24   51 1     
   57    1   54 1     
   58    1   55 1     
@<TRIPOS>SUBSTRUCTURE
      1 S1             1
@<TRIPOS>SET
LONE_PAIRS      STATIC     ATOMS    <user>   **** ""
2 54 55
DONOR_HYDROGENS      STATIC     ATOMS    <user>   **** ""
4 25 53 37 52
ATOM$BLUE        STATIC     ATOMS    COLORGROUP SYSTEM
2 54 55
ATOM$RED        STATIC     ATOMS    COLORGROUP SYSTEM
4 25 53 37 52
