AV-unprocessed.smi:247|AV-procd|sdf|1890|dock1
  -GOLD-   2262020553D 1   1.00000     0.00000
 Structure written by MMmdl.
 61 65  0  0  0  0  0  0  0  0  1 V2000
  146.8322  129.8454  151.9219 O   0  0  0  0  0  0  0  0  0  0  0  0
  146.7859  130.0366  153.3225 C   0  0  0  0  0  0  0  0  0  0  0  0
  147.9778  129.3836  154.0765 C   0  0  0  0  0  0  0  0  0  0  0  0
  149.2720  130.1960  153.7550 C   0  0  0  0  0  0  0  0  0  0  0  0
  149.2405  131.5954  154.1571 N   0  0  0  0  0  0  0  0  0  0  0  0
  148.6196  132.6301  153.4925 C   0  0  0  0  0  0  0  0  0  0  0  0
  148.7206  133.8004  154.0608 N   0  0  0  0  0  0  0  0  0  0  0  0
  149.4517  133.5502  155.2143 C   0  0  0  0  0  0  0  0  0  0  0  0
  149.9041  134.3622  156.2876 C   0  0  0  0  0  0  0  0  0  0  0  0
  149.6547  135.6936  156.3190 N   0  0  0  0  0  0  0  0  0  0  0  0
  148.2209  135.9276  156.3378 C   0  0  0  0  0  0  0  0  0  0  0  0
  148.0539  137.4185  156.0922 C   0  0  0  0  0  0  0  0  0  0  0  0
  149.2951  137.8062  155.2882 C   0  0  0  0  0  0  0  0  0  0  0  0
  150.2292  136.5738  155.2925 C   0  0  1  0  0  0  0  0  0  0  0  0
  151.7369  136.9517  155.5190 C   0  0  1  0  0  0  0  0  0  0  0  0
  152.2792  138.0573  154.5795 C   0  0  0  0  0  0  0  0  0  0  0  0
  151.6416  139.3027  154.8496 O   0  0  0  0  0  0  0  0  0  0  0  0
  151.9287  139.8099  156.1485 C   0  0  0  0  0  0  0  0  0  0  0  0
  151.4726  138.8157  157.2286 C   0  0  0  0  0  0  0  0  0  0  0  0
  152.0773  137.4305  156.9572 C   0  0  1  0  0  0  0  0  0  0  0  0
  151.7038  136.5247  157.9744 O   0  0  0  0  0  0  0  0  0  0  0  0
  150.6226  133.7631  157.2738 N   0  0  0  0  0  0  0  0  0  0  0  0
  150.8565  132.4481  157.2276 C   0  0  0  0  0  0  0  0  0  0  0  0
  150.4835  131.5657  156.2978 N   0  0  0  0  0  0  0  0  0  0  0  0
  149.7809  132.1688  155.2961 C   0  0  0  0  0  0  0  0  0  0  0  0
  147.6786  129.3439  155.5975 C   0  0  0  0  0  0  0  0  0  0  0  0
  148.7085  128.5052  156.3751 C   0  0  0  0  0  0  0  0  0  0  0  0
  148.7507  127.1838  155.8504 O   0  0  0  0  0  0  0  0  0  0  0  0
  149.1627  127.1358  154.4895 C   0  0  0  0  0  0  0  0  0  0  0  0
  148.1728  127.9189  153.6055 C   0  0  0  0  0  0  0  0  0  0  0  0
  147.4215  130.4846  151.5515 H   0  0  0  0  0  0  0  0  0  0  0  0
  146.7578  131.1098  153.5145 H   0  0  0  0  0  0  0  0  0  0  0  0
  145.8370  129.6285  153.6706 H   0  0  0  0  0  0  0  0  0  0  0  0
  150.1480  129.7501  154.2230 H   0  0  0  0  0  0  0  0  0  0  0  0
  149.4717  130.1616  152.6831 H   0  0  0  0  0  0  0  0  0  0  0  0
  148.0878  132.4902  152.5626 H   0  0  0  0  0  0  0  0  0  0  0  0
  147.7358  135.3596  155.5418 H   0  0  0  0  0  0  0  0  0  0  0  0
  147.7775  135.6272  157.2880 H   0  0  0  0  0  0  0  0  0  0  0  0
  147.1227  137.6517  155.5751 H   0  0  0  0  0  0  0  0  0  0  0  0
  148.0510  137.9513  157.0440 H   0  0  0  0  0  0  0  0  0  0  0  0
  149.0330  138.0857  154.2672 H   0  0  0  0  0  0  0  0  0  0  0  0
  149.7593  138.6745  155.7569 H   0  0  0  0  0  0  0  0  0  0  0  0
  150.1237  136.0826  154.3256 H   0  0  0  0  0  0  0  0  0  0  0  0
  152.3238  136.0550  155.3151 H   0  0  0  0  0  0  0  0  0  0  0  0
  153.3563  138.1720  154.7112 H   0  0  0  0  0  0  0  0  0  0  0  0
  152.1528  137.7965  153.5309 H   0  0  0  0  0  0  0  0  0  0  0  0
  152.9979  140.0094  156.2359 H   0  0  0  0  0  0  0  0  0  0  0  0
  151.4177  140.7642  156.2762 H   0  0  0  0  0  0  0  0  0  0  0  0
  151.7760  139.1768  158.2119 H   0  0  0  0  0  0  0  0  0  0  0  0
  150.3841  138.7601  157.2439 H   0  0  0  0  0  0  0  0  0  0  0  0
  153.1620  137.5201  157.0344 H   0  0  0  0  0  0  0  0  0  0  0  0
  151.8328  136.9436  158.8117 H   0  0  0  0  0  0  0  0  0  0  0  0
  151.4222  132.0454  158.0548 H   0  0  0  0  0  0  0  0  0  0  0  0
  147.6146  130.3486  156.0140 H   0  0  0  0  0  0  0  0  0  0  0  0
  146.6990  128.8969  155.7694 H   0  0  0  0  0  0  0  0  0  0  0  0
  149.7010  128.9552  156.3452 H   0  0  0  0  0  0  0  0  0  0  0  0
  148.4230  128.4516  157.4257 H   0  0  0  0  0  0  0  0  0  0  0  0
  150.1808  127.5126  154.3910 H   0  0  0  0  0  0  0  0  0  0  0  0
  149.1908  126.0926  154.1747 H   0  0  0  0  0  0  0  0  0  0  0  0
  147.2230  127.3842  153.6340 H   0  0  0  0  0  0  0  0  0  0  0  0
  148.4994  127.8926  152.5654 H   0  0  0  0  0  0  0  0  0  0  0  0
  1  2  1  0  0  0  0
  1 31  1  0  0  0  0
  2  3  1  0  0  0  0
  2 32  1  0  0  0  0
  2 33  1  0  0  0  0
  3 30  1  0  0  0  0
  3  4  1  0  0  0  0
  3 26  1  0  0  0  0
  4  5  1  0  0  0  0
  4 34  1  0  0  0  0
  4 35  1  0  0  0  0
  5 25  1  0  0  0  0
  5  6  1  0  0  0  0
  6  7  2  0  0  0  0
  6 36  1  0  0  0  0
  7  8  1  0  0  0  0
  8 25  2  0  0  0  0
  8  9  1  0  0  0  0
  9 10  1  0  0  0  0
  9 22  2  0  0  0  0
 10 14  1  0  0  0  0
 10 11  1  0  0  0  0
 11 12  1  0  0  0  0
 11 37  1  0  0  0  0
 11 38  1  0  0  0  0
 12 13  1  0  0  0  0
 12 39  1  0  0  0  0
 12 40  1  0  0  0  0
 13 14  1  0  0  0  0
 13 41  1  0  0  0  0
 13 42  1  0  0  0  0
 14 15  1  0  0  0  0
 14 43  1  0  0  0  0
 15 20  1  0  0  0  0
 15 16  1  0  0  0  0
 15 44  1  0  0  0  0
 16 17  1  0  0  0  0
 16 45  1  0  0  0  0
 16 46  1  0  0  0  0
 17 18  1  0  0  0  0
 18 19  1  0  0  0  0
 18 47  1  0  0  0  0
 18 48  1  0  0  0  0
 19 20  1  0  0  0  0
 19 49  1  0  0  0  0
 19 50  1  0  0  0  0
 20 21  1  0  0  0  0
 20 51  1  0  0  0  0
 21 52  1  0  0  0  0
 22 23  1  0  0  0  0
 23 24  2  0  0  0  0
 23 53  1  0  0  0  0
 24 25  1  0  0  0  0
 26 27  1  0  0  0  0
 26 54  1  0  0  0  0
 26 55  1  0  0  0  0
 27 28  1  0  0  0  0
 27 56  1  0  0  0  0
 27 57  1  0  0  0  0
 28 29  1  0  0  0  0
 29 30  1  0  0  0  0
 29 58  1  0  0  0  0
 29 59  1  0  0  0  0
 30 60  1  0  0  0  0
 30 61  1  0  0  0  0
M  END
> <s_m_source_file>
AV-unprocessed.smi

> <i_m_source_file_index>
247

> <i_lp_mmshare_version>
43012

> <i_f3d_flags>
0

> <s_epik_input>
W0NIMl0xW0NIMl1PW0NIMl1bQ0gyXUMxKFtDSDJdW09IXSlbQ0gyXW4oW2NIXW4yKWMoYzIzKW5bY0hdbmMzTjRbQ0gyXVtDSDJdW0NIMl1bQ0BIXTRbQ0BASF01W0NIMl1PW0NIMl1bQ0gyXVtDQEhdNVtPSF0=

> <s_epik_cmdline>
J2VwaWtfcHl0aG9uJywgJy1waCcsICc3LjAnLCAnLXRuJywgJzgnLCAnLW1hJywgJzIwMCcsICctbWV0YWxfYmluZGluZycsICctaW1hZScsICc8aW5maWxlLm1hZT4nLCAnLW9tYWUnLCAnPG91dGZpbGUubWFlPic=

> <r_lp_tautomer_probability>
1

> <r_epik_Ionization_Penalty>
0.00362597

> <r_epik_Ionization_Penalty_Charging>
0

> <r_epik_Ionization_Penalty_Neutral>
0.00362597

> <r_epik_State_Penalty>
0.00241433

> <r_epik_Charging_Adjusted_Penalty>
0.00241433

> <i_epik_Tot_Q>
0

> <i_epik_Tot_abs_Q>
0

> <r_epik_Metal_State_Penalty>
-0

> <b_epik_Metal_Only>
0

> <s_lp_Force_Field>
OPLS_2005

> <r_lp_Energy>
64.2344

> <b_lp_Chiralities_Consistent>
1

> <s_lp_Variant>
AV-unprocessed.smi:247-3

> <Gold.Version>
5.8.1

> <Gold.Id.Protein>
6NUR|6NUR_protein|mol2

> <Gold.PLP.Fitness>
41.0892

> <Gold.PLP.PLP>
-33.2938

> <Gold.PLP.part.hbond>
-2.4723

> <Gold.PLP.part.metal>
0.0000

> <Gold.PLP.part.buried>
-6.0342

> <Gold.PLP.part.nonpolar>
-26.1429

> <Gold.PLP.part.repulsive>
1.3728

> <Gold.PLP.ligand.clash>
0.0000

> <Gold.PLP.ligand.torsion>
0.5233

> <Gold.PLP.Chemscore.Hbond>
2.0000

> <Gold.PLP.Chemscore.CHOScore>
0.9057

> <Gold.PLP.Chemscore.Metal>
0.0000

> <Gold.Chemscore.Hbonds>
donor molecule, donor type, donor heavy atom, donor atom, acceptor molecule, acceptor atom, score
      L1  H     1    31       P1 10747  0.92
      P1  H  7989  7998       L1    17  0.93

> <Gold.PLP.Chemscore.Internal.Correction>
0.1249

> <Gold.Rescore>
     Score         DG    S(hbond)    S(metal)    S(lipo)     H(rot)  DE(clash)    DE(int)     intcor
      6.52     -10.49       1.76        0.00      63.14       3.23       1.21       2.76       ----

> <Gold.Chemscore.Fitness>
6.5203

> <Gold.Chemscore.DG>
-10.4854

> <Gold.Chemscore.ZeroCoef>
-5.4800

> <Gold.Chemscore.Hbond>
1.7609

> <Gold.Chemscore.Metal>
0.0000

> <Gold.Chemscore.Lipo>
63.1381

> <Gold.Chemscore.Internal_Hbond>
0.0000

> <Gold.Chemscore.DEClash>
1.2067

> <Gold.Chemscore.DEInternal>
2.7585

> <Gold.Chemscore.Rot>
3.2278

> <Gold.Chemscore.Internal.Correction>
   9.000000E+99

> <Gold.Chemscore.Hbonds>
donor molecule, donor type, donor heavy atom, donor atom, acceptor molecule, acceptor atom, score
      L1  H     1    31       P1 10747  0.83
      P1  H  7989  7998       L1    17  0.60

> <Gold.Chemscore.Hbond.Weighted>
-5.8815

> <Gold.Chemscore.Metal.Weighted>
-0.0000

> <Gold.Chemscore.Lipo.Weighted>
-7.3872

> <Gold.Chemscore.Internal_Hbond.Weighted>
0.0000

> <Gold.Chemscore.DEClash.Weighted>
1.2067

> <Gold.Chemscore.DEInternal.Weighted>
2.7585

> <Gold.Chemscore.Rot.Weighted>
8.2633

> <Gold.Chemscore.Internal.Correction.Weighted>
   9.000000E+99

> <Gold.Protein.RotatedTorsions>
[ 6907 6896 6895 6894 ] final   70.23 input  -60.11 | X-H torsion
[ 7974 7965 7964 7962 ] final   37.70 input  175.53 | X-H torsion
[ 8008 7997 7996 7995 ] final   18.35 input   59.86 | X-H torsion
[ 10167 10162 10161 10158 ] final -174.52 input  -65.29 | X-H torsion
[ 10718 10713 10712 10709 ] final  -81.35 input   66.30 | X-H torsion
[ 10763 10752 10751 10750 ] final  148.81 input  -60.55 | X-H torsion
[ 11005 11000 10999 10996 ] final   32.27 input  -57.11 | X-H torsion

> <Gold.Protein.ActiveResidues>
 VAL166  LYS551  ARG553  GLY616  TRP617  ASP618  TYR619  PRO620  LYS621  CYS622 
 ASP623  PHE694  ASN695  SER759  ASP760  ASP761  ALA762  ILE779  LEU786  VAL792 
 PHE793  MET794  SER795  GLU796  ALA797  LYS798  CYS799  TRP800  GLU811  SER814 

> <Gold.Protein.RotatedAtoms>
  152.4736  134.4899  159.9691 H   0  0  0  0  0  0  0  0  0  0  0  0  # atno 6907 bound_to 6896
  151.4920  133.3517  159.2863 H   0  0  0  0  0  0  0  0  0  0  0  0  # atno 6908 bound_to 6896
  150.8761  134.8171  159.7252 H   0  0  0  0  0  0  0  0  0  0  0  0  # atno 6909 bound_to 6896
  146.1118  139.5862  142.9347 H   0  0  0  0  0  0  0  0  0  0  0  0  # atno 7974 bound_to 7965
  154.9047  140.3005  155.5298 H   0  0  0  0  0  0  0  0  0  0  0  0  # atno 8008 bound_to 7997
  156.3017  140.2400  156.4015 H   0  0  0  0  0  0  0  0  0  0  0  0  # atno 8009 bound_to 7997
  154.8485  140.0410  157.1577 H   0  0  0  0  0  0  0  0  0  0  0  0  # atno 8010 bound_to 7997
  139.5629  144.1825  152.1268 H   0  0  0  0  0  0  0  0  0  0  0  0  # atno 10167 bound_to 10162
  156.0052  130.4601  150.3938 H   0  0  0  0  0  0  0  0  0  0  0  0  # atno 10718 bound_to 10713
  154.0609  135.2874  155.3325 H   0  0  0  0  0  0  0  0  0  0  0  0  # atno 10763 bound_to 10752
  154.6809  135.5264  153.8264 H   0  0  0  0  0  0  0  0  0  0  0  0  # atno 10764 bound_to 10752
  153.0523  135.6581  154.0798 H   0  0  0  0  0  0  0  0  0  0  0  0  # atno 10765 bound_to 10752
  140.2752  134.3036  155.7816 H   0  0  0  0  0  0  0  0  0  0  0  0  # atno 11005 bound_to 11000
  145.5648  141.0400  143.2206 LP  0  0  0  0  0  0  0  0  0  0  0  0  # atno 17320 bound_to 7965
  144.7518  139.7175  143.7270 LP  0  0  0  0  0  0  0  0  0  0  0  0  # atno 17321 bound_to 7965
  140.1342  144.5261  150.6783 LP  0  0  0  0  0  0  0  0  0  0  0  0  # atno 17342 bound_to 10162
  140.6911  143.2376  151.5129 LP  0  0  0  0  0  0  0  0  0  0  0  0  # atno 17343 bound_to 10162
  157.2011  131.0438  151.2649 LP  0  0  0  0  0  0  0  0  0  0  0  0  # atno 17370 bound_to 10713
  157.3974  130.7315  149.6742 LP  0  0  0  0  0  0  0  0  0  0  0  0  # atno 17371 bound_to 10713
  141.2171  133.7491  156.9395 LP  0  0  0  0  0  0  0  0  0  0  0  0  # atno 17394 bound_to 11000
  140.1335  134.9340  157.2370 LP  0  0  0  0  0  0  0  0  0  0  0  0  # atno 17395 bound_to 11000

$$$$
