AV-unprocessed.smi:227|AV-procd|sdf|1735|dock1
  -GOLD-   2262020233D 1   1.00000     0.00000
 Structure written by MMmdl.
 54 58  0  0  0  0  0  0  0  0  1 V2000
  147.0782  142.3127  155.5275 O   0  0  0  0  0  0  0  0  0  0  0  0
  146.6821  141.8546  154.2519 C   0  0  0  0  0  0  0  0  0  0  0  0
  147.0462  140.3636  154.0574 C   0  0  2  0  0  0  0  0  0  0  0  0
  145.9064  139.4129  154.5168 C   0  0  0  0  0  0  0  0  0  0  0  0
  145.6359  138.3121  153.6024 N   0  0  0  0  0  0  0  0  0  0  0  0
  146.2515  138.0689  152.3961 C   0  0  0  0  0  0  0  0  0  0  0  0
  145.8284  137.0131  151.7590 N   0  0  0  0  0  0  0  0  0  0  0  0
  144.8341  136.4875  152.5760 C   0  0  0  0  0  0  0  0  0  0  0  0
  143.9649  135.3579  152.5002 C   0  0  0  0  0  0  0  0  0  0  0  0
  143.9442  134.4547  151.4799 N   0  0  0  0  0  0  0  0  0  0  0  0
  144.9596  134.4538  150.4367 C   0  0  2  0  0  0  0  0  0  0  0  0
  144.4132  133.4117  149.4455 C   0  0  0  0  0  0  0  0  0  0  0  0
  143.7470  132.4092  150.3982 C   0  0  0  0  0  0  0  0  0  0  0  0
  144.0741  133.0318  151.7680 C   0  0  1  0  0  0  0  0  0  0  0  0
  145.5772  132.8790  152.1196 C   0  0  1  0  0  0  0  0  0  0  0  0
  146.1479  131.4497  152.0719 C   0  0  0  0  0  0  0  0  0  0  0  0
  147.5350  131.4761  152.3327 O   0  0  0  0  0  0  0  0  0  0  0  0
  146.2104  133.8739  151.1278 C   0  0  0  0  0  0  0  0  0  0  0  0
  143.0773  135.1911  153.5164 N   0  0  0  0  0  0  0  0  0  0  0  0
  143.0471  136.0448  154.5425 C   0  0  0  0  0  0  0  0  0  0  0  0
  143.8021  137.1236  154.7498 N   0  0  0  0  0  0  0  0  0  0  0  0
  144.6910  137.3081  153.7331 C   0  0  0  0  0  0  0  0  0  0  0  0
  148.4045  140.0285  154.7283 C   0  0  1  0  0  0  0  0  0  0  0  0
  149.0400  138.7289  154.2627 C   0  0  0  0  0  0  0  0  0  0  0  0
  150.4866  138.8989  154.7119 C   0  0  0  0  0  0  0  0  0  0  0  0
  150.7557  140.2920  154.6109 O   0  0  0  0  0  0  0  0  0  0  0  0
  149.5408  141.0077  154.4108 C   0  0  0  0  0  0  0  0  0  0  0  0
  147.6253  143.0757  155.4144 H   0  0  0  0  0  0  0  0  0  0  0  0
  145.6049  142.0033  154.1855 H   0  0  0  0  0  0  0  0  0  0  0  0
  147.1338  142.4803  153.4819 H   0  0  0  0  0  0  0  0  0  0  0  0
  147.1735  140.2052  152.9853 H   0  0  0  0  0  0  0  0  0  0  0  0
  146.1408  138.9921  155.4950 H   0  0  0  0  0  0  0  0  0  0  0  0
  144.9810  139.9704  154.6607 H   0  0  0  0  0  0  0  0  0  0  0  0
  147.0321  138.6989  151.9975 H   0  0  0  0  0  0  0  0  0  0  0  0
  145.1374  135.4088  149.9461 H   0  0  0  0  0  0  0  0  0  0  0  0
  143.6733  133.8556  148.7784 H   0  0  0  0  0  0  0  0  0  0  0  0
  145.1955  132.9611  148.8336 H   0  0  0  0  0  0  0  0  0  0  0  0
  142.6684  132.3973  150.2361 H   0  0  0  0  0  0  0  0  0  0  0  0
  144.1064  131.3885  150.2753 H   0  0  0  0  0  0  0  0  0  0  0  0
  143.4123  132.6630  152.5527 H   0  0  0  0  0  0  0  0  0  0  0  0
  145.7195  133.2596  153.1329 H   0  0  0  0  0  0  0  0  0  0  0  0
  145.6657  130.8238  152.8230 H   0  0  0  0  0  0  0  0  0  0  0  0
  145.9868  130.9820  151.1009 H   0  0  0  0  0  0  0  0  0  0  0  0
  147.9948  131.2790  151.5310 H   0  0  0  0  0  0  0  0  0  0  0  0
  146.8956  133.4060  150.4198 H   0  0  0  0  0  0  0  0  0  0  0  0
  146.7604  134.6494  151.6623 H   0  0  0  0  0  0  0  0  0  0  0  0
  142.3135  135.8324  155.3061 H   0  0  0  0  0  0  0  0  0  0  0  0
  148.2834  139.9932  155.8118 H   0  0  0  0  0  0  0  0  0  0  0  0
  148.5789  137.8369  154.6849 H   0  0  0  0  0  0  0  0  0  0  0  0
  148.9945  138.6505  153.1755 H   0  0  0  0  0  0  0  0  0  0  0  0
  150.5988  138.5984  155.7544 H   0  0  0  0  0  0  0  0  0  0  0  0
  151.1825  138.3121  154.1119 H   0  0  0  0  0  0  0  0  0  0  0  0
  149.4992  141.3238  153.3675 H   0  0  0  0  0  0  0  0  0  0  0  0
  149.5110  141.9005  155.0358 H   0  0  0  0  0  0  0  0  0  0  0  0
  1  2  1  0  0  0  0
  1 28  1  0  0  0  0
  2  3  1  0  0  0  0
  2 29  1  0  0  0  0
  2 30  1  0  0  0  0
  3  4  1  0  0  0  0
  3 23  1  0  0  0  0
  3 31  1  0  0  0  0
  4  5  1  0  0  0  0
  4 32  1  0  0  0  0
  4 33  1  0  0  0  0
  5 22  1  0  0  0  0
  5  6  1  0  0  0  0
  6  7  2  0  0  0  0
  6 34  1  0  0  0  0
  7  8  1  0  0  0  0
  8 22  2  0  0  0  0
  8  9  1  0  0  0  0
  9 10  1  0  0  0  0
  9 19  2  0  0  0  0
 10 14  1  0  0  0  0
 10 11  1  0  0  0  0
 11 18  1  0  0  0  0
 11 12  1  0  0  0  0
 11 35  1  0  0  0  0
 12 13  1  0  0  0  0
 12 36  1  0  0  0  0
 12 37  1  0  0  0  0
 13 14  1  0  0  0  0
 13 38  1  0  0  0  0
 13 39  1  0  0  0  0
 14 15  1  0  0  0  0
 14 40  1  0  0  0  0
 15 16  1  0  0  0  0
 15 18  1  0  0  0  0
 15 41  1  0  0  0  0
 16 17  1  0  0  0  0
 16 42  1  0  0  0  0
 16 43  1  0  0  0  0
 17 44  1  0  0  0  0
 18 45  1  0  0  0  0
 18 46  1  0  0  0  0
 19 20  1  0  0  0  0
 20 21  2  0  0  0  0
 20 47  1  0  0  0  0
 21 22  1  0  0  0  0
 23 27  1  0  0  0  0
 23 24  1  0  0  0  0
 23 48  1  0  0  0  0
 24 25  1  0  0  0  0
 24 49  1  0  0  0  0
 24 50  1  0  0  0  0
 25 26  1  0  0  0  0
 25 51  1  0  0  0  0
 25 52  1  0  0  0  0
 26 27  1  0  0  0  0
 27 53  1  0  0  0  0
 27 54  1  0  0  0  0
M  END
> <s_m_source_file>
AV-unprocessed.smi

> <i_m_source_file_index>
227

> <i_lp_mmshare_version>
43012

> <i_f3d_flags>
0

> <s_epik_input>
W0NIMl0xT1tDSDJdW0NIMl1bQ0BIXTFbQ0BIXShbQ0gyXVtPSF0pW0NIMl1uKFtjSF1uMiljKGMyMyluW2NIXW5jM04oW0NASF00NSlbQ0BASF0oW0NIMl1bQ0gyXTQpW0NASF0oW0NIMl01KVtDSDJdW09IXQ==

> <s_epik_cmdline>
J2VwaWtfcHl0aG9uJywgJy1waCcsICc3LjAnLCAnLXRuJywgJzgnLCAnLW1hJywgJzIwMCcsICctbWV0YWxfYmluZGluZycsICctaW1hZScsICc8aW5maWxlLm1hZT4nLCAnLW9tYWUnLCAnPG91dGZpbGUubWFlPic=

> <r_lp_tautomer_probability>
1

> <r_epik_Ionization_Penalty>
0.0055791

> <r_epik_Ionization_Penalty_Charging>
0

> <r_epik_Ionization_Penalty_Neutral>
0.0055791

> <r_epik_State_Penalty>
0.00401299

> <r_epik_Charging_Adjusted_Penalty>
0.00401299

> <i_epik_Tot_Q>
0

> <i_epik_Tot_abs_Q>
0

> <r_epik_Metal_State_Penalty>
-0

> <b_epik_Metal_Only>
0

> <s_lp_Force_Field>
OPLS_2005

> <r_lp_Energy>
86.8427

> <b_lp_Chiralities_Consistent>
1

> <s_lp_Variant>
AV-unprocessed.smi:227-9

> <Gold.Version>
5.8.1

> <Gold.Id.Protein>
6NUR|6NUR_protein|mol2

> <Gold.PLP.Fitness>
45.9233

> <Gold.PLP.PLP>
-38.7003

> <Gold.PLP.part.hbond>
-2.9350

> <Gold.PLP.part.metal>
0.0000

> <Gold.PLP.part.buried>
-1.9835

> <Gold.PLP.part.nonpolar>
-34.5803

> <Gold.PLP.part.repulsive>
0.6710

> <Gold.PLP.ligand.clash>
0.0000

> <Gold.PLP.ligand.torsion>
1.1246

> <Gold.PLP.Chemscore.Hbond>
2.9588

> <Gold.PLP.Chemscore.CHOScore>
0.0006

> <Gold.PLP.Chemscore.Metal>
0.0000

> <Gold.Chemscore.Hbonds>
donor molecule, donor type, donor heavy atom, donor atom, acceptor molecule, acceptor atom, score
      L1  H     1    28       P1  8028  0.94
      L1  H    17    44       P1 10747  1.00
      P1  H  7989  7998       L1    26  0.99

> <Gold.PLP.Chemscore.Internal.Correction>
0.5941

> <Gold.Rescore>
     Score         DG    S(hbond)    S(metal)    S(lipo)     H(rot)  DE(clash)    DE(int)     intcor
     10.38     -13.90       1.90        0.00      96.56       3.61       1.61       1.92       ----

> <Gold.Chemscore.Fitness>
10.3808

> <Gold.Chemscore.DG>
-13.9047

> <Gold.Chemscore.ZeroCoef>
-5.4800

> <Gold.Chemscore.Hbond>
1.9047

> <Gold.Chemscore.Metal>
0.0000

> <Gold.Chemscore.Lipo>
96.5574

> <Gold.Chemscore.Internal_Hbond>
0.0000

> <Gold.Chemscore.DEClash>
1.6070

> <Gold.Chemscore.DEInternal>
1.9169

> <Gold.Chemscore.Rot>
3.6071

> <Gold.Chemscore.Internal.Correction>
   9.000000E+99

> <Gold.Chemscore.Hbonds>
donor molecule, donor type, donor heavy atom, donor atom, acceptor molecule, acceptor atom, score
      L1  H     1    28       P1  8028  0.36
      L1  H    17    44       P1 10747  1.00
      P1  H  7989  7998       L1    26  0.27

> <Gold.Chemscore.Hbond.Weighted>
-6.3617

> <Gold.Chemscore.Metal.Weighted>
-0.0000

> <Gold.Chemscore.Lipo.Weighted>
-11.2972

> <Gold.Chemscore.Internal_Hbond.Weighted>
0.0000

> <Gold.Chemscore.DEClash.Weighted>
1.6070

> <Gold.Chemscore.DEInternal.Weighted>
1.9169

> <Gold.Chemscore.Rot.Weighted>
9.2342

> <Gold.Chemscore.Internal.Correction.Weighted>
   9.000000E+99

> <Gold.Protein.RotatedTorsions>
[ 6907 6896 6895 6894 ] final  119.90 input  -60.11 | X-H torsion
[ 7974 7965 7964 7962 ] final -157.93 input  175.53 | X-H torsion
[ 8008 7997 7996 7995 ] final  -68.65 input   59.86 | X-H torsion
[ 10167 10162 10161 10158 ] final  128.43 input  -65.29 | X-H torsion
[ 10718 10713 10712 10709 ] final   97.76 input   66.30 | X-H torsion
[ 10763 10752 10751 10750 ] final    0.64 input  -60.55 | X-H torsion
[ 11005 11000 10999 10996 ] final  133.39 input  -57.11 | X-H torsion

> <Gold.Protein.ActiveResidues>
 VAL166  LYS551  ARG553  GLY616  TRP617  ASP618  TYR619  PRO620  LYS621  CYS622 
 ASP623  PHE694  ASN695  SER759  ASP760  ASP761  ALA762  ILE779  LEU786  VAL792 
 PHE793  MET794  SER795  GLU796  ALA797  LYS798  CYS799  TRP800  GLU811  SER814 

> <Gold.Protein.RotatedAtoms>
  152.4438  133.7497  159.6686 H   0  0  0  0  0  0  0  0  0  0  0  0  # atno 6907 bound_to 6896
  150.8333  133.8044  159.3096 H   0  0  0  0  0  0  0  0  0  0  0  0  # atno 6908 bound_to 6896
  151.5691  135.1065  160.0042 H   0  0  0  0  0  0  0  0  0  0  0  0  # atno 6909 bound_to 6896
  144.7527  140.3900  143.6036 H   0  0  0  0  0  0  0  0  0  0  0  0  # atno 7974 bound_to 7965
  154.4883  140.0869  156.7536 H   0  0  0  0  0  0  0  0  0  0  0  0  # atno 8008 bound_to 7997
  155.4295  140.3449  155.4260 H   0  0  0  0  0  0  0  0  0  0  0  0  # atno 8009 bound_to 7997
  156.1293  140.1496  156.9078 H   0  0  0  0  0  0  0  0  0  0  0  0  # atno 8010 bound_to 7997
  139.5527  144.6826  151.4274 H   0  0  0  0  0  0  0  0  0  0  0  0  # atno 10167 bound_to 10162
  157.6907  131.0619  150.4693 H   0  0  0  0  0  0  0  0  0  0  0  0  # atno 10718 bound_to 10713
  153.3181  135.6967  153.7055 H   0  0  0  0  0  0  0  0  0  0  0  0  # atno 10763 bound_to 10752
  153.5906  135.3480  155.2910 H   0  0  0  0  0  0  0  0  0  0  0  0  # atno 10764 bound_to 10752
  154.8591  135.4317  154.2338 H   0  0  0  0  0  0  0  0  0  0  0  0  # atno 10765 bound_to 10752
  139.9848  134.9536  156.9717 H   0  0  0  0  0  0  0  0  0  0  0  0  # atno 11005 bound_to 11000
  145.6887  139.1634  143.2659 LP  0  0  0  0  0  0  0  0  0  0  0  0  # atno 17320 bound_to 7965
  146.1498  140.6941  142.9327 LP  0  0  0  0  0  0  0  0  0  0  0  0  # atno 17321 bound_to 7965
  140.6794  143.8117  150.7101 LP  0  0  0  0  0  0  0  0  0  0  0  0  # atno 17342 bound_to 10162
  140.1565  143.4312  152.2096 LP  0  0  0  0  0  0  0  0  0  0  0  0  # atno 17343 bound_to 10162
  156.5032  130.4122  149.6342 LP  0  0  0  0  0  0  0  0  0  0  0  0  # atno 17370 bound_to 10713
  156.3309  130.7331  151.2260 LP  0  0  0  0  0  0  0  0  0  0  0  0  # atno 17371 bound_to 10713
  140.5023  134.1085  155.7253 LP  0  0  0  0  0  0  0  0  0  0  0  0  # atno 17394 bound_to 11000
  141.1515  133.8960  157.2085 LP  0  0  0  0  0  0  0  0  0  0  0  0  # atno 17395 bound_to 11000

$$$$
