#       Name:                AV-unprocessed.smi:1703
#       Creating user name   scv26
#       Creation time:       Fri Mar 27 08:07:30 2020


#       File generated by GOLD software.
#

@<TRIPOS>MOLECULE
AV-unprocessed.smi:1703
    56    58     1
SMALL
NO_CHARGES


@<TRIPOS>ATOM
      1 ****        -4.6045   1.2403   0.6393 C.3            1 S1                 0.0000
      2 ****        -3.1009   1.2180   0.3438 C.3            1 S1                 0.0000
      3 ****        -2.8082   1.2036  -1.1700 C.3            1 S1                 0.0000
      4 ****        -1.3506   1.2622  -1.4370 N.4            1 S1                 1.0000
      5 ****        -0.6524  -0.0352  -1.2309 C.3            1 S1                 0.0000
      6 ****         0.6264  -0.1558  -2.0873 C.3            1 S1                 0.0000
      7 ****         0.2606  -0.1877  -3.4515 O.3            1 S1                 0.0000
      8 ****         1.4584  -1.4213  -1.7957 C.3            1 S1                 0.0000
      9 ****         1.9779  -1.4633  -0.4187 N.pl3          1 S1                 0.0000
     10 ****         3.0744  -0.8550   0.1215 C.2            1 S1                 0.0000
     11 ****         4.0541   0.0278  -0.5790 C.3            1 S1                 0.0000
     12 ****         5.1960  -0.6783  -1.0096 O.3            1 S1                 0.0000
     13 ****         3.1308  -1.2143   1.4344 N.pl3          1 S1                 1.0000
     14 ****         2.0667  -2.0629   1.7392 C.ar           1 S1                 0.0000
     15 ****         1.7107  -2.6810   2.9339 C.ar           1 S1                 0.0000
     16 ****         0.5595  -3.4946   2.9070 C.ar           1 S1                 0.0000
     17 ****        -0.1885  -3.6683   1.7245 C.ar           1 S1                 0.0000
     18 ****         0.1818  -3.0358   0.5191 C.ar           1 S1                 0.0000
     19 ****         1.3225  -2.2324   0.5529 C.ar           1 S1                 0.0000
     20 ****        -0.7391   2.4169  -0.7299 C.3            1 S1                 0.0000
     21 ****        -1.1050   2.4298   0.7709 C.3            1 S1                 0.0000
     22 ****        -0.5952   3.6927   1.4737 C.3            1 S1                 0.0000
     23 ****        -2.5210   2.3873   0.9120 O.3            1 S1                 0.0000
     24 ****        -5.0999   0.3625   0.2236 H              1 S1                 0.0000
     25 ****        -5.0778   2.1251   0.2123 H              1 S1                 0.0000
     26 ****        -4.7912   1.2490   1.7136 H              1 S1                 0.0000
     27 ****        -2.6706   0.3341   0.8179 H              1 S1                 0.0000
     28 ****        -3.2494   0.3269  -1.6459 H              1 S1                 0.0000
     29 ****        -3.2751   2.0711  -1.6391 H              1 S1                 0.0000
     30 ****        -0.4235  -0.1554  -0.1732 H              1 S1                 0.0000
     31 ****        -1.3175  -0.8610  -1.4883 H              1 S1                 0.0000
     32 ****         1.2620   0.7158  -1.9379 H              1 S1                 0.0000
     33 ****        -0.2263  -0.9804  -3.6197 H              1 S1                 0.0000
     34 ****         0.8864  -2.3265  -1.9985 H              1 S1                 0.0000
     35 ****         2.3219  -1.4592  -2.4615 H              1 S1                 0.0000
     36 ****         3.5834   0.5039  -1.4386 H              1 S1                 0.0000
     37 ****         4.3655   0.8251   0.0964 H              1 S1                 0.0000
     38 ****         4.9340  -1.3060  -1.6660 H              1 S1                 0.0000
     39 ****         2.2836  -2.5512   3.8408 H              1 S1                 0.0000
     40 ****         0.2455  -3.9971   3.8107 H              1 S1                 0.0000
     41 ****        -1.0637  -4.3018   1.7423 H              1 S1                 0.0000
     42 ****        -0.4028  -3.1801  -0.3770 H              1 S1                 0.0000
     43 ****         0.3423   2.4296  -0.8603 H              1 S1                 0.0000
     44 ****        -1.1108   3.3288  -1.1993 H              1 S1                 0.0000
     45 ****        -0.6710   1.5653   1.2751 H              1 S1                 0.0000
     46 ****         0.4908   3.7671   1.4092 H              1 S1                 0.0000
     47 ****        -0.8652   3.6873   2.5301 H              1 S1                 0.0000
     48 ****        -1.0195   4.5925   1.0271 H              1 S1                 0.0000
     49 ****        -1.2605   1.4490  -2.4262 H              1 S1                 0.0000
     50 ****         3.8548  -0.9068   2.0716 H              1 S1                 0.0000
     51 ****         1.0831  -0.1720  -4.0200 LP             1 S1                 0.0000
     52 ****        -0.3076   0.6069  -3.6654 LP             1 S1                 0.0000
     53 ****         5.6093  -1.1551  -0.2339 LP             1 S1                 0.0000
     54 ****         5.8592  -0.0398  -1.4002 LP             1 S1                 0.0000
     55 ****        -2.7452   2.4133   1.8862 LP             1 S1                 0.0000
     56 ****        -2.9108   3.1890   0.4587 LP             1 S1                 0.0000
@<TRIPOS>BOND
    1    1    2 1     
    2    1   24 1     
    3    1   25 1     
    4    1   26 1     
    5    2   23 1     
    6    2    3 1     
    7    2   27 1     
    8    3    4 1     
    9    3   28 1     
   10    3   29 1     
   11    4    5 1     
   12    4   20 1     
   13    4   49 1     
   14    5    6 1     
   15    5   30 1     
   16    5   31 1     
   17    6    7 1     
   18    6    8 1     
   19    6   32 1     
   20    7   33 1     
   21    8    9 1     
   22    8   34 1     
   23    8   35 1     
   24    9   19 1     
   25    9   10 1     
   26   10   11 1     
   27   10   13 2     
   28   11   12 1     
   29   11   36 1     
   30   11   37 1     
   31   12   38 1     
   32   13   14 1     
   33   13   50 1     
   34   14   19 ar    
   35   14   15 ar    
   36   15   16 ar    
   37   15   39 1     
   38   16   17 ar    
   39   16   40 1     
   40   17   18 ar    
   41   17   41 1     
   42   18   19 ar    
   43   18   42 1     
   44   20   21 1     
   45   20   43 1     
   46   20   44 1     
   47   21   22 1     
   48   21   23 1     
   49   21   45 1     
   50   22   46 1     
   51   22   47 1     
   52   22   48 1     
   53    7   51 1     
   54    7   52 1     
   55   12   53 1     
   56   12   54 1     
   57   23   55 1     
   58   23   56 1     
@<TRIPOS>SUBSTRUCTURE
      1 S1             1
@<TRIPOS>SET
LONE_PAIRS      STATIC     ATOMS    <user>   **** ""
6 51 52 53 54 55 56
DONOR_HYDROGENS      STATIC     ATOMS    <user>   **** ""
4 49 33 38 50
ATOM$BLUE        STATIC     ATOMS    COLORGROUP SYSTEM
6 51 52 53 54 55 56
ATOM$RED        STATIC     ATOMS    COLORGROUP SYSTEM
4 49 33 38 50
