AV-unprocessed.smi:1292|AV-procd|sdf|5395|dock7
  -GOLD-   22720 4553D 1   1.00000     0.00000
 Structure written by MMmdl.
 40 41  0  0  0  0  0  0  0  0  1 V2000
  151.4802  144.8954  158.7938 C   0  0  0  0  0  0  0  0  0  0  0  0
  151.6725  143.6416  159.6582 C   0  0  2  0  0  0  0  0  0  0  0  0
  152.5007  143.9468  160.9145 C   0  0  0  0  0  0  0  0  0  0  0  0
  152.6629  142.6724  161.7483 C   0  0  0  0  0  0  0  0  0  0  0  0
  153.2890  141.5392  160.9201 C   0  0  0  0  0  0  0  0  0  0  0  0
  152.5200  141.2937  159.6854 N   0  0  0  0  0  0  0  0  0  0  0  0
  152.7814  139.7856  158.8699 S   0  0  0  0  0  0  0  0  0  0  0  0
  154.2309  139.5477  158.7970 O   0  0  0  0  0  0  0  0  0  0  0  0
  151.8679  138.7784  159.4315 O   0  0  0  0  0  0  0  0  0  0  0  0
  152.2138  140.2079  157.2957 N   0  0  0  0  0  0  0  0  0  0  0  0
  150.8188  139.9493  156.9385 C   0  0  0  0  0  0  0  0  0  0  0  0
  150.3658  140.9023  155.8252 C   0  0  0  0  0  0  0  0  0  0  0  0
  149.0847  140.4345  155.1607 C   0  0  0  0  0  0  0  0  0  0  0  0
  148.0590  141.3529  154.8498 C   0  0  0  0  0  0  0  0  0  0  0  0
  146.8831  140.8663  154.2465 C   0  0  0  0  0  0  0  0  0  0  0  0
  146.7779  139.4875  153.9800 C   0  0  0  0  0  0  0  0  0  0  0  0
  147.8577  138.6529  154.3311 C   0  0  0  0  0  0  0  0  0  0  0  0
  148.9894  139.1091  154.9104 N   0  0  0  0  0  0  0  0  0  0  0  0
  152.3208  142.4986  158.8532 C   0  0  0  0  0  0  0  0  0  0  0  0
  152.4358  145.2831  158.4395 H   0  0  0  0  0  0  0  0  0  0  0  0
  150.9869  145.6882  159.3565 H   0  0  0  0  0  0  0  0  0  0  0  0
  150.8642  144.6795  157.9204 H   0  0  0  0  0  0  0  0  0  0  0  0
  150.6833  143.3083  159.9764 H   0  0  0  0  0  0  0  0  0  0  0  0
  153.4818  144.3332  160.6338 H   0  0  0  0  0  0  0  0  0  0  0  0
  152.0161  144.7209  161.5103 H   0  0  0  0  0  0  0  0  0  0  0  0
  153.2799  142.8766  162.6236 H   0  0  0  0  0  0  0  0  0  0  0  0
  151.6895  142.3544  162.1247 H   0  0  0  0  0  0  0  0  0  0  0  0
  154.3186  141.7823  160.6548 H   0  0  0  0  0  0  0  0  0  0  0  0
  153.3228  140.6306  161.5212 H   0  0  0  0  0  0  0  0  0  0  0  0
  152.5646  141.1106  156.9774 H   0  0  0  0  0  0  0  0  0  0  0  0
  150.7184  138.9106  156.6218 H   0  0  0  0  0  0  0  0  0  0  0  0
  150.1893  140.0825  157.8189 H   0  0  0  0  0  0  0  0  0  0  0  0
  150.2121  141.9036  156.2304 H   0  0  0  0  0  0  0  0  0  0  0  0
  151.1464  140.9938  155.0682 H   0  0  0  0  0  0  0  0  0  0  0  0
  148.1676  142.4044  155.0712 H   0  0  0  0  0  0  0  0  0  0  0  0
  146.0761  141.5382  153.9945 H   0  0  0  0  0  0  0  0  0  0  0  0
  145.8908  139.0791  153.5190 H   0  0  0  0  0  0  0  0  0  0  0  0
  147.8110  137.5907  154.1419 H   0  0  0  0  0  0  0  0  0  0  0  0
  151.6914  142.2564  157.9974 H   0  0  0  0  0  0  0  0  0  0  0  0
  153.2856  142.8120  158.4517 H   0  0  0  0  0  0  0  0  0  0  0  0
  1  2  1  0  0  0  0
  1 20  1  0  0  0  0
  1 21  1  0  0  0  0
  1 22  1  0  0  0  0
  2 19  1  0  0  0  0
  2  3  1  0  0  0  0
  2 23  1  0  0  0  0
  3  4  1  0  0  0  0
  3 24  1  0  0  0  0
  3 25  1  0  0  0  0
  4  5  1  0  0  0  0
  4 26  1  0  0  0  0
  4 27  1  0  0  0  0
  5  6  1  0  0  0  0
  5 28  1  0  0  0  0
  5 29  1  0  0  0  0
  6  7  1  0  0  0  0
  6 19  1  0  0  0  0
  7  8  2  0  0  0  0
  7  9  2  0  0  0  0
  7 10  1  0  0  0  0
 10 11  1  0  0  0  0
 10 30  1  0  0  0  0
 11 12  1  0  0  0  0
 11 31  1  0  0  0  0
 11 32  1  0  0  0  0
 12 13  1  0  0  0  0
 12 33  1  0  0  0  0
 12 34  1  0  0  0  0
 13 18  1  0  0  0  0
 13 14  2  0  0  0  0
 14 15  1  0  0  0  0
 14 35  1  0  0  0  0
 15 16  2  0  0  0  0
 15 36  1  0  0  0  0
 16 17  1  0  0  0  0
 16 37  1  0  0  0  0
 17 18  2  0  0  0  0
 17 38  1  0  0  0  0
 19 39  1  0  0  0  0
 19 40  1  0  0  0  0
M  END
> <s_m_source_file>
AV-unprocessed.smi

> <i_m_source_file_index>
1292

> <i_lp_mmshare_version>
43012

> <i_f3d_flags>
0

> <s_epik_input>
W0NIM11bQ0BASF0xW0NIMl1bQ0gyXVtDSDJdTihbQ0gyXTEpUyg9TykoPU8pW05IXVtDSDJdW0NIMl1jMltjSF1bY0hdW2NIXVtjSF1uMg==

> <s_epik_cmdline>
J2VwaWtfcHl0aG9uJywgJy1waCcsICc3LjAnLCAnLXRuJywgJzgnLCAnLW1hJywgJzIwMCcsICctbWV0YWxfYmluZGluZycsICctaW1hZScsICc8aW5maWxlLm1hZT4nLCAnLW9tYWUnLCAnPG91dGZpbGUubWFlPic=

> <r_epik_Ionization_Penalty>
0.0252758

> <r_epik_Ionization_Penalty_Charging>
0

> <r_epik_Ionization_Penalty_Neutral>
0.0252758

> <r_epik_State_Penalty>
0.0138562

> <r_epik_Charging_Adjusted_Penalty>
0.0138562

> <i_epik_Tot_Q>
0

> <i_epik_Tot_abs_Q>
0

> <r_epik_Metal_State_Penalty>
0.204365

> <b_epik_Metal_Only>
0

> <s_lp_Force_Field>
OPLS_2005

> <r_lp_Energy>
7.0541

> <b_lp_Chiralities_Consistent>
1

> <s_lp_Variant>
AV-unprocessed.smi:1292-1

> <Gold.Version>
5.8.1

> <Gold.Id.Protein>
6NUR|6NUR_protein|mol2

> <Gold.PLP.Fitness>
45.4916

> <Gold.PLP.PLP>
-42.0554

> <Gold.PLP.part.hbond>
-2.0000

> <Gold.PLP.part.metal>
0.0000

> <Gold.PLP.part.buried>
-1.7699

> <Gold.PLP.part.nonpolar>
-36.3962

> <Gold.PLP.part.repulsive>
0.1319

> <Gold.PLP.ligand.clash>
0.0000

> <Gold.PLP.ligand.torsion>
1.6998

> <Gold.PLP.Chemscore.Hbond>
1.0000

> <Gold.PLP.Chemscore.CHOScore>
0.9980

> <Gold.PLP.Chemscore.Metal>
0.0000

> <Gold.Chemscore.Hbonds>
donor molecule, donor type, donor heavy atom, donor atom, acceptor molecule, acceptor atom, score
      P1  H  7997  8010       L1     8  1.00
      L1  C    17    38       P1  7948  0.10

> <Gold.PLP.Chemscore.Internal.Correction>
0.8418

> <Gold.Rescore>
     Score         DG    S(hbond)    S(metal)    S(lipo)     H(rot)  DE(clash)    DE(int)     intcor
     16.07     -17.82       0.83        0.00     117.65       1.64       0.03       1.72       ----

> <Gold.Chemscore.Fitness>
16.0654

> <Gold.Chemscore.DG>
-17.8168

> <Gold.Chemscore.ZeroCoef>
-5.4800

> <Gold.Chemscore.Hbond>
0.8289

> <Gold.Chemscore.Metal>
0.0000

> <Gold.Chemscore.Lipo>
117.6494

> <Gold.Chemscore.Internal_Hbond>
0.0000

> <Gold.Chemscore.DEClash>
0.0282

> <Gold.Chemscore.DEInternal>
1.7232

> <Gold.Chemscore.Rot>
1.6394

> <Gold.Chemscore.Internal.Correction>
   9.000000E+99

> <Gold.Chemscore.Hbonds>
donor molecule, donor type, donor heavy atom, donor atom, acceptor molecule, acceptor atom, score
      P1  H  7997  8010       L1     8  0.95

> <Gold.Chemscore.Hbond.Weighted>
-2.7687

> <Gold.Chemscore.Metal.Weighted>
-0.0000

> <Gold.Chemscore.Lipo.Weighted>
-13.7650

> <Gold.Chemscore.Internal_Hbond.Weighted>
0.0000

> <Gold.Chemscore.DEClash.Weighted>
0.0282

> <Gold.Chemscore.DEInternal.Weighted>
1.7232

> <Gold.Chemscore.Rot.Weighted>
4.1968

> <Gold.Chemscore.Internal.Correction.Weighted>
   9.000000E+99

> <Gold.Protein.RotatedTorsions>
[ 6907 6896 6895 6894 ] final  -41.93 input  -60.11 | X-H torsion
[ 7974 7965 7964 7962 ] final   98.87 input  175.53 | X-H torsion
[ 8008 7997 7996 7995 ] final    1.77 input   59.86 | X-H torsion
[ 10167 10162 10161 10158 ] final   56.40 input  -65.29 | X-H torsion
[ 10718 10713 10712 10709 ] final   76.10 input   66.30 | X-H torsion
[ 10763 10752 10751 10750 ] final -129.43 input  -60.55 | X-H torsion
[ 11005 11000 10999 10996 ] final   60.46 input  -57.11 | X-H torsion

> <Gold.Protein.ActiveResidues>
 VAL166  LYS551  ARG553  GLY616  TRP617  ASP618  TYR619  PRO620  LYS621  CYS622 
 ASP623  PHE694  ASN695  SER759  ASP760  ASP761  ALA762  ILE779  LEU786  VAL792 
 PHE793  MET794  SER795  GLU796  ALA797  LYS798  CYS799  TRP800  GLU811  SER814 

> <Gold.Protein.RotatedAtoms>
  150.9611  134.8999  159.7730 H   0  0  0  0  0  0  0  0  0  0  0  0  # atno 6907 bound_to 6896
  152.5156  134.3671  159.9315 H   0  0  0  0  0  0  0  0  0  0  0  0  # atno 6908 bound_to 6896
  151.3684  133.3823  159.2731 H   0  0  0  0  0  0  0  0  0  0  0  0  # atno 6909 bound_to 6896
  145.4065  139.2340  143.3272 H   0  0  0  0  0  0  0  0  0  0  0  0  # atno 7974 bound_to 7965
  154.6836  140.2638  155.6883 H   0  0  0  0  0  0  0  0  0  0  0  0  # atno 8008 bound_to 7997
  156.2706  140.2805  156.1312 H   0  0  0  0  0  0  0  0  0  0  0  0  # atno 8009 bound_to 7997
  155.0996  140.0374  157.2683 H   0  0  0  0  0  0  0  0  0  0  0  0  # atno 8010 bound_to 7997
  140.2092  144.3907  150.6496 H   0  0  0  0  0  0  0  0  0  0  0  0  # atno 10167 bound_to 10162
  157.6660  130.9758  150.1448 H   0  0  0  0  0  0  0  0  0  0  0  0  # atno 10718 bound_to 10713
  154.8757  135.3895  154.3919 H   0  0  0  0  0  0  0  0  0  0  0  0  # atno 10763 bound_to 10752
  153.4654  135.7029  153.6030 H   0  0  0  0  0  0  0  0  0  0  0  0  # atno 10764 bound_to 10752
  153.4511  135.3833  155.2252 H   0  0  0  0  0  0  0  0  0  0  0  0  # atno 10765 bound_to 10752
  140.0230  134.6124  155.9612 H   0  0  0  0  0  0  0  0  0  0  0  0  # atno 11005 bound_to 11000
  146.2726  140.4770  142.8808 LP  0  0  0  0  0  0  0  0  0  0  0  0  # atno 17320 bound_to 7965
  144.8338  140.6750  143.6273 LP  0  0  0  0  0  0  0  0  0  0  0  0  # atno 17321 bound_to 7965
  140.6336  143.2191  151.6443 LP  0  0  0  0  0  0  0  0  0  0  0  0  # atno 17342 bound_to 10162
  139.5187  144.3277  152.0854 LP  0  0  0  0  0  0  0  0  0  0  0  0  # atno 17343 bound_to 10162
  156.2262  130.3678  149.8498 LP  0  0  0  0  0  0  0  0  0  0  0  0  # atno 17370 bound_to 10713
  156.6338  130.8676  151.3500 LP  0  0  0  0  0  0  0  0  0  0  0  0  # atno 17371 bound_to 10713
  141.1786  133.6543  156.4927 LP  0  0  0  0  0  0  0  0  0  0  0  0  # atno 17394 bound_to 11000
  140.4354  134.7064  157.4964 LP  0  0  0  0  0  0  0  0  0  0  0  0  # atno 17395 bound_to 11000

$$$$
