AV-unprocessed.smi:2243|AV-procd|sdf|9070|dock6
  -GOLD-   2272012273D 1   1.00000     0.00000
 Structure written by MMmdl.
 33 34  0  0  0  0  0  0  0  0  2 V2000
  151.7802  139.5145  156.8583 C   0  0  0  0  0  0  0  0  0  0  0  0
  151.4414  139.5805  158.3574 C   0  0  2  0  0  0  0  0  0  0  0  0
  150.1747  138.8741  158.5604 N   0  0  0  0  0  0  0  0  0  0  0  0
  150.0086  137.6412  159.0645 C   0  0  0  0  0  0  0  0  0  0  0  0
  150.9860  136.9836  159.4290 O   0  0  0  0  0  0  0  0  0  0  0  0
  148.7157  137.2497  159.1218 N   0  5  0  0  0  0  0  0  0  0  0  0
  148.2709  136.5675  160.1893 C   0  0  0  0  0  0  0  0  0  0  0  0
  148.2106  135.2400  160.3109 N   0  0  0  0  0  0  0  0  0  0  0  0
  147.6837  134.9985  161.5703 C   0  0  0  0  0  0  0  0  0  0  0  0
  147.4378  136.2078  162.1613 C   0  0  0  0  0  0  0  0  0  0  0  0
  147.8008  137.2051  161.2989 O   0  0  0  0  0  0  0  0  0  0  0  0
  151.3553  141.0320  158.9032 C   0  0  0  0  0  0  0  0  0  0  0  0
  150.6344  141.9887  157.9315 C   0  0  0  0  0  0  0  0  0  0  0  0
  150.6294  143.4309  158.4643 C   0  0  0  0  0  0  0  0  0  0  0  0
  151.9612  143.8698  158.7003 O   0  0  0  0  0  0  0  0  0  0  0  0
  152.6249  143.0928  159.6894 C   0  0  0  0  0  0  0  0  0  0  0  0
  152.7409  141.6331  159.2229 C   0  0  0  0  0  0  0  0  0  0  0  0
  152.7789  139.8973  156.6510 H   0  0  0  0  0  0  0  0  0  0  0  0
  151.0687  140.0893  156.2644 H   0  0  0  0  0  0  0  0  0  0  0  0
  151.7564  138.4851  156.4987 H   0  0  0  0  0  0  0  0  0  0  0  0
  152.2420  139.0640  158.8894 H   0  0  0  0  0  0  0  0  0  0  0  0
  149.3380  139.3665  158.2840 H   0  0  0  0  0  0  0  0  0  0  0  0
  147.5265  133.9967  161.9412 H   0  0  0  0  0  0  0  0  0  0  0  0
  147.0377  136.5118  163.1168 H   0  0  0  0  0  0  0  0  0  0  0  0
  150.7840  141.0082  159.8327 H   0  0  0  0  0  0  0  0  0  0  0  0
  151.1259  141.9648  156.9580 H   0  0  0  0  0  0  0  0  0  0  0  0
  149.6040  141.6737  157.7703 H   0  0  0  0  0  0  0  0  0  0  0  0
  150.1655  144.0960  157.7359 H   0  0  0  0  0  0  0  0  0  0  0  0
  150.0420  143.5055  159.3807 H   0  0  0  0  0  0  0  0  0  0  0  0
  153.6174  143.5108  159.8574 H   0  0  0  0  0  0  0  0  0  0  0  0
  152.0893  143.1561  160.6378 H   0  0  0  0  0  0  0  0  0  0  0  0
  153.2443  141.0568  159.9992 H   0  0  0  0  0  0  0  0  0  0  0  0
  153.3772  141.5846  158.3383 H   0  0  0  0  0  0  0  0  0  0  0  0
  1  2  1  0  0  0  0
  1 18  1  0  0  0  0
  1 19  1  0  0  0  0
  1 20  1  0  0  0  0
  2  3  1  0  0  0  0
  2 12  1  0  0  0  0
  2 21  1  0  0  0  0
  3 22  1  0  0  0  0
  3  4  1  0  0  0  0
  4  6  1  0  0  0  0
  4  5  2  0  0  0  0
  6  7  1  0  0  0  0
  7 11  1  0  0  0  0
  7  8  2  0  0  0  0
  8  9  1  0  0  0  0
  9 23  1  0  0  0  0
  9 10  2  0  0  0  0
 10 24  1  0  0  0  0
 10 11  1  0  0  0  0
 12 17  1  0  0  0  0
 12 13  1  0  0  0  0
 12 25  1  0  0  0  0
 13 14  1  0  0  0  0
 13 26  1  0  0  0  0
 13 27  1  0  0  0  0
 14 15  1  0  0  0  0
 14 28  1  0  0  0  0
 14 29  1  0  0  0  0
 15 16  1  0  0  0  0
 16 17  1  0  0  0  0
 16 30  1  0  0  0  0
 16 31  1  0  0  0  0
 17 32  1  0  0  0  0
 17 33  1  0  0  0  0
M  CHG  1   6  -1
M  END
> <s_m_source_file>
AV-unprocessed.smi

> <i_m_source_file_index>
2243

> <i_lp_mmshare_version>
43012

> <i_f3d_flags>
0

> <s_epik_input>
W0NIMl0xW0NIMl1PW0NIMl1bQ0gyXVtDSF0xW0NASF0oW0NIM10pW05IXUMoPU8pW05IXWMybltjSF1bY0hdbzI=

> <s_epik_cmdline>
J2VwaWtfcHl0aG9uJywgJy1waCcsICc3LjAnLCAnLXRuJywgJzgnLCAnLW1hJywgJzIwMCcsICctbWV0YWxfYmluZGluZycsICctaW1hZScsICc8aW5maWxlLm1hZT4nLCAnLW9tYWUnLCAnPG91dGZpbGUubWFlPic=

> <r_lp_tautomer_probability>
0.107061

> <r_epik_Ionization_Penalty>
11.1403

> <r_epik_Ionization_Penalty_Charging>
7.81312

> <r_epik_Ionization_Penalty_Neutral>
3.32719

> <r_epik_State_Penalty>
5.94317

> <r_epik_Charging_Adjusted_Penalty>
13.7563

> <i_epik_Tot_Q>
-1

> <i_epik_Tot_abs_Q>
1

> <r_epik_Metal_State_Penalty>
1.86619

> <b_epik_Metal_Only>
1

> <s_lp_Force_Field>
OPLS_2005

> <r_lp_Energy>
6.48942

> <b_lp_Chiralities_Consistent>
1

> <s_lp_Variant>
AV-unprocessed.smi:2243-9

> <Gold.Version>
5.8.1

> <Gold.Id.Protein>
6NUR|6NUR_protein|mol2

> <Gold.PLP.Fitness>
34.9532

> <Gold.PLP.PLP>
-29.7870

> <Gold.PLP.part.hbond>
-3.0000

> <Gold.PLP.part.metal>
0.0000

> <Gold.PLP.part.buried>
-5.4331

> <Gold.PLP.part.nonpolar>
-21.9163

> <Gold.PLP.part.repulsive>
0.2193

> <Gold.PLP.ligand.clash>
0.0000

> <Gold.PLP.ligand.torsion>
1.6332

> <Gold.PLP.Chemscore.Hbond>
2.8000

> <Gold.PLP.Chemscore.CHOScore>
0.0000

> <Gold.PLP.Chemscore.Metal>
0.0000

> <Gold.Chemscore.Hbonds>
donor molecule, donor type, donor heavy atom, donor atom, acceptor molecule, acceptor atom, score
      P1  H  6896  6907       L1     5  1.00
      P1  H  6931  6943       L1    11  0.99
      P1  H  6934  6947       L1    11  0.77

> <Gold.PLP.Chemscore.Internal.Correction>
0.0326

> <Gold.Rescore>
     Score         DG    S(hbond)    S(metal)    S(lipo)     H(rot)  DE(clash)    DE(int)     intcor
     17.22     -18.75       2.58        0.00      68.42       1.31       0.01       1.52       ----

> <Gold.Chemscore.Fitness>
17.2216

> <Gold.Chemscore.DG>
-18.7500

> <Gold.Chemscore.ZeroCoef>
-5.4800

> <Gold.Chemscore.Hbond>
2.5775

> <Gold.Chemscore.Metal>
0.0000

> <Gold.Chemscore.Lipo>
68.4224

> <Gold.Chemscore.Internal_Hbond>
0.0000

> <Gold.Chemscore.DEClash>
0.0073

> <Gold.Chemscore.DEInternal>
1.5211

> <Gold.Chemscore.Rot>
1.3063

> <Gold.Chemscore.Internal.Correction>
   9.000000E+99

> <Gold.Chemscore.Hbonds>
donor molecule, donor type, donor heavy atom, donor atom, acceptor molecule, acceptor atom, score
      P1  H  6896  6907       L1     5  0.96
      P1  H  6931  6943       L1    11  0.58
      P1  H  6934  6947       L1    11  0.66

> <Gold.Chemscore.Hbond.Weighted>
-8.6088

> <Gold.Chemscore.Metal.Weighted>
-0.0000

> <Gold.Chemscore.Lipo.Weighted>
-8.0054

> <Gold.Chemscore.Internal_Hbond.Weighted>
0.0000

> <Gold.Chemscore.DEClash.Weighted>
0.0073

> <Gold.Chemscore.DEInternal.Weighted>
1.5211

> <Gold.Chemscore.Rot.Weighted>
3.3443

> <Gold.Chemscore.Internal.Correction.Weighted>
   9.000000E+99

> <Gold.Protein.RotatedTorsions>
[ 6907 6896 6895 6894 ] final  -32.42 input  -60.11 | X-H torsion
[ 7974 7965 7964 7962 ] final   26.06 input  175.53 | X-H torsion
[ 8008 7997 7996 7995 ] final   97.63 input   59.86 | X-H torsion
[ 10167 10162 10161 10158 ] final   54.05 input  -65.29 | X-H torsion
[ 10718 10713 10712 10709 ] final    8.07 input   66.30 | X-H torsion
[ 10763 10752 10751 10750 ] final  -83.21 input  -60.55 | X-H torsion
[ 11005 11000 10999 10996 ] final  105.81 input  -57.11 | X-H torsion

> <Gold.Protein.ActiveResidues>
 VAL166  LYS551  ARG553  GLY616  TRP617  ASP618  TYR619  PRO620  LYS621  CYS622 
 ASP623  PHE694  ASN695  SER759  ASP760  ASP761  ALA762  ILE779  LEU786  VAL792 
 PHE793  MET794  SER795  GLU796  ALA797  LYS798  CYS799  TRP800  GLU811  SER814 

> <Gold.Protein.RotatedAtoms>
  151.0789  134.9846  159.8346 H   0  0  0  0  0  0  0  0  0  0  0  0  # atno 6907 bound_to 6896
  152.5417  134.2206  159.8796 H   0  0  0  0  0  0  0  0  0  0  0  0  # atno 6908 bound_to 6896
  151.2235  133.4446  159.2635 H   0  0  0  0  0  0  0  0  0  0  0  0  # atno 6909 bound_to 6896
  146.1857  139.7380  142.8868 H   0  0  0  0  0  0  0  0  0  0  0  0  # atno 7974 bound_to 7965
  156.0922  140.3255  155.7830 H   0  0  0  0  0  0  0  0  0  0  0  0  # atno 8008 bound_to 7997
  155.4978  140.0567  157.2961 H   0  0  0  0  0  0  0  0  0  0  0  0  # atno 8009 bound_to 7997
  154.4644  140.1982  156.0173 H   0  0  0  0  0  0  0  0  0  0  0  0  # atno 8010 bound_to 7997
  140.2342  144.3653  150.6403 H   0  0  0  0  0  0  0  0  0  0  0  0  # atno 10167 bound_to 10162
  156.9462  130.5880  149.5654 H   0  0  0  0  0  0  0  0  0  0  0  0  # atno 10718 bound_to 10713
  154.5850  135.5564  153.7222 H   0  0  0  0  0  0  0  0  0  0  0  0  # atno 10763 bound_to 10752
  153.0095  135.6329  154.1930 H   0  0  0  0  0  0  0  0  0  0  0  0  # atno 10764 bound_to 10752
  154.1870  135.2884  155.3014 H   0  0  0  0  0  0  0  0  0  0  0  0  # atno 10765 bound_to 10752
  139.8806  134.9348  156.5570 H   0  0  0  0  0  0  0  0  0  0  0  0  # atno 11005 bound_to 11000
  145.3946  141.0377  143.3104 LP  0  0  0  0  0  0  0  0  0  0  0  0  # atno 17320 bound_to 7965
  144.8393  139.5499  143.6908 LP  0  0  0  0  0  0  0  0  0  0  0  0  # atno 17321 bound_to 7965
  140.6162  143.2172  151.6787 LP  0  0  0  0  0  0  0  0  0  0  0  0  # atno 17342 bound_to 10162
  139.5099  144.3560  152.0607 LP  0  0  0  0  0  0  0  0  0  0  0  0  # atno 17343 bound_to 10162
  156.0383  130.5468  150.8707 LP  0  0  0  0  0  0  0  0  0  0  0  0  # atno 17370 bound_to 10713
  157.5752  131.0946  150.9356 LP  0  0  0  0  0  0  0  0  0  0  0  0  # atno 17371 bound_to 10713
  140.8198  133.8363  155.8885 LP  0  0  0  0  0  0  0  0  0  0  0  0  # atno 17394 bound_to 11000
  140.9429  134.1877  157.4784 LP  0  0  0  0  0  0  0  0  0  0  0  0  # atno 17395 bound_to 11000

$$$$
