AV-unprocessed.smi:500|AV-procd|sdf|2737|dock4
  -GOLD-   2262023193D 1   1.00000     0.00000
 Structure written by MMmdl.
 46 48  0  0  0  0  0  0  0  0  2 V2000
  146.5363  142.5051  154.1266 C   0  0  0  0  0  0  0  0  0  0  0  0
  147.4331  141.4935  154.8440 C   0  0  0  0  0  0  0  0  0  0  0  0
  147.2482  141.6231  156.2436 O   0  0  0  0  0  0  0  0  0  0  0  0
  148.0488  140.7206  156.9872 C   0  0  0  0  0  0  0  0  0  0  0  0
  149.5121  140.8998  156.5661 C   0  0  0  0  0  0  0  0  0  0  0  0
  150.4389  140.6102  157.6681 N   0  0  0  0  0  0  0  0  0  0  0  0
  150.7098  139.4375  158.3119 C   0  0  0  0  0  0  0  0  0  0  0  0
  150.0668  138.1047  158.0453 C   0  0  1  0  0  0  0  0  0  0  0  0
  151.0663  137.0527  157.5274 C   0  0  0  0  0  0  0  0  0  0  0  0
  149.3079  137.6058  159.1926 N   0  0  0  0  0  0  0  0  0  0  0  0
  148.9250  136.3371  159.4186 C   0  0  0  0  0  0  0  0  0  0  0  0
  149.1615  135.4061  158.6488 O   0  0  0  0  0  0  0  0  0  0  0  0
  148.1933  136.1047  160.6780 C   0  0  0  0  0  0  0  0  0  0  0  0
  147.7096  134.9555  161.2467 C   0  0  0  0  0  0  0  0  0  0  0  0
  147.0888  135.3358  162.4685 C   0  0  0  0  0  0  0  0  0  0  0  0
  147.2373  136.6897  162.5598 C   0  0  0  0  0  0  0  0  0  0  0  0
  147.9080  137.1726  161.4787 O   0  0  0  0  0  0  0  0  0  0  0  0
  151.6361  139.7167  159.2747 N   0  3  0  0  0  0  0  0  0  0  0  0
  151.9725  141.0699  159.2331 C   0  0  0  0  0  0  0  0  0  0  0  0
  152.8634  141.8127  160.0016 C   0  0  0  0  0  0  0  0  0  0  0  0
  152.9700  143.1857  159.6964 C   0  0  0  0  0  0  0  0  0  0  0  0
  152.2080  143.7696  158.6634 C   0  0  0  0  0  0  0  0  0  0  0  0
  151.3071  143.0061  157.8920 C   0  0  0  0  0  0  0  0  0  0  0  0
  151.2079  141.6499  158.2011 C   0  0  0  0  0  0  0  0  0  0  0  0
  146.6558  142.4324  153.0455 H   0  0  0  0  0  0  0  0  0  0  0  0
  146.7825  143.5254  154.4222 H   0  0  0  0  0  0  0  0  0  0  0  0
  145.4852  142.3326  154.3594 H   0  0  0  0  0  0  0  0  0  0  0  0
  147.1822  140.4813  154.5236 H   0  0  0  0  0  0  0  0  0  0  0  0
  148.4771  141.6736  154.5836 H   0  0  0  0  0  0  0  0  0  0  0  0
  147.9402  140.9156  158.0553 H   0  0  0  0  0  0  0  0  0  0  0  0
  147.7238  139.6954  156.8032 H   0  0  0  0  0  0  0  0  0  0  0  0
  149.7605  140.2610  155.7178 H   0  0  0  0  0  0  0  0  0  0  0  0
  149.6859  141.9254  156.2402 H   0  0  0  0  0  0  0  0  0  0  0  0
  149.3335  138.2621  157.2537 H   0  0  0  0  0  0  0  0  0  0  0  0
  151.5519  137.3922  156.6121 H   0  0  0  0  0  0  0  0  0  0  0  0
  150.5607  136.1140  157.2989 H   0  0  0  0  0  0  0  0  0  0  0  0
  151.8482  136.8358  158.2557 H   0  0  0  0  0  0  0  0  0  0  0  0
  149.0602  138.2905  159.8924 H   0  0  0  0  0  0  0  0  0  0  0  0
  147.7903  133.9600  160.8355 H   0  0  0  0  0  0  0  0  0  0  0  0
  146.5957  134.7000  163.1888 H   0  0  0  0  0  0  0  0  0  0  0  0
  146.9419  137.4300  163.2888 H   0  0  0  0  0  0  0  0  0  0  0  0
  153.4475  141.3677  160.7939 H   0  0  0  0  0  0  0  0  0  0  0  0
  153.6494  143.8033  160.2658 H   0  0  0  0  0  0  0  0  0  0  0  0
  152.3159  144.8250  158.4585 H   0  0  0  0  0  0  0  0  0  0  0  0
  150.7283  143.4622  157.1024 H   0  0  0  0  0  0  0  0  0  0  0  0
  152.0032  139.0271  159.9179 H   0  0  0  0  0  0  0  0  0  0  0  0
  1  2  1  0  0  0  0
  1 25  1  0  0  0  0
  1 26  1  0  0  0  0
  1 27  1  0  0  0  0
  2  3  1  0  0  0  0
  2 28  1  0  0  0  0
  2 29  1  0  0  0  0
  3  4  1  0  0  0  0
  4  5  1  0  0  0  0
  4 30  1  0  0  0  0
  4 31  1  0  0  0  0
  5  6  1  0  0  0  0
  5 32  1  0  0  0  0
  5 33  1  0  0  0  0
  6 24  1  0  0  0  0
  6  7  1  0  0  0  0
  7  8  1  0  0  0  0
  7 18  2  0  0  0  0
  8  9  1  0  0  0  0
  8 10  1  0  0  0  0
  8 34  1  0  0  0  0
  9 35  1  0  0  0  0
  9 36  1  0  0  0  0
  9 37  1  0  0  0  0
 10 11  1  0  0  0  0
 10 38  1  0  0  0  0
 11 12  2  0  0  0  0
 11 13  1  0  0  0  0
 13 17  1  0  0  0  0
 13 14  2  0  0  0  0
 14 15  1  0  0  0  0
 14 39  1  0  0  0  0
 15 16  2  0  0  0  0
 15 40  1  0  0  0  0
 16 17  1  0  0  0  0
 16 41  1  0  0  0  0
 18 19  1  0  0  0  0
 18 46  1  0  0  0  0
 19 24  2  0  0  0  0
 19 20  1  0  0  0  0
 20 21  2  0  0  0  0
 20 42  1  0  0  0  0
 21 22  1  0  0  0  0
 21 43  1  0  0  0  0
 22 23  2  0  0  0  0
 22 44  1  0  0  0  0
 23 24  1  0  0  0  0
 23 45  1  0  0  0  0
M  CHG  1  18   1
M  END
> <s_m_source_file>
AV-unprocessed.smi

> <i_m_source_file_index>
500

> <i_lp_mmshare_version>
43012

> <i_f3d_flags>
0

> <s_epik_input>
W0NIM11bQ0gyXU9bQ0gyXVtDSDJdbihjKGMxMilbY0hdW2NIXVtjSF1bY0hdMiljKG4xKVtDQEhdKFtDSDNdKVtOSF1DKD1PKWMzW2NIXVtjSF1bY0hdbzM=

> <s_epik_cmdline>
J2VwaWtfcHl0aG9uJywgJy1waCcsICc3LjAnLCAnLXRuJywgJzgnLCAnLW1hJywgJzIwMCcsICctbWV0YWxfYmluZGluZycsICctaW1hZScsICc8aW5maWxlLm1hZT4nLCAnLW9tYWUnLCAnPG91dGZpbGUubWFlPic=

> <r_epik_Ionization_Penalty>
1.05286

> <r_epik_Ionization_Penalty_Charging>
1.05283

> <r_epik_Ionization_Penalty_Neutral>
2.09263e-05

> <r_epik_State_Penalty>
1.10586

> <r_epik_Charging_Adjusted_Penalty>
2.15869

> <i_epik_Tot_Q>
1

> <i_epik_Tot_abs_Q>
1

> <r_epik_Metal_State_Penalty>
1.22833

> <b_epik_Metal_Only>
0

> <s_lp_Force_Field>
OPLS_2005

> <r_lp_Energy>
11.8725

> <b_lp_Chiralities_Consistent>
1

> <s_lp_Variant>
AV-unprocessed.smi:500-4

> <Gold.Version>
5.8.1

> <Gold.Id.Protein>
6NUR|6NUR_protein|mol2

> <Gold.PLP.Fitness>
54.4347

> <Gold.PLP.PLP>
-47.3799

> <Gold.PLP.part.hbond>
-3.0000

> <Gold.PLP.part.metal>
0.0000

> <Gold.PLP.part.buried>
-6.6943

> <Gold.PLP.part.nonpolar>
-39.4411

> <Gold.PLP.part.repulsive>
0.5296

> <Gold.PLP.ligand.clash>
0.0000

> <Gold.PLP.ligand.torsion>
0.5945

> <Gold.PLP.Chemscore.Hbond>
2.6880

> <Gold.PLP.Chemscore.CHOScore>
0.0000

> <Gold.PLP.Chemscore.Metal>
0.0000

> <Gold.Chemscore.Hbonds>
donor molecule, donor type, donor heavy atom, donor atom, acceptor molecule, acceptor atom, score
      P1  H  6896  6907       L1    12  1.00
      P1  H  6931  6943       L1    17  1.00
      P1  H  6934  6947       L1    17  0.65

> <Gold.PLP.Chemscore.Internal.Correction>
0.1799

> <Gold.Rescore>
     Score         DG    S(hbond)    S(metal)    S(lipo)     H(rot)  DE(clash)    DE(int)     intcor
     19.43     -21.67       2.27        0.00     116.90       1.97       0.07       2.18       ----

> <Gold.Chemscore.Fitness>
19.4288

> <Gold.Chemscore.DG>
-21.6729

> <Gold.Chemscore.ZeroCoef>
-5.4800

> <Gold.Chemscore.Hbond>
2.2665

> <Gold.Chemscore.Metal>
0.0000

> <Gold.Chemscore.Lipo>
116.9041

> <Gold.Chemscore.Internal_Hbond>
0.0000

> <Gold.Chemscore.DEClash>
0.0669

> <Gold.Chemscore.DEInternal>
2.1773

> <Gold.Chemscore.Rot>
1.9746

> <Gold.Chemscore.Internal.Correction>
   9.000000E+99

> <Gold.Chemscore.Hbonds>
donor molecule, donor type, donor heavy atom, donor atom, acceptor molecule, acceptor atom, score
      P1  H  6896  6907       L1    12  0.30
      P1  H  6931  6943       L1    17  0.79
      P1  H  6934  6947       L1    17  0.49

> <Gold.Chemscore.Hbond.Weighted>
-7.5702

> <Gold.Chemscore.Metal.Weighted>
-0.0000

> <Gold.Chemscore.Lipo.Weighted>
-13.6778

> <Gold.Chemscore.Internal_Hbond.Weighted>
0.0000

> <Gold.Chemscore.DEClash.Weighted>
0.0669

> <Gold.Chemscore.DEInternal.Weighted>
2.1773

> <Gold.Chemscore.Rot.Weighted>
5.0550

> <Gold.Chemscore.Internal.Correction.Weighted>
   9.000000E+99

> <Gold.Protein.RotatedTorsions>
[ 6907 6896 6895 6894 ] final  -72.49 input  -60.11 | X-H torsion
[ 7974 7965 7964 7962 ] final  -82.88 input  175.53 | X-H torsion
[ 8008 7997 7996 7995 ] final  140.49 input   59.86 | X-H torsion
[ 10167 10162 10161 10158 ] final  -69.71 input  -65.29 | X-H torsion
[ 10718 10713 10712 10709 ] final  168.48 input   66.30 | X-H torsion
[ 10763 10752 10751 10750 ] final -100.76 input  -60.55 | X-H torsion
[ 11005 11000 10999 10996 ] final -115.87 input  -57.11 | X-H torsion

> <Gold.Protein.ActiveResidues>
 VAL166  LYS551  ARG553  GLY616  TRP617  ASP618  TYR619  PRO620  LYS621  CYS622 
 ASP623  PHE694  ASN695  SER759  ASP760  ASP761  ALA762  ILE779  LEU786  VAL792 
 PHE793  MET794  SER795  GLU796  ALA797  LYS798  CYS799  TRP800  GLU811  SER814 

> <Gold.Protein.RotatedAtoms>
  150.7168  134.5155  159.5627 H   0  0  0  0  0  0  0  0  0  0  0  0  # atno 6907 bound_to 6896
  152.2722  134.7917  160.0421 H   0  0  0  0  0  0  0  0  0  0  0  0  # atno 6908 bound_to 6896
  151.8593  133.3419  159.3735 H   0  0  0  0  0  0  0  0  0  0  0  0  # atno 6909 bound_to 6896
  145.5274  140.9525  143.1622 H   0  0  0  0  0  0  0  0  0  0  0  0  # atno 7974 bound_to 7965
  156.2978  140.2340  156.4410 H   0  0  0  0  0  0  0  0  0  0  0  0  # atno 8008 bound_to 7997
  154.8186  140.0439  157.1415 H   0  0  0  0  0  0  0  0  0  0  0  0  # atno 8009 bound_to 7997
  154.9341  140.3020  155.5157 H   0  0  0  0  0  0  0  0  0  0  0  0  # atno 8010 bound_to 7997
  140.5409  143.2315  151.7090 H   0  0  0  0  0  0  0  0  0  0  0  0  # atno 10167 bound_to 10162
  157.0365  131.0274  151.2727 H   0  0  0  0  0  0  0  0  0  0  0  0  # atno 10718 bound_to 10713
  154.7605  135.4923  153.9455 H   0  0  0  0  0  0  0  0  0  0  0  0  # atno 10763 bound_to 10752
  153.1245  135.6739  153.9287 H   0  0  0  0  0  0  0  0  0  0  0  0  # atno 10764 bound_to 10752
  153.9009  135.3110  155.3427 H   0  0  0  0  0  0  0  0  0  0  0  0  # atno 10765 bound_to 10752
  141.0459  133.9763  157.2918 H   0  0  0  0  0  0  0  0  0  0  0  0  # atno 11005 bound_to 11000
  144.7644  139.6881  143.7221 LP  0  0  0  0  0  0  0  0  0  0  0  0  # atno 17320 bound_to 7965
  146.2066  139.5395  142.9708 LP  0  0  0  0  0  0  0  0  0  0  0  0  # atno 17321 bound_to 7965
  139.4988  144.3969  152.0222 LP  0  0  0  0  0  0  0  0  0  0  0  0  # atno 17342 bound_to 10162
  140.3078  144.3572  150.6042 LP  0  0  0  0  0  0  0  0  0  0  0  0  # atno 17343 bound_to 10162
  157.5138  130.7955  149.7733 LP  0  0  0  0  0  0  0  0  0  0  0  0  # atno 17370 bound_to 10713
  156.0052  130.3859  150.2457 LP  0  0  0  0  0  0  0  0  0  0  0  0  # atno 17371 bound_to 10713
  139.9311  135.0200  156.8404 LP  0  0  0  0  0  0  0  0  0  0  0  0  # atno 17394 bound_to 11000
  140.6147  134.0049  155.7592 LP  0  0  0  0  0  0  0  0  0  0  0  0  # atno 17395 bound_to 11000

$$$$
