#       Name:                AV-unprocessed.smi:610
#       Creating user name   scv26
#       Creation time:       Thu Mar 26 23:58:18 2020


#       File generated by GOLD software.
#

@<TRIPOS>MOLECULE
AV-unprocessed.smi:610
    41    42     1
SMALL
NO_CHARGES


@<TRIPOS>ATOM
      1 ****        -2.6863  -1.1281  -1.7638 C.3            1 S1                 0.0000
      2 ****        -2.1509  -0.4153  -0.5136 C.3            1 S1                 0.0000
      3 ****        -2.8173  -0.9410   0.7714 C.3            1 S1                 0.0000
      4 ****        -2.4255  -0.1702   1.9564 N.pl3          1 S1                 0.0000
      5 ****        -2.8718   1.0741   2.3208 C.2            1 S1                 0.0000
      6 ****        -2.2284   1.3936   3.4886 C.2            1 S1                 0.0000
      7 ****        -1.4192   0.3306   3.7888 N.pl3          1 S1                 1.0000
      8 ****        -1.5415  -0.6200   2.8566 C.2            1 S1                 0.0000
      9 ****        -0.7026  -0.5879  -0.4291 N.am           1 S1                 0.0000
     10 ****         0.2231   0.2604  -0.9093 C.2            1 S1                 0.0000
     11 ****        -0.0781   1.2896  -1.5152 O.2            1 S1                 0.0000
     12 ****         1.7142  -0.0975  -0.6855 C.3            1 S1                 0.0000
     13 ****         1.8761  -1.0827   0.3768 N.3            1 S1                 0.0000
     14 ****         2.3543  -0.6368  -1.9920 C.3            1 S1                 0.0000
     15 ****         3.5207   0.2961  -2.3393 C.3            1 S1                 0.0000
     16 ****         3.2119   1.6043  -1.6200 C.3            1 S1                 0.0000
     17 ****         2.5503   1.1534  -0.3185 C.3            1 S1                 0.0000
     18 ****        -3.7660  -1.0052  -1.8524 H              1 S1                 0.0000
     19 ****        -2.4743  -2.1975  -1.7340 H              1 S1                 0.0000
     20 ****        -2.2355  -0.7240  -2.6710 H              1 S1                 0.0000
     21 ****        -2.3902   0.6459  -0.6046 H              1 S1                 0.0000
     22 ****        -3.9033  -0.8772   0.6902 H              1 S1                 0.0000
     23 ****        -2.5730  -1.9915   0.9393 H              1 S1                 0.0000
     24 ****        -3.5928   1.6263   1.7352 H              1 S1                 0.0000
     25 ****        -2.2845   2.2743   4.1118 H              1 S1                 0.0000
     26 ****        -1.0241  -1.5627   2.8339 H              1 S1                 0.0000
     27 ****        -0.3673  -1.4198   0.0355 H              1 S1                 0.0000
     28 ****         2.8350  -1.4001   0.3873 H              1 S1                 0.0000
     29 ****         1.7195  -0.6340   1.2676 H              1 S1                 0.0000
     30 ****         2.7019  -1.6673  -1.9020 H              1 S1                 0.0000
     31 ****         1.6396  -0.6315  -2.8171 H              1 S1                 0.0000
     32 ****         4.4495  -0.1216  -1.9484 H              1 S1                 0.0000
     33 ****         3.6453   0.4289  -3.4144 H              1 S1                 0.0000
     34 ****         4.1017   2.2113  -1.4510 H              1 S1                 0.0000
     35 ****         2.5112   2.1958  -2.2108 H              1 S1                 0.0000
     36 ****         1.9620   1.9547   0.1317 H              1 S1                 0.0000
     37 ****         3.3331   0.9038   0.4002 H              1 S1                 0.0000
     38 ****        -0.8157   0.2700   4.5994 H              1 S1                 0.0000
     39 ****        -1.0400   1.5185  -1.6646 LP             1 S1                 0.0000
     40 ****         0.6392   1.8962  -1.8577 LP             1 S1                 0.0000
     41 ****         1.2371  -1.8366   0.2234 LP             1 S1                 0.0000
@<TRIPOS>BOND
    1    1    2 1     
    2    1   18 1     
    3    1   19 1     
    4    1   20 1     
    5    2    3 1     
    6    2    9 1     
    7    2   21 1     
    8    3    4 1     
    9    3   22 1     
   10    3   23 1     
   11    4    8 1     
   12    4    5 1     
   13    5    6 2     
   14    5   24 1     
   15    6    7 1     
   16    6   25 1     
   17    7    8 2     
   18    7   38 1     
   19    8   26 1     
   20    9   10 am    
   21    9   27 1     
   22   10   11 2     
   23   10   12 1     
   24   12   17 1     
   25   12   13 1     
   26   12   14 1     
   27   13   28 1     
   28   13   29 1     
   29   14   15 1     
   30   14   30 1     
   31   14   31 1     
   32   15   16 1     
   33   15   32 1     
   34   15   33 1     
   35   16   17 1     
   36   16   34 1     
   37   16   35 1     
   38   17   36 1     
   39   17   37 1     
   40   11   39 1     
   41   11   40 1     
   42   13   41 1     
@<TRIPOS>SUBSTRUCTURE
      1 S1             1
@<TRIPOS>SET
LONE_PAIRS      STATIC     ATOMS    <user>   **** ""
3 39 40 41
DONOR_HYDROGENS      STATIC     ATOMS    <user>   **** ""
4 38 27 28 29
ATOM$BLUE        STATIC     ATOMS    COLORGROUP SYSTEM
3 39 40 41
ATOM$RED        STATIC     ATOMS    COLORGROUP SYSTEM
4 38 27 28 29
