AV-unprocessed.smi:2702|AV-procd|sdf|10434|dock8
  -GOLD-   2272014473D 1   1.00000     0.00000
 Structure written by MMmdl.
 47 48  0  0  0  0  0  0  0  0  1 V2000
  151.8041  144.6826  159.3374 C   0  0  0  0  0  0  0  0  0  0  0  0
  151.2633  144.0352  160.4756 O   0  0  0  0  0  0  0  0  0  0  0  0
  152.2659  143.5862  161.3719 C   0  0  0  0  0  0  0  0  0  0  0  0
  152.8764  142.2907  160.8774 C   0  0  0  0  0  0  0  0  0  0  0  0
  152.5328  141.7434  159.6883 C   0  0  0  0  0  0  0  0  0  0  0  0
  153.1331  140.4851  159.2449 C   0  0  0  0  0  0  0  0  0  0  0  0
  152.8500  139.9572  158.1690 O   0  0  0  0  0  0  0  0  0  0  0  0
  154.0339  139.9397  160.1152 N   0  0  0  0  0  0  0  0  0  0  0  0
  154.7254  138.6748  159.8059 C   0  0  0  0  0  0  0  0  0  0  0  0
  154.2987  137.5154  160.7174 C   0  0  0  0  0  0  0  0  0  0  0  0
  153.4970  136.6683  160.3219 O   0  0  0  0  0  0  0  0  0  0  0  0
  154.8433  137.5054  161.9435 N   0  0  0  0  0  0  0  0  0  0  0  0
  154.6184  136.5002  162.9847 C   0  0  2  0  0  0  0  0  0  0  0  0
  154.3310  137.1962  164.3277 C   0  0  0  0  0  0  0  0  0  0  0  0
  155.5778  137.8956  164.8885 C   0  0  0  0  0  0  0  0  0  0  0  0
  156.7493  136.9125  165.0144 C   0  0  0  0  0  0  0  0  0  0  0  0
  157.0764  136.2196  163.6751 C   0  0  1  0  0  0  0  0  0  0  0  0
  158.2654  135.2603  163.8633 C   0  0  0  0  0  0  0  0  0  0  0  0
  155.8148  135.5174  163.0990 C   0  0  2  0  0  0  0  0  0  0  0  0
  156.0819  134.7936  161.7634 C   0  0  0  0  0  0  0  0  0  0  0  0
  154.3438  140.5448  161.3495 C   0  0  0  0  0  0  0  0  0  0  0  0
  153.7995  141.6605  161.7180 N   0  0  0  0  0  0  0  0  0  0  0  0
  150.9956  145.0109  158.6841 H   0  0  0  0  0  0  0  0  0  0  0  0
  152.4446  144.0082  158.7676 H   0  0  0  0  0  0  0  0  0  0  0  0
  152.3851  145.5610  159.6220 H   0  0  0  0  0  0  0  0  0  0  0  0
  153.0538  144.3363  161.4614 H   0  0  0  0  0  0  0  0  0  0  0  0
  151.8424  143.4417  162.3677 H   0  0  0  0  0  0  0  0  0  0  0  0
  151.8114  142.2364  159.0529 H   0  0  0  0  0  0  0  0  0  0  0  0
  154.5378  138.4045  158.7647 H   0  0  0  0  0  0  0  0  0  0  0  0
  155.8095  138.7795  159.8778 H   0  0  0  0  0  0  0  0  0  0  0  0
  155.4882  138.2478  162.1725 H   0  0  0  0  0  0  0  0  0  0  0  0
  153.7300  135.9180  162.7344 H   0  0  0  0  0  0  0  0  0  0  0  0
  153.5177  137.9142  164.2152 H   0  0  0  0  0  0  0  0  0  0  0  0
  153.9832  136.4551  165.0485 H   0  0  0  0  0  0  0  0  0  0  0  0
  155.8628  138.7265  164.2421 H   0  0  0  0  0  0  0  0  0  0  0  0
  155.3514  138.3291  165.8630 H   0  0  0  0  0  0  0  0  0  0  0  0
  157.6269  137.4449  165.3832 H   0  0  0  0  0  0  0  0  0  0  0  0
  156.5088  136.1605  165.7672 H   0  0  0  0  0  0  0  0  0  0  0  0
  157.3919  136.9902  162.9701 H   0  0  0  0  0  0  0  0  0  0  0  0
  157.9986  134.4184  164.5030 H   0  0  0  0  0  0  0  0  0  0  0  0
  159.1108  135.7716  164.3247 H   0  0  0  0  0  0  0  0  0  0  0  0
  158.6189  134.8621  162.9126 H   0  0  0  0  0  0  0  0  0  0  0  0
  155.5188  134.7479  163.8139 H   0  0  0  0  0  0  0  0  0  0  0  0
  156.5151  135.4640  161.0204 H   0  0  0  0  0  0  0  0  0  0  0  0
  155.1585  134.3899  161.3469 H   0  0  0  0  0  0  0  0  0  0  0  0
  156.7642  133.9536  161.8907 H   0  0  0  0  0  0  0  0  0  0  0  0
  155.0654  140.0085  161.9678 H   0  0  0  0  0  0  0  0  0  0  0  0
  1  2  1  0  0  0  0
  1 23  1  0  0  0  0
  1 24  1  0  0  0  0
  1 25  1  0  0  0  0
  2  3  1  0  0  0  0
  3  4  1  0  0  0  0
  3 26  1  0  0  0  0
  3 27  1  0  0  0  0
  4 22  1  0  0  0  0
  4  5  2  0  0  0  0
  5  6  1  0  0  0  0
  5 28  1  0  0  0  0
  6  7  2  0  0  0  0
  6  8  1  0  0  0  0
  8  9  1  0  0  0  0
  8 21  1  0  0  0  0
  9 10  1  0  0  0  0
  9 29  1  0  0  0  0
  9 30  1  0  0  0  0
 10 11  2  0  0  0  0
 10 12  1  0  0  0  0
 12 13  1  0  0  0  0
 12 31  1  0  0  0  0
 13 19  1  0  0  0  0
 13 14  1  0  0  0  0
 13 32  1  0  0  0  0
 14 15  1  0  0  0  0
 14 33  1  0  0  0  0
 14 34  1  0  0  0  0
 15 16  1  0  0  0  0
 15 35  1  0  0  0  0
 15 36  1  0  0  0  0
 16 17  1  0  0  0  0
 16 37  1  0  0  0  0
 16 38  1  0  0  0  0
 17 18  1  0  0  0  0
 17 19  1  0  0  0  0
 17 39  1  0  0  0  0
 18 40  1  0  0  0  0
 18 41  1  0  0  0  0
 18 42  1  0  0  0  0
 19 20  1  0  0  0  0
 19 43  1  0  0  0  0
 20 44  1  0  0  0  0
 20 45  1  0  0  0  0
 20 46  1  0  0  0  0
 21 22  2  0  0  0  0
 21 47  1  0  0  0  0
M  END
> <s_m_source_file>
AV-unprocessed.smi

> <i_m_source_file_index>
2702

> <i_lp_mmshare_version>
43012

> <i_f3d_flags>
0

> <s_epik_input>
W0NIM11PW0NIMl1jMVtjSF1jKD1PKW4oW2NIXW4xKVtDSDJdQyg9TylbTkhdW0NAQEhdMltDSDJdW0NIMl1bQ0gyXVtDQEBIXShbQ0gzXSlbQ0BIXTJbQ0gzXQ==

> <s_epik_cmdline>
J2VwaWtfcHl0aG9uJywgJy1waCcsICc3LjAnLCAnLXRuJywgJzgnLCAnLW1hJywgJzIwMCcsICctbWV0YWxfYmluZGluZycsICctaW1hZScsICc8aW5maWxlLm1hZT4nLCAnLW9tYWUnLCAnPG91dGZpbGUubWFlPic=

> <r_lp_tautomer_probability>
1

> <r_epik_Ionization_Penalty>
1.22164e-06

> <r_epik_Ionization_Penalty_Charging>
3.17988e-07

> <r_epik_Ionization_Penalty_Neutral>
9.03656e-07

> <r_epik_State_Penalty>
-0

> <r_epik_Charging_Adjusted_Penalty>
3.17988e-07

> <i_epik_Tot_Q>
0

> <i_epik_Tot_abs_Q>
0

> <r_epik_Metal_State_Penalty>
-0

> <b_epik_Metal_Only>
0

> <s_lp_Force_Field>
OPLS_2005

> <r_lp_Energy>
16.9419

> <b_lp_Chiralities_Consistent>
1

> <s_lp_Variant>
AV-unprocessed.smi:2702-5

> <Gold.Version>
5.8.1

> <Gold.Id.Protein>
6NUR|6NUR_protein|mol2

> <Gold.PLP.Fitness>
45.8098

> <Gold.PLP.PLP>
-41.0100

> <Gold.PLP.part.hbond>
-2.0816

> <Gold.PLP.part.metal>
0.0000

> <Gold.PLP.part.buried>
-6.1623

> <Gold.PLP.part.nonpolar>
-32.6162

> <Gold.PLP.part.repulsive>
0.1315

> <Gold.PLP.ligand.clash>
0.0000

> <Gold.PLP.ligand.torsion>
0.6232

> <Gold.PLP.Chemscore.Hbond>
2.0000

> <Gold.PLP.Chemscore.CHOScore>
0.0000

> <Gold.PLP.Chemscore.Metal>
0.0000

> <Gold.Chemscore.Hbonds>
donor molecule, donor type, donor heavy atom, donor atom, acceptor molecule, acceptor atom, score
      P1  H  6896  6909       L1    11  0.60
      P1  H  7997  8008       L1     7  0.89

> <Gold.PLP.Chemscore.Internal.Correction>
0.0462

> <Gold.Rescore>
     Score         DG    S(hbond)    S(metal)    S(lipo)     H(rot)  DE(clash)    DE(int)     intcor
     17.16     -17.79       1.89        0.00      93.47       1.93       0.02       0.61       ----

> <Gold.Chemscore.Fitness>
17.1578

> <Gold.Chemscore.DG>
-17.7901

> <Gold.Chemscore.ZeroCoef>
-5.4800

> <Gold.Chemscore.Hbond>
1.8894

> <Gold.Chemscore.Metal>
0.0000

> <Gold.Chemscore.Lipo>
93.4733

> <Gold.Chemscore.Internal_Hbond>
0.0000

> <Gold.Chemscore.DEClash>
0.0188

> <Gold.Chemscore.DEInternal>
0.6136

> <Gold.Chemscore.Rot>
1.9284

> <Gold.Chemscore.Internal.Correction>
   9.000000E+99

> <Gold.Chemscore.Hbonds>
donor molecule, donor type, donor heavy atom, donor atom, acceptor molecule, acceptor atom, score
      P1  H  6896  6909       L1    11  0.60
      P1  H  7997  8008       L1     7  0.59

> <Gold.Chemscore.Hbond.Weighted>
-6.3105

> <Gold.Chemscore.Metal.Weighted>
-0.0000

> <Gold.Chemscore.Lipo.Weighted>
-10.9364

> <Gold.Chemscore.Internal_Hbond.Weighted>
0.0000

> <Gold.Chemscore.DEClash.Weighted>
0.0188

> <Gold.Chemscore.DEInternal.Weighted>
0.6136

> <Gold.Chemscore.Rot.Weighted>
4.9368

> <Gold.Chemscore.Internal.Correction.Weighted>
   9.000000E+99

> <Gold.Protein.RotatedTorsions>
[ 6907 6896 6895 6894 ] final  148.36 input  -60.11 | X-H torsion
[ 7974 7965 7964 7962 ] final  -92.89 input  175.53 | X-H torsion
[ 8008 7997 7996 7995 ] final  -76.89 input   59.86 | X-H torsion
[ 10167 10162 10161 10158 ] final   41.89 input  -65.29 | X-H torsion
[ 10718 10713 10712 10709 ] final   77.09 input   66.30 | X-H torsion
[ 10763 10752 10751 10750 ] final -119.02 input  -60.55 | X-H torsion
[ 11005 11000 10999 10996 ] final   24.97 input  -57.11 | X-H torsion

> <Gold.Protein.ActiveResidues>
 VAL166  LYS551  ARG553  GLY616  TRP617  ASP618  TYR619  PRO620  LYS621  CYS622 
 ASP623  PHE694  ASN695  SER759  ASP760  ASP761  ALA762  ILE779  LEU786  VAL792 
 PHE793  MET794  SER795  GLU796  ALA797  LYS798  CYS799  TRP800  GLU811  SER814 

> <Gold.Protein.RotatedAtoms>
  152.1425  133.4472  159.4773 H   0  0  0  0  0  0  0  0  0  0  0  0  # atno 6907 bound_to 6896
  150.6887  134.2288  159.4435 H   0  0  0  0  0  0  0  0  0  0  0  0  # atno 6908 bound_to 6896
  152.0179  134.9839  160.0620 H   0  0  0  0  0  0  0  0  0  0  0  0  # atno 6909 bound_to 6896
  145.3938  140.9531  143.2325 H   0  0  0  0  0  0  0  0  0  0  0  0  # atno 7974 bound_to 7965
  154.5546  140.0719  156.8723 H   0  0  0  0  0  0  0  0  0  0  0  0  # atno 8008 bound_to 7997
  155.2926  140.3379  155.4233 H   0  0  0  0  0  0  0  0  0  0  0  0  # atno 8009 bound_to 7997
  156.1991  140.1715  156.7922 H   0  0  0  0  0  0  0  0  0  0  0  0  # atno 8010 bound_to 7997
  140.3598  144.2243  150.6139 H   0  0  0  0  0  0  0  0  0  0  0  0  # atno 10167 bound_to 10162
  157.6698  130.9805  150.1592 H   0  0  0  0  0  0  0  0  0  0  0  0  # atno 10718 bound_to 10713
  154.8605  135.4253  154.2231 H   0  0  0  0  0  0  0  0  0  0  0  0  # atno 10763 bound_to 10752
  153.3232  135.6983  153.7018 H   0  0  0  0  0  0  0  0  0  0  0  0  # atno 10764 bound_to 10752
  153.6064  135.3527  155.2937 H   0  0  0  0  0  0  0  0  0  0  0  0  # atno 10765 bound_to 10752
  140.3529  134.2209  155.7678 H   0  0  0  0  0  0  0  0  0  0  0  0  # atno 11005 bound_to 11000
  144.8421  139.5455  143.6895 LP  0  0  0  0  0  0  0  0  0  0  0  0  # atno 17320 bound_to 7965
  146.2785  139.6814  142.9246 LP  0  0  0  0  0  0  0  0  0  0  0  0  # atno 17321 bound_to 7965
  140.5138  143.2283  151.8494 LP  0  0  0  0  0  0  0  0  0  0  0  0  # atno 17342 bound_to 10162
  139.4815  144.4918  151.9175 LP  0  0  0  0  0  0  0  0  0  0  0  0  # atno 17343 bound_to 10162
  156.2372  130.3687  149.8377 LP  0  0  0  0  0  0  0  0  0  0  0  0  # atno 17370 bound_to 10713
  156.6188  130.8617  151.3471 LP  0  0  0  0  0  0  0  0  0  0  0  0  # atno 17371 bound_to 10713
  141.2007  133.7981  157.0478 LP  0  0  0  0  0  0  0  0  0  0  0  0  # atno 17394 bound_to 11000
  140.0688  134.9714  157.1432 LP  0  0  0  0  0  0  0  0  0  0  0  0  # atno 17395 bound_to 11000

$$$$
