AV-unprocessed.smi:2933|AV-procd|sdf|11253|dock1
  -GOLD-   2272016143D 1   1.00000     0.00000
 Structure written by MMmdl.
 49 51  0  0  0  0  0  0  0  0  1 V2000
  151.3492  137.9917  154.2974 C   0  0  0  0  0  0  0  0  0  0  0  0
  150.6831  139.2531  154.8183 C   0  0  0  0  0  0  0  0  0  0  0  0
  151.4010  139.9558  155.7206 N   0  0  0  0  0  0  0  0  0  0  0  0
  150.8860  141.0975  156.2381 C   0  0  0  0  0  0  0  0  0  0  0  0
  151.6556  141.8077  157.1858 N   0  0  0  0  0  0  0  0  0  0  0  0
  151.2859  143.1940  157.4675 C   0  0  0  0  0  0  0  0  0  0  0  0
  152.3902  143.8904  158.2801 C   0  0  0  0  0  0  0  0  0  0  0  0
  152.6569  143.1433  159.4620 O   0  0  0  0  0  0  0  0  0  0  0  0
  153.1263  141.8328  159.1633 C   0  0  0  0  0  0  0  0  0  0  0  0
  152.0534  141.0597  158.3763 C   0  0  0  0  0  0  0  0  0  0  0  0
  149.6108  141.5706  155.8513 C   0  0  0  0  0  0  0  0  0  0  0  0
  148.8605  140.8394  154.9116 C   0  0  0  0  0  0  0  0  0  0  0  0
  149.3949  139.6413  154.3830 C   0  0  0  0  0  0  0  0  0  0  0  0
  148.7195  138.8412  153.4197 N   0  0  0  0  0  0  0  0  0  0  0  0
  147.4125  138.8372  153.1081 C   0  0  0  0  0  0  0  0  0  0  0  0
  146.5633  139.5835  153.5950 O   0  0  0  0  0  0  0  0  0  0  0  0
  147.1366  137.8881  152.2017 N   0  0  0  0  0  0  0  0  0  0  0  0
  145.8140  137.5810  151.6632 C   0  0  1  0  0  0  0  0  0  0  0  0
  145.8578  137.6813  150.1322 C   0  0  0  0  0  0  0  0  0  0  0  0
  145.3643  136.1963  152.1340 C   0  0  0  0  0  0  0  0  0  0  0  0
  145.9299  134.9353  151.4622 C   0  0  0  0  0  0  0  0  0  0  0  0
  144.5711  134.2641  151.6807 C   0  0  0  0  0  0  0  0  0  0  0  0
  143.9672  135.6677  151.7718 C   0  0  0  0  0  0  0  0  0  0  0  0
  150.7233  137.1217  154.4977 H   0  0  0  0  0  0  0  0  0  0  0  0
  152.3176  137.8244  154.7711 H   0  0  0  0  0  0  0  0  0  0  0  0
  151.5081  138.0633  153.2212 H   0  0  0  0  0  0  0  0  0  0  0  0
  151.1263  143.7402  156.5368 H   0  0  0  0  0  0  0  0  0  0  0  0
  150.3468  143.2115  158.0222 H   0  0  0  0  0  0  0  0  0  0  0  0
  153.3015  143.9954  157.6888 H   0  0  0  0  0  0  0  0  0  0  0  0
  152.0740  144.8959  158.5578 H   0  0  0  0  0  0  0  0  0  0  0  0
  154.0580  141.8890  158.5978 H   0  0  0  0  0  0  0  0  0  0  0  0
  153.3519  141.3159  160.0960 H   0  0  0  0  0  0  0  0  0  0  0  0
  151.1738  140.9016  159.0013 H   0  0  0  0  0  0  0  0  0  0  0  0
  152.4442  140.0750  158.1250 H   0  0  0  0  0  0  0  0  0  0  0  0
  149.1928  142.4734  156.2710 H   0  0  0  0  0  0  0  0  0  0  0  0
  147.8957  141.2165  154.6098 H   0  0  0  0  0  0  0  0  0  0  0  0
  149.2787  138.1189  152.9902 H   0  0  0  0  0  0  0  0  0  0  0  0
  147.9014  137.3213  151.8660 H   0  0  0  0  0  0  0  0  0  0  0  0
  145.1008  138.3293  152.0138 H   0  0  0  0  0  0  0  0  0  0  0  0
  144.8733  137.5044  149.6985 H   0  0  0  0  0  0  0  0  0  0  0  0
  146.5448  136.9499  149.7051 H   0  0  0  0  0  0  0  0  0  0  0  0
  146.1833  138.6716  149.8120 H   0  0  0  0  0  0  0  0  0  0  0  0
  145.4996  136.0965  153.2136 H   0  0  0  0  0  0  0  0  0  0  0  0
  146.1597  135.0845  150.4059 H   0  0  0  0  0  0  0  0  0  0  0  0
  146.7612  134.4698  151.9926 H   0  0  0  0  0  0  0  0  0  0  0  0
  144.2153  133.6671  150.8407 H   0  0  0  0  0  0  0  0  0  0  0  0
  144.5150  133.7164  152.6229 H   0  0  0  0  0  0  0  0  0  0  0  0
  143.2166  135.7948  152.5523 H   0  0  0  0  0  0  0  0  0  0  0  0
  143.6107  136.0345  150.8076 H   0  0  0  0  0  0  0  0  0  0  0  0
  1  2  1  0  0  0  0
  1 24  1  0  0  0  0
  1 25  1  0  0  0  0
  1 26  1  0  0  0  0
  2 13  1  0  0  0  0
  2  3  2  0  0  0  0
  3  4  1  0  0  0  0
  4  5  1  0  0  0  0
  4 11  2  0  0  0  0
  5 10  1  0  0  0  0
  5  6  1  0  0  0  0
  6  7  1  0  0  0  0
  6 27  1  0  0  0  0
  6 28  1  0  0  0  0
  7  8  1  0  0  0  0
  7 29  1  0  0  0  0
  7 30  1  0  0  0  0
  8  9  1  0  0  0  0
  9 10  1  0  0  0  0
  9 31  1  0  0  0  0
  9 32  1  0  0  0  0
 10 33  1  0  0  0  0
 10 34  1  0  0  0  0
 11 12  1  0  0  0  0
 11 35  1  0  0  0  0
 12 13  2  0  0  0  0
 12 36  1  0  0  0  0
 13 14  1  0  0  0  0
 14 15  1  0  0  0  0
 14 37  1  0  0  0  0
 15 16  2  0  0  0  0
 15 17  1  0  0  0  0
 17 18  1  0  0  0  0
 17 38  1  0  0  0  0
 18 19  1  0  0  0  0
 18 20  1  0  0  0  0
 18 39  1  0  0  0  0
 19 40  1  0  0  0  0
 19 41  1  0  0  0  0
 19 42  1  0  0  0  0
 20 23  1  0  0  0  0
 20 21  1  0  0  0  0
 20 43  1  0  0  0  0
 21 22  1  0  0  0  0
 21 44  1  0  0  0  0
 21 45  1  0  0  0  0
 22 23  1  0  0  0  0
 22 46  1  0  0  0  0
 22 47  1  0  0  0  0
 23 48  1  0  0  0  0
 23 49  1  0  0  0  0
M  END
> <s_m_source_file>
AV-unprocessed.smi

> <i_m_source_file_index>
2933

> <i_lp_mmshare_version>
43012

> <i_f3d_flags>
0

> <s_epik_input>
W0NIMl0xW0NIMl1PW0NIMl1bQ0gyXU4xYyhuYzJbQ0gzXSlbY0hdW2NIXWMyW05IXUMoPU8pW05IXVtDQEhdKFtDSDNdKVtDSF0zW0NIMl1bQ0gyXVtDSDJdMw==

> <s_epik_cmdline>
J2VwaWtfcHl0aG9uJywgJy1waCcsICc3LjAnLCAnLXRuJywgJzgnLCAnLW1hJywgJzIwMCcsICctbWV0YWxfYmluZGluZycsICctaW1hZScsICc8aW5maWxlLm1hZT4nLCAnLW9tYWUnLCAnPG91dGZpbGUubWFlPic=

> <r_lp_tautomer_probability>
1

> <r_epik_Ionization_Penalty>
0.00789884

> <r_epik_Ionization_Penalty_Charging>
0

> <r_epik_Ionization_Penalty_Neutral>
0.00789884

> <r_epik_State_Penalty>
0.00589145

> <r_epik_Charging_Adjusted_Penalty>
0.00589145

> <i_epik_Tot_Q>
0

> <i_epik_Tot_abs_Q>
0

> <r_epik_Metal_State_Penalty>
-0

> <b_epik_Metal_Only>
0

> <s_lp_Force_Field>
OPLS_2005

> <r_lp_Energy>
30.6508

> <b_lp_Chiralities_Consistent>
1

> <s_lp_Variant>
AV-unprocessed.smi:2933-2

> <Gold.Version>
5.8.1

> <Gold.Id.Protein>
6NUR|6NUR_protein|mol2

> <Gold.PLP.Fitness>
44.4255

> <Gold.PLP.PLP>
-40.6907

> <Gold.PLP.part.hbond>
-2.8163

> <Gold.PLP.part.metal>
0.0000

> <Gold.PLP.part.buried>
5.1753

> <Gold.PLP.part.nonpolar>
-44.0315

> <Gold.PLP.part.repulsive>
0.3747

> <Gold.PLP.ligand.clash>
0.0000

> <Gold.PLP.ligand.torsion>
0.4770

> <Gold.PLP.Chemscore.Hbond>
1.4040

> <Gold.PLP.Chemscore.CHOScore>
0.0000

> <Gold.PLP.Chemscore.Metal>
0.0000

> <Gold.Chemscore.Hbonds>
donor molecule, donor type, donor heavy atom, donor atom, acceptor molecule, acceptor atom, score
      L1  H    14    37       P1  7948  0.47
      L1  H    17    38       P1  7948  0.89

> <Gold.PLP.Chemscore.Internal.Correction>
0.4768

> <Gold.Rescore>
     Score         DG    S(hbond)    S(metal)    S(lipo)     H(rot)  DE(clash)    DE(int)     intcor
     16.60     -20.65       1.80        0.00     107.04       1.32       2.48       1.57       ----

> <Gold.Chemscore.Fitness>
16.5955

> <Gold.Chemscore.DG>
-20.6464

> <Gold.Chemscore.ZeroCoef>
-5.4800

> <Gold.Chemscore.Hbond>
1.7997

> <Gold.Chemscore.Metal>
0.0000

> <Gold.Chemscore.Lipo>
107.0406

> <Gold.Chemscore.Internal_Hbond>
0.0000

> <Gold.Chemscore.DEClash>
2.4848

> <Gold.Chemscore.DEInternal>
1.5661

> <Gold.Chemscore.Rot>
1.3157

> <Gold.Chemscore.Internal.Correction>
   9.000000E+99

> <Gold.Chemscore.Hbonds>
donor molecule, donor type, donor heavy atom, donor atom, acceptor molecule, acceptor atom, score
      L1  H    14    37       P1  7948  0.45
      L1  H    17    38       P1  7948  0.85

> <Gold.Chemscore.Hbond.Weighted>
-6.0109

> <Gold.Chemscore.Metal.Weighted>
-0.0000

> <Gold.Chemscore.Lipo.Weighted>
-12.5237

> <Gold.Chemscore.Internal_Hbond.Weighted>
0.0000

> <Gold.Chemscore.DEClash.Weighted>
2.4848

> <Gold.Chemscore.DEInternal.Weighted>
1.5661

> <Gold.Chemscore.Rot.Weighted>
3.3682

> <Gold.Chemscore.Internal.Correction.Weighted>
   9.000000E+99

> <Gold.Protein.RotatedTorsions>
[ 6907 6896 6895 6894 ] final -175.13 input  -60.11 | X-H torsion
[ 7974 7965 7964 7962 ] final   47.35 input  175.53 | X-H torsion
[ 8008 7997 7996 7995 ] final  -85.19 input   59.86 | X-H torsion
[ 10167 10162 10161 10158 ] final   52.47 input  -65.29 | X-H torsion
[ 10718 10713 10712 10709 ] final  165.51 input   66.30 | X-H torsion
[ 10763 10752 10751 10750 ] final  120.82 input  -60.55 | X-H torsion
[ 11005 11000 10999 10996 ] final   18.76 input  -57.11 | X-H torsion

> <Gold.Protein.ActiveResidues>
 VAL166  LYS551  ARG553  GLY616  TRP617  ASP618  TYR619  PRO620  LYS621  CYS622 
 ASP623  PHE694  ASN695  SER759  ASP760  ASP761  ALA762  ILE779  LEU786  VAL792 
 PHE793  MET794  SER795  GLU796  ALA797  LYS798  CYS799  TRP800  GLU811  SER814 

> <Gold.Protein.RotatedAtoms>
  151.5835  133.3375  159.3013 H   0  0  0  0  0  0  0  0  0  0  0  0  # atno 6907 bound_to 6896
  150.8300  134.7552  159.6856 H   0  0  0  0  0  0  0  0  0  0  0  0  # atno 6908 bound_to 6896
  152.4385  134.5646  159.9955 H   0  0  0  0  0  0  0  0  0  0  0  0  # atno 6909 bound_to 6896
  146.0305  139.4758  142.9840 H   0  0  0  0  0  0  0  0  0  0  0  0  # atno 7974 bound_to 7965
  154.6380  140.0595  156.9811 H   0  0  0  0  0  0  0  0  0  0  0  0  # atno 8008 bound_to 7997
  155.1562  140.3278  155.4402 H   0  0  0  0  0  0  0  0  0  0  0  0  # atno 8009 bound_to 7997
  156.2516  140.1939  156.6671 H   0  0  0  0  0  0  0  0  0  0  0  0  # atno 8010 bound_to 7997
  140.2511  144.3478  150.6348 H   0  0  0  0  0  0  0  0  0  0  0  0  # atno 10167 bound_to 10162
  157.0791  131.0387  151.2582 H   0  0  0  0  0  0  0  0  0  0  0  0  # atno 10718 bound_to 10713
  153.6045  135.3442  155.2957 H   0  0  0  0  0  0  0  0  0  0  0  0  # atno 10763 bound_to 10752
  154.8630  135.4235  154.2377 H   0  0  0  0  0  0  0  0  0  0  0  0  # atno 10764 bound_to 10752
  153.3213  135.7038  153.7100 H   0  0  0  0  0  0  0  0  0  0  0  0  # atno 10765 bound_to 10752
  140.4213  134.1516  155.7673 H   0  0  0  0  0  0  0  0  0  0  0  0  # atno 11005 bound_to 11000
  145.7048  141.0125  143.1485 LP  0  0  0  0  0  0  0  0  0  0  0  0  # atno 17320 bound_to 7965
  144.7028  139.8687  143.7439 LP  0  0  0  0  0  0  0  0  0  0  0  0  # atno 17321 bound_to 7965
  140.6040  143.2167  151.7017 LP  0  0  0  0  0  0  0  0  0  0  0  0  # atno 17342 bound_to 10162
  139.5046  144.3748  152.0435 LP  0  0  0  0  0  0  0  0  0  0  0  0  # atno 17343 bound_to 10162
  157.4815  130.7768  149.7419 LP  0  0  0  0  0  0  0  0  0  0  0  0  # atno 17370 bound_to 10713
  155.9929  130.3928  150.2924 LP  0  0  0  0  0  0  0  0  0  0  0  0  # atno 17371 bound_to 10713
  141.1783  133.8468  157.1346 LP  0  0  0  0  0  0  0  0  0  0  0  0  # atno 17394 bound_to 11000
  140.0198  134.9951  157.0569 LP  0  0  0  0  0  0  0  0  0  0  0  0  # atno 17395 bound_to 11000

$$$$
