AV-unprocessed.smi:1205|AV-procd|sdf|5045|dock5
  -GOLD-   22720 4 73D 1   1.00000     0.00000
 Structure written by MMmdl.
 49 50  0  0  0  0  0  0  0  0  2 V2000
  151.6209  145.7664  159.8514 C   0  0  0  0  0  0  0  0  0  0  0  0
  151.3915  144.5566  158.9940 C   0  0  0  0  0  0  0  0  0  0  0  0
  151.0185  144.5127  157.6192 C   0  0  0  0  0  0  0  0  0  0  0  0
  150.9562  143.1695  157.3670 C   0  0  0  0  0  0  0  0  0  0  0  0
  150.6517  142.5310  156.2058 N   0  0  0  0  0  0  0  0  0  0  0  0
  149.8897  141.4387  156.0230 C   0  0  0  0  0  0  0  0  0  0  0  0
  149.3170  140.8072  156.9114 O   0  0  0  0  0  0  0  0  0  0  0  0
  149.8297  141.1007  154.7271 N   0  0  0  0  0  0  0  0  0  0  0  0
  149.0907  139.9593  154.1966 C   0  0  0  0  0  0  0  0  0  0  0  0
  149.5334  138.6169  154.8340 C   0  0  2  0  0  0  0  0  0  0  0  0
  150.9972  138.2612  154.5103 C   0  0  0  0  0  0  0  0  0  0  0  0
  148.6280  137.4794  154.4973 N   0  3  2  0  0  0  0  0  0  0  0  0
  147.1767  137.7354  154.7058 C   0  0  0  0  0  0  0  0  0  0  0  0
  146.3339  136.6006  154.1032 C   0  0  0  0  0  0  0  0  0  0  0  0
  146.7403  135.2445  154.6951 C   0  0  0  0  0  0  0  0  0  0  0  0
  148.2493  135.0089  154.5082 C   0  0  2  0  0  0  0  0  0  0  0  0
  148.6871  133.6686  155.1148 C   0  0  0  0  0  0  0  0  0  0  0  0
  149.0513  136.1863  155.0989 C   0  0  0  0  0  0  0  0  0  0  0  0
  151.2743  142.4849  158.5190 N   0  0  0  0  0  0  0  0  0  0  0  0
  151.3518  141.0557  158.7515 C   0  0  0  0  0  0  0  0  0  0  0  0
  151.5425  143.3474  159.5230 N   0  0  0  0  0  0  0  0  0  0  0  0
  151.4455  146.6852  159.2915 H   0  0  0  0  0  0  0  0  0  0  0  0
  152.6453  145.7951  160.2233 H   0  0  0  0  0  0  0  0  0  0  0  0
  150.9522  145.7704  160.7124 H   0  0  0  0  0  0  0  0  0  0  0  0
  150.8362  145.3398  156.9498 H   0  0  0  0  0  0  0  0  0  0  0  0
  151.0670  142.9289  155.3764 H   0  0  0  0  0  0  0  0  0  0  0  0
  150.3273  141.6736  154.0608 H   0  0  0  0  0  0  0  0  0  0  0  0
  148.0225  140.1284  154.3386 H   0  0  0  0  0  0  0  0  0  0  0  0
  149.2605  139.9453  153.1202 H   0  0  0  0  0  0  0  0  0  0  0  0
  149.4940  138.7305  155.9183 H   0  0  0  0  0  0  0  0  0  0  0  0
  151.6837  139.0053  154.9148 H   0  0  0  0  0  0  0  0  0  0  0  0
  151.1769  138.2051  153.4370 H   0  0  0  0  0  0  0  0  0  0  0  0
  151.2729  137.3007  154.9467 H   0  0  0  0  0  0  0  0  0  0  0  0
  146.9598  137.8210  155.7713 H   0  0  0  0  0  0  0  0  0  0  0  0
  146.8844  138.6777  154.2438 H   0  0  0  0  0  0  0  0  0  0  0  0
  145.2752  136.7845  154.2874 H   0  0  0  0  0  0  0  0  0  0  0  0
  146.4618  136.5826  153.0201 H   0  0  0  0  0  0  0  0  0  0  0  0
  146.4881  135.2184  155.7563 H   0  0  0  0  0  0  0  0  0  0  0  0
  146.1696  134.4460  154.2195 H   0  0  0  0  0  0  0  0  0  0  0  0
  148.4540  134.9658  153.4372 H   0  0  0  0  0  0  0  0  0  0  0  0
  148.5038  133.6403  156.1895 H   0  0  0  0  0  0  0  0  0  0  0  0
  149.7511  133.4928  154.9538 H   0  0  0  0  0  0  0  0  0  0  0  0
  148.1446  132.8377  154.6626 H   0  0  0  0  0  0  0  0  0  0  0  0
  150.1137  136.0243  154.9116 H   0  0  0  0  0  0  0  0  0  0  0  0
  148.9228  136.2215  156.1816 H   0  0  0  0  0  0  0  0  0  0  0  0
  150.4688  140.5663  158.3401 H   0  0  0  0  0  0  0  0  0  0  0  0
  151.4039  140.8440  159.8204 H   0  0  0  0  0  0  0  0  0  0  0  0
  152.2420  140.6546  158.2665 H   0  0  0  0  0  0  0  0  0  0  0  0
  148.7406  137.3488  153.5021 H   0  0  0  0  0  0  0  0  0  0  0  0
  1  2  1  0  0  0  0
  1 22  1  0  0  0  0
  1 23  1  0  0  0  0
  1 24  1  0  0  0  0
  2 21  2  0  0  0  0
  2  3  1  0  0  0  0
  3  4  2  0  0  0  0
  3 25  1  0  0  0  0
  4  5  1  0  0  0  0
  4 19  1  0  0  0  0
  5  6  1  0  0  0  0
  5 26  1  0  0  0  0
  6  7  2  0  0  0  0
  6  8  1  0  0  0  0
  8  9  1  0  0  0  0
  8 27  1  0  0  0  0
  9 10  1  0  0  0  0
  9 28  1  0  0  0  0
  9 29  1  0  0  0  0
 10 11  1  0  0  0  0
 10 12  1  0  0  0  0
 10 30  1  0  0  0  0
 11 31  1  0  0  0  0
 11 32  1  0  0  0  0
 11 33  1  0  0  0  0
 12 18  1  0  0  0  0
 12 13  1  0  0  0  0
 12 49  1  0  0  0  0
 13 14  1  0  0  0  0
 13 34  1  0  0  0  0
 13 35  1  0  0  0  0
 14 15  1  0  0  0  0
 14 36  1  0  0  0  0
 14 37  1  0  0  0  0
 15 16  1  0  0  0  0
 15 38  1  0  0  0  0
 15 39  1  0  0  0  0
 16 17  1  0  0  0  0
 16 18  1  0  0  0  0
 16 40  1  0  0  0  0
 17 41  1  0  0  0  0
 17 42  1  0  0  0  0
 17 43  1  0  0  0  0
 18 44  1  0  0  0  0
 18 45  1  0  0  0  0
 19 20  1  0  0  0  0
 19 21  1  0  0  0  0
 20 46  1  0  0  0  0
 20 47  1  0  0  0  0
 20 48  1  0  0  0  0
M  CHG  1  12   1
M  END
> <s_m_source_file>
AV-unprocessed.smi

> <i_m_source_file_index>
1205

> <i_lp_mmshare_version>
43012

> <i_f3d_flags>
0

> <s_epik_input>
W0NIM11jMVtjSF1jKG4objEpW0NIM10pW05IXUMoPU8pW05IXVtDSDJdW0NASF0oW0NIM10pTjJbQ0gyXVtDSDJdW0NIMl1bQ0BASF0oW0NIM10pW0NIMl0y

> <s_epik_cmdline>
J2VwaWtfcHl0aG9uJywgJy1waCcsICc3LjAnLCAnLXRuJywgJzgnLCAnLW1hJywgJzIwMCcsICctbWV0YWxfYmluZGluZycsICctaW1hZScsICc8aW5maWxlLm1hZT4nLCAnLW9tYWUnLCAnPG91dGZpbGUubWFlPic=

> <r_lp_tautomer_probability>
1

> <r_epik_Ionization_Penalty>
0.0020309

> <r_epik_Ionization_Penalty_Charging>
0.00195276

> <r_epik_Ionization_Penalty_Neutral>
7.81448e-05

> <r_epik_State_Penalty>
0.00133177

> <r_epik_Charging_Adjusted_Penalty>
0.00328452

> <i_epik_Tot_Q>
1

> <i_epik_Tot_abs_Q>
1

> <r_epik_Metal_State_Penalty>
-0

> <b_epik_Metal_Only>
0

> <s_lp_Force_Field>
OPLS_2005

> <r_lp_Energy>
21.6269

> <b_lp_Chiralities_Consistent>
1

> <s_lp_Variant>
AV-unprocessed.smi:1205-7

> <Gold.Version>
5.8.1

> <Gold.Id.Protein>
6NUR|6NUR_protein|mol2

> <Gold.PLP.Fitness>
43.2594

> <Gold.PLP.PLP>
-37.9496

> <Gold.PLP.part.hbond>
-1.3871

> <Gold.PLP.part.metal>
0.0000

> <Gold.PLP.part.buried>
-5.7746

> <Gold.PLP.part.nonpolar>
-32.3231

> <Gold.PLP.part.repulsive>
1.3482

> <Gold.PLP.ligand.clash>
0.0000

> <Gold.PLP.ligand.torsion>
0.4144

> <Gold.PLP.Chemscore.Hbond>
2.0000

> <Gold.PLP.Chemscore.CHOScore>
0.0000

> <Gold.PLP.Chemscore.Metal>
0.0000

> <Gold.Chemscore.Hbonds>
donor molecule, donor type, donor heavy atom, donor atom, acceptor molecule, acceptor atom, score
      L1  H    12    49       P1  7948  2.00

> <Gold.PLP.Chemscore.Internal.Correction>
0.1387

> <Gold.Rescore>
     Score         DG    S(hbond)    S(metal)    S(lipo)     H(rot)  DE(clash)    DE(int)     intcor
     11.94     -15.03       0.98        0.00      85.65       1.47       0.44       2.64       ----

> <Gold.Chemscore.Fitness>
11.9430

> <Gold.Chemscore.DG>
-15.0258

> <Gold.Chemscore.ZeroCoef>
-5.4800

> <Gold.Chemscore.Hbond>
0.9811

> <Gold.Chemscore.Metal>
0.0000

> <Gold.Chemscore.Lipo>
85.6532

> <Gold.Chemscore.Internal_Hbond>
0.0000

> <Gold.Chemscore.DEClash>
0.4400

> <Gold.Chemscore.DEInternal>
2.6428

> <Gold.Chemscore.Rot>
1.4658

> <Gold.Chemscore.Internal.Correction>
   9.000000E+99

> <Gold.Chemscore.Hbonds>
donor molecule, donor type, donor heavy atom, donor atom, acceptor molecule, acceptor atom, score
      L1  H    12    49       P1  7948  0.95

> <Gold.Chemscore.Hbond.Weighted>
-3.2770

> <Gold.Chemscore.Metal.Weighted>
-0.0000

> <Gold.Chemscore.Lipo.Weighted>
-10.0214

> <Gold.Chemscore.Internal_Hbond.Weighted>
0.0000

> <Gold.Chemscore.DEClash.Weighted>
0.4400

> <Gold.Chemscore.DEInternal.Weighted>
2.6428

> <Gold.Chemscore.Rot.Weighted>
3.7526

> <Gold.Chemscore.Internal.Correction.Weighted>
   9.000000E+99

> <Gold.Protein.RotatedTorsions>
[ 6907 6896 6895 6894 ] final  131.31 input  -60.11 | X-H torsion
[ 7974 7965 7964 7962 ] final  -69.16 input  175.53 | X-H torsion
[ 8008 7997 7996 7995 ] final   48.18 input   59.86 | X-H torsion
[ 10167 10162 10161 10158 ] final  126.90 input  -65.29 | X-H torsion
[ 10718 10713 10712 10709 ] final -116.56 input   66.30 | X-H torsion
[ 10763 10752 10751 10750 ] final   60.99 input  -60.55 | X-H torsion
[ 11005 11000 10999 10996 ] final  -58.21 input  -57.11 | X-H torsion

> <Gold.Protein.ActiveResidues>
 VAL166  LYS551  ARG553  GLY616  TRP617  ASP618  TYR619  PRO620  LYS621  CYS622 
 ASP623  PHE694  ASN695  SER759  ASP760  ASP761  ALA762  ILE779  LEU786  VAL792 
 PHE793  MET794  SER795  GLU796  ALA797  LYS798  CYS799  TRP800  GLU811  SER814 

> <Gold.Protein.RotatedAtoms>
  152.3439  133.6099  159.5895 H   0  0  0  0  0  0  0  0  0  0  0  0  # atno 6907 bound_to 6896
  150.7495  133.9679  159.3545 H   0  0  0  0  0  0  0  0  0  0  0  0  # atno 6908 bound_to 6896
  151.7540  135.0827  160.0386 H   0  0  0  0  0  0  0  0  0  0  0  0  # atno 6909 bound_to 6896
  145.7074  140.9092  143.0699 H   0  0  0  0  0  0  0  0  0  0  0  0  # atno 7974 bound_to 7965
  155.3814  140.3429  155.4247 H   0  0  0  0  0  0  0  0  0  0  0  0  # atno 8008 bound_to 7997
  156.1608  140.1600  156.8648 H   0  0  0  0  0  0  0  0  0  0  0  0  # atno 8009 bound_to 7997
  154.5138  140.0783  156.8024 H   0  0  0  0  0  0  0  0  0  0  0  0  # atno 8010 bound_to 7997
  139.5606  144.6879  151.4053 H   0  0  0  0  0  0  0  0  0  0  0  0  # atno 10167 bound_to 10162
  156.0972  130.6142  150.9051 H   0  0  0  0  0  0  0  0  0  0  0  0  # atno 10718 bound_to 10713
  152.9937  135.5516  154.5962 H   0  0  0  0  0  0  0  0  0  0  0  0  # atno 10763 bound_to 10752
  154.5313  135.2814  155.1179 H   0  0  0  0  0  0  0  0  0  0  0  0  # atno 10764 bound_to 10752
  154.2493  135.6402  153.5287 H   0  0  0  0  0  0  0  0  0  0  0  0  # atno 10765 bound_to 10752
  141.1198  133.6612  156.4886 H   0  0  0  0  0  0  0  0  0  0  0  0  # atno 11005 bound_to 11000
  144.6951  139.9028  143.7459 LP  0  0  0  0  0  0  0  0  0  0  0  0  # atno 17320 bound_to 7965
  146.0744  139.3732  143.0503 LP  0  0  0  0  0  0  0  0  0  0  0  0  # atno 17321 bound_to 7965
  140.6886  143.7916  150.7222 LP  0  0  0  0  0  0  0  0  0  0  0  0  # atno 17342 bound_to 10162
  140.1391  143.4457  152.2205 LP  0  0  0  0  0  0  0  0  0  0  0  0  # atno 17343 bound_to 10162
  157.6135  131.0935  150.8752 LP  0  0  0  0  0  0  0  0  0  0  0  0  # atno 17370 bound_to 10713
  156.8887  130.5205  149.5287 LP  0  0  0  0  0  0  0  0  0  0  0  0  # atno 17371 bound_to 10713
  140.4541  134.6901  157.5054 LP  0  0  0  0  0  0  0  0  0  0  0  0  # atno 17394 bound_to 11000
  140.0146  134.6639  155.9329 LP  0  0  0  0  0  0  0  0  0  0  0  0  # atno 17395 bound_to 11000

$$$$
