AV-unprocessed.smi:1813|AV-procd|sdf|7340|dock3
  -GOLD-   22720 9 03D 1   1.00000     0.00000
 Structure written by MMmdl.
 39 40  0  0  0  0  0  0  0  0  1 V2000
  142.5401  137.0829  152.8443 C   0  0  0  0  0  0  0  0  0  0  0  0
  143.7952  137.6734  152.4066 N   0  0  0  0  0  0  0  0  0  0  0  0
  144.9844  137.4247  152.9737 C   0  0  0  0  0  0  0  0  0  0  0  0
  145.1324  136.6611  153.9278 O   0  0  0  0  0  0  0  0  0  0  0  0
  146.1982  138.1405  152.3691 C   0  0  0  0  0  0  0  0  0  0  0  0
  146.8514  139.1120  153.2757 N   0  0  0  0  0  0  0  0  0  0  0  0
  147.1032  140.3584  152.5445 C   0  0  0  0  0  0  0  0  0  0  0  0
  147.6656  141.4379  153.4851 C   0  0  0  0  0  0  0  0  0  0  0  0
  148.9636  140.9633  154.1574 C   0  0  0  0  0  0  0  0  0  0  0  0
  149.4263  141.9360  155.1425 N   0  0  0  0  0  0  0  0  0  0  0  0
  150.3808  141.7135  156.0578 C   0  0  0  0  0  0  0  0  0  0  0  0
  150.9786  140.6425  156.1692 O   0  0  0  0  0  0  0  0  0  0  0  0
  150.5882  142.8024  156.8186 N   0  0  0  0  0  0  0  0  0  0  0  0
  151.5112  142.9655  157.8849 C   0  0  0  0  0  0  0  0  0  0  0  0
  152.1038  141.9550  158.5321 N   0  0  0  0  0  0  0  0  0  0  0  0
  152.9634  142.4076  159.5362 C   0  0  0  0  0  0  0  0  0  0  0  0
  153.0141  143.7754  159.6400 C   0  0  0  0  0  0  0  0  0  0  0  0
  151.9787  144.5542  158.4735 S   0  0  0  0  0  0  0  0  0  0  0  0
  148.7052  139.6113  154.8368 C   0  0  0  0  0  0  0  0  0  0  0  0
  148.1034  138.5960  153.8490 C   0  0  0  0  0  0  0  0  0  0  0  0
  141.7302  137.4020  152.1880 H   0  0  0  0  0  0  0  0  0  0  0  0
  142.2995  137.3966  153.8608 H   0  0  0  0  0  0  0  0  0  0  0  0
  142.5909  135.9936  152.8182 H   0  0  0  0  0  0  0  0  0  0  0  0
  143.7594  138.3109  151.6244 H   0  0  0  0  0  0  0  0  0  0  0  0
  146.9300  137.4048  152.0293 H   0  0  0  0  0  0  0  0  0  0  0  0
  145.8469  138.6594  151.4760 H   0  0  0  0  0  0  0  0  0  0  0  0
  147.7937  140.1823  151.7176 H   0  0  0  0  0  0  0  0  0  0  0  0
  146.1732  140.7250  152.1080 H   0  0  0  0  0  0  0  0  0  0  0  0
  147.8464  142.3548  152.9231 H   0  0  0  0  0  0  0  0  0  0  0  0
  146.9199  141.6823  154.2434 H   0  0  0  0  0  0  0  0  0  0  0  0
  149.7333  140.8243  153.3956 H   0  0  0  0  0  0  0  0  0  0  0  0
  148.9900  142.8461  155.1207 H   0  0  0  0  0  0  0  0  0  0  0  0
  150.0186  143.6094  156.6115 H   0  0  0  0  0  0  0  0  0  0  0  0
  153.5020  141.6846  160.1310 H   0  0  0  0  0  0  0  0  0  0  0  0
  153.5959  144.3693  160.3292 H   0  0  0  0  0  0  0  0  0  0  0  0
  149.6349  139.2167  155.2484 H   0  0  0  0  0  0  0  0  0  0  0  0
  148.0240  139.7406  155.6796 H   0  0  0  0  0  0  0  0  0  0  0  0
  147.9306  137.6651  154.3887 H   0  0  0  0  0  0  0  0  0  0  0  0
  148.8170  138.3723  153.0540 H   0  0  0  0  0  0  0  0  0  0  0  0
  1  2  1  0  0  0  0
  1 21  1  0  0  0  0
  1 22  1  0  0  0  0
  1 23  1  0  0  0  0
  2  3  1  0  0  0  0
  2 24  1  0  0  0  0
  3  4  2  0  0  0  0
  3  5  1  0  0  0  0
  5  6  1  0  0  0  0
  5 25  1  0  0  0  0
  5 26  1  0  0  0  0
  6 20  1  0  0  0  0
  6  7  1  0  0  0  0
  7  8  1  0  0  0  0
  7 27  1  0  0  0  0
  7 28  1  0  0  0  0
  8  9  1  0  0  0  0
  8 29  1  0  0  0  0
  8 30  1  0  0  0  0
  9 10  1  0  0  0  0
  9 19  1  0  0  0  0
  9 31  1  0  0  0  0
 10 11  1  0  0  0  0
 10 32  1  0  0  0  0
 11 12  2  0  0  0  0
 11 13  1  0  0  0  0
 13 14  1  0  0  0  0
 13 33  1  0  0  0  0
 14 18  1  0  0  0  0
 14 15  2  0  0  0  0
 15 16  1  0  0  0  0
 16 17  2  0  0  0  0
 16 34  1  0  0  0  0
 17 18  1  0  0  0  0
 17 35  1  0  0  0  0
 19 20  1  0  0  0  0
 19 36  1  0  0  0  0
 19 37  1  0  0  0  0
 20 38  1  0  0  0  0
 20 39  1  0  0  0  0
M  END
> <s_m_source_file>
AV-unprocessed.smi

> <i_m_source_file_index>
1813

> <i_lp_mmshare_version>
43012

> <i_f3d_flags>
0

> <s_epik_input>
W0NIM11bTkhdQyg9TylbQ0gyXU4xW0NIMl1bQ0gyXVtDSF0oW0NIMl1bQ0gyXTEpW05IXUMoPU8pW05IXWMybltjSF1bY0hdczI=

> <s_epik_cmdline>
J2VwaWtfcHl0aG9uJywgJy1waCcsICc3LjAnLCAnLXRuJywgJzgnLCAnLW1hJywgJzIwMCcsICctbWV0YWxfYmluZGluZycsICctaW1hZScsICc8aW5maWxlLm1hZT4nLCAnLW9tYWUnLCAnPG91dGZpbGUubWFlPic=

> <r_lp_tautomer_probability>
0.999

> <r_epik_Ionization_Penalty>
0.157547

> <r_epik_Ionization_Penalty_Charging>
0

> <r_epik_Ionization_Penalty_Neutral>
0.157547

> <r_epik_State_Penalty>
0.146692

> <r_epik_Charging_Adjusted_Penalty>
0.146692

> <i_epik_Tot_Q>
0

> <i_epik_Tot_abs_Q>
0

> <r_epik_Metal_State_Penalty>
0.184536

> <b_epik_Metal_Only>
0

> <s_lp_Force_Field>
OPLS_2005

> <r_lp_Energy>
12.1503

> <b_lp_Chiralities_Consistent>
1

> <s_lp_Variant>
AV-unprocessed.smi:1813-1

> <Gold.Version>
5.8.1

> <Gold.Id.Protein>
6NUR|6NUR_protein|mol2

> <Gold.PLP.Fitness>
45.5192

> <Gold.PLP.PLP>
-38.2756

> <Gold.PLP.part.hbond>
-4.0000

> <Gold.PLP.part.metal>
0.0000

> <Gold.PLP.part.buried>
-3.8521

> <Gold.PLP.part.nonpolar>
-30.6537

> <Gold.PLP.part.repulsive>
0.6052

> <Gold.PLP.ligand.clash>
0.0000

> <Gold.PLP.ligand.torsion>
0.8815

> <Gold.PLP.Chemscore.Hbond>
3.0000

> <Gold.PLP.Chemscore.CHOScore>
0.0000

> <Gold.PLP.Chemscore.Metal>
0.0000

> <Gold.Chemscore.Hbonds>
donor molecule, donor type, donor heavy atom, donor atom, acceptor molecule, acceptor atom, score
      L1  H     2    24       P1 10171  1.00
      L1  H    10    32       P1  8028  1.00
      L1  H    13    33       P1  8028  1.00

> <Gold.PLP.Chemscore.Internal.Correction>
0.0066

> <Gold.Rescore>
     Score         DG    S(hbond)    S(metal)    S(lipo)     H(rot)  DE(clash)    DE(int)     intcor
     16.87     -20.39       2.84        0.00      84.99       1.76       0.19       3.33       ----

> <Gold.Chemscore.Fitness>
16.8709

> <Gold.Chemscore.DG>
-20.3888

> <Gold.Chemscore.ZeroCoef>
-5.4800

> <Gold.Chemscore.Hbond>
2.8364

> <Gold.Chemscore.Metal>
0.0000

> <Gold.Chemscore.Lipo>
84.9857

> <Gold.Chemscore.Internal_Hbond>
0.0000

> <Gold.Chemscore.DEClash>
0.1898

> <Gold.Chemscore.DEInternal>
3.3282

> <Gold.Chemscore.Rot>
1.7610

> <Gold.Chemscore.Internal.Correction>
   9.000000E+99

> <Gold.Chemscore.Hbonds>
donor molecule, donor type, donor heavy atom, donor atom, acceptor molecule, acceptor atom, score
      L1  H     2    24       P1 10171  0.89
      L1  H    10    32       P1  8028  0.96
      L1  H    13    33       P1  8028  0.99

> <Gold.Chemscore.Hbond.Weighted>
-9.4737

> <Gold.Chemscore.Metal.Weighted>
-0.0000

> <Gold.Chemscore.Lipo.Weighted>
-9.9433

> <Gold.Chemscore.Internal_Hbond.Weighted>
0.0000

> <Gold.Chemscore.DEClash.Weighted>
0.1898

> <Gold.Chemscore.DEInternal.Weighted>
3.3282

> <Gold.Chemscore.Rot.Weighted>
4.5082

> <Gold.Chemscore.Internal.Correction.Weighted>
   9.000000E+99

> <Gold.Protein.RotatedTorsions>
[ 6907 6896 6895 6894 ] final   23.79 input  -60.11 | X-H torsion
[ 7974 7965 7964 7962 ] final  -10.30 input  175.53 | X-H torsion
[ 8008 7997 7996 7995 ] final   10.67 input   59.86 | X-H torsion
[ 10167 10162 10161 10158 ] final  -33.43 input  -65.29 | X-H torsion
[ 10718 10713 10712 10709 ] final    6.44 input   66.30 | X-H torsion
[ 10763 10752 10751 10750 ] final   98.75 input  -60.55 | X-H torsion
[ 11005 11000 10999 10996 ] final   91.89 input  -57.11 | X-H torsion

> <Gold.Protein.ActiveResidues>
 VAL166  LYS551  ARG553  GLY616  TRP617  ASP618  TYR619  PRO620  LYS621  CYS622 
 ASP623  PHE694  ASN695  SER759  ASP760  ASP761  ALA762  ILE779  LEU786  VAL792 
 PHE793  MET794  SER795  GLU796  ALA797  LYS798  CYS799  TRP800  GLU811  SER814 

> <Gold.Protein.RotatedAtoms>
  151.9477  135.0184  160.0539 H   0  0  0  0  0  0  0  0  0  0  0  0  # atno 6907 bound_to 6896
  152.1981  133.4816  159.5052 H   0  0  0  0  0  0  0  0  0  0  0  0  # atno 6908 bound_to 6896
  150.6949  134.1543  159.4195 H   0  0  0  0  0  0  0  0  0  0  0  0  # atno 6909 bound_to 6896
  146.2225  140.2744  142.8358 H   0  0  0  0  0  0  0  0  0  0  0  0  # atno 7974 bound_to 7965
  154.7965  140.2844  155.5953 H   0  0  0  0  0  0  0  0  0  0  0  0  # atno 8008 bound_to 7997
  156.2971  140.2595  156.2753 H   0  0  0  0  0  0  0  0  0  0  0  0  # atno 8009 bound_to 7997
  154.9609  140.0377  157.2179 H   0  0  0  0  0  0  0  0  0  0  0  0  # atno 8010 bound_to 7997
  140.7204  143.3621  151.1943 H   0  0  0  0  0  0  0  0  0  0  0  0  # atno 10167 bound_to 10162
  156.9222  130.5795  149.5648 H   0  0  0  0  0  0  0  0  0  0  0  0  # atno 10718 bound_to 10713
  153.2929  135.4137  155.1183 H   0  0  0  0  0  0  0  0  0  0  0  0  # atno 10763 bound_to 10752
  154.8526  135.3522  154.5957 H   0  0  0  0  0  0  0  0  0  0  0  0  # atno 10764 bound_to 10752
  153.6380  135.7058  153.5310 H   0  0  0  0  0  0  0  0  0  0  0  0  # atno 10765 bound_to 10752
  139.8831  134.8701  156.3494 H   0  0  0  0  0  0  0  0  0  0  0  0  # atno 11005 bound_to 11000
  144.9244  140.7905  143.5728 LP  0  0  0  0  0  0  0  0  0  0  0  0  # atno 17320 bound_to 7965
  145.2682  139.1965  143.4855 LP  0  0  0  0  0  0  0  0  0  0  0  0  # atno 17321 bound_to 7965
  139.7175  143.9277  152.2972 LP  0  0  0  0  0  0  0  0  0  0  0  0  # atno 17342 bound_to 10162
  139.9023  144.6905  150.8652 LP  0  0  0  0  0  0  0  0  0  0  0  0  # atno 17343 bound_to 10162
  156.0486  130.5558  150.8937 LP  0  0  0  0  0  0  0  0  0  0  0  0  # atno 17370 bound_to 10713
  157.5900  131.0944  150.9133 LP  0  0  0  0  0  0  0  0  0  0  0  0  # atno 17371 bound_to 10713
  140.9605  133.7392  156.0394 LP  0  0  0  0  0  0  0  0  0  0  0  0  # atno 17394 bound_to 11000
  140.7996  134.3524  157.5443 LP  0  0  0  0  0  0  0  0  0  0  0  0  # atno 17395 bound_to 11000

$$$$
