#       Name:                AV-unprocessed.smi:3056
#       Creating user name   scv26
#       Creation time:       Fri Mar 27 17:04:15 2020


#       File generated by GOLD software.
#

@<TRIPOS>MOLECULE
AV-unprocessed.smi:3056
    53    54     1
SMALL
NO_CHARGES


@<TRIPOS>ATOM
      1 ****        -3.2116   0.0755   3.2145 C.3            1 S1                 0.0000
      2 ****        -3.2163  -0.1258   1.7270 C.2            1 S1                 0.0000
      3 ****        -3.4396  -1.3341   1.0087 C.2            1 S1                 0.0000
      4 ****        -3.3563  -1.1751  -0.3019 N.2            1 S1                 0.0000
      5 ****        -3.0933   0.1390  -0.4710 N.pl3          1 S1                 0.0000
      6 ****        -2.8871   0.6644  -1.8164 C.3            1 S1                 0.0000
      7 ****        -3.6766   1.9760  -1.9929 C.3            1 S1                 0.0000
      8 ****        -1.3724   0.8040  -2.1241 C.3            1 S1                 0.0000
      9 ****        -1.1056   1.3498  -3.5402 C.3            1 S1                 0.0000
     10 ****        -0.7014  -0.5105  -1.9612 N.4            1 S1                 1.0000
     11 ****         0.7437  -0.4672  -1.6350 C.3            1 S1                 0.0000
     12 ****         1.0286  -0.2280  -0.1419 C.2            1 S1                 0.0000
     13 ****         0.0806  -0.1740   0.6425 O.2            1 S1                 0.0000
     14 ****         2.3117  -0.0888   0.2690 N.am           1 S1                 0.0000
     15 ****         3.5074  -0.2199  -0.5701 C.3            1 S1                 0.0000
     16 ****         4.3378  -1.4075  -0.0522 C.3            1 S1                 0.0000
     17 ****         4.6659  -1.2032   1.3196 O.3            1 S1                 0.0000
     18 ****         3.5211  -1.0611   2.1583 C.3            1 S1                 0.0000
     19 ****         4.0032  -0.8797   3.6016 C.3            1 S1                 0.0000
     20 ****         2.6850   0.1381   1.6685 C.3            1 S1                 0.0000
     21 ****        -2.9959   0.7935   0.7412 C.2            1 S1                 0.0000
     22 ****        -3.7768  -0.7013   3.7299 H              1 S1                 0.0000
     23 ****        -3.6526   1.0323   3.4943 H              1 S1                 0.0000
     24 ****        -2.1988   0.0573   3.6174 H              1 S1                 0.0000
     25 ****        -3.6493  -2.3188   1.4000 H              1 S1                 0.0000
     26 ****        -3.3119  -0.0574  -2.5171 H              1 S1                 0.0000
     27 ****        -3.7033   2.2924  -3.0353 H              1 S1                 0.0000
     28 ****        -3.2434   2.7885  -1.4089 H              1 S1                 0.0000
     29 ****        -4.7126   1.8535  -1.6747 H              1 S1                 0.0000
     30 ****        -0.9477   1.5023  -1.4011 H              1 S1                 0.0000
     31 ****        -1.4942   2.3605  -3.6615 H              1 S1                 0.0000
     32 ****        -1.5691   0.7205  -4.3006 H              1 S1                 0.0000
     33 ****        -0.0398   1.4010  -3.7610 H              1 S1                 0.0000
     34 ****        -1.1623  -1.0066  -1.2106 H              1 S1                 0.0000
     35 ****         1.1689  -1.4336  -1.9070 H              1 S1                 0.0000
     36 ****         1.2401   0.2885  -2.2431 H              1 S1                 0.0000
     37 ****         3.2937  -0.3681  -1.6269 H              1 S1                 0.0000
     38 ****         4.0909   0.6998  -0.5081 H              1 S1                 0.0000
     39 ****         3.7919  -2.3451  -0.1693 H              1 S1                 0.0000
     40 ****         5.2607  -1.5014  -0.6247 H              1 S1                 0.0000
     41 ****         2.9241  -1.9732   2.1019 H              1 S1                 0.0000
     42 ****         3.1610  -0.7837   4.2874 H              1 S1                 0.0000
     43 ****         4.6215   0.0128   3.7025 H              1 S1                 0.0000
     44 ****         4.5975  -1.7348   3.9243 H              1 S1                 0.0000
     45 ****         3.2649   1.0597   1.7389 H              1 S1                 0.0000
     46 ****         1.8212   0.2758   2.3203 H              1 S1                 0.0000
     47 ****        -2.7695   1.8476   0.8052 H              1 S1                 0.0000
     48 ****        -0.8317  -1.0345  -2.8146 H              1 S1                 0.0000
     49 ****        -3.4641  -1.8728  -1.0102 LP             1 S1                 0.0000
     50 ****        -0.8543  -0.2848   0.3053 LP             1 S1                 0.0000
     51 ****         0.2457  -0.0193   1.6165 LP             1 S1                 0.0000
     52 ****         5.2185  -0.3731   1.3935 LP             1 S1                 0.0000
     53 ****         5.1979  -1.9874   1.6389 LP             1 S1                 0.0000
@<TRIPOS>BOND
    1    1    2 1     
    2    1   22 1     
    3    1   23 1     
    4    1   24 1     
    5    2   21 2     
    6    2    3 1     
    7    3    4 2     
    8    3   25 1     
    9    4    5 1     
   10    5    6 1     
   11    5   21 1     
   12    6    7 1     
   13    6    8 1     
   14    6   26 1     
   15    7   27 1     
   16    7   28 1     
   17    7   29 1     
   18    8    9 1     
   19    8   10 1     
   20    8   30 1     
   21    9   31 1     
   22    9   32 1     
   23    9   33 1     
   24   10   11 1     
   25   10   34 1     
   26   10   48 1     
   27   11   12 1     
   28   11   35 1     
   29   11   36 1     
   30   12   13 2     
   31   12   14 am    
   32   14   20 1     
   33   14   15 1     
   34   15   16 1     
   35   15   37 1     
   36   15   38 1     
   37   16   17 1     
   38   16   39 1     
   39   16   40 1     
   40   17   18 1     
   41   18   19 1     
   42   18   20 1     
   43   18   41 1     
   44   19   42 1     
   45   19   43 1     
   46   19   44 1     
   47   20   45 1     
   48   20   46 1     
   49   21   47 1     
   50    4   49 1     
   51   13   50 1     
   52   13   51 1     
   53   17   52 1     
   54   17   53 1     
@<TRIPOS>SUBSTRUCTURE
      1 S1             1
@<TRIPOS>SET
LONE_PAIRS      STATIC     ATOMS    <user>   **** ""
5 49 50 51 52 53
DONOR_HYDROGENS      STATIC     ATOMS    <user>   **** ""
2 34 48
ATOM$BLUE        STATIC     ATOMS    COLORGROUP SYSTEM
5 49 50 51 52 53
ATOM$RED        STATIC     ATOMS    COLORGROUP SYSTEM
2 34 48
