#       Name:                AV-unprocessed.smi:533
#       Creating user name   scv26
#       Creation time:       Thu Mar 26 23:34:38 2020


#       File generated by GOLD software.
#

@<TRIPOS>MOLECULE
AV-unprocessed.smi:533
    43    44     1
SMALL
NO_CHARGES


@<TRIPOS>ATOM
      1 ****         1.5502   4.0475  -0.3988 C.3            1 S1                 0.0000
      2 ****         1.5217   2.5206  -0.5103 C.3            1 S1                 0.0000
      3 ****         0.1641   2.0120  -0.5301 N.pl3          1 S1                 0.0000
      4 ****        -0.3389   0.7177  -0.5777 C.2            1 S1                 0.0000
      5 ****        -1.6374   0.4133  -0.5863 N.2            1 S1                 0.0000
      6 ****        -1.6195  -0.9739  -0.6276 C.2            1 S1                 0.0000
      7 ****        -0.3472  -1.4556  -0.6408 C.2            1 S1                 0.0000
      8 ****        -0.0147  -2.8966  -0.6698 C.2            1 S1                 0.0000
      9 ****         1.1528  -3.2812  -0.6693 O.2            1 S1                 0.0000
     10 ****        -1.1368  -3.6839  -0.6936 N.pl3          1 S1                -1.0000
     11 ****        -2.4419  -3.2392  -0.6862 C.2            1 S1                 0.0000
     12 ****        -3.3893  -4.0250  -0.7094 O.2            1 S1                 0.0000
     13 ****        -2.7022  -1.8926  -0.6525 N.am           1 S1                 0.0000
     14 ****        -4.0603  -1.3401  -0.6421 C.3            1 S1                 0.0000
     15 ****         0.5023  -0.3452  -0.6157 N.pl3          1 S1                 0.0000
     16 ****         1.9629  -0.3093  -0.6192 C.3            1 S1                 0.0000
     17 ****         2.5456  -0.2324   0.7998 C.3            1 S1                 0.0000
     18 ****         2.0982  -1.3356   1.5702 O.3            1 S1                 0.0000
     19 ****         2.5946  -1.3140   2.8960 C.3            1 S1                 0.0000
     20 ****         2.5767   4.4143  -0.3836 H              1 S1                 0.0000
     21 ****         1.0637   4.3851   0.5168 H              1 S1                 0.0000
     22 ****         1.0426   4.5150  -1.2432 H              1 S1                 0.0000
     23 ****         2.0307   2.2003  -1.4199 H              1 S1                 0.0000
     24 ****         2.0536   2.0730   0.3297 H              1 S1                 0.0000
     25 ****        -0.5412   2.7341  -0.5122 H              1 S1                 0.0000
     26 ****        -4.8522  -2.0885  -0.6800 H              1 S1                 0.0000
     27 ****        -4.1986  -0.6796  -1.4987 H              1 S1                 0.0000
     28 ****        -4.2134  -0.7513   0.2626 H              1 S1                 0.0000
     29 ****         2.3507  -1.1784  -1.1474 H              1 S1                 0.0000
     30 ****         2.2948   0.5501  -1.2021 H              1 S1                 0.0000
     31 ****         3.6353  -0.2294   0.7499 H              1 S1                 0.0000
     32 ****         2.2399   0.7002   1.2768 H              1 S1                 0.0000
     33 ****         2.2237  -2.1834   3.4387 H              1 S1                 0.0000
     34 ****         2.2642  -0.4199   3.4261 H              1 S1                 0.0000
     35 ****         3.6847  -1.3481   2.9098 H              1 S1                 0.0000
     36 ****        -2.4251   1.0292  -0.5676 LP             1 S1                 0.0000
     37 ****         1.8986  -2.6153  -0.6490 LP             1 S1                 0.0000
     38 ****         1.3568  -4.2599  -0.6891 LP             1 S1                 0.0000
     39 ****        -0.9955  -4.6735  -0.7186 LP             1 S1                 0.0000
     40 ****        -3.2211  -5.0104  -0.7342 LP             1 S1                 0.0000
     41 ****        -4.3271  -3.6778  -0.7033 LP             1 S1                 0.0000
     42 ****         2.4033  -2.1791   1.1282 LP             1 S1                 0.0000
     43 ****         1.0989  -1.3188   1.6026 LP             1 S1                 0.0000
@<TRIPOS>BOND
    1    1    2 1     
    2    1   20 1     
    3    1   21 1     
    4    1   22 1     
    5    2    3 1     
    6    2   23 1     
    7    2   24 1     
    8    3    4 1     
    9    3   25 1     
   10    4   15 1     
   11    4    5 2     
   12    5    6 1     
   13    6   13 1     
   14    6    7 2     
   15    7    8 1     
   16    7   15 1     
   17    8    9 2     
   18    8   10 1     
   19   10   11 1     
   20   11   12 2     
   21   11   13 am    
   22   13   14 1     
   23   14   26 1     
   24   14   27 1     
   25   14   28 1     
   26   15   16 1     
   27   16   17 1     
   28   16   29 1     
   29   16   30 1     
   30   17   18 1     
   31   17   31 1     
   32   17   32 1     
   33   18   19 1     
   34   19   33 1     
   35   19   34 1     
   36   19   35 1     
   37    5   36 1     
   38    9   37 1     
   39    9   38 1     
   40   10   39 1     
   41   12   40 1     
   42   12   41 1     
   43   18   42 1     
   44   18   43 1     
@<TRIPOS>SUBSTRUCTURE
      1 S1             1
@<TRIPOS>SET
LONE_PAIRS      STATIC     ATOMS    <user>   **** ""
8 36 37 38 39 40 41 42 43
DONOR_HYDROGENS      STATIC     ATOMS    <user>   **** ""
1 25
ATOM$BLUE        STATIC     ATOMS    COLORGROUP SYSTEM
8 36 37 38 39 40 41 42 43
ATOM$RED        STATIC     ATOMS    COLORGROUP SYSTEM
1 25
