AV-unprocessed.smi:1601|AV-procd|sdf|6438|dock6
  -GOLD-   22720 7 83D 1   1.00000     0.00000
 Structure written by MMmdl.
 42 43  0  0  0  0  0  0  0  0  2 V2000
  146.1162  143.8075  160.2759 C   0  0  0  0  0  0  0  0  0  0  0  0
  146.3406  145.3197  160.5248 C   0  0  1  0  0  0  0  0  0  0  0  0
  147.8042  145.5944  160.9606 C   0  0  0  0  0  0  0  0  0  0  0  0
  148.7805  145.2732  159.9220 N   0  0  0  0  0  0  0  0  0  0  0  0
  149.9383  144.6193  160.1117 C   0  0  0  0  0  0  0  0  0  0  0  0
  150.3128  144.2199  161.2149 O   0  0  0  0  0  0  0  0  0  0  0  0
  150.8013  144.3937  158.8602 C   0  0  1  0  0  0  0  0  0  0  0  0
  152.1515  145.1308  158.9253 C   0  0  0  0  0  0  0  0  0  0  0  0
  150.9967  142.9695  158.6234 N   0  0  0  0  0  0  0  0  0  0  0  0
  150.7254  142.2323  157.4866 C   0  0  0  0  0  0  0  0  0  0  0  0
  151.0629  140.9358  157.7492 C   0  0  0  0  0  0  0  0  0  0  0  0
  151.5326  140.9747  159.0913 C   0  0  0  0  0  0  0  0  0  0  0  0
  151.4907  142.1906  159.6112 N   0  0  0  0  0  0  0  0  0  0  0  0
  145.9840  146.1738  159.3430 N   0  3  0  0  0  0  0  0  0  0  0  0
  144.7534  145.7717  158.6057 C   0  0  0  0  0  0  0  0  0  0  0  0
  144.4989  146.6936  157.4004 C   0  0  0  0  0  0  0  0  0  0  0  0
  144.4122  148.0426  157.8332 O   0  0  0  0  0  0  0  0  0  0  0  0
  145.6244  148.4725  158.4338 C   0  0  0  0  0  0  0  0  0  0  0  0
  145.9077  147.6217  159.6825 C   0  0  0  0  0  0  0  0  0  0  0  0
  146.3843  143.2083  161.1452 H   0  0  0  0  0  0  0  0  0  0  0  0
  146.7120  143.4495  159.4357 H   0  0  0  0  0  0  0  0  0  0  0  0
  145.0699  143.5730  160.0805 H   0  0  0  0  0  0  0  0  0  0  0  0
  145.6793  145.6004  161.3462 H   0  0  0  0  0  0  0  0  0  0  0  0
  147.9058  146.6308  161.2872 H   0  0  0  0  0  0  0  0  0  0  0  0
  148.0804  144.9851  161.8188 H   0  0  0  0  0  0  0  0  0  0  0  0
  148.5546  145.5604  158.9802 H   0  0  0  0  0  0  0  0  0  0  0  0
  150.2491  144.8053  158.0129 H   0  0  0  0  0  0  0  0  0  0  0  0
  152.0106  146.2006  159.0823 H   0  0  0  0  0  0  0  0  0  0  0  0
  152.7046  145.0081  157.9937 H   0  0  0  0  0  0  0  0  0  0  0  0
  152.7805  144.7545  159.7329 H   0  0  0  0  0  0  0  0  0  0  0  0
  150.3191  142.6880  156.5954 H   0  0  0  0  0  0  0  0  0  0  0  0
  150.9829  140.0883  157.0851 H   0  0  0  0  0  0  0  0  0  0  0  0
  151.8989  140.1610  159.6998 H   0  0  0  0  0  0  0  0  0  0  0  0
  144.8440  144.7564  158.2209 H   0  0  0  0  0  0  0  0  0  0  0  0
  143.8970  145.7933  159.2816 H   0  0  0  0  0  0  0  0  0  0  0  0
  145.2890  146.5876  156.6551 H   0  0  0  0  0  0  0  0  0  0  0  0
  143.5639  146.4202  156.9109 H   0  0  0  0  0  0  0  0  0  0  0  0
  146.4468  148.4070  157.7195 H   0  0  0  0  0  0  0  0  0  0  0  0
  145.5261  149.5224  158.7102 H   0  0  0  0  0  0  0  0  0  0  0  0
  145.1211  147.7814  160.4219 H   0  0  0  0  0  0  0  0  0  0  0  0
  146.8356  147.9728  160.1294 H   0  0  0  0  0  0  0  0  0  0  0  0
  146.7418  146.0680  158.6833 H   0  0  0  0  0  0  0  0  0  0  0  0
  1  2  1  0  0  0  0
  1 20  1  0  0  0  0
  1 21  1  0  0  0  0
  1 22  1  0  0  0  0
  2  3  1  0  0  0  0
  2 14  1  0  0  0  0
  2 23  1  0  0  0  0
  3  4  1  0  0  0  0
  3 24  1  0  0  0  0
  3 25  1  0  0  0  0
  4  5  1  0  0  0  0
  4 26  1  0  0  0  0
  5  6  2  0  0  0  0
  5  7  1  0  0  0  0
  7  8  1  0  0  0  0
  7  9  1  0  0  0  0
  7 27  1  0  0  0  0
  8 28  1  0  0  0  0
  8 29  1  0  0  0  0
  8 30  1  0  0  0  0
  9 13  1  0  0  0  0
  9 10  1  0  0  0  0
 10 11  2  0  0  0  0
 10 31  1  0  0  0  0
 11 12  1  0  0  0  0
 11 32  1  0  0  0  0
 12 13  2  0  0  0  0
 12 33  1  0  0  0  0
 14 19  1  0  0  0  0
 14 15  1  0  0  0  0
 14 42  1  0  0  0  0
 15 16  1  0  0  0  0
 15 34  1  0  0  0  0
 15 35  1  0  0  0  0
 16 17  1  0  0  0  0
 16 36  1  0  0  0  0
 16 37  1  0  0  0  0
 17 18  1  0  0  0  0
 18 19  1  0  0  0  0
 18 38  1  0  0  0  0
 18 39  1  0  0  0  0
 19 40  1  0  0  0  0
 19 41  1  0  0  0  0
M  CHG  1  14   1
M  END
> <s_m_source_file>
AV-unprocessed.smi

> <i_m_source_file_index>
1601

> <i_lp_mmshare_version>
43012

> <i_f3d_flags>
0

> <s_epik_input>
W0NIMl0xW0NIMl1PW0NIMl1bQ0gyXU4xW0NASF0oW0NIM10pW0NIMl1bTkhdQyg9TylbQ0BIXShbQ0gzXSluMltjSF1bY0hdW2NIXW4y

> <s_epik_cmdline>
J2VwaWtfcHl0aG9uJywgJy1waCcsICc3LjAnLCAnLXRuJywgJzgnLCAnLW1hJywgJzIwMCcsICctbWV0YWxfYmluZGluZycsICctaW1hZScsICc8aW5maWxlLm1hZT4nLCAnLW9tYWUnLCAnPG91dGZpbGUubWFlPic=

> <r_lp_tautomer_probability>
1

> <r_epik_Ionization_Penalty>
0.732551

> <r_epik_Ionization_Penalty_Charging>
0.732531

> <r_epik_Ionization_Penalty_Neutral>
2.04647e-05

> <r_epik_State_Penalty>
0.757939

> <r_epik_Charging_Adjusted_Penalty>
1.49047

> <i_epik_Tot_Q>
1

> <i_epik_Tot_abs_Q>
1

> <r_epik_Metal_State_Penalty>
0.757952

> <b_epik_Metal_Only>
0

> <s_lp_Force_Field>
OPLS_2005

> <r_lp_Energy>
25.2472

> <b_lp_Chiralities_Consistent>
1

> <s_lp_Variant>
AV-unprocessed.smi:1601-8

> <Gold.Version>
5.8.1

> <Gold.Id.Protein>
6NUR|6NUR_protein|mol2

> <Gold.PLP.Fitness>
47.9490

> <Gold.PLP.PLP>
-36.7817

> <Gold.PLP.part.hbond>
-3.3872

> <Gold.PLP.part.metal>
0.0000

> <Gold.PLP.part.buried>
-6.6112

> <Gold.PLP.part.nonpolar>
-28.3090

> <Gold.PLP.part.repulsive>
0.5731

> <Gold.PLP.ligand.clash>
0.0000

> <Gold.PLP.ligand.torsion>
0.4827

> <Gold.PLP.Chemscore.Hbond>
3.0000

> <Gold.PLP.Chemscore.CHOScore>
1.0000

> <Gold.PLP.Chemscore.Metal>
0.0000

> <Gold.Chemscore.Hbonds>
donor molecule, donor type, donor heavy atom, donor atom, acceptor molecule, acceptor atom, score
      L1  H     4    26       P1  8029  1.00
      L1  H    14    42       P1  8029  2.00
      L1  C    10    31       P1  8028  0.69

> <Gold.PLP.Chemscore.Internal.Correction>
0.1327

> <Gold.Rescore>
     Score         DG    S(hbond)    S(metal)    S(lipo)     H(rot)  DE(clash)    DE(int)     intcor
     14.69     -16.67       2.08        0.00      77.04       1.86       0.34       1.64       ----

> <Gold.Chemscore.Fitness>
14.6877

> <Gold.Chemscore.DG>
-16.6714

> <Gold.Chemscore.ZeroCoef>
-5.4800

> <Gold.Chemscore.Hbond>
2.0802

> <Gold.Chemscore.Metal>
0.0000

> <Gold.Chemscore.Lipo>
77.0359

> <Gold.Chemscore.Internal_Hbond>
0.0000

> <Gold.Chemscore.DEClash>
0.3428

> <Gold.Chemscore.DEInternal>
1.6410

> <Gold.Chemscore.Rot>
1.8631

> <Gold.Chemscore.Internal.Correction>
   9.000000E+99

> <Gold.Chemscore.Hbonds>
donor molecule, donor type, donor heavy atom, donor atom, acceptor molecule, acceptor atom, score
      L1  H     4    26       P1  8029  1.00
      L1  H    14    42       P1  8029  1.00

> <Gold.Chemscore.Hbond.Weighted>
-6.9479

> <Gold.Chemscore.Metal.Weighted>
-0.0000

> <Gold.Chemscore.Lipo.Weighted>
-9.0132

> <Gold.Chemscore.Internal_Hbond.Weighted>
0.0000

> <Gold.Chemscore.DEClash.Weighted>
0.3428

> <Gold.Chemscore.DEInternal.Weighted>
1.6410

> <Gold.Chemscore.Rot.Weighted>
4.7697

> <Gold.Chemscore.Internal.Correction.Weighted>
   9.000000E+99

> <Gold.Protein.RotatedTorsions>
[ 6907 6896 6895 6894 ] final   90.26 input  -60.11 | X-H torsion
[ 7974 7965 7964 7962 ] final   26.61 input  175.53 | X-H torsion
[ 8008 7997 7996 7995 ] final -176.09 input   59.86 | X-H torsion
[ 10167 10162 10161 10158 ] final  -61.91 input  -65.29 | X-H torsion
[ 10718 10713 10712 10709 ] final -130.05 input   66.30 | X-H torsion
[ 10763 10752 10751 10750 ] final   54.45 input  -60.55 | X-H torsion
[ 11005 11000 10999 10996 ] final  -31.17 input  -57.11 | X-H torsion

> <Gold.Protein.ActiveResidues>
 VAL166  LYS551  ARG553  GLY616  TRP617  ASP618  TYR619  PRO620  LYS621  CYS622 
 ASP623  PHE694  ASN695  SER759  ASP760  ASP761  ALA762  ILE779  LEU786  VAL792 
 PHE793  MET794  SER795  GLU796  ALA797  LYS798  CYS799  TRP800  GLU811  SER814 

> <Gold.Protein.RotatedAtoms>
  152.5443  134.1839  159.8646 H   0  0  0  0  0  0  0  0  0  0  0  0  # atno 6907 bound_to 6896
  151.1839  133.4701  159.2602 H   0  0  0  0  0  0  0  0  0  0  0  0  # atno 6908 bound_to 6896
  151.1150  135.0060  159.8567 H   0  0  0  0  0  0  0  0  0  0  0  0  # atno 6909 bound_to 6896
  146.1828  139.7304  142.8888 H   0  0  0  0  0  0  0  0  0  0  0  0  # atno 7974 bound_to 7965
  155.9906  140.1200  157.0641 H   0  0  0  0  0  0  0  0  0  0  0  0  # atno 8008 bound_to 7997
  154.4210  140.1126  156.5629 H   0  0  0  0  0  0  0  0  0  0  0  0  # atno 8009 bound_to 7997
  155.6347  140.3473  155.4697 H   0  0  0  0  0  0  0  0  0  0  0  0  # atno 8010 bound_to 7997
  140.5974  143.2354  151.6005 H   0  0  0  0  0  0  0  0  0  0  0  0  # atno 10167 bound_to 10162
  156.2106  130.6916  151.0645 H   0  0  0  0  0  0  0  0  0  0  0  0  # atno 10718 bound_to 10713
  152.9805  135.5744  154.4906 H   0  0  0  0  0  0  0  0  0  0  0  0  # atno 10763 bound_to 10752
  154.4441  135.2776  155.1829 H   0  0  0  0  0  0  0  0  0  0  0  0  # atno 10764 bound_to 10752
  154.3485  135.6214  153.5684 H   0  0  0  0  0  0  0  0  0  0  0  0  # atno 10765 bound_to 10752
  140.9445  133.7258  156.1126 H   0  0  0  0  0  0  0  0  0  0  0  0  # atno 11005 bound_to 11000
  145.4026  141.0387  143.3062 LP  0  0  0  0  0  0  0  0  0  0  0  0  # atno 17320 bound_to 7965
  144.8345  139.5573  143.6928 LP  0  0  0  0  0  0  0  0  0  0  0  0  # atno 17321 bound_to 7965
  139.5268  144.3036  152.1052 LP  0  0  0  0  0  0  0  0  0  0  0  0  # atno 17342 bound_to 10162
  140.2211  144.4465  150.6341 LP  0  0  0  0  0  0  0  0  0  0  0  0  # atno 17343 bound_to 10162
  157.7036  131.0766  150.6739 LP  0  0  0  0  0  0  0  0  0  0  0  0  # atno 17370 bound_to 10713
  156.6799  130.4564  149.5631 LP  0  0  0  0  0  0  0  0  0  0  0  0  # atno 17371 bound_to 10713
  140.7688  134.3856  157.5511 LP  0  0  0  0  0  0  0  0  0  0  0  0  # atno 17394 bound_to 11000
  139.8829  134.9009  156.2798 LP  0  0  0  0  0  0  0  0  0  0  0  0  # atno 17395 bound_to 11000

$$$$
