AV-unprocessed.smi:2001|AV-procd|sdf|8108|dock2
  -GOLD-   2272010333D 1   1.00000     0.00000
 Structure written by MMmdl.
 51 52  0  0  0  0  0  0  0  0  2 V2000
  151.3432  143.7006  158.3159 C   0  0  0  0  0  0  0  0  0  0  0  0
  150.9204  142.4436  158.8144 O   0  0  0  0  0  0  0  0  0  0  0  0
  150.2344  141.6774  157.8391 C   0  0  0  0  0  0  0  0  0  0  0  0
  151.1174  141.5603  156.5873 C   0  0  0  0  0  0  0  0  0  0  0  0
  150.8136  140.3428  155.8286 N   0  0  0  0  0  0  0  0  0  0  0  0
  149.5532  140.3373  155.2566 N   0  0  0  0  0  0  0  0  0  0  0  0
  149.1707  139.3346  154.5335 C   0  0  0  0  0  0  0  0  0  0  0  0
  147.8257  139.3004  153.8953 C   0  0  0  0  0  0  0  0  0  0  0  0
  147.2888  140.3116  153.4412 O   0  0  0  0  0  0  0  0  0  0  0  0
  147.2438  138.0903  153.8642 N   0  0  0  0  0  0  0  0  0  0  0  0
  145.9071  137.8096  153.3568 C   0  0  0  0  0  0  0  0  0  0  0  0
  145.9518  136.7709  152.2204 C   0  0  0  0  0  0  0  0  0  0  0  0
  144.6693  136.6306  151.4733 N   0  3  1  0  0  0  0  0  0  0  0  0
  144.7127  135.5604  150.4463 C   0  0  0  0  0  0  0  0  0  0  0  0
  144.5758  134.1593  151.0854 C   0  0  2  0  0  0  0  0  0  0  0  0
  144.4953  133.0518  150.0294 C   0  0  0  0  0  0  0  0  0  0  0  0
  143.3874  134.1073  151.8704 O   0  0  0  0  0  0  0  0  0  0  0  0
  143.3705  135.0656  152.9238 C   0  0  2  0  0  0  0  0  0  0  0  0
  142.0892  134.8661  153.7400 C   0  0  0  0  0  0  0  0  0  0  0  0
  143.4482  136.4752  152.3041 C   0  0  0  0  0  0  0  0  0  0  0  0
  150.0489  138.1991  154.3112 C   0  0  0  0  0  0  0  0  0  0  0  0
  151.2735  138.2152  154.8823 C   0  0  0  0  0  0  0  0  0  0  0  0
  151.7320  139.3378  155.7029 C   0  0  0  0  0  0  0  0  0  0  0  0
  152.8444  139.3791  156.2274 O   0  0  0  0  0  0  0  0  0  0  0  0
  151.8690  144.2480  159.0979 H   0  0  0  0  0  0  0  0  0  0  0  0
  150.4928  144.3046  157.9970 H   0  0  0  0  0  0  0  0  0  0  0  0
  152.0245  143.5812  157.4726 H   0  0  0  0  0  0  0  0  0  0  0  0
  150.0117  140.6861  158.2372 H   0  0  0  0  0  0  0  0  0  0  0  0
  149.2837  142.1517  157.5908 H   0  0  0  0  0  0  0  0  0  0  0  0
  150.9986  142.4446  155.9590 H   0  0  0  0  0  0  0  0  0  0  0  0
  152.1673  141.5555  156.8863 H   0  0  0  0  0  0  0  0  0  0  0  0
  147.7612  137.3136  154.2496 H   0  0  0  0  0  0  0  0  0  0  0  0
  145.2506  137.4836  154.1649 H   0  0  0  0  0  0  0  0  0  0  0  0
  145.4912  138.7405  152.9685 H   0  0  0  0  0  0  0  0  0  0  0  0
  146.7033  137.1083  151.5053 H   0  0  0  0  0  0  0  0  0  0  0  0
  146.3088  135.8104  152.5922 H   0  0  0  0  0  0  0  0  0  0  0  0
  143.8902  135.7247  149.7487 H   0  0  0  0  0  0  0  0  0  0  0  0
  145.6290  135.6324  149.8590 H   0  0  0  0  0  0  0  0  0  0  0  0
  145.4339  133.9535  151.7268 H   0  0  0  0  0  0  0  0  0  0  0  0
  145.3899  133.0375  149.4065 H   0  0  0  0  0  0  0  0  0  0  0  0
  143.6340  133.1907  149.3753 H   0  0  0  0  0  0  0  0  0  0  0  0
  144.4020  132.0718  150.4985 H   0  0  0  0  0  0  0  0  0  0  0  0
  144.2214  134.8942  153.5846 H   0  0  0  0  0  0  0  0  0  0  0  0
  142.0323  135.5875  154.5547 H   0  0  0  0  0  0  0  0  0  0  0  0
  142.0546  133.8683  154.1779 H   0  0  0  0  0  0  0  0  0  0  0  0
  141.2001  134.9902  153.1210 H   0  0  0  0  0  0  0  0  0  0  0  0
  143.3787  137.2499  153.0650 H   0  0  0  0  0  0  0  0  0  0  0  0
  142.5824  136.6288  151.6582 H   0  0  0  0  0  0  0  0  0  0  0  0
  149.7361  137.3577  153.7099 H   0  0  0  0  0  0  0  0  0  0  0  0
  151.9363  137.3763  154.7278 H   0  0  0  0  0  0  0  0  0  0  0  0
  144.5608  137.4990  150.9686 H   0  0  0  0  0  0  0  0  0  0  0  0
  1  2  1  0  0  0  0
  1 25  1  0  0  0  0
  1 26  1  0  0  0  0
  1 27  1  0  0  0  0
  2  3  1  0  0  0  0
  3  4  1  0  0  0  0
  3 28  1  0  0  0  0
  3 29  1  0  0  0  0
  4  5  1  0  0  0  0
  4 30  1  0  0  0  0
  4 31  1  0  0  0  0
  5 23  1  0  0  0  0
  5  6  1  0  0  0  0
  6  7  2  0  0  0  0
  7  8  1  0  0  0  0
  7 21  1  0  0  0  0
  8  9  2  0  0  0  0
  8 10  1  0  0  0  0
 10 11  1  0  0  0  0
 10 32  1  0  0  0  0
 11 12  1  0  0  0  0
 11 33  1  0  0  0  0
 11 34  1  0  0  0  0
 12 13  1  0  0  0  0
 12 35  1  0  0  0  0
 12 36  1  0  0  0  0
 13 20  1  0  0  0  0
 13 14  1  0  0  0  0
 13 51  1  0  0  0  0
 14 15  1  0  0  0  0
 14 37  1  0  0  0  0
 14 38  1  0  0  0  0
 15 16  1  0  0  0  0
 15 17  1  0  0  0  0
 15 39  1  0  0  0  0
 16 40  1  0  0  0  0
 16 41  1  0  0  0  0
 16 42  1  0  0  0  0
 17 18  1  0  0  0  0
 18 19  1  0  0  0  0
 18 20  1  0  0  0  0
 18 43  1  0  0  0  0
 19 44  1  0  0  0  0
 19 45  1  0  0  0  0
 19 46  1  0  0  0  0
 20 47  1  0  0  0  0
 20 48  1  0  0  0  0
 21 22  2  0  0  0  0
 21 49  1  0  0  0  0
 22 23  1  0  0  0  0
 22 50  1  0  0  0  0
 23 24  2  0  0  0  0
M  CHG  1  13   1
M  END
> <s_m_source_file>
AV-unprocessed.smi

> <i_m_source_file_index>
2001

> <i_lp_mmshare_version>
43012

> <i_f3d_flags>
0

> <s_epik_input>
W0NIM11PW0NIMl1bQ0gyXW4xbmMoW2NIXVtjSF1jMT1PKUMoPU8pW05IXVtDSDJdW0NIMl1OMltDSDJdW0NAQEhdKFtDSDNdKU9bQ0BASF0oW0NIM10pW0NIMl0y

> <s_epik_cmdline>
J2VwaWtfcHl0aG9uJywgJy1waCcsICc3LjAnLCAnLXRuJywgJzgnLCAnLW1hJywgJzIwMCcsICctbWV0YWxfYmluZGluZycsICctaW1hZScsICc8aW5maWxlLm1hZT4nLCAnLW9tYWUnLCAnPG91dGZpbGUubWFlPic=

> <r_lp_tautomer_probability>
1

> <r_epik_Ionization_Penalty>
0.724354

> <r_epik_Ionization_Penalty_Charging>
0.724348

> <r_epik_Ionization_Penalty_Neutral>
6.1656e-06

> <r_epik_State_Penalty>
0.749058

> <r_epik_Charging_Adjusted_Penalty>
1.47341

> <i_epik_Tot_Q>
1

> <i_epik_Tot_abs_Q>
1

> <r_epik_Metal_State_Penalty>
0.750779

> <b_epik_Metal_Only>
0

> <s_lp_Force_Field>
OPLS_2005

> <r_lp_Energy>
47.3249

> <b_lp_Chiralities_Consistent>
1

> <s_lp_Variant>
AV-unprocessed.smi:2001-7

> <Gold.Version>
5.8.1

> <Gold.Id.Protein>
6NUR|6NUR_protein|mol2

> <Gold.PLP.Fitness>
47.1885

> <Gold.PLP.PLP>
-42.4318

> <Gold.PLP.part.hbond>
-2.4371

> <Gold.PLP.part.metal>
0.0000

> <Gold.PLP.part.buried>
-4.5080

> <Gold.PLP.part.nonpolar>
-35.4795

> <Gold.PLP.part.repulsive>
1.2140

> <Gold.PLP.ligand.clash>
0.0000

> <Gold.PLP.ligand.torsion>
0.8137

> <Gold.PLP.Chemscore.Hbond>
2.0000

> <Gold.PLP.Chemscore.CHOScore>
0.0000

> <Gold.PLP.Chemscore.Metal>
0.0000

> <Gold.Chemscore.Hbonds>
donor molecule, donor type, donor heavy atom, donor atom, acceptor molecule, acceptor atom, score
      L1  H    13    51       P1 10171  1.00
      P1  H  7997  8010       L1    24  1.00

> <Gold.PLP.Chemscore.Internal.Correction>
0.3840

> <Gold.Rescore>
     Score         DG    S(hbond)    S(metal)    S(lipo)     H(rot)  DE(clash)    DE(int)     intcor
     16.46     -17.34       1.99        0.00      89.93       2.07       0.15       0.72       ----

> <Gold.Chemscore.Fitness>
16.4629

> <Gold.Chemscore.DG>
-17.3386

> <Gold.Chemscore.ZeroCoef>
-5.4800

> <Gold.Chemscore.Hbond>
1.9885

> <Gold.Chemscore.Metal>
0.0000

> <Gold.Chemscore.Lipo>
89.9286

> <Gold.Chemscore.Internal_Hbond>
0.0000

> <Gold.Chemscore.DEClash>
0.1533

> <Gold.Chemscore.DEInternal>
0.7223

> <Gold.Chemscore.Rot>
2.0721

> <Gold.Chemscore.Internal.Correction>
   9.000000E+99

> <Gold.Chemscore.Hbonds>
donor molecule, donor type, donor heavy atom, donor atom, acceptor molecule, acceptor atom, score
      L1  H    13    51       P1 10171  0.99
      P1  H  7997  8010       L1    24  1.00

> <Gold.Chemscore.Hbond.Weighted>
-6.6416

> <Gold.Chemscore.Metal.Weighted>
-0.0000

> <Gold.Chemscore.Lipo.Weighted>
-10.5216

> <Gold.Chemscore.Internal_Hbond.Weighted>
0.0000

> <Gold.Chemscore.DEClash.Weighted>
0.1533

> <Gold.Chemscore.DEInternal.Weighted>
0.7223

> <Gold.Chemscore.Rot.Weighted>
5.3047

> <Gold.Chemscore.Internal.Correction.Weighted>
   9.000000E+99

> <Gold.Protein.RotatedTorsions>
[ 6907 6896 6895 6894 ] final   66.87 input  -60.11 | X-H torsion
[ 7974 7965 7964 7962 ] final  -85.85 input  175.53 | X-H torsion
[ 8008 7997 7996 7995 ] final   73.62 input   59.86 | X-H torsion
[ 10167 10162 10161 10158 ] final  166.42 input  -65.29 | X-H torsion
[ 10718 10713 10712 10709 ] final -103.91 input   66.30 | X-H torsion
[ 10763 10752 10751 10750 ] final -129.72 input  -60.55 | X-H torsion
[ 11005 11000 10999 10996 ] final -132.83 input  -57.11 | X-H torsion

> <Gold.Protein.ActiveResidues>
 VAL166  LYS551  ARG553  GLY616  TRP617  ASP618  TYR619  PRO620  LYS621  CYS622 
 ASP623  PHE694  ASN695  SER759  ASP760  ASP761  ALA762  ILE779  LEU786  VAL792 
 PHE793  MET794  SER795  GLU796  ALA797  LYS798  CYS799  TRP800  GLU811  SER814 

> <Gold.Protein.RotatedAtoms>
  152.4512  134.5390  159.9833 H   0  0  0  0  0  0  0  0  0  0  0  0  # atno 6907 bound_to 6896
  151.5462  133.3419  159.2952 H   0  0  0  0  0  0  0  0  0  0  0  0  # atno 6908 bound_to 6896
  150.8441  134.7776  159.7019 H   0  0  0  0  0  0  0  0  0  0  0  0  # atno 6909 bound_to 6896
  145.4877  140.9554  143.1829 H   0  0  0  0  0  0  0  0  0  0  0  0  # atno 7974 bound_to 7965
  155.7863  140.3480  155.5325 H   0  0  0  0  0  0  0  0  0  0  0  0  # atno 8008 bound_to 7997
  155.8679  140.0981  157.1591 H   0  0  0  0  0  0  0  0  0  0  0  0  # atno 8009 bound_to 7997
  154.4015  140.1346  156.4028 H   0  0  0  0  0  0  0  0  0  0  0  0  # atno 8010 bound_to 7997
  139.4924  144.4029  151.9388 H   0  0  0  0  0  0  0  0  0  0  0  0  # atno 10167 bound_to 10162
  156.0283  130.5490  150.7320 H   0  0  0  0  0  0  0  0  0  0  0  0  # atno 10718 bound_to 10713
  154.8757  135.3886  154.3966 H   0  0  0  0  0  0  0  0  0  0  0  0  # atno 10763 bound_to 10752
  153.4696  135.7030  153.6007 H   0  0  0  0  0  0  0  0  0  0  0  0  # atno 10764 bound_to 10752
  153.4470  135.3843  155.2229 H   0  0  0  0  0  0  0  0  0  0  0  0  # atno 10765 bound_to 10752
  140.9135  134.1537  157.4371 H   0  0  0  0  0  0  0  0  0  0  0  0  # atno 11005 bound_to 11000
  144.7852  139.6442  143.7137 LP  0  0  0  0  0  0  0  0  0  0  0  0  # atno 17320 bound_to 7965
  146.2303  139.5801  142.9560 LP  0  0  0  0  0  0  0  0  0  0  0  0  # atno 17321 bound_to 7965
  140.3469  144.3136  150.5956 LP  0  0  0  0  0  0  0  0  0  0  0  0  # atno 17342 bound_to 10162
  140.5518  143.2205  151.7914 LP  0  0  0  0  0  0  0  0  0  0  0  0  # atno 17343 bound_to 10162
  157.4910  131.0911  151.0426 LP  0  0  0  0  0  0  0  0  0  0  0  0  # atno 17370 bound_to 10713
  157.0833  130.5912  149.5425 LP  0  0  0  0  0  0  0  0  0  0  0  0  # atno 17371 bound_to 10713
  139.8762  134.9945  156.5695 LP  0  0  0  0  0  0  0  0  0  0  0  0  # atno 17394 bound_to 11000
  140.8080  133.8452  155.8784 LP  0  0  0  0  0  0  0  0  0  0  0  0  # atno 17395 bound_to 11000

$$$$
