#       Name:                AV-unprocessed.smi:1987
#       Creating user name   scv26
#       Creation time:       Fri Mar 27 10:26:16 2020


#       File generated by GOLD software.
#

@<TRIPOS>MOLECULE
AV-unprocessed.smi:1987
    42    44     1
SMALL
NO_CHARGES


@<TRIPOS>ATOM
      1 ****        -0.5452   2.7791   2.2842 O.2            1 S1                 0.0000
      2 ****        -1.2402   1.7654   2.3413 C.2            1 S1                 0.0000
      3 ****        -2.7558   1.8623   2.1746 C.3            1 S1                 0.0000
      4 ****        -3.1360   1.4310   0.8419 N.pl3          1 S1                 0.0000
      5 ****        -3.1935   2.0985  -0.3124 C.2            1 S1                 0.0000
      6 ****        -3.5406   1.3081  -1.3168 N.2            1 S1                 0.0000
      7 ****        -3.7076   0.0767  -0.7062 N.2            1 S1                 0.0000
      8 ****        -3.4680   0.1428   0.5744 N.2            1 S1                 0.0000
      9 ****        -0.7395   0.5300   2.4943 N.am           1 S1                 0.0000
     10 ****         0.6761   0.1851   2.4519 C.3            1 S1                 0.0000
     11 ****         1.2314   0.2568   1.0147 C.3            1 S1                 0.0000
     12 ****         2.6593  -0.2624   0.8619 C.3            1 S1                 0.0000
     13 ****         2.7756  -0.6186  -0.6268 C.3            1 S1                 0.0000
     14 ****         1.3942  -0.7205  -1.1536 N.4            1 S1                 1.0000
     15 ****         1.1443  -1.9134  -1.9896 C.3            1 S1                 0.0000
     16 ****         1.4963  -1.7156  -3.4443 C.3            1 S1                 0.0000
     17 ****         0.0469  -1.7154  -3.0079 C.3            1 S1                 0.0000
     18 ****         0.4710  -0.5862  -0.0104 C.3            1 S1                 0.0000
     19 ****        -3.2619   1.2442   2.9181 H              1 S1                 0.0000
     20 ****        -3.0881   2.8907   2.3225 H              1 S1                 0.0000
     21 ****        -2.9664   3.1492  -0.4189 H              1 S1                 0.0000
     22 ****        -1.3925  -0.2387   2.5512 H              1 S1                 0.0000
     23 ****         1.2425   0.8411   3.1147 H              1 S1                 0.0000
     24 ****         0.7841  -0.8253   2.8473 H              1 S1                 0.0000
     25 ****         1.2147   1.2945   0.6772 H              1 S1                 0.0000
     26 ****         3.4073   0.4643   1.1800 H              1 S1                 0.0000
     27 ****         2.7958  -1.1631   1.4620 H              1 S1                 0.0000
     28 ****         3.2967   0.1660  -1.1762 H              1 S1                 0.0000
     29 ****         3.3378  -1.5441  -0.7614 H              1 S1                 0.0000
     30 ****         1.2844  -2.8812  -1.5109 H              1 S1                 0.0000
     31 ****         1.9312  -0.7639  -3.7447 H              1 S1                 0.0000
     32 ****         1.8493  -2.5832  -3.9980 H              1 S1                 0.0000
     33 ****        -0.5539  -2.5828  -3.2734 H              1 S1                 0.0000
     34 ****        -0.4816  -0.7636  -3.0181 H              1 S1                 0.0000
     35 ****         0.2514  -1.5713   0.4055 H              1 S1                 0.0000
     36 ****        -0.4719  -0.1304  -0.3155 H              1 S1                 0.0000
     37 ****         1.2519   0.0935  -1.7343 H              1 S1                 0.0000
     38 ****        -0.9721   3.6699   2.1283 LP             1 S1                 0.0000
     39 ****         0.4465   2.7122   2.3938 LP             1 S1                 0.0000
     40 ****        -3.6544   1.5436  -2.2820 LP             1 S1                 0.0000
     41 ****        -3.9777  -0.7579  -1.1862 LP             1 S1                 0.0000
     42 ****        -3.5191  -0.6095   1.2312 LP             1 S1                 0.0000
@<TRIPOS>BOND
    1    1    2 2     
    2    2    3 1     
    3    2    9 am    
    4    3    4 1     
    5    3   19 1     
    6    3   20 1     
    7    4    8 1     
    8    4    5 1     
    9    5    6 2     
   10    5   21 1     
   11    6    7 1     
   12    7    8 2     
   13    9   10 1     
   14    9   22 1     
   15   10   11 1     
   16   10   23 1     
   17   10   24 1     
   18   11   18 1     
   19   11   12 1     
   20   11   25 1     
   21   12   13 1     
   22   12   26 1     
   23   12   27 1     
   24   13   14 1     
   25   13   28 1     
   26   13   29 1     
   27   14   15 1     
   28   14   18 1     
   29   14   37 1     
   30   15   17 1     
   31   15   16 1     
   32   15   30 1     
   33   16   17 1     
   34   16   31 1     
   35   16   32 1     
   36   17   33 1     
   37   17   34 1     
   38   18   35 1     
   39   18   36 1     
   40    1   38 1     
   41    1   39 1     
   42    6   40 1     
   43    7   41 1     
   44    8   42 1     
@<TRIPOS>SUBSTRUCTURE
      1 S1             1
@<TRIPOS>SET
LONE_PAIRS      STATIC     ATOMS    <user>   **** ""
5 38 39 40 41 42
DONOR_HYDROGENS      STATIC     ATOMS    <user>   **** ""
2 22 37
ATOM$BLUE        STATIC     ATOMS    COLORGROUP SYSTEM
5 38 39 40 41 42
ATOM$RED        STATIC     ATOMS    COLORGROUP SYSTEM
2 22 37
