AV-unprocessed.smi:3132|AV-procd|sdf|11930|dock5
  -GOLD-   2272017313D 1   1.00000     0.00000
 Structure written by MMmdl.
 34 35  0  0  0  0  0  0  0  0  2 V2000
  149.4760  141.5048  154.7602 C   0  0  0  0  0  0  0  0  0  0  0  0
  150.3712  141.2675  155.9835 C   0  0  1  0  0  0  0  0  0  0  0  0
  151.6592  140.5096  155.5929 C   0  0  0  0  0  0  0  0  0  0  0  0
  151.4066  139.1381  155.1387 N   0  0  0  0  0  0  0  0  0  0  0  0
  151.8297  137.9740  155.7279 C   0  0  0  0  0  0  0  0  0  0  0  0
  151.3456  136.9482  154.9575 C   0  0  0  0  0  0  0  0  0  0  0  0
  150.6540  137.5292  153.9285 N   0  3  0  0  0  0  0  0  0  0  0  0
  150.6969  138.8610  154.0374 C   0  0  0  0  0  0  0  0  0  0  0  0
  150.6812  142.5583  156.5968 N   0  0  0  0  0  0  0  0  0  0  0  0
  151.4527  142.7509  157.6786 C   0  0  0  0  0  0  0  0  0  0  0  0
  152.0160  141.8335  158.2773 O   0  0  0  0  0  0  0  0  0  0  0  0
  151.6055  144.2037  158.1526 C   0  0  2  0  0  0  0  0  0  0  0  0
  152.5251  144.3597  159.3805 C   0  0  0  0  0  0  0  0  0  0  0  0
  151.6424  145.0153  160.4286 C   0  0  0  0  0  0  0  0  0  0  0  0
  150.2412  144.6237  159.9836 C   0  0  0  0  0  0  0  0  0  0  0  0
  150.3297  144.6892  158.5678 O   0  0  0  0  0  0  0  0  0  0  0  0
  149.1892  140.5614  154.2951 H   0  0  0  0  0  0  0  0  0  0  0  0
  149.9845  142.1065  154.0058 H   0  0  0  0  0  0  0  0  0  0  0  0
  148.5585  142.0246  155.0389 H   0  0  0  0  0  0  0  0  0  0  0  0
  149.7985  140.6579  156.6850 H   0  0  0  0  0  0  0  0  0  0  0  0
  152.1735  141.0277  154.7823 H   0  0  0  0  0  0  0  0  0  0  0  0
  152.3552  140.4684  156.4321 H   0  0  0  0  0  0  0  0  0  0  0  0
  152.4217  137.9622  156.6315 H   0  0  0  0  0  0  0  0  0  0  0  0
  151.4385  135.8769  155.0615 H   0  0  0  0  0  0  0  0  0  0  0  0
  150.2393  139.5720  153.3729 H   0  0  0  0  0  0  0  0  0  0  0  0
  150.2550  143.3721  156.1768 H   0  0  0  0  0  0  0  0  0  0  0  0
  151.9580  144.8295  157.3312 H   0  0  0  0  0  0  0  0  0  0  0  0
  152.8912  143.3992  159.7464 H   0  0  0  0  0  0  0  0  0  0  0  0
  153.3988  144.9733  159.1584 H   0  0  0  0  0  0  0  0  0  0  0  0
  151.8722  144.6937  161.4445 H   0  0  0  0  0  0  0  0  0  0  0  0
  151.7531  146.0995  160.3814 H   0  0  0  0  0  0  0  0  0  0  0  0
  150.0015  143.6064  160.2963 H   0  0  0  0  0  0  0  0  0  0  0  0
  149.4722  145.2928  160.3697 H   0  0  0  0  0  0  0  0  0  0  0  0
  150.1759  137.0263  153.1914 H   0  0  0  0  0  0  0  0  0  0  0  0
  1  2  1  0  0  0  0
  1 17  1  0  0  0  0
  1 18  1  0  0  0  0
  1 19  1  0  0  0  0
  2  3  1  0  0  0  0
  2  9  1  0  0  0  0
  2 20  1  0  0  0  0
  3  4  1  0  0  0  0
  3 21  1  0  0  0  0
  3 22  1  0  0  0  0
  4  8  1  0  0  0  0
  4  5  1  0  0  0  0
  5  6  2  0  0  0  0
  5 23  1  0  0  0  0
  6  7  1  0  0  0  0
  6 24  1  0  0  0  0
  7  8  2  0  0  0  0
  7 34  1  0  0  0  0
  8 25  1  0  0  0  0
  9 10  1  0  0  0  0
  9 26  1  0  0  0  0
 10 11  2  0  0  0  0
 10 12  1  0  0  0  0
 12 16  1  0  0  0  0
 12 13  1  0  0  0  0
 12 27  1  0  0  0  0
 13 14  1  0  0  0  0
 13 28  1  0  0  0  0
 13 29  1  0  0  0  0
 14 15  1  0  0  0  0
 14 30  1  0  0  0  0
 14 31  1  0  0  0  0
 15 16  1  0  0  0  0
 15 32  1  0  0  0  0
 15 33  1  0  0  0  0
M  CHG  1   7   1
M  END
> <s_m_source_file>
AV-unprocessed.smi

> <i_m_source_file_index>
3132

> <i_lp_mmshare_version>
43012

> <i_f3d_flags>
0

> <s_epik_input>
W2NIXTFuW2NIXVtjSF1uMVtDSDJdW0NAQEhdKFtDSDNdKVtOSF1DKD1PKVtDQEBIXTJbQ0gyXVtDSDJdW0NIMl1PMg==

> <s_epik_cmdline>
J2VwaWtfcHl0aG9uJywgJy1waCcsICc3LjAnLCAnLXRuJywgJzgnLCAnLW1hJywgJzIwMCcsICctbWV0YWxfYmluZGluZycsICctaW1hZScsICc8aW5maWxlLm1hZT4nLCAnLW9tYWUnLCAnPG91dGZpbGUubWFlPic=

> <r_lp_tautomer_probability>
1

> <r_epik_Ionization_Penalty>
0.250802

> <r_epik_Ionization_Penalty_Charging>
0

> <r_epik_Ionization_Penalty_Neutral>
0.250802

> <r_epik_State_Penalty>
0.242139

> <r_epik_Charging_Adjusted_Penalty>
0.242139

> <i_epik_Tot_Q>
1

> <i_epik_Tot_abs_Q>
1

> <r_epik_Metal_State_Penalty>
0.533361

> <b_epik_Metal_Only>
0

> <s_lp_Force_Field>
OPLS_2005

> <r_lp_Energy>
21.4246

> <b_lp_Chiralities_Consistent>
1

> <s_lp_Variant>
AV-unprocessed.smi:3132-2

> <Gold.Version>
5.8.1

> <Gold.Id.Protein>
6NUR|6NUR_protein|mol2

> <Gold.PLP.Fitness>
48.8711

> <Gold.PLP.PLP>
-36.9590

> <Gold.PLP.part.hbond>
-2.8565

> <Gold.PLP.part.metal>
0.0000

> <Gold.PLP.part.buried>
-4.5307

> <Gold.PLP.part.nonpolar>
-31.2446

> <Gold.PLP.part.repulsive>
0.3116

> <Gold.PLP.ligand.clash>
0.0000

> <Gold.PLP.ligand.torsion>
0.0625

> <Gold.PLP.Chemscore.Hbond>
3.0000

> <Gold.PLP.Chemscore.CHOScore>
1.0000

> <Gold.PLP.Chemscore.Metal>
0.0000

> <Gold.Chemscore.Hbonds>
donor molecule, donor type, donor heavy atom, donor atom, acceptor molecule, acceptor atom, score
      L1  H     7    34       P1  7948  1.30
      L1  H     9    26       P1  8028  1.00
      L1  C     8    25       P1  7957  1.00

> <Gold.PLP.Chemscore.Internal.Correction>
0.0371

> <Gold.Rescore>
     Score         DG    S(hbond)    S(metal)    S(lipo)     H(rot)  DE(clash)    DE(int)     intcor
     14.47     -15.93       1.87        0.00      78.07       1.93       0.06       1.39       ----

> <Gold.Chemscore.Fitness>
14.4745

> <Gold.Chemscore.DG>
-15.9293

> <Gold.Chemscore.ZeroCoef>
-5.4800

> <Gold.Chemscore.Hbond>
1.8736

> <Gold.Chemscore.Metal>
0.0000

> <Gold.Chemscore.Lipo>
78.0708

> <Gold.Chemscore.Internal_Hbond>
0.0000

> <Gold.Chemscore.DEClash>
0.0618

> <Gold.Chemscore.DEInternal>
1.3930

> <Gold.Chemscore.Rot>
1.9308

> <Gold.Chemscore.Internal.Correction>
   9.000000E+99

> <Gold.Chemscore.Hbonds>
donor molecule, donor type, donor heavy atom, donor atom, acceptor molecule, acceptor atom, score
      L1  H     7    34       P1  7948  0.06
      L1  H     9    26       P1  8028  0.97

> <Gold.Chemscore.Hbond.Weighted>
-6.2579

> <Gold.Chemscore.Metal.Weighted>
-0.0000

> <Gold.Chemscore.Lipo.Weighted>
-9.1343

> <Gold.Chemscore.Internal_Hbond.Weighted>
0.0000

> <Gold.Chemscore.DEClash.Weighted>
0.0618

> <Gold.Chemscore.DEInternal.Weighted>
1.3930

> <Gold.Chemscore.Rot.Weighted>
4.9429

> <Gold.Chemscore.Internal.Correction.Weighted>
   9.000000E+99

> <Gold.Protein.RotatedTorsions>
[ 6907 6896 6895 6894 ] final -156.90 input  -60.11 | X-H torsion
[ 7974 7965 7964 7962 ] final  -28.78 input  175.53 | X-H torsion
[ 8008 7997 7996 7995 ] final   87.66 input   59.86 | X-H torsion
[ 10167 10162 10161 10158 ] final  -90.56 input  -65.29 | X-H torsion
[ 10718 10713 10712 10709 ] final  -23.63 input   66.30 | X-H torsion
[ 10763 10752 10751 10750 ] final  111.44 input  -60.55 | X-H torsion
[ 11005 11000 10999 10996 ] final -123.96 input  -57.11 | X-H torsion

> <Gold.Protein.ActiveResidues>
 VAL166  LYS551  ARG553  GLY616  TRP617  ASP618  TYR619  PRO620  LYS621  CYS622 
 ASP623  PHE694  ASN695  SER759  ASP760  ASP761  ALA762  ILE779  LEU786  VAL792 
 PHE793  MET794  SER795  GLU796  ALA797  LYS798  CYS799  TRP800  GLU811  SER814 

> <Gold.Protein.RotatedAtoms>
  151.2946  133.4150  159.2635 H   0  0  0  0  0  0  0  0  0  0  0  0  # atno 6907 bound_to 6896
  151.0248  134.9496  159.8089 H   0  0  0  0  0  0  0  0  0  0  0  0  # atno 6908 bound_to 6896
  152.5332  134.2908  159.9095 H   0  0  0  0  0  0  0  0  0  0  0  0  # atno 6909 bound_to 6896
  146.1263  140.5327  142.8713 H   0  0  0  0  0  0  0  0  0  0  0  0  # atno 7974 bound_to 7965
  155.9781  140.3380  155.6637 H   0  0  0  0  0  0  0  0  0  0  0  0  # atno 8008 bound_to 7997
  155.6585  140.0713  157.2580 H   0  0  0  0  0  0  0  0  0  0  0  0  # atno 8009 bound_to 7997
  154.4184  140.1713  156.1739 H   0  0  0  0  0  0  0  0  0  0  0  0  # atno 8010 bound_to 7997
  140.3536  143.2878  151.9697 H   0  0  0  0  0  0  0  0  0  0  0  0  # atno 10167 bound_to 10162
  156.4885  130.4561  149.6769 H   0  0  0  0  0  0  0  0  0  0  0  0  # atno 10718 bound_to 10713
  153.4634  135.3717  155.2351 H   0  0  0  0  0  0  0  0  0  0  0  0  # atno 10763 bound_to 10752
  154.8757  135.3914  154.3897 H   0  0  0  0  0  0  0  0  0  0  0  0  # atno 10764 bound_to 10752
  153.4475  135.7085  153.6194 H   0  0  0  0  0  0  0  0  0  0  0  0  # atno 10765 bound_to 10752
  140.9879  134.0581  157.3690 H   0  0  0  0  0  0  0  0  0  0  0  0  # atno 11005 bound_to 11000
  144.7646  140.5501  143.6712 LP  0  0  0  0  0  0  0  0  0  0  0  0  # atno 17320 bound_to 7965
  145.5357  139.1475  143.3475 LP  0  0  0  0  0  0  0  0  0  0  0  0  # atno 17321 bound_to 7965
  139.4823  144.6054  151.7531 LP  0  0  0  0  0  0  0  0  0  0  0  0  # atno 17342 bound_to 10162
  140.5195  144.0901  150.6018 LP  0  0  0  0  0  0  0  0  0  0  0  0  # atno 17343 bound_to 10162
  156.3450  130.7402  151.2353 LP  0  0  0  0  0  0  0  0  0  0  0  0  # atno 17370 bound_to 10713
  157.7476  131.0393  150.4544 LP  0  0  0  0  0  0  0  0  0  0  0  0  # atno 17371 bound_to 10713
  139.8979  135.0152  156.7121 LP  0  0  0  0  0  0  0  0  0  0  0  0  # atno 17394 bound_to 11000
  140.7086  133.9243  155.8070 LP  0  0  0  0  0  0  0  0  0  0  0  0  # atno 17395 bound_to 11000

$$$$
