AV-unprocessed.smi:741|AV-procd|sdf|3557|dock8
  -GOLD-   22720 0553D 1   1.00000     0.00000
 Structure written by MMmdl.
 43 44  0  0  0  0  0  0  0  0  3 V2000
  143.3960  134.3974  152.6320 C   0  0  0  0  0  0  0  0  0  0  0  0
  143.6336  135.8698  152.2650 C   0  0  0  0  0  0  0  0  0  0  0  0
  145.0642  136.1659  151.7751 C   0  0  1  0  0  0  0  0  0  0  0  0
  145.2703  135.6747  150.3253 C   0  0  0  0  0  0  0  0  0  0  0  0
  145.4924  134.2106  150.2359 N   0  3  0  0  0  0  0  0  0  0  0  0
  146.1035  133.5945  151.4323 C   0  0  0  0  0  0  0  0  0  0  0  0
  145.7407  132.1173  151.3342 C   0  0  0  0  0  0  0  0  0  0  0  0
  144.3252  132.1527  150.7664 C   0  0  0  0  0  0  0  0  0  0  0  0
  144.2817  133.4226  149.9049 C   0  0  0  0  0  0  0  0  0  0  0  0
  145.3356  137.6021  151.8789 N   0  0  0  0  0  0  0  0  0  0  0  0
  146.2403  138.1791  152.6836 C   0  0  0  0  0  0  0  0  0  0  0  0
  147.0046  137.5458  153.4107 O   0  0  0  0  0  0  0  0  0  0  0  0
  146.2162  139.5180  152.5663 N   0  0  0  0  0  0  0  0  0  0  0  0
  147.0037  140.4756  153.2616 C   0  0  0  0  0  0  0  0  0  0  0  0
  146.4464  141.7564  153.4724 C   0  0  0  0  0  0  0  0  0  0  0  0
  147.1876  142.7304  154.1721 C   0  0  0  0  0  0  0  0  0  0  0  0
  148.4162  142.4298  154.6446 N   0  3  0  0  0  0  0  0  0  0  0  0
  148.9837  141.2152  154.4825 C   0  0  0  0  0  0  0  0  0  0  0  0
  148.2910  140.2012  153.7895 C   0  0  0  0  0  0  0  0  0  0  0  0
  142.3588  134.2358  152.9259 H   0  0  0  0  0  0  0  0  0  0  0  0
  144.0253  134.0827  153.4647 H   0  0  0  0  0  0  0  0  0  0  0  0
  143.6060  133.7423  151.7860 H   0  0  0  0  0  0  0  0  0  0  0  0
  142.9232  136.1491  151.4860 H   0  0  0  0  0  0  0  0  0  0  0  0
  143.3988  136.4974  153.1260 H   0  0  0  0  0  0  0  0  0  0  0  0
  145.7442  135.6145  152.4269 H   0  0  0  0  0  0  0  0  0  0  0  0
  144.4212  135.9523  149.6986 H   0  0  0  0  0  0  0  0  0  0  0  0
  146.1392  136.1856  149.9068 H   0  0  0  0  0  0  0  0  0  0  0  0
  147.1804  133.7551  151.4757 H   0  0  0  0  0  0  0  0  0  0  0  0
  145.6633  134.0191  152.3359 H   0  0  0  0  0  0  0  0  0  0  0  0
  146.4106  131.6164  150.6340 H   0  0  0  0  0  0  0  0  0  0  0  0
  145.8030  131.5989  152.2914 H   0  0  0  0  0  0  0  0  0  0  0  0
  144.0780  131.2530  150.2021 H   0  0  0  0  0  0  0  0  0  0  0  0
  143.6068  132.2395  151.5827 H   0  0  0  0  0  0  0  0  0  0  0  0
  143.3656  133.9811  150.1029 H   0  0  0  0  0  0  0  0  0  0  0  0
  144.2988  133.1811  148.8418 H   0  0  0  0  0  0  0  0  0  0  0  0
  144.7565  138.2068  151.3141 H   0  0  0  0  0  0  0  0  0  0  0  0
  145.5990  139.8932  151.8608 H   0  0  0  0  0  0  0  0  0  0  0  0
  145.4620  141.9973  153.0976 H   0  0  0  0  0  0  0  0  0  0  0  0
  146.8358  143.7328  154.3689 H   0  0  0  0  0  0  0  0  0  0  0  0
  149.9658  141.0892  154.9145 H   0  0  0  0  0  0  0  0  0  0  0  0
  148.7536  139.2310  153.6890 H   0  0  0  0  0  0  0  0  0  0  0  0
  146.1367  134.0525  149.4746 H   0  0  0  0  0  0  0  0  0  0  0  0
  148.9351  143.1483  155.1505 H   0  0  0  0  0  0  0  0  0  0  0  0
  1  2  1  0  0  0  0
  1 20  1  0  0  0  0
  1 21  1  0  0  0  0
  1 22  1  0  0  0  0
  2  3  1  0  0  0  0
  2 23  1  0  0  0  0
  2 24  1  0  0  0  0
  3  4  1  0  0  0  0
  3 10  1  0  0  0  0
  3 25  1  0  0  0  0
  4  5  1  0  0  0  0
  4 26  1  0  0  0  0
  4 27  1  0  0  0  0
  5  9  1  0  0  0  0
  5  6  1  0  0  0  0
  5 42  1  0  0  0  0
  6  7  1  0  0  0  0
  6 28  1  0  0  0  0
  6 29  1  0  0  0  0
  7  8  1  0  0  0  0
  7 30  1  0  0  0  0
  7 31  1  0  0  0  0
  8  9  1  0  0  0  0
  8 32  1  0  0  0  0
  8 33  1  0  0  0  0
  9 34  1  0  0  0  0
  9 35  1  0  0  0  0
 10 11  1  0  0  0  0
 10 36  1  0  0  0  0
 11 12  2  0  0  0  0
 11 13  1  0  0  0  0
 13 14  1  0  0  0  0
 13 37  1  0  0  0  0
 14 19  1  0  0  0  0
 14 15  2  0  0  0  0
 15 16  1  0  0  0  0
 15 38  1  0  0  0  0
 16 17  2  0  0  0  0
 16 39  1  0  0  0  0
 17 18  1  0  0  0  0
 17 43  1  0  0  0  0
 18 19  2  0  0  0  0
 18 40  1  0  0  0  0
 19 41  1  0  0  0  0
M  CHG  1   5   1
M  CHG  1  17   1
M  END
> <s_m_source_file>
AV-unprocessed.smi

> <i_m_source_file_index>
741

> <i_lp_mmshare_version>
43012

> <i_f3d_flags>
0

> <s_epik_input>
W0NIMl0xW0NIMl1bQ0gyXVtDSDJdTjFbQ0gyXVtDQEBIXShbQ0gyXVtDSDNdKVtOSF1DKD1PKVtOSF1jMltjSF1bY0hdbltjSF1bY0hdMg==

> <s_epik_cmdline>
J2VwaWtfcHl0aG9uJywgJy1waCcsICc3LjAnLCAnLXRuJywgJzgnLCAnLW1hJywgJzIwMCcsICctbWV0YWxfYmluZGluZycsICctaW1hZScsICc8aW5maWxlLm1hZT4nLCAnLW9tYWUnLCAnPG91dGZpbGUubWFlPic=

> <r_epik_Ionization_Penalty>
1.10771

> <r_epik_Ionization_Penalty_Charging>
1.10769

> <r_epik_Ionization_Penalty_Neutral>
1.91663e-05

> <r_epik_State_Penalty>
1.16347

> <r_epik_Charging_Adjusted_Penalty>
2.27116

> <i_epik_Tot_Q>
2

> <i_epik_Tot_abs_Q>
2

> <r_epik_Metal_State_Penalty>
1.24871

> <b_epik_Metal_Only>
0

> <s_lp_Force_Field>
OPLS_2005

> <r_lp_Energy>
49.4137

> <b_lp_Chiralities_Consistent>
1

> <s_lp_Variant>
AV-unprocessed.smi:741-4

> <Gold.Version>
5.8.1

> <Gold.Id.Protein>
6NUR|6NUR_protein|mol2

> <Gold.PLP.Fitness>
43.4329

> <Gold.PLP.PLP>
-34.1506

> <Gold.PLP.part.hbond>
-4.0484

> <Gold.PLP.part.metal>
0.0000

> <Gold.PLP.part.buried>
-0.9809

> <Gold.PLP.part.nonpolar>
-32.2193

> <Gold.PLP.part.repulsive>
2.3002

> <Gold.PLP.ligand.clash>
0.0000

> <Gold.PLP.ligand.torsion>
0.9722

> <Gold.PLP.Chemscore.Hbond>
3.7168

> <Gold.PLP.Chemscore.CHOScore>
0.0000

> <Gold.PLP.Chemscore.Metal>
0.0000

> <Gold.Chemscore.Hbonds>
donor molecule, donor type, donor heavy atom, donor atom, acceptor molecule, acceptor atom, score
      L1  H     5    42       P1  7921  0.49
      L1  H    10    36       P1 10171  1.00
      L1  H    13    37       P1 10175  0.33
      L1  H    17    43       P1  8028  1.70

> <Gold.PLP.Chemscore.Internal.Correction>
0.0764

> <Gold.Rescore>
     Score         DG    S(hbond)    S(metal)    S(lipo)     H(rot)  DE(clash)    DE(int)     intcor
     16.44     -19.85       2.54        0.00      86.00       1.63       1.19       2.22       ----

> <Gold.Chemscore.Fitness>
16.4405

> <Gold.Chemscore.DG>
-19.8525

> <Gold.Chemscore.ZeroCoef>
-5.4800

> <Gold.Chemscore.Hbond>
2.5369

> <Gold.Chemscore.Metal>
0.0000

> <Gold.Chemscore.Lipo>
85.9994

> <Gold.Chemscore.Internal_Hbond>
0.0000

> <Gold.Chemscore.DEClash>
1.1894

> <Gold.Chemscore.DEInternal>
2.2227

> <Gold.Chemscore.Rot>
1.6260

> <Gold.Chemscore.Internal.Correction>
   9.000000E+99

> <Gold.Chemscore.Hbonds>
donor molecule, donor type, donor heavy atom, donor atom, acceptor molecule, acceptor atom, score
      L1  H     5    42       P1  7921  0.07
      L1  H    10    36       P1 10171  0.97
      L1  H    13    37       P1 10175  0.20
      L1  H    17    43       P1  8028  0.84

> <Gold.Chemscore.Hbond.Weighted>
-8.4732

> <Gold.Chemscore.Metal.Weighted>
-0.0000

> <Gold.Chemscore.Lipo.Weighted>
-10.0619

> <Gold.Chemscore.Internal_Hbond.Weighted>
0.0000

> <Gold.Chemscore.DEClash.Weighted>
1.1894

> <Gold.Chemscore.DEInternal.Weighted>
2.2227

> <Gold.Chemscore.Rot.Weighted>
4.1626

> <Gold.Chemscore.Internal.Correction.Weighted>
   9.000000E+99

> <Gold.Protein.RotatedTorsions>
[ 6907 6896 6895 6894 ] final   51.73 input  -60.11 | X-H torsion
[ 7974 7965 7964 7962 ] final -133.61 input  175.53 | X-H torsion
[ 8008 7997 7996 7995 ] final  -96.62 input   59.86 | X-H torsion
[ 10167 10162 10161 10158 ] final   89.31 input  -65.29 | X-H torsion
[ 10718 10713 10712 10709 ] final   47.07 input   66.30 | X-H torsion
[ 10763 10752 10751 10750 ] final  169.26 input  -60.55 | X-H torsion
[ 11005 11000 10999 10996 ] final -119.74 input  -57.11 | X-H torsion

> <Gold.Protein.ActiveResidues>
 VAL166  LYS551  ARG553  GLY616  TRP617  ASP618  TYR619  PRO620  LYS621  CYS622 
 ASP623  PHE694  ASN695  SER759  ASP760  ASP761  ALA762  ILE779  LEU786  VAL792 
 PHE793  MET794  SER795  GLU796  ALA797  LYS798  CYS799  TRP800  GLU811  SER814 

> <Gold.Protein.RotatedAtoms>
  152.3157  134.7442  160.0325 H   0  0  0  0  0  0  0  0  0  0  0  0  # atno 6907 bound_to 6896
  151.7908  133.3354  159.3506 H   0  0  0  0  0  0  0  0  0  0  0  0  # atno 6908 bound_to 6896
  150.7343  134.5775  159.5966 H   0  0  0  0  0  0  0  0  0  0  0  0  # atno 6909 bound_to 6896
  144.9177  140.6975  143.4985 H   0  0  0  0  0  0  0  0  0  0  0  0  # atno 7974 bound_to 7965
  154.7769  140.0470  157.1096 H   0  0  0  0  0  0  0  0  0  0  0  0  # atno 8008 bound_to 7997
  154.9752  140.3094  155.4950 H   0  0  0  0  0  0  0  0  0  0  0  0  # atno 8009 bound_to 7997
  156.2930  140.2246  156.4848 H   0  0  0  0  0  0  0  0  0  0  0  0  # atno 8010 bound_to 7997
  139.8585  144.6556  150.9086 H   0  0  0  0  0  0  0  0  0  0  0  0  # atno 10167 bound_to 10162
  157.4547  130.8159  149.7824 H   0  0  0  0  0  0  0  0  0  0  0  0  # atno 10718 bound_to 10713
  154.3805  135.2753  155.2214 H   0  0  0  0  0  0  0  0  0  0  0  0  # atno 10763 bound_to 10752
  154.4322  135.5974  153.6080 H   0  0  0  0  0  0  0  0  0  0  0  0  # atno 10764 bound_to 10752
  152.9835  135.5998  154.4047 H   0  0  0  0  0  0  0  0  0  0  0  0  # atno 10765 bound_to 10752
  141.0194  134.0147  157.3304 H   0  0  0  0  0  0  0  0  0  0  0  0  # atno 11005 bound_to 11000
  145.3347  139.1749  143.4518 LP  0  0  0  0  0  0  0  0  0  0  0  0  # atno 17320 bound_to 7965
  146.3190  140.3381  142.8646 LP  0  0  0  0  0  0  0  0  0  0  0  0  # atno 17321 bound_to 7965
  140.7778  143.3765  151.1554 LP  0  0  0  0  0  0  0  0  0  0  0  0  # atno 17342 bound_to 10162
  139.7396  143.8945  152.3046 LP  0  0  0  0  0  0  0  0  0  0  0  0  # atno 17343 bound_to 10162
  156.0002  130.3884  150.2636 LP  0  0  0  0  0  0  0  0  0  0  0  0  # atno 17370 bound_to 10713
  157.0810  131.0143  151.3156 LP  0  0  0  0  0  0  0  0  0  0  0  0  # atno 17371 bound_to 10713
  139.9137  135.0194  156.7794 LP  0  0  0  0  0  0  0  0  0  0  0  0  # atno 17394 bound_to 11000
  140.6599  133.9655  155.7799 LP  0  0  0  0  0  0  0  0  0  0  0  0  # atno 17395 bound_to 11000

$$$$
