AV-unprocessed.smi:3208|AV-procd|sdf|12264|dock7
  -GOLD-   2272018103D 1   1.00000     0.00000
 Structure written by MMmdl.
 29 29  0  0  0  0  0  0  0  0  2 V2000
  147.5880  141.7973  154.1637 C   0  0  0  0  0  0  0  0  0  0  0  0
  148.9053  141.5759  154.2992 C   0  0  0  0  0  0  0  0  0  0  0  0
  149.5393  140.2703  154.7377 C   0  0  0  0  0  0  0  0  0  0  0  0
  150.9594  140.3636  154.7950 O   0  0  0  0  0  0  0  0  0  0  0  0
  151.5974  139.3848  155.6119 C   0  0  2  0  0  0  0  0  0  0  0  0
  151.0862  138.0053  155.1749 C   0  0  0  0  0  0  0  0  0  0  0  0
  151.2853  139.6353  157.0968 C   0  0  0  0  0  0  0  0  0  0  0  0
  150.1039  139.6993  157.4488 O   0  0  0  0  0  0  0  0  0  0  0  0
  152.4447  139.7573  157.8581 N   0  0  0  0  0  0  0  0  0  0  0  0
  152.6384  140.7092  158.7302 C   0  0  0  0  0  0  0  0  0  0  0  0
  151.6975  141.7205  158.9920 N   0  0  0  0  0  0  0  0  0  0  0  0
  151.9079  142.7235  159.9142 C   0  0  0  0  0  0  0  0  0  0  0  0
  153.0361  142.7944  160.6227 C   0  0  0  0  0  0  0  0  0  0  0  0
  154.0586  141.7903  160.4123 C   0  0  0  0  0  0  0  0  0  0  0  0
  153.9008  140.7484  159.4906 C   0  0  0  0  0  0  0  0  0  0  0  0
  154.8122  139.9015  159.3420 O   0  5  0  0  0  0  0  0  0  0  0  0
  146.8584  141.0274  154.3671 H   0  0  0  0  0  0  0  0  0  0  0  0
  147.2208  142.7616  153.8447 H   0  0  0  0  0  0  0  0  0  0  0  0
  149.5928  142.3805  154.0832 H   0  0  0  0  0  0  0  0  0  0  0  0
  149.1442  140.0116  155.7210 H   0  0  0  0  0  0  0  0  0  0  0  0
  149.2242  139.4919  154.0424 H   0  0  0  0  0  0  0  0  0  0  0  0
  152.6749  139.4230  155.4374 H   0  0  0  0  0  0  0  0  0  0  0  0
  151.5516  137.2083  155.7561 H   0  0  0  0  0  0  0  0  0  0  0  0
  151.3158  137.8234  154.1249 H   0  0  0  0  0  0  0  0  0  0  0  0
  150.0054  137.9225  155.2960 H   0  0  0  0  0  0  0  0  0  0  0  0
  151.0966  143.4299  160.0088 H   0  0  0  0  0  0  0  0  0  0  0  0
  153.1854  143.5869  161.3411 H   0  0  0  0  0  0  0  0  0  0  0  0
  154.9682  141.8578  160.9918 H   0  0  0  0  0  0  0  0  0  0  0  0
  150.8159  141.7433  158.5014 H   0  0  0  0  0  0  0  0  0  0  0  0
  1  2  2  0  0  0  0
  1 17  1  0  0  0  0
  1 18  1  0  0  0  0
  2  3  1  0  0  0  0
  2 19  1  0  0  0  0
  3  4  1  0  0  0  0
  3 20  1  0  0  0  0
  3 21  1  0  0  0  0
  4  5  1  0  0  0  0
  5  6  1  0  0  0  0
  5  7  1  0  0  0  0
  5 22  1  0  0  0  0
  6 23  1  0  0  0  0
  6 24  1  0  0  0  0
  6 25  1  0  0  0  0
  7  8  2  0  0  0  0
  7  9  1  0  0  0  0
  9 10  2  0  0  0  0
 10 15  1  0  0  0  0
 10 11  1  0  0  0  0
 11 29  1  0  0  0  0
 11 12  1  0  0  0  0
 12 26  1  0  0  0  0
 12 13  2  0  0  0  0
 13 27  1  0  0  0  0
 13 14  1  0  0  0  0
 14 15  2  0  0  0  0
 14 28  1  0  0  0  0
 15 16  1  0  0  0  0
M  CHG  1  16  -1
M  END
> <s_m_source_file>
AV-unprocessed.smi

> <i_m_source_file_index>
3208

> <i_lp_mmshare_version>
43012

> <i_f3d_flags>
0

> <s_epik_input>
W0NIMl09W0NIXVtDSDJdT1tDQEhdKFtDSDNdKUMoPU8pW05IXWMxbltjSF1bY0hdW2NIXWMxW09IXQ==

> <s_epik_cmdline>
J2VwaWtfcHl0aG9uJywgJy1waCcsICc3LjAnLCAnLXRuJywgJzgnLCAnLW1hJywgJzIwMCcsICctbWV0YWxfYmluZGluZycsICctaW1hZScsICc8aW5maWxlLm1hZT4nLCAnLW9tYWUnLCAnPG91dGZpbGUubWFlPic=

> <r_epik_Ionization_Penalty>
0.613767

> <r_epik_Ionization_Penalty_Charging>
0.613767

> <r_epik_Ionization_Penalty_Neutral>
1.14324e-13

> <r_epik_State_Penalty>
1.22258

> <r_epik_Charging_Adjusted_Penalty>
1.83635

> <i_epik_Tot_Q>
-1

> <i_epik_Tot_abs_Q>
1

> <r_epik_Metal_State_Penalty>
1.18528

> <b_epik_Metal_Only>
0

> <s_lp_Force_Field>
OPLS_2005

> <r_lp_Energy>
36.008

> <b_lp_Chiralities_Consistent>
1

> <s_lp_Variant>
AV-unprocessed.smi:3208-5

> <Gold.Version>
5.8.1

> <Gold.Id.Protein>
6NUR|6NUR_protein|mol2

> <Gold.PLP.Fitness>
39.9539

> <Gold.PLP.PLP>
-32.0801

> <Gold.PLP.part.hbond>
-2.2283

> <Gold.PLP.part.metal>
0.0000

> <Gold.PLP.part.buried>
-3.0022

> <Gold.PLP.part.nonpolar>
-27.7013

> <Gold.PLP.part.repulsive>
0.1936

> <Gold.PLP.ligand.clash>
0.0000

> <Gold.PLP.ligand.torsion>
0.5789

> <Gold.PLP.Chemscore.Hbond>
3.0000

> <Gold.PLP.Chemscore.CHOScore>
0.0000

> <Gold.PLP.Chemscore.Metal>
0.0000

> <Gold.Chemscore.Hbonds>
donor molecule, donor type, donor heavy atom, donor atom, acceptor molecule, acceptor atom, score
      P1  H  7989  7998       L1     4  1.00
      P1  H  7997  8008       L1    16  2.00

> <Gold.PLP.Chemscore.Internal.Correction>
0.0316

> <Gold.Rescore>
     Score         DG    S(hbond)    S(metal)    S(lipo)     H(rot)  DE(clash)    DE(int)     intcor
     13.60     -15.55       1.62        0.00      75.99       1.65       0.06       1.89       ----

> <Gold.Chemscore.Fitness>
13.5974

> <Gold.Chemscore.DG>
-15.5523

> <Gold.Chemscore.ZeroCoef>
-5.4800

> <Gold.Chemscore.Hbond>
1.6209

> <Gold.Chemscore.Metal>
0.0000

> <Gold.Chemscore.Lipo>
75.9910

> <Gold.Chemscore.Internal_Hbond>
0.0000

> <Gold.Chemscore.DEClash>
0.0640

> <Gold.Chemscore.DEInternal>
1.8909

> <Gold.Chemscore.Rot>
1.6533

> <Gold.Chemscore.Internal.Correction>
   9.000000E+99

> <Gold.Chemscore.Hbonds>
donor molecule, donor type, donor heavy atom, donor atom, acceptor molecule, acceptor atom, score
      P1  H  7989  7998       L1     4  0.83
      P1  H  7997  8008       L1    16  0.36

> <Gold.Chemscore.Hbond.Weighted>
-5.4137

> <Gold.Chemscore.Metal.Weighted>
-0.0000

> <Gold.Chemscore.Lipo.Weighted>
-8.8909

> <Gold.Chemscore.Internal_Hbond.Weighted>
0.0000

> <Gold.Chemscore.DEClash.Weighted>
0.0640

> <Gold.Chemscore.DEInternal.Weighted>
1.8909

> <Gold.Chemscore.Rot.Weighted>
4.2324

> <Gold.Chemscore.Internal.Correction.Weighted>
   9.000000E+99

> <Gold.Protein.RotatedTorsions>
[ 6907 6896 6895 6894 ] final   78.83 input  -60.11 | X-H torsion
[ 7974 7965 7964 7962 ] final  176.13 input  175.53 | X-H torsion
[ 8008 7997 7996 7995 ] final -126.66 input   59.86 | X-H torsion
[ 10167 10162 10161 10158 ] final -104.74 input  -65.29 | X-H torsion
[ 10718 10713 10712 10709 ] final  176.34 input   66.30 | X-H torsion
[ 10763 10752 10751 10750 ] final  -20.22 input  -60.55 | X-H torsion
[ 11005 11000 10999 10996 ] final   28.56 input  -57.11 | X-H torsion

> <Gold.Protein.ActiveResidues>
 VAL166  LYS551  ARG553  GLY616  TRP617  ASP618  TYR619  PRO620  LYS621  CYS622 
 ASP623  PHE694  ASN695  SER759  ASP760  ASP761  ALA762  ILE779  LEU786  VAL792 
 PHE793  MET794  SER795  GLU796  ALA797  LYS798  CYS799  TRP800  GLU811  SER814 

> <Gold.Protein.RotatedAtoms>
  152.5175  134.3604  159.9282 H   0  0  0  0  0  0  0  0  0  0  0  0  # atno 6907 bound_to 6896
  151.3557  133.3902  159.2692 H   0  0  0  0  0  0  0  0  0  0  0  0  # atno 6908 bound_to 6896
  150.9692  134.9086  159.7835 H   0  0  0  0  0  0  0  0  0  0  0  0  # atno 6909 bound_to 6896
  144.7189  140.0050  143.6440 H   0  0  0  0  0  0  0  0  0  0  0  0  # atno 7974 bound_to 7965
  155.2334  140.0426  157.2965 H   0  0  0  0  0  0  0  0  0  0  0  0  # atno 8008 bound_to 7997
  154.5874  140.2417  155.7938 H   0  0  0  0  0  0  0  0  0  0  0  0  # atno 8009 bound_to 7997
  156.2235  140.2962  156.0019 H   0  0  0  0  0  0  0  0  0  0  0  0  # atno 8010 bound_to 7997
  140.2060  143.3782  152.1090 H   0  0  0  0  0  0  0  0  0  0  0  0  # atno 10167 bound_to 10162
  156.9215  130.9942  151.3003 H   0  0  0  0  0  0  0  0  0  0  0  0  # atno 10718 bound_to 10713
  153.6171  135.6994  153.5325 H   0  0  0  0  0  0  0  0  0  0  0  0  # atno 10763 bound_to 10752
  153.2969  135.4140  155.1217 H   0  0  0  0  0  0  0  0  0  0  0  0  # atno 10764 bound_to 10752
  154.8551  135.3639  154.5710 H   0  0  0  0  0  0  0  0  0  0  0  0  # atno 10765 bound_to 10752
  140.3143  134.2614  155.7728 H   0  0  0  0  0  0  0  0  0  0  0  0  # atno 11005 bound_to 11000
  146.0305  139.3330  143.0758 LP  0  0  0  0  0  0  0  0  0  0  0  0  # atno 17320 bound_to 7965
  145.8459  140.9555  143.0775 LP  0  0  0  0  0  0  0  0  0  0  0  0  # atno 17321 bound_to 7965
  139.5198  144.7025  151.5452 LP  0  0  0  0  0  0  0  0  0  0  0  0  # atno 17342 bound_to 10162
  140.6357  143.8989  150.6645 LP  0  0  0  0  0  0  0  0  0  0  0  0  # atno 17343 bound_to 10162
  157.5904  130.8440  149.8651 LP  0  0  0  0  0  0  0  0  0  0  0  0  # atno 17370 bound_to 10713
  156.0489  130.3722  150.1250 LP  0  0  0  0  0  0  0  0  0  0  0  0  # atno 17371 bound_to 10713
  141.2101  133.7729  156.9953 LP  0  0  0  0  0  0  0  0  0  0  0  0  # atno 17394 bound_to 11000
  140.0997  134.9543  157.1904 LP  0  0  0  0  0  0  0  0  0  0  0  0  # atno 17395 bound_to 11000

$$$$
