AV-unprocessed.smi:922|AV-procd|sdf|4175|dock6
  -GOLD-   22720 2 83D 1   1.00000     0.00000
 Structure written by MMmdl.
 33 34  0  0  0  0  0  0  0  0  1 V2000
  153.2435  138.0946  155.7467 C   0  0  0  0  0  0  0  0  0  0  0  0
  152.0063  138.9305  156.0888 C   0  0  2  0  0  0  0  0  0  0  0  0
  151.4126  139.6121  154.8419 C   0  0  0  0  0  0  0  0  0  0  0  0
  150.3114  140.4892  155.2178 N   0  0  0  0  0  0  0  0  0  0  0  0
  149.0282  140.4508  154.6699 C   0  0  0  0  0  0  0  0  0  0  0  0
  148.3288  141.6978  154.3774 C   0  0  0  0  0  0  0  0  0  0  0  0
  147.1450  141.7429  153.8707 N   0  0  0  0  0  0  0  0  0  0  0  0
  146.5118  140.5591  153.5907 N   0  0  0  0  0  0  0  0  0  0  0  0
  147.0010  139.3149  153.7984 C   0  0  0  0  0  0  0  0  0  0  0  0
  146.3439  138.3152  153.5139 O   0  0  0  0  0  0  0  0  0  0  0  0
  148.3513  139.2976  154.3809 C   0  0  0  0  0  0  0  0  0  0  0  0
  149.0105  137.7345  154.7312 Cl  0  0  0  0  0  0  0  0  0  0  0  0
  150.7553  141.4977  156.1739 C   0  0  0  0  0  0  0  0  0  0  0  0
  151.3638  140.8399  157.4339 C   0  0  0  0  0  0  0  0  0  0  0  0
  152.0681  141.9060  158.2870 C   0  0  0  0  0  0  0  0  0  0  0  0
  150.2938  140.1297  158.2907 C   0  0  0  0  0  0  0  0  0  0  0  0
  152.3943  139.9280  157.0346 O   0  0  0  0  0  0  0  0  0  0  0  0
  145.5899  140.6667  153.1929 H   0  0  0  0  0  0  0  0  0  0  0  0
  152.9988  137.3056  155.0351 H   0  0  0  0  0  0  0  0  0  0  0  0
  153.6526  137.6213  156.6396 H   0  0  0  0  0  0  0  0  0  0  0  0
  154.0279  138.7114  155.3071 H   0  0  0  0  0  0  0  0  0  0  0  0
  151.2703  138.2675  156.5415 H   0  0  0  0  0  0  0  0  0  0  0  0
  152.1769  140.2112  154.3454 H   0  0  0  0  0  0  0  0  0  0  0  0
  151.0865  138.8709  154.1125 H   0  0  0  0  0  0  0  0  0  0  0  0
  148.8763  142.6111  154.6113 H   0  0  0  0  0  0  0  0  0  0  0  0
  151.4940  142.1333  155.6839 H   0  0  0  0  0  0  0  0  0  0  0  0
  149.9280  142.1465  156.4633 H   0  0  0  0  0  0  0  0  0  0  0  0
  151.3666  142.6668  158.6311 H   0  0  0  0  0  0  0  0  0  0  0  0
  152.8520  142.4106  157.7210 H   0  0  0  0  0  0  0  0  0  0  0  0
  152.5345  141.4624  159.1674 H   0  0  0  0  0  0  0  0  0  0  0  0
  149.5729  140.8464  158.6849 H   0  0  0  0  0  0  0  0  0  0  0  0
  150.7474  139.6174  159.1396 H   0  0  0  0  0  0  0  0  0  0  0  0
  149.7265  139.3917  157.7249 H   0  0  0  0  0  0  0  0  0  0  0  0
  1  2  1  0  0  0  0
  1 19  1  0  0  0  0
  1 20  1  0  0  0  0
  1 21  1  0  0  0  0
  2 17  1  0  0  0  0
  2  3  1  0  0  0  0
  2 22  1  0  0  0  0
  3  4  1  0  0  0  0
  3 23  1  0  0  0  0
  3 24  1  0  0  0  0
  4  5  1  0  0  0  0
  4 13  1  0  0  0  0
  5 11  2  0  0  0  0
  5  6  1  0  0  0  0
  6  7  2  0  0  0  0
  6 25  1  0  0  0  0
  7  8  1  0  0  0  0
  8 18  1  0  0  0  0
  8  9  1  0  0  0  0
  9 10  2  0  0  0  0
  9 11  1  0  0  0  0
 11 12  1  0  0  0  0
 13 14  1  0  0  0  0
 13 26  1  0  0  0  0
 13 27  1  0  0  0  0
 14 15  1  0  0  0  0
 14 16  1  0  0  0  0
 14 17  1  0  0  0  0
 15 28  1  0  0  0  0
 15 29  1  0  0  0  0
 15 30  1  0  0  0  0
 16 31  1  0  0  0  0
 16 32  1  0  0  0  0
 16 33  1  0  0  0  0
M  END
> <s_m_source_file>
AV-unprocessed.smi

> <i_m_source_file_index>
922

> <i_lp_mmshare_version>
43012

> <i_f3d_flags>
0

> <s_epik_input>
W0NIM11bQ0BASF0oTzEpW0NIMl1OKFtDSDJdQzEoW0NIM10pW0NIM10pYzJbY0hdbltuSF1jKD1PKWMyQ2w=

> <s_epik_cmdline>
J2VwaWtfcHl0aG9uJywgJy1waCcsICc3LjAnLCAnLXRuJywgJzgnLCAnLW1hJywgJzIwMCcsICctbWV0YWxfYmluZGluZycsICctaW1hZScsICc8aW5maWxlLm1hZT4nLCAnLW9tYWUnLCAnPG91dGZpbGUubWFlPic=

> <r_lp_tautomer_probability>
0.986175

> <r_epik_Ionization_Penalty>
0.00909695

> <r_epik_Ionization_Penalty_Charging>
0.00909694

> <r_epik_Ionization_Penalty_Neutral>
4.87729e-09

> <r_epik_State_Penalty>
1.54226

> <r_epik_Charging_Adjusted_Penalty>
1.55136

> <i_epik_Tot_Q>
0

> <i_epik_Tot_abs_Q>
0

> <r_epik_Metal_State_Penalty>
3.93934

> <b_epik_Metal_Only>
0

> <s_lp_Force_Field>
OPLS_2005

> <r_lp_Energy>
35.5656

> <b_lp_Chiralities_Consistent>
1

> <s_lp_Variant>
AV-unprocessed.smi:922-3

> <Gold.Version>
5.8.1

> <Gold.Id.Protein>
6NUR|6NUR_protein|mol2

> <Gold.PLP.Fitness>
34.5255

> <Gold.PLP.PLP>
-25.7334

> <Gold.PLP.part.hbond>
-2.0000

> <Gold.PLP.part.metal>
0.0000

> <Gold.PLP.part.buried>
1.2632

> <Gold.PLP.part.nonpolar>
-25.3678

> <Gold.PLP.part.repulsive>
0.3880

> <Gold.PLP.ligand.clash>
0.0000

> <Gold.PLP.ligand.torsion>
0.5695

> <Gold.PLP.Chemscore.Hbond>
2.0000

> <Gold.PLP.Chemscore.CHOScore>
1.0000

> <Gold.PLP.Chemscore.Metal>
0.0000

> <Gold.Chemscore.Hbonds>
donor molecule, donor type, donor heavy atom, donor atom, acceptor molecule, acceptor atom, score
      L1  H     8    18       P1 10175  0.98
      P1  H  7997  8010       L1    17  1.00
      L1  C     6    25       P1  8028  1.00

> <Gold.PLP.Chemscore.Internal.Correction>
0.9312

> <Gold.Rescore>
     Score         DG    S(hbond)    S(metal)    S(lipo)     H(rot)  DE(clash)    DE(int)     intcor
     16.54     -17.50       1.32        0.00      65.11       0.00       0.22       0.74       ----

> <Gold.Chemscore.Fitness>
16.5399

> <Gold.Chemscore.DG>
-17.4989

> <Gold.Chemscore.ZeroCoef>
-5.4800

> <Gold.Chemscore.Hbond>
1.3177

> <Gold.Chemscore.Metal>
0.0000

> <Gold.Chemscore.Lipo>
65.1089

> <Gold.Chemscore.Internal_Hbond>
0.0000

> <Gold.Chemscore.DEClash>
0.2218

> <Gold.Chemscore.DEInternal>
0.7372

> <Gold.Chemscore.Rot>
0.0000

> <Gold.Chemscore.Internal.Correction>
   9.000000E+99

> <Gold.Chemscore.Hbonds>
donor molecule, donor type, donor heavy atom, donor atom, acceptor molecule, acceptor atom, score
      L1  H     8    18       P1 10175  0.75
      P1  H  7997  8010       L1    17  0.24

> <Gold.Chemscore.Hbond.Weighted>
-4.4011

> <Gold.Chemscore.Metal.Weighted>
-0.0000

> <Gold.Chemscore.Lipo.Weighted>
-7.6177

> <Gold.Chemscore.Internal_Hbond.Weighted>
0.0000

> <Gold.Chemscore.DEClash.Weighted>
0.2218

> <Gold.Chemscore.DEInternal.Weighted>
0.7372

> <Gold.Chemscore.Rot.Weighted>
0.0000

> <Gold.Chemscore.Internal.Correction.Weighted>
   9.000000E+99

> <Gold.Protein.RotatedTorsions>
[ 6907 6896 6895 6894 ] final  -73.17 input  -60.11 | X-H torsion
[ 7974 7965 7964 7962 ] final   85.77 input  175.53 | X-H torsion
[ 8008 7997 7996 7995 ] final   65.09 input   59.86 | X-H torsion
[ 10167 10162 10161 10158 ] final  167.95 input  -65.29 | X-H torsion
[ 10718 10713 10712 10709 ] final  -19.18 input   66.30 | X-H torsion
[ 10763 10752 10751 10750 ] final -151.45 input  -60.55 | X-H torsion
[ 11005 11000 10999 10996 ] final   97.40 input  -57.11 | X-H torsion

> <Gold.Protein.ActiveResidues>
 VAL166  LYS551  ARG553  GLY616  TRP617  ASP618  TYR619  PRO620  LYS621  CYS622 
 ASP623  PHE694  ASN695  SER759  ASP760  ASP761  ALA762  ILE779  LEU786  VAL792 
 PHE793  MET794  SER795  GLU796  ALA797  LYS798  CYS799  TRP800  GLU811  SER814 

> <Gold.Protein.RotatedAtoms>
  150.7141  134.5056  159.5582 H   0  0  0  0  0  0  0  0  0  0  0  0  # atno 6907 bound_to 6896
  152.2644  134.7997  160.0434 H   0  0  0  0  0  0  0  0  0  0  0  0  # atno 6908 bound_to 6896
  151.8699  133.3438  159.3768 H   0  0  0  0  0  0  0  0  0  0  0  0  # atno 6909 bound_to 6896
  145.5811  139.2325  143.2352 H   0  0  0  0  0  0  0  0  0  0  0  0  # atno 7974 bound_to 7965
  155.6563  140.3497  155.4766 H   0  0  0  0  0  0  0  0  0  0  0  0  # atno 8008 bound_to 7997
  155.9806  140.1173  157.0753 H   0  0  0  0  0  0  0  0  0  0  0  0  # atno 8009 bound_to 7997
  154.4190  140.1139  156.5416 H   0  0  0  0  0  0  0  0  0  0  0  0  # atno 8010 bound_to 7997
  139.4956  144.3867  151.9562 H   0  0  0  0  0  0  0  0  0  0  0  0  # atno 10167 bound_to 10162
  156.5493  130.4697  149.6460 H   0  0  0  0  0  0  0  0  0  0  0  0  # atno 10718 bound_to 10713
  154.8057  135.3260  154.7437 H   0  0  0  0  0  0  0  0  0  0  0  0  # atno 10763 bound_to 10752
  153.8096  135.6897  153.4847 H   0  0  0  0  0  0  0  0  0  0  0  0  # atno 10764 bound_to 10752
  153.1801  135.4590  154.9961 H   0  0  0  0  0  0  0  0  0  0  0  0  # atno 10765 bound_to 10752
  139.8776  134.8999  156.4302 H   0  0  0  0  0  0  0  0  0  0  0  0  # atno 11005 bound_to 11000
  146.1715  140.6638  142.9231 LP  0  0  0  0  0  0  0  0  0  0  0  0  # atno 17320 bound_to 7965
  144.7393  140.4898  143.6881 LP  0  0  0  0  0  0  0  0  0  0  0  0  # atno 17321 bound_to 7965
  140.3304  144.3323  150.5988 LP  0  0  0  0  0  0  0  0  0  0  0  0  # atno 17342 bound_to 10162
  140.5649  143.2187  151.7700 LP  0  0  0  0  0  0  0  0  0  0  0  0  # atno 17343 bound_to 10162
  156.2899  130.7118  151.1965 LP  0  0  0  0  0  0  0  0  0  0  0  0  # atno 17370 bound_to 10713
  157.7390  131.0534  150.5256 LP  0  0  0  0  0  0  0  0  0  0  0  0  # atno 17371 bound_to 10713
  140.9072  133.7737  155.9749 LP  0  0  0  0  0  0  0  0  0  0  0  0  # atno 17394 bound_to 11000
  140.8586  134.2867  157.5244 LP  0  0  0  0  0  0  0  0  0  0  0  0  # atno 17395 bound_to 11000

$$$$
