#       Name:                AV-unprocessed.smi:1487
#       Creating user name   scv26
#       Creation time:       Fri Mar 27 06:12:10 2020


#       File generated by GOLD software.
#

@<TRIPOS>MOLECULE
AV-unprocessed.smi:1487
    53    55     1
SMALL
NO_CHARGES


@<TRIPOS>ATOM
      1 ****        -4.4734   3.8371  -2.9991 C.3            1 S1                 0.0000
      2 ****        -3.7425   3.0330  -1.9372 C.ar           1 S1                 0.0000
      3 ****        -3.4382   3.6591  -0.7075 C.ar           1 S1                 0.0000
      4 ****        -2.7700   2.8977   0.2437 C.ar           1 S1                 0.0000
      5 ****        -2.3348   3.2203   1.5306 N.pl3          1 S1                 1.0000
      6 ****        -1.7219   2.1397   2.0879 C.2            1 S1                 0.0000
      7 ****        -1.7578   1.1306   1.1754 N.pl3          1 S1                 0.0000
      8 ****        -1.2442  -0.2437   1.2771 C.3            1 S1                 0.0000
      9 ****         0.2552  -0.3510   0.9370 C.3            1 S1                 0.0000
     10 ****         0.4754   0.1028  -0.3843 O.3            1 S1                 0.0000
     11 ****         0.7612  -1.8030   1.0470 C.3            1 S1                 0.0000
     12 ****         2.2317  -1.9075   0.8657 N.4            1 S1                 1.0000
     13 ****         3.0022  -1.5405   2.0834 C.3            1 S1                 0.0000
     14 ****         4.5100  -1.5010   1.7902 C.3            1 S1                 0.0000
     15 ****         4.9969  -2.8453   1.2312 C.3            1 S1                 0.0000
     16 ****         4.1538  -3.2765   0.0194 C.3            1 S1                 0.0000
     17 ****         4.4332  -2.4534  -1.0959 O.3            1 S1                 0.0000
     18 ****         2.6444  -3.2313   0.3291 C.3            1 S1                 0.0000
     19 ****        -2.4043   1.5578   0.0084 C.ar           1 S1                 0.0000
     20 ****        -2.6954   0.9266  -1.1990 C.ar           1 S1                 0.0000
     21 ****        -3.3763   1.6837  -2.1792 C.ar           1 S1                 0.0000
     22 ****        -3.7078   1.0201  -3.5051 C.3            1 S1                 0.0000
     23 ****        -4.6299   4.8684  -2.6816 H              1 S1                 0.0000
     24 ****        -5.4503   3.3988  -3.2043 H              1 S1                 0.0000
     25 ****        -3.9011   3.8591  -3.9268 H              1 S1                 0.0000
     26 ****        -3.7138   4.6861  -0.5159 H              1 S1                 0.0000
     27 ****        -1.2874   2.0927   3.0763 H              1 S1                 0.0000
     28 ****        -1.4135  -0.5713   2.3037 H              1 S1                 0.0000
     29 ****        -1.8436  -0.9015   0.6472 H              1 S1                 0.0000
     30 ****         0.8090   0.2991   1.6136 H              1 S1                 0.0000
     31 ****         0.1764   0.9974  -0.4487 H              1 S1                 0.0000
     32 ****         0.4873  -2.2346   2.0109 H              1 S1                 0.0000
     33 ****         0.2489  -2.4025   0.2925 H              1 S1                 0.0000
     34 ****         2.6896  -0.5644   2.4527 H              1 S1                 0.0000
     35 ****         2.7934  -2.2581   2.8785 H              1 S1                 0.0000
     36 ****         4.7245  -0.7035   1.0776 H              1 S1                 0.0000
     37 ****         5.0601  -1.2568   2.6993 H              1 S1                 0.0000
     38 ****         6.0533  -2.7888   0.9657 H              1 S1                 0.0000
     39 ****         4.9170  -3.6047   2.0103 H              1 S1                 0.0000
     40 ****         4.4284  -4.2935  -0.2623 H              1 S1                 0.0000
     41 ****         5.3485  -2.5431  -1.3160 H              1 S1                 0.0000
     42 ****         2.3942  -4.0028   1.0590 H              1 S1                 0.0000
     43 ****         2.0803  -3.4617  -0.5760 H              1 S1                 0.0000
     44 ****        -2.4133  -0.0982  -1.3895 H              1 S1                 0.0000
     45 ****        -3.4093  -0.0287  -3.5127 H              1 S1                 0.0000
     46 ****        -3.1885   1.5207  -4.3226 H              1 S1                 0.0000
     47 ****        -4.7801   1.0607  -3.6983 H              1 S1                 0.0000
     48 ****         2.4732  -1.2367   0.1495 H              1 S1                 0.0000
     49 ****        -2.4488   4.1115   1.9970 H              1 S1                 0.0000
     50 ****        -0.0338  -0.4699  -1.0267 LP             1 S1                 0.0000
     51 ****         1.4512   0.0573  -0.5982 LP             1 S1                 0.0000
     52 ****         4.2331  -1.5001  -0.8694 LP             1 S1                 0.0000
     53 ****         3.8707  -2.7365  -1.8727 LP             1 S1                 0.0000
@<TRIPOS>BOND
    1    1    2 1     
    2    1   23 1     
    3    1   24 1     
    4    1   25 1     
    5    2   21 ar    
    6    2    3 ar    
    7    3    4 ar    
    8    3   26 1     
    9    4   19 ar    
   10    4    5 1     
   11    5    6 2     
   12    5   49 1     
   13    6    7 1     
   14    6   27 1     
   15    7    8 1     
   16    7   19 1     
   17    8    9 1     
   18    8   28 1     
   19    8   29 1     
   20    9   10 1     
   21    9   11 1     
   22    9   30 1     
   23   10   31 1     
   24   11   12 1     
   25   11   32 1     
   26   11   33 1     
   27   12   18 1     
   28   12   13 1     
   29   12   48 1     
   30   13   14 1     
   31   13   34 1     
   32   13   35 1     
   33   14   15 1     
   34   14   36 1     
   35   14   37 1     
   36   15   16 1     
   37   15   38 1     
   38   15   39 1     
   39   16   17 1     
   40   16   18 1     
   41   16   40 1     
   42   17   41 1     
   43   18   42 1     
   44   18   43 1     
   45   19   20 ar    
   46   20   21 ar    
   47   20   44 1     
   48   21   22 1     
   49   22   45 1     
   50   22   46 1     
   51   22   47 1     
   52   10   50 1     
   53   10   51 1     
   54   17   52 1     
   55   17   53 1     
@<TRIPOS>SUBSTRUCTURE
      1 S1             1
@<TRIPOS>SET
LONE_PAIRS      STATIC     ATOMS    <user>   **** ""
4 50 51 52 53
DONOR_HYDROGENS      STATIC     ATOMS    <user>   **** ""
4 49 31 48 41
ATOM$BLUE        STATIC     ATOMS    COLORGROUP SYSTEM
4 50 51 52 53
ATOM$RED        STATIC     ATOMS    COLORGROUP SYSTEM
4 49 31 48 41
