AV-unprocessed.smi:104|AV-procd|sdf|1006|dock3
  -GOLD-   2262018 03D 1   1.00000     0.00000
 Structure written by MMmdl.
 47 49  0  0  0  0  0  0  0  0  1 V2000
  145.8691  136.8990  161.9851 C   0  0  0  0  0  0  0  0  0  0  0  0
  147.2635  136.8849  161.3731 C   0  0  0  0  0  0  0  0  0  0  0  0
  148.2668  136.7002  162.0621 O   0  0  0  0  0  0  0  0  0  0  0  0
  147.2435  137.0912  160.0497 O   0  0  0  0  0  0  0  0  0  0  0  0
  148.4293  136.9167  159.2897 C   0  0  0  0  0  0  0  0  0  0  0  0
  148.5009  137.9406  158.1465 C   0  0  1  0  0  0  0  0  0  0  0  0
  149.8543  138.2241  157.7902 O   0  0  0  0  0  0  0  0  0  0  0  0
  150.0858  137.9012  156.4517 C   0  0  1  0  0  0  0  0  0  0  0  0
  150.6563  136.5023  156.4344 N   0  0  0  0  0  0  0  0  0  0  0  0
  151.8620  136.1167  156.9784 C   0  0  0  0  0  0  0  0  0  0  0  0
  153.0129  137.3477  157.8658 Br  0  0  0  0  0  0  0  0  0  0  0  0
  152.2020  134.8649  156.8757 N   0  0  0  0  0  0  0  0  0  0  0  0
  151.1347  134.3186  156.1803 C   0  0  0  0  0  0  0  0  0  0  0  0
  150.8347  133.0079  155.7314 C   0  0  0  0  0  0  0  0  0  0  0  0
  151.6445  131.9612  155.9413 N   0  0  0  0  0  0  0  0  0  0  0  0
  149.6777  132.7989  155.0641 N   0  0  0  0  0  0  0  0  0  0  0  0
  148.8543  133.8262  154.8434 C   0  0  0  0  0  0  0  0  0  0  0  0
  149.0013  135.1030  155.2023 N   0  0  0  0  0  0  0  0  0  0  0  0
  150.1645  135.3241  155.8843 C   0  0  0  0  0  0  0  0  0  0  0  0
  148.7203  138.0560  155.7710 C   0  0  2  0  0  0  0  0  0  0  0  0
  148.4825  139.4364  155.5093 O   0  0  0  0  0  0  0  0  0  0  0  0
  149.3064  140.1288  154.7042 C   0  0  0  0  0  0  0  0  0  0  0  0
  148.7084  141.4607  154.2713 C   0  0  0  0  0  0  0  0  0  0  0  0
  150.4257  139.7747  154.3343 O   0  0  0  0  0  0  0  0  0  0  0  0
  147.7808  137.5323  156.8543 C   0  0  2  0  0  0  0  0  0  0  0  0
  146.4729  138.0844  156.7614 O   0  0  0  0  0  0  0  0  0  0  0  0
  145.7787  137.9793  155.6146 C   0  0  0  0  0  0  0  0  0  0  0  0
  144.4277  138.6781  155.6878 C   0  0  0  0  0  0  0  0  0  0  0  0
  146.1504  137.4020  154.5927 O   0  0  0  0  0  0  0  0  0  0  0  0
  145.2713  137.7026  161.5541 H   0  0  0  0  0  0  0  0  0  0  0  0
  145.9252  137.0517  163.0630 H   0  0  0  0  0  0  0  0  0  0  0  0
  145.3646  135.9516  161.7958 H   0  0  0  0  0  0  0  0  0  0  0  0
  149.2931  137.0375  159.9446 H   0  0  0  0  0  0  0  0  0  0  0  0
  148.4673  135.9049  158.8837 H   0  0  0  0  0  0  0  0  0  0  0  0
  148.0879  138.8851  158.5027 H   0  0  0  0  0  0  0  0  0  0  0  0
  150.8777  138.5102  156.0142 H   0  0  0  0  0  0  0  0  0  0  0  0
  152.5133  132.0889  156.4398 H   0  0  0  0  0  0  0  0  0  0  0  0
  151.3860  131.0479  155.5973 H   0  0  0  0  0  0  0  0  0  0  0  0
  147.9480  133.5935  154.3038 H   0  0  0  0  0  0  0  0  0  0  0  0
  148.6552  137.4963  154.8403 H   0  0  0  0  0  0  0  0  0  0  0  0
  147.8158  141.2956  153.6677 H   0  0  0  0  0  0  0  0  0  0  0  0
  149.4259  142.0293  153.6793 H   0  0  0  0  0  0  0  0  0  0  0  0
  148.4326  142.0540  155.1430 H   0  0  0  0  0  0  0  0  0  0  0  0
  147.7295  136.4452  156.8047 H   0  0  0  0  0  0  0  0  0  0  0  0
  143.8080  138.2251  156.4616 H   0  0  0  0  0  0  0  0  0  0  0  0
  143.9036  138.6001  154.7350 H   0  0  0  0  0  0  0  0  0  0  0  0
  144.5604  139.7343  155.9229 H   0  0  0  0  0  0  0  0  0  0  0  0
  1  2  1  0  0  0  0
  1 30  1  0  0  0  0
  1 31  1  0  0  0  0
  1 32  1  0  0  0  0
  2  3  2  0  0  0  0
  2  4  1  0  0  0  0
  4  5  1  0  0  0  0
  5  6  1  0  0  0  0
  5 33  1  0  0  0  0
  5 34  1  0  0  0  0
  6 25  1  0  0  0  0
  6  7  1  0  0  0  0
  6 35  1  0  0  0  0
  7  8  1  0  0  0  0
  8  9  1  0  0  0  0
  8 20  1  0  0  0  0
  8 36  1  0  0  0  0
  9 19  1  0  0  0  0
  9 10  1  0  0  0  0
 10 11  1  0  0  0  0
 10 12  2  0  0  0  0
 12 13  1  0  0  0  0
 13 19  2  0  0  0  0
 13 14  1  0  0  0  0
 14 15  1  0  0  0  0
 14 16  2  0  0  0  0
 15 37  1  0  0  0  0
 15 38  1  0  0  0  0
 16 17  1  0  0  0  0
 17 18  2  0  0  0  0
 17 39  1  0  0  0  0
 18 19  1  0  0  0  0
 20 21  1  0  0  0  0
 20 25  1  0  0  0  0
 20 40  1  0  0  0  0
 21 22  1  0  0  0  0
 22 23  1  0  0  0  0
 22 24  2  0  0  0  0
 23 41  1  0  0  0  0
 23 42  1  0  0  0  0
 23 43  1  0  0  0  0
 25 26  1  0  0  0  0
 25 44  1  0  0  0  0
 26 27  1  0  0  0  0
 27 28  1  0  0  0  0
 27 29  2  0  0  0  0
 28 45  1  0  0  0  0
 28 46  1  0  0  0  0
 28 47  1  0  0  0  0
M  END
> <s_m_source_file>
AV-unprocessed.smi

> <i_m_source_file_index>
104

> <i_lp_mmshare_version>
43012

> <i_f3d_flags>
0

> <s_epik_input>
W0NIM11DKD1PKU9bQ0gyXVtDQEBIXTFPW0NASF0oW0NAQEhdKE9DKD1PKVtDSDNdKVtDQEhdMU9DKD1PKVtDSDNdKW4oYyhCciluMiljKGMyMyluW2NIXW5jM1tOSDJd

> <s_epik_cmdline>
J2VwaWtfcHl0aG9uJywgJy1waCcsICc3LjAnLCAnLXRuJywgJzgnLCAnLW1hJywgJzIwMCcsICctbWV0YWxfYmluZGluZycsICctaW1hZScsICc8aW5maWxlLm1hZT4nLCAnLW9tYWUnLCAnPG91dGZpbGUubWFlPic=

> <r_lp_tautomer_probability>
1

> <r_epik_Ionization_Penalty>
7.36622e-05

> <r_epik_Ionization_Penalty_Charging>
0

> <r_epik_Ionization_Penalty_Neutral>
7.36622e-05

> <r_epik_State_Penalty>
-0

> <r_epik_Charging_Adjusted_Penalty>
0

> <i_epik_Tot_Q>
0

> <i_epik_Tot_abs_Q>
0

> <r_epik_Metal_State_Penalty>
-0

> <b_epik_Metal_Only>
0

> <s_epik_Chemistry_Notes>
This compound has an ester and may undergo hydrolysis at high or low pH. This compound contains an acetal/aminal-like group ( X-CH(R)-Y where X, Y are N, S, or O) that may be acid/base labile, releasing an aldehyde.

> <s_lp_Force_Field>
OPLS_2005

> <r_lp_Energy>
17.7308

> <b_lp_Chiralities_Consistent>
1

> <s_lp_Variant>
AV-unprocessed.smi:104-14

> <Gold.Version>
5.8.1

> <Gold.Id.Protein>
6NUR|6NUR_protein|mol2

> <Gold.PLP.Fitness>
32.8754

> <Gold.PLP.PLP>
-26.9208

> <Gold.PLP.part.hbond>
-4.1087

> <Gold.PLP.part.metal>
0.0000

> <Gold.PLP.part.buried>
-3.8886

> <Gold.PLP.part.nonpolar>
-17.9826

> <Gold.PLP.part.repulsive>
0.4403

> <Gold.PLP.ligand.clash>
0.0000

> <Gold.PLP.ligand.torsion>
0.8740

> <Gold.PLP.Chemscore.Hbond>
2.5000

> <Gold.PLP.Chemscore.CHOScore>
0.0000

> <Gold.PLP.Chemscore.Metal>
0.0000

> <Gold.Chemscore.Hbonds>
donor molecule, donor type, donor heavy atom, donor atom, acceptor molecule, acceptor atom, score
      P1  H  6931  6943       L1     3  1.00
      P1  H  7989  7998       L1    24  1.00
      P1  H 10752 10763       L1    12  0.41

> <Gold.PLP.Chemscore.Internal.Correction>
0.2025

> <Gold.Rescore>
     Score         DG    S(hbond)    S(metal)    S(lipo)     H(rot)  DE(clash)    DE(int)     intcor
      0.05      -4.39       1.97        0.00      28.65       4.31       0.14       4.20       ----

> <Gold.Chemscore.Fitness>
0.0497

> <Gold.Chemscore.DG>
-4.3862

> <Gold.Chemscore.ZeroCoef>
-5.4800

> <Gold.Chemscore.Hbond>
1.9701

> <Gold.Chemscore.Metal>
0.0000

> <Gold.Chemscore.Lipo>
28.6493

> <Gold.Chemscore.Internal_Hbond>
0.0000

> <Gold.Chemscore.DEClash>
0.1375

> <Gold.Chemscore.DEInternal>
4.1990

> <Gold.Chemscore.Rot>
4.3070

> <Gold.Chemscore.Internal.Correction>
   9.000000E+99

> <Gold.Chemscore.Hbonds>
donor molecule, donor type, donor heavy atom, donor atom, acceptor molecule, acceptor atom, score
      P1  H  6931  6943       L1     3  0.30
      P1  H  7989  7998       L1    24  0.99

> <Gold.Chemscore.Hbond.Weighted>
-6.5801

> <Gold.Chemscore.Metal.Weighted>
-0.0000

> <Gold.Chemscore.Lipo.Weighted>
-3.3520

> <Gold.Chemscore.Internal_Hbond.Weighted>
0.0000

> <Gold.Chemscore.DEClash.Weighted>
0.1375

> <Gold.Chemscore.DEInternal.Weighted>
4.1990

> <Gold.Chemscore.Rot.Weighted>
11.0259

> <Gold.Chemscore.Internal.Correction.Weighted>
   9.000000E+99

> <Gold.Protein.RotatedTorsions>
[ 6907 6896 6895 6894 ] final   -1.70 input  -60.11 | X-H torsion
[ 7974 7965 7964 7962 ] final  129.53 input  175.53 | X-H torsion
[ 8008 7997 7996 7995 ] final   69.98 input   59.86 | X-H torsion
[ 10167 10162 10161 10158 ] final   31.58 input  -65.29 | X-H torsion
[ 10718 10713 10712 10709 ] final   -6.49 input   66.30 | X-H torsion
[ 10763 10752 10751 10750 ] final  112.68 input  -60.55 | X-H torsion
[ 11005 11000 10999 10996 ] final  141.96 input  -57.11 | X-H torsion

> <Gold.Protein.ActiveResidues>
 VAL166  LYS551  ARG553  GLY616  TRP617  ASP618  TYR619  PRO620  LYS621  CYS622 
 ASP623  PHE694  ASN695  SER759  ASP760  ASP761  ALA762  ILE779  LEU786  VAL792 
 PHE793  MET794  SER795  GLU796  ALA797  LYS798  CYS799  TRP800  GLU811  SER814 

> <Gold.Protein.RotatedAtoms>
  151.5418  135.1068  159.9927 H   0  0  0  0  0  0  0  0  0  0  0  0  # atno 6907 bound_to 6896
  152.4532  133.7666  159.6786 H   0  0  0  0  0  0  0  0  0  0  0  0  # atno 6908 bound_to 6896
  150.8466  133.7785  159.3065 H   0  0  0  0  0  0  0  0  0  0  0  0  # atno 6909 bound_to 6896
  145.0276  139.4075  143.5166 H   0  0  0  0  0  0  0  0  0  0  0  0  # atno 7974 bound_to 7965
  155.7318  140.3492  155.5063 H   0  0  0  0  0  0  0  0  0  0  0  0  # atno 8008 bound_to 7997
  155.9175  140.1061  157.1254 H   0  0  0  0  0  0  0  0  0  0  0  0  # atno 8009 bound_to 7997
  154.4065  140.1256  156.4623 H   0  0  0  0  0  0  0  0  0  0  0  0  # atno 8010 bound_to 7997
  140.4576  144.0955  150.6205 H   0  0  0  0  0  0  0  0  0  0  0  0  # atno 10167 bound_to 10162
  156.7311  130.5180  149.5845 H   0  0  0  0  0  0  0  0  0  0  0  0  # atno 10718 bound_to 10713
  153.4814  135.3679  155.2444 H   0  0  0  0  0  0  0  0  0  0  0  0  # atno 10763 bound_to 10752
  154.8755  135.3955  154.3696 H   0  0  0  0  0  0  0  0  0  0  0  0  # atno 10764 bound_to 10752
  153.4300  135.7082  153.6302 H   0  0  0  0  0  0  0  0  0  0  0  0  # atno 10765 bound_to 10752
  140.0440  134.9290  157.0896 H   0  0  0  0  0  0  0  0  0  0  0  0  # atno 11005 bound_to 11000
  146.3494  139.9809  142.8696 LP  0  0  0  0  0  0  0  0  0  0  0  0  # atno 17320 bound_to 7965
  145.1812  140.9768  143.4265 LP  0  0  0  0  0  0  0  0  0  0  0  0  # atno 17321 bound_to 7965
  140.4132  143.2646  151.9807 LP  0  0  0  0  0  0  0  0  0  0  0  0  # atno 17342 bound_to 10162
  139.4803  144.5896  151.7794 LP  0  0  0  0  0  0  0  0  0  0  0  0  # atno 17343 bound_to 10162
  156.1528  130.6322  151.0618 LP  0  0  0  0  0  0  0  0  0  0  0  0  # atno 17370 bound_to 10713
  157.6858  131.0825  150.7245 LP  0  0  0  0  0  0  0  0  0  0  0  0  # atno 17371 bound_to 10713
  140.4023  134.2070  155.7163 LP  0  0  0  0  0  0  0  0  0  0  0  0  # atno 17394 bound_to 11000
  141.1898  133.8231  157.0944 LP  0  0  0  0  0  0  0  0  0  0  0  0  # atno 17395 bound_to 11000

$$$$
