AV-unprocessed.smi:3033|AV-procd|sdf|11573|dock2
  -GOLD-   2272016533D 1   1.00000     0.00000
 Structure written by MMmdl.
 33 34  0  0  0  0  0  0  0  0  1 V2000
  155.5469  139.8063  160.3400 C   0  0  0  0  0  0  0  0  0  0  0  0
  154.5796  140.0099  159.3204 O   0  0  0  0  0  0  0  0  0  0  0  0
  153.6877  141.0500  159.4710 C   0  0  0  0  0  0  0  0  0  0  0  0
  153.6782  141.9371  160.5766 C   0  0  0  0  0  0  0  0  0  0  0  0
  152.7264  142.9718  160.6503 C   0  0  0  0  0  0  0  0  0  0  0  0
  151.7776  143.1352  159.6248 C   0  0  0  0  0  0  0  0  0  0  0  0
  151.7772  142.2630  158.5160 C   0  0  0  0  0  0  0  0  0  0  0  0
  150.7510  142.4241  157.4047 C   0  0  2  0  0  0  0  0  0  0  0  0
  149.8195  143.4403  157.7186 O   0  0  0  0  0  0  0  0  0  0  0  0
  149.9975  141.0997  157.1525 C   0  0  0  0  0  0  0  0  0  0  0  0
  149.1865  141.1266  155.9586 N   0  0  0  0  0  0  0  0  0  0  0  0
  147.9305  141.7135  155.9363 C   0  0  0  0  0  0  0  0  0  0  0  0
  147.1370  141.7312  154.8382 C   0  0  0  0  0  0  0  0  0  0  0  0
  145.5816  142.4806  154.8925 Cl  0  0  0  0  0  0  0  0  0  0  0  0
  147.5935  141.1089  153.5962 C   0  0  0  0  0  0  0  0  0  0  0  0
  146.9588  141.0692  152.5440 O   0  0  0  0  0  0  0  0  0  0  0  0
  148.8616  140.5239  153.6666 N   0  0  0  0  0  0  0  0  0  0  0  0
  149.6840  140.4978  154.7936 C   0  0  0  0  0  0  0  0  0  0  0  0
  150.7809  139.9426  154.7361 O   0  0  0  0  0  0  0  0  0  0  0  0
  152.7310  141.2255  158.4501 C   0  0  0  0  0  0  0  0  0  0  0  0
  149.2118  140.0798  152.8302 H   0  0  0  0  0  0  0  0  0  0  0  0
  156.1684  138.9494  160.0806 H   0  0  0  0  0  0  0  0  0  0  0  0
  155.0757  139.5927  161.3004 H   0  0  0  0  0  0  0  0  0  0  0  0
  156.2042  140.6706  160.4440 H   0  0  0  0  0  0  0  0  0  0  0  0
  154.3902  141.8441  161.3826 H   0  0  0  0  0  0  0  0  0  0  0  0
  152.7241  143.6424  161.4969 H   0  0  0  0  0  0  0  0  0  0  0  0
  151.0495  143.9306  159.6926 H   0  0  0  0  0  0  0  0  0  0  0  0
  151.2747  142.7261  156.4964 H   0  0  0  0  0  0  0  0  0  0  0  0
  149.5831  143.8869  156.9203 H   0  0  0  0  0  0  0  0  0  0  0  0
  150.7114  140.2940  156.9699 H   0  0  0  0  0  0  0  0  0  0  0  0
  149.3947  140.7652  157.9996 H   0  0  0  0  0  0  0  0  0  0  0  0
  147.5620  142.1776  156.8404 H   0  0  0  0  0  0  0  0  0  0  0  0
  152.7325  140.5506  157.6065 H   0  0  0  0  0  0  0  0  0  0  0  0
  1  2  1  0  0  0  0
  1 22  1  0  0  0  0
  1 23  1  0  0  0  0
  1 24  1  0  0  0  0
  2  3  1  0  0  0  0
  3 20  1  0  0  0  0
  3  4  2  0  0  0  0
  4  5  1  0  0  0  0
  4 25  1  0  0  0  0
  5  6  2  0  0  0  0
  5 26  1  0  0  0  0
  6  7  1  0  0  0  0
  6 27  1  0  0  0  0
  7  8  1  0  0  0  0
  7 20  2  0  0  0  0
  8  9  1  0  0  0  0
  8 10  1  0  0  0  0
  8 28  1  0  0  0  0
  9 29  1  0  0  0  0
 10 11  1  0  0  0  0
 10 30  1  0  0  0  0
 10 31  1  0  0  0  0
 11 18  1  0  0  0  0
 11 12  1  0  0  0  0
 12 13  2  0  0  0  0
 12 32  1  0  0  0  0
 13 14  1  0  0  0  0
 13 15  1  0  0  0  0
 15 16  2  0  0  0  0
 15 17  1  0  0  0  0
 17 21  1  0  0  0  0
 17 18  1  0  0  0  0
 18 19  2  0  0  0  0
 20 33  1  0  0  0  0
M  END
> <s_m_source_file>
AV-unprocessed.smi

> <i_m_source_file_index>
3033

> <i_lp_mmshare_version>
43012

> <i_f3d_flags>
0

> <s_epik_input>
W0NIM11PYzFbY0hdW2NIXVtjSF1jKFtjSF0xKVtDQEhdKFtPSF0pW0NIMl1uMltjSF1jKENsKWMoPU8pW25IXWMyPU8=

> <s_epik_cmdline>
J2VwaWtfcHl0aG9uJywgJy1waCcsICc3LjAnLCAnLXRuJywgJzgnLCAnLW1hJywgJzIwMCcsICctbWV0YWxfYmluZGluZycsICctaW1hZScsICc8aW5maWxlLm1hZT4nLCAnLW9tYWUnLCAnPG91dGZpbGUubWFlPic=

> <r_lp_tautomer_probability>
0.999537

> <r_epik_Ionization_Penalty>
0.0292058

> <r_epik_Ionization_Penalty_Charging>
0.0292057

> <r_epik_Ionization_Penalty_Neutral>
7.1713e-08

> <r_epik_State_Penalty>
0.0240115

> <r_epik_Charging_Adjusted_Penalty>
0.0532172

> <i_epik_Tot_Q>
0

> <i_epik_Tot_abs_Q>
0

> <r_epik_Metal_State_Penalty>
2.21956

> <b_epik_Metal_Only>
0

> <s_lp_Force_Field>
OPLS_2005

> <r_lp_Energy>
16.8707

> <b_lp_Chiralities_Consistent>
1

> <s_lp_Variant>
AV-unprocessed.smi:3033-1

> <Gold.Version>
5.8.1

> <Gold.Id.Protein>
6NUR|6NUR_protein|mol2

> <Gold.PLP.Fitness>
47.6257

> <Gold.PLP.PLP>
-36.4019

> <Gold.PLP.part.hbond>
-4.5135

> <Gold.PLP.part.metal>
0.0000

> <Gold.PLP.part.buried>
-2.5852

> <Gold.PLP.part.nonpolar>
-28.6405

> <Gold.PLP.part.repulsive>
0.4519

> <Gold.PLP.ligand.clash>
0.0138

> <Gold.PLP.ligand.torsion>
0.3853

> <Gold.PLP.Chemscore.Hbond>
3.9913

> <Gold.PLP.Chemscore.CHOScore>
0.0000

> <Gold.PLP.Chemscore.Metal>
0.0000

> <Gold.Chemscore.Hbonds>
donor molecule, donor type, donor heavy atom, donor atom, acceptor molecule, acceptor atom, score
      L1  H     9    29       P1  8028  1.00
      L1  H    17    21       P1  7957  1.00
      P1  H  7989  7998       L1    19  1.00
      P1  H  7997  8009       L1     2  0.96

> <Gold.PLP.Chemscore.Internal.Correction>
0.0344

> <Gold.Rescore>
     Score         DG    S(hbond)    S(metal)    S(lipo)     H(rot)  DE(clash)    DE(int)     intcor
     19.90     -20.47       3.46        0.00      84.38       2.51       0.16       0.41       ----

> <Gold.Chemscore.Fitness>
19.9045

> <Gold.Chemscore.DG>
-20.4712

> <Gold.Chemscore.ZeroCoef>
-5.4800

> <Gold.Chemscore.Hbond>
3.4571

> <Gold.Chemscore.Metal>
0.0000

> <Gold.Chemscore.Lipo>
84.3760

> <Gold.Chemscore.Internal_Hbond>
0.0000

> <Gold.Chemscore.DEClash>
0.1586

> <Gold.Chemscore.DEInternal>
0.4081

> <Gold.Chemscore.Rot>
2.5107

> <Gold.Chemscore.Internal.Correction>
   9.000000E+99

> <Gold.Chemscore.Hbonds>
donor molecule, donor type, donor heavy atom, donor atom, acceptor molecule, acceptor atom, score
      L1  H     9    29       P1  8028  0.88
      L1  H    17    21       P1  7957  0.98
      P1  H  7989  7998       L1    19  0.40
      P1  H  7997  8009       L1     2  0.47

> <Gold.Chemscore.Hbond.Weighted>
-11.5467

> <Gold.Chemscore.Metal.Weighted>
-0.0000

> <Gold.Chemscore.Lipo.Weighted>
-9.8720

> <Gold.Chemscore.Internal_Hbond.Weighted>
0.0000

> <Gold.Chemscore.DEClash.Weighted>
0.1586

> <Gold.Chemscore.DEInternal.Weighted>
0.4081

> <Gold.Chemscore.Rot.Weighted>
6.4274

> <Gold.Chemscore.Internal.Correction.Weighted>
   9.000000E+99

> <Gold.Protein.RotatedTorsions>
[ 6907 6896 6895 6894 ] final  -20.80 input  -60.11 | X-H torsion
[ 7974 7965 7964 7962 ] final   62.91 input  175.53 | X-H torsion
[ 8008 7997 7996 7995 ] final  117.61 input   59.86 | X-H torsion
[ 10167 10162 10161 10158 ] final  -88.27 input  -65.29 | X-H torsion
[ 10718 10713 10712 10709 ] final   24.97 input   66.30 | X-H torsion
[ 10763 10752 10751 10750 ] final  -69.93 input  -60.55 | X-H torsion
[ 11005 11000 10999 10996 ] final -159.60 input  -57.11 | X-H torsion

> <Gold.Protein.ActiveResidues>
 VAL166  LYS551  ARG553  GLY616  TRP617  ASP618  TYR619  PRO620  LYS621  CYS622 
 ASP623  PHE694  ASN695  SER759  ASP760  ASP761  ALA762  ILE779  LEU786  VAL792 
 PHE793  MET794  SER795  GLU796  ALA797  LYS798  CYS799  TRP800  GLU811  SER814 

> <Gold.Protein.RotatedAtoms>
  151.2428  135.0595  159.9031 H   0  0  0  0  0  0  0  0  0  0  0  0  # atno 6907 bound_to 6896
  152.5391  134.0416  159.8080 H   0  0  0  0  0  0  0  0  0  0  0  0  # atno 6908 bound_to 6896
  151.0612  133.5493  159.2665 H   0  0  0  0  0  0  0  0  0  0  0  0  # atno 6909 bound_to 6896
  145.8679  139.3358  143.0780 H   0  0  0  0  0  0  0  0  0  0  0  0  # atno 7974 bound_to 7965
  156.2503  140.2892  156.0705 H   0  0  0  0  0  0  0  0  0  0  0  0  # atno 8008 bound_to 7997
  155.1676  140.0401  157.2873 H   0  0  0  0  0  0  0  0  0  0  0  0  # atno 8009 bound_to 7997
  154.6348  140.2508  155.7398 H   0  0  0  0  0  0  0  0  0  0  0  0  # atno 8010 bound_to 7997
  140.3763  143.2770  151.9439 H   0  0  0  0  0  0  0  0  0  0  0  0  # atno 10167 bound_to 10162
  157.1870  130.6829  149.6135 H   0  0  0  0  0  0  0  0  0  0  0  0  # atno 10718 bound_to 10713
  154.4104  135.6010  153.5949 H   0  0  0  0  0  0  0  0  0  0  0  0  # atno 10763 bound_to 10752
  152.9790  135.5928  154.4076 H   0  0  0  0  0  0  0  0  0  0  0  0  # atno 10764 bound_to 10752
  154.3888  135.2842  155.2146 H   0  0  0  0  0  0  0  0  0  0  0  0  # atno 10765 bound_to 10752
  140.6407  134.4554  157.5233 H   0  0  0  0  0  0  0  0  0  0  0  0  # atno 11005 bound_to 11000
  145.9171  140.9140  143.0424 LP  0  0  0  0  0  0  0  0  0  0  0  0  # atno 17320 bound_to 7965
  144.6726  140.1239  143.7448 LP  0  0  0  0  0  0  0  0  0  0  0  0  # atno 17321 bound_to 7965
  139.4799  144.5860  151.7852 LP  0  0  0  0  0  0  0  0  0  0  0  0  # atno 17342 bound_to 10162
  140.4983  144.1208  150.5965 LP  0  0  0  0  0  0  0  0  0  0  0  0  # atno 17343 bound_to 10162
  155.9716  130.4627  150.6156 LP  0  0  0  0  0  0  0  0  0  0  0  0  # atno 17370 bound_to 10713
  157.3897  131.0794  151.1404 LP  0  0  0  0  0  0  0  0  0  0  0  0  # atno 17371 bound_to 10713
  139.9081  134.8404  156.1629 LP  0  0  0  0  0  0  0  0  0  0  0  0  # atno 17394 bound_to 11000
  141.0608  133.6842  156.1950 LP  0  0  0  0  0  0  0  0  0  0  0  0  # atno 17395 bound_to 11000

$$$$
