AV-unprocessed.smi:3284|AV-procd|sdf|12573|dock3
  -GOLD-   2272018493D 1   1.00000     0.00000
 Structure written by MMmdl.
 44 45  0  0  0  0  0  0  0  0  2 V2000
  151.3837  139.6874  158.3080 C   0  0  0  0  0  0  0  0  0  0  0  0
  151.9576  141.0297  158.7305 C   0  0  0  0  0  0  0  0  0  0  0  0
  153.0119  141.0715  159.5675 C   0  0  0  0  0  0  0  0  0  0  0  0
  153.6162  142.3439  160.1147 C   0  0  0  0  0  0  0  0  0  0  0  0
  152.6225  143.5046  160.0291 C   0  0  0  0  0  0  0  0  0  0  0  0
  152.0054  143.6146  158.6253 C   0  0  2  0  0  0  0  0  0  0  0  0
  151.0839  144.8486  158.5672 C   0  0  0  0  0  0  0  0  0  0  0  0
  151.2771  142.3045  158.1907 C   0  0  1  0  0  0  0  0  0  0  0  0
  151.0990  142.2842  156.6492 C   0  0  0  0  0  0  0  0  0  0  0  0
  149.6833  142.3291  156.2288 N   0  3  0  0  0  0  0  0  0  0  0  0
  148.7621  141.6348  157.1485 C   0  0  0  0  0  0  0  0  0  0  0  0
  148.7671  140.1210  156.9001 C   0  0  0  0  0  0  0  0  0  0  0  0
  148.2147  139.7662  155.5547 C   0  0  0  0  0  0  0  0  0  0  0  0
  146.9449  139.9563  155.2104 N   0  0  0  0  0  0  0  0  0  0  0  0
  146.8537  139.4743  153.9087 C   0  0  0  0  0  0  0  0  0  0  0  0
  148.0804  138.9991  153.5124 C   0  0  0  0  0  0  0  0  0  0  0  0
  148.9455  139.1867  154.5823 N   0  0  0  0  0  0  0  0  0  0  0  0
  150.3485  138.8215  154.6158 C   0  0  0  0  0  0  0  0  0  0  0  0
  150.3056  139.6650  158.4679 H   0  0  0  0  0  0  0  0  0  0  0  0
  151.8189  138.8713  158.8862 H   0  0  0  0  0  0  0  0  0  0  0  0
  151.5927  139.4869  157.2573 H   0  0  0  0  0  0  0  0  0  0  0  0
  153.4718  140.1528  159.9019 H   0  0  0  0  0  0  0  0  0  0  0  0
  153.9063  142.1840  161.1533 H   0  0  0  0  0  0  0  0  0  0  0  0
  154.5263  142.5679  159.5574 H   0  0  0  0  0  0  0  0  0  0  0  0
  151.8304  143.3607  160.7656 H   0  0  0  0  0  0  0  0  0  0  0  0
  153.1283  144.4327  160.2979 H   0  0  0  0  0  0  0  0  0  0  0  0
  152.8314  143.7864  157.9329 H   0  0  0  0  0  0  0  0  0  0  0  0
  150.2267  144.7331  159.2314 H   0  0  0  0  0  0  0  0  0  0  0  0
  150.7021  145.0381  157.5651 H   0  0  0  0  0  0  0  0  0  0  0  0
  151.6177  145.7480  158.8757 H   0  0  0  0  0  0  0  0  0  0  0  0
  150.2870  142.3201  158.6488 H   0  0  0  0  0  0  0  0  0  0  0  0
  151.5929  143.1373  156.1872 H   0  0  0  0  0  0  0  0  0  0  0  0
  151.5757  141.3945  156.2350 H   0  0  0  0  0  0  0  0  0  0  0  0
  149.4023  143.2973  156.1647 H   0  0  0  0  0  0  0  0  0  0  0  0
  149.0553  141.8456  158.1779 H   0  0  0  0  0  0  0  0  0  0  0  0
  147.7544  142.0298  157.0122 H   0  0  0  0  0  0  0  0  0  0  0  0
  149.7872  139.7400  156.9624 H   0  0  0  0  0  0  0  0  0  0  0  0
  148.2025  139.6046  157.6770 H   0  0  0  0  0  0  0  0  0  0  0  0
  145.9213  139.5044  153.3645 H   0  0  0  0  0  0  0  0  0  0  0  0
  148.3989  138.5515  152.5822 H   0  0  0  0  0  0  0  0  0  0  0  0
  150.6062  138.2392  153.7306 H   0  0  0  0  0  0  0  0  0  0  0  0
  150.5570  138.2219  155.5020 H   0  0  0  0  0  0  0  0  0  0  0  0
  150.9626  139.7221  154.6366 H   0  0  0  0  0  0  0  0  0  0  0  0
  149.6060  141.9090  155.3135 H   0  0  0  0  0  0  0  0  0  0  0  0
  1  2  1  0  0  0  0
  1 19  1  0  0  0  0
  1 20  1  0  0  0  0
  1 21  1  0  0  0  0
  2  8  1  0  0  0  0
  2  3  2  0  0  0  0
  3  4  1  0  0  0  0
  3 22  1  0  0  0  0
  4  5  1  0  0  0  0
  4 23  1  0  0  0  0
  4 24  1  0  0  0  0
  5  6  1  0  0  0  0
  5 25  1  0  0  0  0
  5 26  1  0  0  0  0
  6  7  1  0  0  0  0
  6  8  1  0  0  0  0
  6 27  1  0  0  0  0
  7 28  1  0  0  0  0
  7 29  1  0  0  0  0
  7 30  1  0  0  0  0
  8  9  1  0  0  0  0
  8 31  1  0  0  0  0
  9 10  1  0  0  0  0
  9 32  1  0  0  0  0
  9 33  1  0  0  0  0
 10 11  1  0  0  0  0
 10 34  1  0  0  0  0
 10 44  1  0  0  0  0
 11 12  1  0  0  0  0
 11 35  1  0  0  0  0
 11 36  1  0  0  0  0
 12 13  1  0  0  0  0
 12 37  1  0  0  0  0
 12 38  1  0  0  0  0
 13 17  1  0  0  0  0
 13 14  2  0  0  0  0
 14 15  1  0  0  0  0
 15 16  2  0  0  0  0
 15 39  1  0  0  0  0
 16 17  1  0  0  0  0
 16 40  1  0  0  0  0
 17 18  1  0  0  0  0
 18 41  1  0  0  0  0
 18 42  1  0  0  0  0
 18 43  1  0  0  0  0
M  CHG  1  10   1
M  END
> <s_m_source_file>
AV-unprocessed.smi

> <i_m_source_file_index>
3284

> <i_lp_mmshare_version>
43012

> <i_f3d_flags>
0

> <s_epik_input>
W0NIM11DMT1bQ0hdW0NIMl1bQ0gyXVtDQEBIXShbQ0gzXSlbQ0BIXTFbQ0gyXVtOSF1bQ0gyXVtDSDJdYzJuW2NIXVtjSF1uMltDSDNd

> <s_epik_cmdline>
J2VwaWtfcHl0aG9uJywgJy1waCcsICc3LjAnLCAnLXRuJywgJzgnLCAnLW1hJywgJzIwMCcsICctbWV0YWxfYmluZGluZycsICctaW1hZScsICc8aW5maWxlLm1hZT4nLCAnLW9tYWUnLCAnPG91dGZpbGUubWFlPic=

> <r_lp_tautomer_probability>
1

> <r_epik_Ionization_Penalty>
0.150779

> <r_epik_Ionization_Penalty_Charging>
0.150779

> <r_epik_Ionization_Penalty_Neutral>
1.39452e-13

> <r_epik_State_Penalty>
0.349447

> <r_epik_Charging_Adjusted_Penalty>
0.500226

> <i_epik_Tot_Q>
1

> <i_epik_Tot_abs_Q>
1

> <r_epik_Metal_State_Penalty>
0.000470967

> <b_epik_Metal_Only>
0

> <s_lp_Force_Field>
OPLS_2005

> <r_lp_Energy>
12.7039

> <b_lp_Chiralities_Consistent>
1

> <s_lp_Variant>
AV-unprocessed.smi:3284-2

> <Gold.Version>
5.8.1

> <Gold.Id.Protein>
6NUR|6NUR_protein|mol2

> <Gold.PLP.Fitness>
47.0104

> <Gold.PLP.PLP>
-34.9192

> <Gold.PLP.part.hbond>
-1.0000

> <Gold.PLP.part.metal>
0.0000

> <Gold.PLP.part.buried>
-4.2000

> <Gold.PLP.part.nonpolar>
-30.1779

> <Gold.PLP.part.repulsive>
0.1320

> <Gold.PLP.ligand.clash>
0.0000

> <Gold.PLP.ligand.torsion>
1.0369

> <Gold.PLP.Chemscore.Hbond>
2.0000

> <Gold.PLP.Chemscore.CHOScore>
2.7031

> <Gold.PLP.Chemscore.Metal>
0.0000

> <Gold.Chemscore.Hbonds>
donor molecule, donor type, donor heavy atom, donor atom, acceptor molecule, acceptor atom, score
      L1  H    10    34       P1  8028  2.00
      L1  C    15    39       P1 10175  0.83
      L1  C    16    40       P1  7948  1.00
      L1  C    16    40       P1  7957  0.70

> <Gold.PLP.Chemscore.Internal.Correction>
0.0557

> <Gold.Rescore>
     Score         DG    S(hbond)    S(metal)    S(lipo)     H(rot)  DE(clash)    DE(int)     intcor
     16.29     -17.33       1.00        0.00     108.01       1.61       0.07       0.97       ----

> <Gold.Chemscore.Fitness>
16.2885

> <Gold.Chemscore.DG>
-17.3287

> <Gold.Chemscore.ZeroCoef>
-5.4800

> <Gold.Chemscore.Hbond>
0.9983

> <Gold.Chemscore.Metal>
0.0000

> <Gold.Chemscore.Lipo>
108.0115

> <Gold.Chemscore.Internal_Hbond>
0.0000

> <Gold.Chemscore.DEClash>
0.0710

> <Gold.Chemscore.DEInternal>
0.9692

> <Gold.Chemscore.Rot>
1.6105

> <Gold.Chemscore.Internal.Correction>
   9.000000E+99

> <Gold.Chemscore.Hbonds>
donor molecule, donor type, donor heavy atom, donor atom, acceptor molecule, acceptor atom, score
      L1  H    10    34       P1  8028  0.98

> <Gold.Chemscore.Hbond.Weighted>
-3.3344

> <Gold.Chemscore.Metal.Weighted>
-0.0000

> <Gold.Chemscore.Lipo.Weighted>
-12.6373

> <Gold.Chemscore.Internal_Hbond.Weighted>
0.0000

> <Gold.Chemscore.DEClash.Weighted>
0.0710

> <Gold.Chemscore.DEInternal.Weighted>
0.9692

> <Gold.Chemscore.Rot.Weighted>
4.1230

> <Gold.Chemscore.Internal.Correction.Weighted>
   9.000000E+99

> <Gold.Protein.RotatedTorsions>
[ 6907 6896 6895 6894 ] final   65.01 input  -60.11 | X-H torsion
[ 7974 7965 7964 7962 ] final -131.40 input  175.53 | X-H torsion
[ 8008 7997 7996 7995 ] final   -9.48 input   59.86 | X-H torsion
[ 10167 10162 10161 10158 ] final   73.27 input  -65.29 | X-H torsion
[ 10718 10713 10712 10709 ] final    3.52 input   66.30 | X-H torsion
[ 10763 10752 10751 10750 ] final   77.90 input  -60.55 | X-H torsion
[ 11005 11000 10999 10996 ] final   61.81 input  -57.11 | X-H torsion

> <Gold.Protein.ActiveResidues>
 VAL166  LYS551  ARG553  GLY616  TRP617  ASP618  TYR619  PRO620  LYS621  CYS622 
 ASP623  PHE694  ASN695  SER759  ASP760  ASP761  ALA762  ILE779  LEU786  VAL792 
 PHE793  MET794  SER795  GLU796  ALA797  LYS798  CYS799  TRP800  GLU811  SER814 

> <Gold.Protein.RotatedAtoms>
  152.4375  134.5657  159.9906 H   0  0  0  0  0  0  0  0  0  0  0  0  # atno 6907 bound_to 6896
  151.5763  133.3377  159.3007 H   0  0  0  0  0  0  0  0  0  0  0  0  # atno 6908 bound_to 6896
  150.8276  134.7548  159.6890 H   0  0  0  0  0  0  0  0  0  0  0  0  # atno 6909 bound_to 6896
  144.9383  140.7209  143.4862 H   0  0  0  0  0  0  0  0  0  0  0  0  # atno 7974 bound_to 7965
  154.5643  140.2354  155.8288 H   0  0  0  0  0  0  0  0  0  0  0  0  # atno 8008 bound_to 7997
  156.2055  140.3041  155.9577 H   0  0  0  0  0  0  0  0  0  0  0  0  # atno 8009 bound_to 7997
  155.2831  140.0423  157.3007 H   0  0  0  0  0  0  0  0  0  0  0  0  # atno 8010 bound_to 7997
  140.0263  144.5501  150.7542 H   0  0  0  0  0  0  0  0  0  0  0  0  # atno 10167 bound_to 10162
  156.8790  130.5647  149.5654 H   0  0  0  0  0  0  0  0  0  0  0  0  # atno 10718 bound_to 10713
  153.0834  135.4897  154.8548 H   0  0  0  0  0  0  0  0  0  0  0  0  # atno 10763 bound_to 10752
  154.7179  135.3033  154.9096 H   0  0  0  0  0  0  0  0  0  0  0  0  # atno 10764 bound_to 10752
  153.9769  135.6794  153.4802 H   0  0  0  0  0  0  0  0  0  0  0  0  # atno 10765 bound_to 10752
  140.0135  134.6260  155.9744 H   0  0  0  0  0  0  0  0  0  0  0  0  # atno 11005 bound_to 11000
  145.3031  139.1843  143.4679 LP  0  0  0  0  0  0  0  0  0  0  0  0  # atno 17320 bound_to 7965
  146.3275  140.3025  142.8621 LP  0  0  0  0  0  0  0  0  0  0  0  0  # atno 17321 bound_to 7965
  140.7321  143.2702  151.3913 LP  0  0  0  0  0  0  0  0  0  0  0  0  # atno 17342 bound_to 10162
  139.6106  144.1106  152.2295 LP  0  0  0  0  0  0  0  0  0  0  0  0  # atno 17343 bound_to 10162
  156.0687  130.5724  150.9340 LP  0  0  0  0  0  0  0  0  0  0  0  0  # atno 17370 bound_to 10713
  157.6151  131.0934  150.8724 LP  0  0  0  0  0  0  0  0  0  0  0  0  # atno 17371 bound_to 10713
  141.1727  133.6538  156.4712 LP  0  0  0  0  0  0  0  0  0  0  0  0  # atno 17394 bound_to 11000
  140.4512  134.6927  157.5040 LP  0  0  0  0  0  0  0  0  0  0  0  0  # atno 17395 bound_to 11000

$$$$
