AV-unprocessed.smi:86|AV-procd|sdf|819|dock1
  -GOLD-   2262017223D 1   1.00000     0.00000
 Structure written by MMmdl.
 51 55  0  0  0  0  0  0  0  0  1 V2000
  158.0800  133.5890  158.2200 O   0  0  0  0  0  0  0  0  0  0  0  0
  157.3536  133.5084  159.4299 C   0  0  0  0  0  0  0  0  0  0  0  0
  156.2829  134.6066  159.5223 C   0  0  0  0  0  0  0  0  0  0  0  0
  157.0021  135.9743  159.4380 C   0  0  0  0  0  0  0  0  0  0  0  0
  156.1297  137.1386  159.4834 N   0  0  0  0  0  0  0  0  0  0  0  0
  155.1410  137.4657  158.5843 C   0  0  0  0  0  0  0  0  0  0  0  0
  154.4867  138.5617  158.8528 N   0  0  0  0  0  0  0  0  0  0  0  0
  155.0504  139.0218  160.0385 C   0  0  0  0  0  0  0  0  0  0  0  0
  154.8221  140.1443  160.8899 C   0  0  0  0  0  0  0  0  0  0  0  0
  153.8935  141.1090  160.6657 N   0  0  0  0  0  0  0  0  0  0  0  0
  153.6299  142.2177  161.5767 C   0  0  0  0  0  0  0  0  0  0  0  0
  152.4991  142.9814  160.8896 C   0  0  1  0  0  0  0  0  0  0  0  0
  152.2911  144.4619  161.2292 C   0  0  0  0  0  0  0  0  0  0  0  0
  151.1604  145.0266  160.3417 C   0  0  0  0  0  0  0  0  0  0  0  0
  151.4093  144.7711  158.8343 C   0  0  2  0  0  0  0  0  0  0  0  0
  150.2851  145.1940  158.0920 O   0  0  0  0  0  0  0  0  0  0  0  0
  151.7006  143.2846  158.5251 C   0  0  0  0  0  0  0  0  0  0  0  0
  152.8534  142.8106  159.4183 C   0  0  2  0  0  0  0  0  0  0  0  0
  153.2845  141.3448  159.3570 C   0  0  0  0  0  0  0  0  0  0  0  0
  155.6005  140.2509  161.9990 N   0  0  0  0  0  0  0  0  0  0  0  0
  156.5318  139.3321  162.2673 C   0  0  0  0  0  0  0  0  0  0  0  0
  156.8519  138.2417  161.5700 N   0  0  0  0  0  0  0  0  0  0  0  0
  156.0806  138.1273  160.4513 C   0  0  0  0  0  0  0  0  0  0  0  0
  155.0673  134.3715  158.6074 C   0  0  0  0  0  0  0  0  0  0  0  0
  154.2732  133.8646  159.7001 O   0  0  0  0  0  0  0  0  0  0  0  0
  155.2367  134.4003  160.6309 C   0  0  0  0  0  0  0  0  0  0  0  0
  159.0012  133.5127  158.4175 H   0  0  0  0  0  0  0  0  0  0  0  0
  156.9069  132.5168  159.5073 H   0  0  0  0  0  0  0  0  0  0  0  0
  158.0649  133.5911  160.2527 H   0  0  0  0  0  0  0  0  0  0  0  0
  157.7195  136.0778  160.2530 H   0  0  0  0  0  0  0  0  0  0  0  0
  157.5889  136.0385  158.5209 H   0  0  0  0  0  0  0  0  0  0  0  0
  154.9207  136.8636  157.7145 H   0  0  0  0  0  0  0  0  0  0  0  0
  153.3311  141.8708  162.5662 H   0  0  0  0  0  0  0  0  0  0  0  0
  154.5236  142.8357  161.6725 H   0  0  0  0  0  0  0  0  0  0  0  0
  151.5684  142.4467  161.0914 H   0  0  0  0  0  0  0  0  0  0  0  0
  152.0384  144.5785  162.2834 H   0  0  0  0  0  0  0  0  0  0  0  0
  153.2127  145.0204  161.0607 H   0  0  0  0  0  0  0  0  0  0  0  0
  150.2171  144.5645  160.6366 H   0  0  0  0  0  0  0  0  0  0  0  0
  151.0474  146.0958  160.5262 H   0  0  0  0  0  0  0  0  0  0  0  0
  152.2613  145.3717  158.5130 H   0  0  0  0  0  0  0  0  0  0  0  0
  150.3653  144.8621  157.2109 H   0  0  0  0  0  0  0  0  0  0  0  0
  150.8130  142.6776  158.7095 H   0  0  0  0  0  0  0  0  0  0  0  0
  151.9600  143.1577  157.4735 H   0  0  0  0  0  0  0  0  0  0  0  0
  153.7321  143.4204  159.1977 H   0  0  0  0  0  0  0  0  0  0  0  0
  153.9770  141.1722  158.5322 H   0  0  0  0  0  0  0  0  0  0  0  0
  152.4264  140.6826  159.2362 H   0  0  0  0  0  0  0  0  0  0  0  0
  157.1024  139.4950  163.1696 H   0  0  0  0  0  0  0  0  0  0  0  0
  154.6196  135.2665  158.1779 H   0  0  0  0  0  0  0  0  0  0  0  0
  155.2368  133.6237  157.8320 H   0  0  0  0  0  0  0  0  0  0  0  0
  155.5315  133.6744  161.3894 H   0  0  0  0  0  0  0  0  0  0  0  0
  154.8737  135.3141  161.0995 H   0  0  0  0  0  0  0  0  0  0  0  0
  1  2  1  0  0  0  0
  1 27  1  0  0  0  0
  2  3  1  0  0  0  0
  2 28  1  0  0  0  0
  2 29  1  0  0  0  0
  3 26  1  0  0  0  0
  3  4  1  0  0  0  0
  3 24  1  0  0  0  0
  4  5  1  0  0  0  0
  4 30  1  0  0  0  0
  4 31  1  0  0  0  0
  5 23  1  0  0  0  0
  5  6  1  0  0  0  0
  6  7  2  0  0  0  0
  6 32  1  0  0  0  0
  7  8  1  0  0  0  0
  8 23  2  0  0  0  0
  8  9  1  0  0  0  0
  9 10  1  0  0  0  0
  9 20  2  0  0  0  0
 10 19  1  0  0  0  0
 10 11  1  0  0  0  0
 11 12  1  0  0  0  0
 11 33  1  0  0  0  0
 11 34  1  0  0  0  0
 12 18  1  0  0  0  0
 12 13  1  0  0  0  0
 12 35  1  0  0  0  0
 13 14  1  0  0  0  0
 13 36  1  0  0  0  0
 13 37  1  0  0  0  0
 14 15  1  0  0  0  0
 14 38  1  0  0  0  0
 14 39  1  0  0  0  0
 15 16  1  0  0  0  0
 15 17  1  0  0  0  0
 15 40  1  0  0  0  0
 16 41  1  0  0  0  0
 17 18  1  0  0  0  0
 17 42  1  0  0  0  0
 17 43  1  0  0  0  0
 18 19  1  0  0  0  0
 18 44  1  0  0  0  0
 19 45  1  0  0  0  0
 19 46  1  0  0  0  0
 20 21  1  0  0  0  0
 21 22  2  0  0  0  0
 21 47  1  0  0  0  0
 22 23  1  0  0  0  0
 24 25  1  0  0  0  0
 24 48  1  0  0  0  0
 24 49  1  0  0  0  0
 25 26  1  0  0  0  0
 26 50  1  0  0  0  0
 26 51  1  0  0  0  0
M  END
> <s_m_source_file>
AV-unprocessed.smi

> <i_m_source_file_index>
86

> <i_lp_mmshare_version>
43012

> <i_f3d_flags>
0

> <s_epik_input>
W0NIMl0xT1tDSDJdQzEoW0NIMl1bT0hdKVtDSDJdbihbY0hdbjIpYyhjMjMpbltjSF1uYzNOKFtDSDJdNClbQ0gyXVtDQEBIXShbQ0BIXTQ1KVtDSDJdW0NASF0oW09IXSlbQ0gyXVtDSDJdNQ==

> <s_epik_cmdline>
J2VwaWtfcHl0aG9uJywgJy1waCcsICc3LjAnLCAnLXRuJywgJzgnLCAnLW1hJywgJzIwMCcsICctbWV0YWxfYmluZGluZycsICctaW1hZScsICc8aW5maWxlLm1hZT4nLCAnLW9tYWUnLCAnPG91dGZpbGUubWFlPic=

> <r_lp_tautomer_probability>
1

> <r_epik_Ionization_Penalty>
0.00425795

> <r_epik_Ionization_Penalty_Charging>
0

> <r_epik_Ionization_Penalty_Neutral>
0.00425795

> <r_epik_State_Penalty>
0.00299946

> <r_epik_Charging_Adjusted_Penalty>
0.00299946

> <i_epik_Tot_Q>
0

> <i_epik_Tot_abs_Q>
0

> <r_epik_Metal_State_Penalty>
-0

> <b_epik_Metal_Only>
0

> <s_lp_Force_Field>
OPLS_2005

> <r_lp_Energy>
53.3624

> <b_lp_Chiralities_Consistent>
1

> <s_lp_Variant>
AV-unprocessed.smi:86-8

> <Gold.Version>
5.8.1

> <Gold.Id.Protein>
6NUR|6NUR_protein|mol2

> <Gold.PLP.Fitness>
47.1094

> <Gold.PLP.PLP>
-40.4773

> <Gold.PLP.part.hbond>
-4.7941

> <Gold.PLP.part.metal>
0.0000

> <Gold.PLP.part.buried>
-3.2794

> <Gold.PLP.part.nonpolar>
-32.7643

> <Gold.PLP.part.repulsive>
0.0000

> <Gold.PLP.ligand.clash>
0.0000

> <Gold.PLP.ligand.torsion>
0.2461

> <Gold.PLP.Chemscore.Hbond>
2.2499

> <Gold.PLP.Chemscore.CHOScore>
0.0000

> <Gold.PLP.Chemscore.Metal>
0.0000

> <Gold.Chemscore.Hbonds>
donor molecule, donor type, donor heavy atom, donor atom, acceptor molecule, acceptor atom, score
      L1  H    16    41       P1  8028  0.47
      P1  H  6896  6908       L1    25  1.00
      P1  H  7997  8008       L1     7  0.63

> <Gold.PLP.Chemscore.Internal.Correction>
0.3747

> <Gold.Rescore>
     Score         DG    S(hbond)    S(metal)    S(lipo)     H(rot)  DE(clash)    DE(int)     intcor
     14.76     -15.35       1.41        0.00     104.54       2.76       0.27       0.32       ----

> <Gold.Chemscore.Fitness>
14.7566

> <Gold.Chemscore.DG>
-15.3490

> <Gold.Chemscore.ZeroCoef>
-5.4800

> <Gold.Chemscore.Hbond>
1.4106

> <Gold.Chemscore.Metal>
0.0000

> <Gold.Chemscore.Lipo>
104.5383

> <Gold.Chemscore.Internal_Hbond>
0.0000

> <Gold.Chemscore.DEClash>
0.2749

> <Gold.Chemscore.DEInternal>
0.3175

> <Gold.Chemscore.Rot>
2.7630

> <Gold.Chemscore.Internal.Correction>
   9.000000E+99

> <Gold.Chemscore.Hbonds>
donor molecule, donor type, donor heavy atom, donor atom, acceptor molecule, acceptor atom, score
      L1  H    16    41       P1  8028  0.14
      P1  H  6896  6908       L1    25  0.98
      P1  H  7997  8008       L1     7  0.19

> <Gold.Chemscore.Hbond.Weighted>
-4.7114

> <Gold.Chemscore.Metal.Weighted>
-0.0000

> <Gold.Chemscore.Lipo.Weighted>
-12.2310

> <Gold.Chemscore.Internal_Hbond.Weighted>
0.0000

> <Gold.Chemscore.DEClash.Weighted>
0.2749

> <Gold.Chemscore.DEInternal.Weighted>
0.3175

> <Gold.Chemscore.Rot.Weighted>
7.0734

> <Gold.Chemscore.Internal.Correction.Weighted>
   9.000000E+99

> <Gold.Protein.RotatedTorsions>
[ 6907 6896 6895 6894 ] final  -28.47 input  -60.11 | X-H torsion
[ 7974 7965 7964 7962 ] final -107.18 input  175.53 | X-H torsion
[ 8008 7997 7996 7995 ] final -116.79 input   59.86 | X-H torsion
[ 10167 10162 10161 10158 ] final   32.94 input  -65.29 | X-H torsion
[ 10718 10713 10712 10709 ] final  -68.13 input   66.30 | X-H torsion
[ 10763 10752 10751 10750 ] final  -92.92 input  -60.55 | X-H torsion
[ 11005 11000 10999 10996 ] final  -60.33 input  -57.11 | X-H torsion

> <Gold.Protein.ActiveResidues>
 VAL166  LYS551  ARG553  GLY616  TRP617  ASP618  TYR619  PRO620  LYS621  CYS622 
 ASP623  PHE694  ASN695  SER759  ASP760  ASP761  ALA762  ILE779  LEU786  VAL792 
 PHE793  MET794  SER795  GLU796  ALA797  LYS798  CYS799  TRP800  GLU811  SER814 

> <Gold.Protein.RotatedAtoms>
  151.1325  135.0138  159.8588 H   0  0  0  0  0  0  0  0  0  0  0  0  # atno 6907 bound_to 6896
  152.5451  134.1593  159.8561 H   0  0  0  0  0  0  0  0  0  0  0  0  # atno 6908 bound_to 6896
  151.1661  133.4768  159.2627 H   0  0  0  0  0  0  0  0  0  0  0  0  # atno 6909 bound_to 6896
  145.2086  140.9087  143.3327 H   0  0  0  0  0  0  0  0  0  0  0  0  # atno 7974 bound_to 7965
  155.0735  140.0393  157.2616 H   0  0  0  0  0  0  0  0  0  0  0  0  # atno 8008 bound_to 7997
  154.6964  140.2664  155.6738 H   0  0  0  0  0  0  0  0  0  0  0  0  # atno 8009 bound_to 7997
  156.2746  140.2749  156.1559 H   0  0  0  0  0  0  0  0  0  0  0  0  # atno 8010 bound_to 7997
  140.4453  144.1128  150.6181 H   0  0  0  0  0  0  0  0  0  0  0  0  # atno 10167 bound_to 10162
  156.0521  130.4289  150.1955 H   0  0  0  0  0  0  0  0  0  0  0  0  # atno 10718 bound_to 10713
  154.6908  135.5213  153.8390 H   0  0  0  0  0  0  0  0  0  0  0  0  # atno 10763 bound_to 10752
  153.0631  135.6575  154.0426 H   0  0  0  0  0  0  0  0  0  0  0  0  # atno 10764 bound_to 10752
  154.0301  135.2986  155.3349 H   0  0  0  0  0  0  0  0  0  0  0  0  # atno 10765 bound_to 10752
  141.1283  133.6621  156.5207 H   0  0  0  0  0  0  0  0  0  0  0  0  # atno 11005 bound_to 11000
  144.9878  139.3719  143.6230 LP  0  0  0  0  0  0  0  0  0  0  0  0  # atno 17320 bound_to 7965
  146.3402  139.9047  142.8789 LP  0  0  0  0  0  0  0  0  0  0  0  0  # atno 17321 bound_to 7965
  140.4271  143.2585  151.9642 LP  0  0  0  0  0  0  0  0  0  0  0  0  # atno 17342 bound_to 10162
  139.4792  144.5778  151.7983 LP  0  0  0  0  0  0  0  0  0  0  0  0  # atno 17343 bound_to 10162
  157.0037  130.9930  151.3384 LP  0  0  0  0  0  0  0  0  0  0  0  0  # atno 17370 bound_to 10713
  157.5457  130.8149  149.8083 LP  0  0  0  0  0  0  0  0  0  0  0  0  # atno 17371 bound_to 10713
  140.4295  134.7115  157.4934 LP  0  0  0  0  0  0  0  0  0  0  0  0  # atno 17394 bound_to 11000
  140.0304  134.6415  155.9115 LP  0  0  0  0  0  0  0  0  0  0  0  0  # atno 17395 bound_to 11000

$$$$
