AV-unprocessed.smi:1821|AV-procd|sdf|7387|dock9
  -GOLD-   22720 9 53D 1   1.00000     0.00000
 Structure written by MMmdl.
 35 37  0  0  0  0  0  0  0  0  1 V2000
  151.8528  138.0807  155.6089 C   0  0  0  0  0  0  0  0  0  0  0  0
  150.6814  138.8345  155.0632 C   0  0  0  0  0  0  0  0  0  0  0  0
  149.7220  138.2409  154.3532 N   0  0  0  0  0  0  0  0  0  0  0  0
  148.8665  139.2873  154.0660 C   0  0  0  0  0  0  0  0  0  0  0  0
  147.6553  139.3100  153.3380 C   0  0  0  0  0  0  0  0  0  0  0  0
  146.9441  140.5166  153.1728 C   0  0  0  0  0  0  0  0  0  0  0  0
  147.4326  141.7155  153.7316 C   0  0  0  0  0  0  0  0  0  0  0  0
  148.6375  141.7151  154.4605 C   0  0  0  0  0  0  0  0  0  0  0  0
  149.3434  140.5079  154.6231 C   0  0  0  0  0  0  0  0  0  0  0  0
  150.5307  140.1666  155.2637 N   0  0  0  0  0  0  0  0  0  0  0  0
  151.4129  141.0688  155.9911 C   0  0  0  0  0  0  0  0  0  0  0  0
  150.7322  141.7097  157.2182 C   0  0  1  0  0  0  0  0  0  0  0  0
  149.5776  140.9754  157.5795 O   0  0  0  0  0  0  0  0  0  0  0  0
  151.7093  141.8668  158.3783 C   0  0  0  0  0  0  0  0  0  0  0  0
  152.1641  140.7367  159.0999 C   0  0  0  0  0  0  0  0  0  0  0  0
  151.7413  139.4921  158.7712 F   0  0  0  0  0  0  0  0  0  0  0  0
  153.0690  140.8926  160.1678 C   0  0  0  0  0  0  0  0  0  0  0  0
  153.5326  142.1732  160.5208 C   0  0  0  0  0  0  0  0  0  0  0  0
  153.0929  143.3001  159.8022 C   0  0  0  0  0  0  0  0  0  0  0  0
  152.1867  143.1499  158.7345 C   0  0  0  0  0  0  0  0  0  0  0  0
  151.7822  144.2490  158.0532 F   0  0  0  0  0  0  0  0  0  0  0  0
  151.7920  137.0282  155.3304 H   0  0  0  0  0  0  0  0  0  0  0  0
  151.8712  138.1460  156.6969 H   0  0  0  0  0  0  0  0  0  0  0  0
  152.7842  138.4848  155.2132 H   0  0  0  0  0  0  0  0  0  0  0  0
  147.2733  138.3969  152.9057 H   0  0  0  0  0  0  0  0  0  0  0  0
  146.0198  140.5224  152.6138 H   0  0  0  0  0  0  0  0  0  0  0  0
  146.8827  142.6357  153.5993 H   0  0  0  0  0  0  0  0  0  0  0  0
  149.0170  142.6321  154.8862 H   0  0  0  0  0  0  0  0  0  0  0  0
  152.3011  140.5127  156.2936 H   0  0  0  0  0  0  0  0  0  0  0  0
  151.7627  141.8429  155.3075 H   0  0  0  0  0  0  0  0  0  0  0  0
  150.3696  142.6967  156.9333 H   0  0  0  0  0  0  0  0  0  0  0  0
  148.9927  140.9506  156.8375 H   0  0  0  0  0  0  0  0  0  0  0  0
  153.4097  140.0265  160.7157 H   0  0  0  0  0  0  0  0  0  0  0  0
  154.2274  142.2903  161.3394 H   0  0  0  0  0  0  0  0  0  0  0  0
  153.4526  144.2828  160.0695 H   0  0  0  0  0  0  0  0  0  0  0  0
  1  2  1  0  0  0  0
  1 22  1  0  0  0  0
  1 23  1  0  0  0  0
  1 24  1  0  0  0  0
  2 10  1  0  0  0  0
  2  3  2  0  0  0  0
  3  4  1  0  0  0  0
  4  9  2  0  0  0  0
  4  5  1  0  0  0  0
  5  6  2  0  0  0  0
  5 25  1  0  0  0  0
  6  7  1  0  0  0  0
  6 26  1  0  0  0  0
  7  8  2  0  0  0  0
  7 27  1  0  0  0  0
  8  9  1  0  0  0  0
  8 28  1  0  0  0  0
  9 10  1  0  0  0  0
 10 11  1  0  0  0  0
 11 12  1  0  0  0  0
 11 29  1  0  0  0  0
 11 30  1  0  0  0  0
 12 13  1  0  0  0  0
 12 14  1  0  0  0  0
 12 31  1  0  0  0  0
 13 32  1  0  0  0  0
 14 20  1  0  0  0  0
 14 15  2  0  0  0  0
 15 16  1  0  0  0  0
 15 17  1  0  0  0  0
 17 18  2  0  0  0  0
 17 33  1  0  0  0  0
 18 19  1  0  0  0  0
 18 34  1  0  0  0  0
 19 20  2  0  0  0  0
 19 35  1  0  0  0  0
 20 21  1  0  0  0  0
M  END
> <s_m_source_file>
AV-unprocessed.smi

> <i_m_source_file_index>
1821

> <i_lp_mmshare_version>
43012

> <i_f3d_flags>
0

> <s_epik_input>
W2NIXTFbY0hdW2NIXVtjSF1jKGMxMiluKGMobjIpW0NIM10pW0NIMl1bQ0BIXShbT0hdKWMzYyhGKVtjSF1bY0hdW2NIXWMzRg==

> <s_epik_cmdline>
J2VwaWtfcHl0aG9uJywgJy1waCcsICc3LjAnLCAnLXRuJywgJzgnLCAnLW1hJywgJzIwMCcsICctbWV0YWxfYmluZGluZycsICctaW1hZScsICc8aW5maWxlLm1hZT4nLCAnLW9tYWUnLCAnPG91dGZpbGUubWFlPic=

> <r_epik_Ionization_Penalty>
0.129663

> <r_epik_Ionization_Penalty_Charging>
0

> <r_epik_Ionization_Penalty_Neutral>
0.129663

> <r_epik_State_Penalty>
0.119073

> <r_epik_Charging_Adjusted_Penalty>
0.119073

> <i_epik_Tot_Q>
0

> <i_epik_Tot_abs_Q>
0

> <r_epik_Metal_State_Penalty>
0.000131867

> <b_epik_Metal_Only>
0

> <s_lp_Force_Field>
OPLS_2005

> <r_lp_Energy>
13.032

> <b_lp_Chiralities_Consistent>
1

> <s_lp_Variant>
AV-unprocessed.smi:1821-2

> <Gold.Version>
5.8.1

> <Gold.Id.Protein>
6NUR|6NUR_protein|mol2

> <Gold.PLP.Fitness>
47.4835

> <Gold.PLP.PLP>
-48.9235

> <Gold.PLP.part.hbond>
0.0000

> <Gold.PLP.part.metal>
0.0000

> <Gold.PLP.part.buried>
-1.7741

> <Gold.PLP.part.nonpolar>
-46.1403

> <Gold.PLP.part.repulsive>
0.2184

> <Gold.PLP.ligand.clash>
0.0000

> <Gold.PLP.ligand.torsion>
0.7356

> <Gold.PLP.Chemscore.Hbond>
0.0000

> <Gold.PLP.Chemscore.CHOScore>
0.0000

> <Gold.PLP.Chemscore.Metal>
0.0000

> <Gold.PLP.Chemscore.Internal.Correction>
0.0312

> <Gold.Rescore>
     Score         DG    S(hbond)    S(metal)    S(lipo)     H(rot)  DE(clash)    DE(int)     intcor
     13.51     -15.38       0.00        0.00     125.86       1.88       0.13       1.74       ----

> <Gold.Chemscore.Fitness>
13.5133

> <Gold.Chemscore.DG>
-15.3832

> <Gold.Chemscore.ZeroCoef>
-5.4800

> <Gold.Chemscore.Hbond>
0.0000

> <Gold.Chemscore.Metal>
0.0000

> <Gold.Chemscore.Lipo>
125.8629

> <Gold.Chemscore.Internal_Hbond>
0.0000

> <Gold.Chemscore.DEClash>
0.1341

> <Gold.Chemscore.DEInternal>
1.7358

> <Gold.Chemscore.Rot>
1.8839

> <Gold.Chemscore.Internal.Correction>
   9.000000E+99

> <Gold.Chemscore.Hbond.Weighted>
-0.0000

> <Gold.Chemscore.Metal.Weighted>
-0.0000

> <Gold.Chemscore.Lipo.Weighted>
-14.7260

> <Gold.Chemscore.Internal_Hbond.Weighted>
0.0000

> <Gold.Chemscore.DEClash.Weighted>
0.1341

> <Gold.Chemscore.DEInternal.Weighted>
1.7358

> <Gold.Chemscore.Rot.Weighted>
4.8227

> <Gold.Chemscore.Internal.Correction.Weighted>
   9.000000E+99

> <Gold.Protein.RotatedTorsions>
[ 6907 6896 6895 6894 ] final  -16.03 input  -60.11 | X-H torsion
[ 7974 7965 7964 7962 ] final -118.62 input  175.53 | X-H torsion
[ 8008 7997 7996 7995 ] final   41.97 input   59.86 | X-H torsion
[ 10167 10162 10161 10158 ] final  -99.57 input  -65.29 | X-H torsion
[ 10718 10713 10712 10709 ] final  -99.45 input   66.30 | X-H torsion
[ 10763 10752 10751 10750 ] final  -67.54 input  -60.55 | X-H torsion
[ 11005 11000 10999 10996 ] final  -86.55 input  -57.11 | X-H torsion

> <Gold.Protein.ActiveResidues>
 VAL166  LYS551  ARG553  GLY616  TRP617  ASP618  TYR619  PRO620  LYS621  CYS622 
 ASP623  PHE694  ASN695  SER759  ASP760  ASP761  ALA762  ILE779  LEU786  VAL792 
 PHE793  MET794  SER795  GLU796  ALA797  LYS798  CYS799  TRP800  GLU811  SER814 

> <Gold.Protein.RotatedAtoms>
  151.3149  135.0804  159.9285 H   0  0  0  0  0  0  0  0  0  0  0  0  # atno 6907 bound_to 6896
  152.5269  133.9698  159.7767 H   0  0  0  0  0  0  0  0  0  0  0  0  # atno 6908 bound_to 6896
  151.0008  133.6006  159.2725 H   0  0  0  0  0  0  0  0  0  0  0  0  # atno 6909 bound_to 6896
  145.0718  140.8364  143.4091 H   0  0  0  0  0  0  0  0  0  0  0  0  # atno 7974 bound_to 7965
  155.2785  140.3371  155.4260 H   0  0  0  0  0  0  0  0  0  0  0  0  # atno 8008 bound_to 7997
  156.2101  140.1766  156.7756 H   0  0  0  0  0  0  0  0  0  0  0  0  # atno 8009 bound_to 7997
  154.5674  140.0676  156.8897 H   0  0  0  0  0  0  0  0  0  0  0  0  # atno 8010 bound_to 7997
  140.2611  143.3407  152.0625 H   0  0  0  0  0  0  0  0  0  0  0  0  # atno 10167 bound_to 10162
  156.0134  130.5283  150.6672 H   0  0  0  0  0  0  0  0  0  0  0  0  # atno 10718 bound_to 10713
  154.3760  135.6085  153.5765 H   0  0  0  0  0  0  0  0  0  0  0  0  # atno 10763 bound_to 10752
  152.9789  135.5849  154.4466 H   0  0  0  0  0  0  0  0  0  0  0  0  # atno 10764 bound_to 10752
  154.4228  135.2846  155.1942 H   0  0  0  0  0  0  0  0  0  0  0  0  # atno 10765 bound_to 10752
  141.1628  133.7461  156.9177 H   0  0  0  0  0  0  0  0  0  0  0  0  # atno 11005 bound_to 11000
  145.1284  139.2648  143.5552 LP  0  0  0  0  0  0  0  0  0  0  0  0  # atno 17320 bound_to 7965
  146.3529  140.0928  142.8612 LP  0  0  0  0  0  0  0  0  0  0  0  0  # atno 17321 bound_to 7965
  139.5016  144.6718  151.6224 LP  0  0  0  0  0  0  0  0  0  0  0  0  # atno 17342 bound_to 10162
  140.5965  143.9686  150.6358 LP  0  0  0  0  0  0  0  0  0  0  0  0  # atno 17343 bound_to 10162
  157.4402  131.0860  151.0951 LP  0  0  0  0  0  0  0  0  0  0  0  0  # atno 17370 bound_to 10713
  157.1498  130.6179  149.5579 LP  0  0  0  0  0  0  0  0  0  0  0  0  # atno 17371 bound_to 10713
  140.1473  134.9254  157.2546 LP  0  0  0  0  0  0  0  0  0  0  0  0  # atno 17394 bound_to 11000
  140.2765  134.3399  155.7356 LP  0  0  0  0  0  0  0  0  0  0  0  0  # atno 17395 bound_to 11000

$$$$
