AV-unprocessed.smi:58|AV-procd|sdf|583|dock5
  -GOLD-   2262016483D 1   1.00000     0.00000
 Structure written by MMmdl.
 32 33  0  0  0  0  0  0  0  0  1 V2000
  151.8840  145.2983  159.2551 C   0  0  0  0  0  0  0  0  0  0  0  0
  152.2265  143.8936  159.3080 N   0  0  0  0  0  0  0  0  0  0  0  0
  152.8179  143.1900  160.3340 C   0  0  0  0  0  0  0  0  0  0  0  0
  152.9345  141.8919  159.9248 C   0  0  0  0  0  0  0  0  0  0  0  0
  153.4798  140.8368  160.6857 N   0  0  0  0  0  0  0  0  0  0  0  0
  152.3972  141.9026  158.5993 C   0  0  0  0  0  0  0  0  0  0  0  0
  152.2936  140.6396  157.7896 C   0  0  0  0  0  0  0  0  0  0  0  0
  153.0367  139.6931  158.0522 O   0  0  0  0  0  0  0  0  0  0  0  0
  151.4115  140.6169  156.7625 N   0  0  0  0  0  0  0  0  0  0  0  0
  150.4808  141.6916  156.4077 C   0  0  0  0  0  0  0  0  0  0  0  0
  149.7946  141.2502  155.1169 C   0  0  0  0  0  0  0  0  0  0  0  0
  149.8982  139.7332  155.1503 C   0  0  0  0  0  0  0  0  0  0  0  0
  151.2215  139.4593  155.8779 C   0  0  1  0  0  0  0  0  0  0  0  0
  152.4091  139.3005  154.9019 C   0  0  0  0  0  0  0  0  0  0  0  0
  153.5607  138.8702  155.5962 O   0  0  0  0  0  0  0  0  0  0  0  0
  151.9540  143.1036  158.2502 N   0  0  0  0  0  0  0  0  0  0  0  0
  152.1863  145.7919  160.1791 H   0  0  0  0  0  0  0  0  0  0  0  0
  150.8068  145.4110  159.1293 H   0  0  0  0  0  0  0  0  0  0  0  0
  152.3952  145.7720  158.4165 H   0  0  0  0  0  0  0  0  0  0  0  0
  153.0981  143.6651  161.2629 H   0  0  0  0  0  0  0  0  0  0  0  0
  153.8320  140.9864  161.6207 H   0  0  0  0  0  0  0  0  0  0  0  0
  153.6793  139.9349  160.2771 H   0  0  0  0  0  0  0  0  0  0  0  0
  149.7388  141.8000  157.1999 H   0  0  0  0  0  0  0  0  0  0  0  0
  150.9875  142.6490  156.2779 H   0  0  0  0  0  0  0  0  0  0  0  0
  148.7656  141.6028  155.0427 H   0  0  0  0  0  0  0  0  0  0  0  0
  150.3435  141.6372  154.2575 H   0  0  0  0  0  0  0  0  0  0  0  0
  149.0720  139.3287  155.7366 H   0  0  0  0  0  0  0  0  0  0  0  0
  149.8434  139.2849  154.1577 H   0  0  0  0  0  0  0  0  0  0  0  0
  151.1247  138.5536  156.4800 H   0  0  0  0  0  0  0  0  0  0  0  0
  152.1747  138.5896  154.1088 H   0  0  0  0  0  0  0  0  0  0  0  0
  152.6537  140.2464  154.4190 H   0  0  0  0  0  0  0  0  0  0  0  0
  153.2882  138.4401  156.3925 H   0  0  0  0  0  0  0  0  0  0  0  0
  1  2  1  0  0  0  0
  1 17  1  0  0  0  0
  1 18  1  0  0  0  0
  1 19  1  0  0  0  0
  2 16  1  0  0  0  0
  2  3  1  0  0  0  0
  3  4  2  0  0  0  0
  3 20  1  0  0  0  0
  4  5  1  0  0  0  0
  4  6  1  0  0  0  0
  5 21  1  0  0  0  0
  5 22  1  0  0  0  0
  6  7  1  0  0  0  0
  6 16  2  0  0  0  0
  7  8  2  0  0  0  0
  7  9  1  0  0  0  0
  9 13  1  0  0  0  0
  9 10  1  0  0  0  0
 10 11  1  0  0  0  0
 10 23  1  0  0  0  0
 10 24  1  0  0  0  0
 11 12  1  0  0  0  0
 11 25  1  0  0  0  0
 11 26  1  0  0  0  0
 12 13  1  0  0  0  0
 12 27  1  0  0  0  0
 12 28  1  0  0  0  0
 13 14  1  0  0  0  0
 13 29  1  0  0  0  0
 14 15  1  0  0  0  0
 14 30  1  0  0  0  0
 14 31  1  0  0  0  0
 15 32  1  0  0  0  0
M  END
> <s_m_source_file>
AV-unprocessed.smi

> <i_m_source_file_index>
58

> <i_lp_mmshare_version>
43012

> <i_f3d_flags>
0

> <s_epik_input>
W0NIM11uMVtjSF1jKFtOSDJdKWMobjEpQyg9TylOMltDSDJdW0NIMl1bQ0gyXVtDQEhdMltDSDJdW09IXQ==

> <s_epik_cmdline>
J2VwaWtfcHl0aG9uJywgJy1waCcsICc3LjAnLCAnLXRuJywgJzgnLCAnLW1hJywgJzIwMCcsICctbWV0YWxfYmluZGluZycsICctaW1hZScsICc8aW5maWxlLm1hZT4nLCAnLW9tYWUnLCAnPG91dGZpbGUubWFlPic=

> <r_lp_tautomer_probability>
1

> <r_epik_Ionization_Penalty>
5.64206e-05

> <r_epik_Ionization_Penalty_Charging>
0

> <r_epik_Ionization_Penalty_Neutral>
5.64206e-05

> <r_epik_State_Penalty>
-0

> <r_epik_Charging_Adjusted_Penalty>
0

> <i_epik_Tot_Q>
0

> <i_epik_Tot_abs_Q>
0

> <r_epik_Metal_State_Penalty>
-0

> <b_epik_Metal_Only>
0

> <s_lp_Force_Field>
OPLS_2005

> <r_lp_Energy>
40.444

> <b_lp_Chiralities_Consistent>
1

> <s_lp_Variant>
AV-unprocessed.smi:58-1

> <Gold.Version>
5.8.1

> <Gold.Id.Protein>
6NUR|6NUR_protein|mol2

> <Gold.PLP.Fitness>
40.7094

> <Gold.PLP.PLP>
-37.2031

> <Gold.PLP.part.hbond>
-1.8842

> <Gold.PLP.part.metal>
0.0000

> <Gold.PLP.part.buried>
-3.1318

> <Gold.PLP.part.nonpolar>
-32.4379

> <Gold.PLP.part.repulsive>
0.1037

> <Gold.PLP.ligand.clash>
0.0243

> <Gold.PLP.ligand.torsion>
0.2261

> <Gold.PLP.Chemscore.Hbond>
1.2320

> <Gold.PLP.Chemscore.CHOScore>
0.0000

> <Gold.PLP.Chemscore.Metal>
0.0000

> <Gold.Chemscore.Hbonds>
donor molecule, donor type, donor heavy atom, donor atom, acceptor molecule, acceptor atom, score
      P1  H  7997  8009       L1     8  0.96
      P1  H  7997  8010       L1    15  0.27

> <Gold.PLP.Chemscore.Internal.Correction>
0.2868

> <Gold.Rescore>
     Score         DG    S(hbond)    S(metal)    S(lipo)     H(rot)  DE(clash)    DE(int)     intcor
     11.66     -14.65       1.20        0.00      76.65       1.49       0.04       2.96       ----

> <Gold.Chemscore.Fitness>
11.6553

> <Gold.Chemscore.DG>
-14.6468

> <Gold.Chemscore.ZeroCoef>
-5.4800

> <Gold.Chemscore.Hbond>
1.2021

> <Gold.Chemscore.Metal>
0.0000

> <Gold.Chemscore.Lipo>
76.6508

> <Gold.Chemscore.Internal_Hbond>
0.0000

> <Gold.Chemscore.DEClash>
0.0363

> <Gold.Chemscore.DEInternal>
2.9552

> <Gold.Chemscore.Rot>
1.4907

> <Gold.Chemscore.Internal.Correction>
   9.000000E+99

> <Gold.Chemscore.Hbonds>
donor molecule, donor type, donor heavy atom, donor atom, acceptor molecule, acceptor atom, score
      P1  H  7997  8009       L1     8  0.59
      P1  H  7997  8010       L1    15  0.20

> <Gold.Chemscore.Hbond.Weighted>
-4.0149

> <Gold.Chemscore.Metal.Weighted>
-0.0000

> <Gold.Chemscore.Lipo.Weighted>
-8.9681

> <Gold.Chemscore.Internal_Hbond.Weighted>
0.0000

> <Gold.Chemscore.DEClash.Weighted>
0.0363

> <Gold.Chemscore.DEInternal.Weighted>
2.9552

> <Gold.Chemscore.Rot.Weighted>
3.8163

> <Gold.Chemscore.Internal.Correction.Weighted>
   9.000000E+99

> <Gold.Protein.RotatedTorsions>
[ 6907 6896 6895 6894 ] final -146.92 input  -60.11 | X-H torsion
[ 7974 7965 7964 7962 ] final -177.52 input  175.53 | X-H torsion
[ 8008 7997 7996 7995 ] final  140.32 input   59.86 | X-H torsion
[ 10167 10162 10161 10158 ] final   82.10 input  -65.29 | X-H torsion
[ 10718 10713 10712 10709 ] final   87.91 input   66.30 | X-H torsion
[ 10763 10752 10751 10750 ] final   23.38 input  -60.55 | X-H torsion
[ 11005 11000 10999 10996 ] final -110.36 input  -57.11 | X-H torsion

> <Gold.Protein.ActiveResidues>
 VAL166  LYS551  ARG553  GLY616  TRP617  ASP618  TYR619  PRO620  LYS621  CYS622 
 ASP623  PHE694  ASN695  SER759  ASP760  ASP761  ALA762  ILE779  LEU786  VAL792 
 PHE793  MET794  SER795  GLU796  ALA797  LYS798  CYS799  TRP800  GLU811  SER814 

> <Gold.Protein.RotatedAtoms>
  151.1484  133.4924  159.2595 H   0  0  0  0  0  0  0  0  0  0  0  0  # atno 6907 bound_to 6896
  151.1580  135.0259  159.8708 H   0  0  0  0  0  0  0  0  0  0  0  0  # atno 6908 bound_to 6896
  152.5463  134.1360  159.8512 H   0  0  0  0  0  0  0  0  0  0  0  0  # atno 6909 bound_to 6896
  144.7128  140.1007  143.6416 H   0  0  0  0  0  0  0  0  0  0  0  0  # atno 7974 bound_to 7965
  156.2980  140.2344  156.4382 H   0  0  0  0  0  0  0  0  0  0  0  0  # atno 8008 bound_to 7997
  154.8209  140.0438  157.1430 H   0  0  0  0  0  0  0  0  0  0  0  0  # atno 8009 bound_to 7997
  154.9316  140.3017  155.5168 H   0  0  0  0  0  0  0  0  0  0  0  0  # atno 8010 bound_to 7997
  139.9323  144.6144  150.8333 H   0  0  0  0  0  0  0  0  0  0  0  0  # atno 10167 bound_to 10162
  157.6944  131.0274  150.3195 H   0  0  0  0  0  0  0  0  0  0  0  0  # atno 10718 bound_to 10713
  153.0843  135.6628  153.9981 H   0  0  0  0  0  0  0  0  0  0  0  0  # atno 10763 bound_to 10752
  153.9595  135.2975  155.3435 H   0  0  0  0  0  0  0  0  0  0  0  0  # atno 10764 bound_to 10752
  154.7248  135.5149  153.8941 H   0  0  0  0  0  0  0  0  0  0  0  0  # atno 10765 bound_to 10752
  141.0796  133.9242  157.2316 H   0  0  0  0  0  0  0  0  0  0  0  0  # atno 11005 bound_to 11000
  145.9540  139.2754  143.1195 LP  0  0  0  0  0  0  0  0  0  0  0  0  # atno 17320 bound_to 7965
  145.9292  140.9060  143.0365 LP  0  0  0  0  0  0  0  0  0  0  0  0  # atno 17321 bound_to 7965
  140.7634  143.3222  151.2596 LP  0  0  0  0  0  0  0  0  0  0  0  0  # atno 17342 bound_to 10162
  139.6772  143.9917  152.2788 LP  0  0  0  0  0  0  0  0  0  0  0  0  # atno 17343 bound_to 10162
  156.3684  130.3859  149.7195 LP  0  0  0  0  0  0  0  0  0  0  0  0  # atno 17370 bound_to 10713
  156.4617  130.7955  151.2975 LP  0  0  0  0  0  0  0  0  0  0  0  0  # atno 17371 bound_to 10713
  139.9609  135.0154  156.9259 LP  0  0  0  0  0  0  0  0  0  0  0  0  # atno 17394 bound_to 11000
  140.5497  134.0639  155.7365 LP  0  0  0  0  0  0  0  0  0  0  0  0  # atno 17395 bound_to 11000

$$$$
