AV-unprocessed.smi:3274|AV-procd|sdf|12523|dock6
  -GOLD-   2272018433D 1   1.00000     0.00000
 Structure written by MMmdl.
 43 44  0  0  0  0  0  0  0  0  2 V2000
  142.6446  135.1095  153.1043 C   0  0  0  0  0  0  0  0  0  0  0  0
  143.5105  134.2141  152.2334 C   0  0  0  0  0  0  0  0  0  0  0  0
  142.9569  133.1614  151.6014 C   0  0  0  0  0  0  0  0  0  0  0  0
  143.7306  132.1605  150.7754 C   0  0  0  0  0  0  0  0  0  0  0  0
  145.2138  132.1704  151.1515 C   0  0  0  0  0  0  0  0  0  0  0  0
  145.7816  133.5990  151.1552 C   0  0  2  0  0  0  0  0  0  0  0  0
  147.2939  133.5477  151.4480 C   0  0  0  0  0  0  0  0  0  0  0  0
  145.0152  134.5421  152.1342 C   0  0  1  0  0  0  0  0  0  0  0  0
  145.2848  136.0244  151.7611 C   0  0  0  0  0  0  0  0  0  0  0  0
  146.3406  136.6430  152.5926 N   0  3  0  0  0  0  0  0  0  0  0  0
  146.3856  138.1220  152.5727 C   0  0  2  0  0  0  0  0  0  0  0  0
  146.7065  138.6483  151.1598 C   0  0  0  0  0  0  0  0  0  0  0  0
  147.3955  138.6085  153.6320 C   0  0  0  0  0  0  0  0  0  0  0  0
  147.3689  140.0476  153.8226 N   0  0  0  0  0  0  0  0  0  0  0  0
  148.2857  140.9770  153.5470 C   0  0  0  0  0  0  0  0  0  0  0  0
  147.9087  142.2090  153.8578 N   0  0  0  0  0  0  0  0  0  0  0  0
  146.6599  141.9494  154.3483 C   0  0  0  0  0  0  0  0  0  0  0  0
  146.2877  140.6692  154.3489 N   0  0  0  0  0  0  0  0  0  0  0  0
  143.0940  135.2347  154.0898 H   0  0  0  0  0  0  0  0  0  0  0  0
  141.6522  134.6809  153.2485 H   0  0  0  0  0  0  0  0  0  0  0  0
  142.5102  136.0890  152.6460 H   0  0  0  0  0  0  0  0  0  0  0  0
  141.8946  132.9810  151.6817 H   0  0  0  0  0  0  0  0  0  0  0  0
  143.3157  131.1655  150.9385 H   0  0  0  0  0  0  0  0  0  0  0  0
  143.5941  132.3965  149.7196 H   0  0  0  0  0  0  0  0  0  0  0  0
  145.3422  131.7238  152.1389 H   0  0  0  0  0  0  0  0  0  0  0  0
  145.7672  131.5403  150.4542 H   0  0  0  0  0  0  0  0  0  0  0  0
  145.6549  133.9886  150.1436 H   0  0  0  0  0  0  0  0  0  0  0  0
  147.4887  133.1758  152.4545 H   0  0  0  0  0  0  0  0  0  0  0  0
  147.7701  134.5226  151.3581 H   0  0  0  0  0  0  0  0  0  0  0  0
  147.8032  132.8828  150.7497 H   0  0  0  0  0  0  0  0  0  0  0  0
  145.4162  134.3622  153.1330 H   0  0  0  0  0  0  0  0  0  0  0  0
  145.5945  136.1096  150.7219 H   0  0  0  0  0  0  0  0  0  0  0  0
  144.3601  136.5960  151.8524 H   0  0  0  0  0  0  0  0  0  0  0  0
  146.1650  136.3592  153.5459 H   0  0  0  0  0  0  0  0  0  0  0  0
  145.4015  138.4925  152.8642 H   0  0  0  0  0  0  0  0  0  0  0  0
  146.7094  139.7379  151.1300 H   0  0  0  0  0  0  0  0  0  0  0  0
  145.9695  138.3198  150.4274 H   0  0  0  0  0  0  0  0  0  0  0  0
  147.6858  138.3062  150.8237 H   0  0  0  0  0  0  0  0  0  0  0  0
  147.1855  138.1397  154.5944 H   0  0  0  0  0  0  0  0  0  0  0  0
  148.4079  138.3087  153.3551 H   0  0  0  0  0  0  0  0  0  0  0  0
  149.2488  140.7482  153.1144 H   0  0  0  0  0  0  0  0  0  0  0  0
  146.0061  142.7269  154.7156 H   0  0  0  0  0  0  0  0  0  0  0  0
  147.2418  136.2813  152.3144 H   0  0  0  0  0  0  0  0  0  0  0  0
  1  2  1  0  0  0  0
  1 19  1  0  0  0  0
  1 20  1  0  0  0  0
  1 21  1  0  0  0  0
  2  8  1  0  0  0  0
  2  3  2  0  0  0  0
  3  4  1  0  0  0  0
  3 22  1  0  0  0  0
  4  5  1  0  0  0  0
  4 23  1  0  0  0  0
  4 24  1  0  0  0  0
  5  6  1  0  0  0  0
  5 25  1  0  0  0  0
  5 26  1  0  0  0  0
  6  7  1  0  0  0  0
  6  8  1  0  0  0  0
  6 27  1  0  0  0  0
  7 28  1  0  0  0  0
  7 29  1  0  0  0  0
  7 30  1  0  0  0  0
  8  9  1  0  0  0  0
  8 31  1  0  0  0  0
  9 10  1  0  0  0  0
  9 32  1  0  0  0  0
  9 33  1  0  0  0  0
 10 11  1  0  0  0  0
 10 34  1  0  0  0  0
 10 43  1  0  0  0  0
 11 12  1  0  0  0  0
 11 13  1  0  0  0  0
 11 35  1  0  0  0  0
 12 36  1  0  0  0  0
 12 37  1  0  0  0  0
 12 38  1  0  0  0  0
 13 14  1  0  0  0  0
 13 39  1  0  0  0  0
 13 40  1  0  0  0  0
 14 18  1  0  0  0  0
 14 15  1  0  0  0  0
 15 16  2  0  0  0  0
 15 41  1  0  0  0  0
 16 17  1  0  0  0  0
 17 18  2  0  0  0  0
 17 42  1  0  0  0  0
M  CHG  1  10   1
M  END
> <s_m_source_file>
AV-unprocessed.smi

> <i_m_source_file_index>
3274

> <i_lp_mmshare_version>
43012

> <i_f3d_flags>
0

> <s_epik_input>
W0NIM11DMT1bQ0hdW0NIMl1bQ0gyXVtDQEBIXShbQ0gzXSlbQ0BIXTFbQ0gyXVtOSF1bQ0BIXShbQ0gzXSlbQ0gyXW4yW2NIXW5bY0hdbjI=

> <s_epik_cmdline>
J2VwaWtfcHl0aG9uJywgJy1waCcsICc3LjAnLCAnLXRuJywgJzgnLCAnLW1hJywgJzIwMCcsICctbWV0YWxfYmluZGluZycsICctaW1hZScsICc8aW5maWxlLm1hZT4nLCAnLW9tYWUnLCAnPG91dGZpbGUubWFlPic=

> <r_lp_tautomer_probability>
1

> <r_epik_Ionization_Penalty>
0.0017527

> <r_epik_Ionization_Penalty_Charging>
0.00175191

> <r_epik_Ionization_Penalty_Neutral>
7.94565e-07

> <r_epik_State_Penalty>
0.00118605

> <r_epik_Charging_Adjusted_Penalty>
0.00293796

> <i_epik_Tot_Q>
1

> <i_epik_Tot_abs_Q>
1

> <r_epik_Metal_State_Penalty>
-0

> <b_epik_Metal_Only>
0

> <s_lp_Force_Field>
OPLS_2005

> <r_lp_Energy>
18.9317

> <b_lp_Chiralities_Consistent>
1

> <s_lp_Variant>
AV-unprocessed.smi:3274-2

> <Gold.Version>
5.8.1

> <Gold.Id.Protein>
6NUR|6NUR_protein|mol2

> <Gold.PLP.Fitness>
40.7815

> <Gold.PLP.PLP>
-33.1570

> <Gold.PLP.part.hbond>
-1.4407

> <Gold.PLP.part.metal>
0.0000

> <Gold.PLP.part.buried>
-0.7663

> <Gold.PLP.part.nonpolar>
-31.5202

> <Gold.PLP.part.repulsive>
0.2941

> <Gold.PLP.ligand.clash>
0.0000

> <Gold.PLP.ligand.torsion>
0.7385

> <Gold.PLP.Chemscore.Hbond>
2.0000

> <Gold.PLP.Chemscore.CHOScore>
0.9999

> <Gold.PLP.Chemscore.Metal>
0.0000

> <Gold.Chemscore.Hbonds>
donor molecule, donor type, donor heavy atom, donor atom, acceptor molecule, acceptor atom, score
      L1  H    10    43       P1  7948  2.00
      L1  C    15    41       P1  7957  0.93

> <Gold.PLP.Chemscore.Internal.Correction>
0.1017

> <Gold.Rescore>
     Score         DG    S(hbond)    S(metal)    S(lipo)     H(rot)  DE(clash)    DE(int)     intcor
     11.24     -12.12       0.99        0.00      80.19       2.36       0.31       0.57       ----

> <Gold.Chemscore.Fitness>
11.2352

> <Gold.Chemscore.DG>
-12.1186

> <Gold.Chemscore.ZeroCoef>
-5.4800

> <Gold.Chemscore.Hbond>
0.9885

> <Gold.Chemscore.Metal>
0.0000

> <Gold.Chemscore.Lipo>
80.1909

> <Gold.Chemscore.Internal_Hbond>
0.0000

> <Gold.Chemscore.DEClash>
0.3136

> <Gold.Chemscore.DEInternal>
0.5698

> <Gold.Chemscore.Rot>
2.3615

> <Gold.Chemscore.Internal.Correction>
   9.000000E+99

> <Gold.Chemscore.Hbonds>
donor molecule, donor type, donor heavy atom, donor atom, acceptor molecule, acceptor atom, score
      L1  H    10    43       P1  7948  1.00

> <Gold.Chemscore.Hbond.Weighted>
-3.3017

> <Gold.Chemscore.Metal.Weighted>
-0.0000

> <Gold.Chemscore.Lipo.Weighted>
-9.3823

> <Gold.Chemscore.Internal_Hbond.Weighted>
0.0000

> <Gold.Chemscore.DEClash.Weighted>
0.3136

> <Gold.Chemscore.DEInternal.Weighted>
0.5698

> <Gold.Chemscore.Rot.Weighted>
6.0454

> <Gold.Chemscore.Internal.Correction.Weighted>
   9.000000E+99

> <Gold.Protein.RotatedTorsions>
[ 6907 6896 6895 6894 ] final  128.51 input  -60.11 | X-H torsion
[ 7974 7965 7964 7962 ] final  111.61 input  175.53 | X-H torsion
[ 8008 7997 7996 7995 ] final  -14.25 input   59.86 | X-H torsion
[ 10167 10162 10161 10158 ] final -151.64 input  -65.29 | X-H torsion
[ 10718 10713 10712 10709 ] final  121.00 input   66.30 | X-H torsion
[ 10763 10752 10751 10750 ] final  -61.49 input  -60.55 | X-H torsion
[ 11005 11000 10999 10996 ] final   82.08 input  -57.11 | X-H torsion

> <Gold.Protein.ActiveResidues>
 VAL166  LYS551  ARG553  GLY616  TRP617  ASP618  TYR619  PRO620  LYS621  CYS622 
 ASP623  PHE694  ASN695  SER759  ASP760  ASP761  ALA762  ILE779  LEU786  VAL792 
 PHE793  MET794  SER795  GLU796  ALA797  LYS798  CYS799  TRP800  GLU811  SER814 

> <Gold.Protein.RotatedAtoms>
  152.3712  133.6422  159.6088 H   0  0  0  0  0  0  0  0  0  0  0  0  # atno 6907 bound_to 6896
  150.7670  133.9266  159.3423 H   0  0  0  0  0  0  0  0  0  0  0  0  # atno 6908 bound_to 6896
  151.7089  135.0917  160.0315 H   0  0  0  0  0  0  0  0  0  0  0  0  # atno 6909 bound_to 6896
  145.2400  139.2783  143.4123 H   0  0  0  0  0  0  0  0  0  0  0  0  # atno 7974 bound_to 7965
  154.5226  140.2228  155.8948 H   0  0  0  0  0  0  0  0  0  0  0  0  # atno 8008 bound_to 7997
  156.1678  140.3128  155.8885 H   0  0  0  0  0  0  0  0  0  0  0  0  # atno 8009 bound_to 7997
  155.3620  140.0461  157.3037 H   0  0  0  0  0  0  0  0  0  0  0  0  # atno 8010 bound_to 7997
  139.7250  143.8898  152.2516 H   0  0  0  0  0  0  0  0  0  0  0  0  # atno 10167 bound_to 10162
  157.5850  131.1071  150.8113 H   0  0  0  0  0  0  0  0  0  0  0  0  # atno 10718 bound_to 10713
  154.2855  135.6264  153.5364 H   0  0  0  0  0  0  0  0  0  0  0  0  # atno 10763 bound_to 10752
  152.9860  135.5643  154.5448 H   0  0  0  0  0  0  0  0  0  0  0  0  # atno 10764 bound_to 10752
  154.5048  135.2874  155.1367 H   0  0  0  0  0  0  0  0  0  0  0  0  # atno 10765 bound_to 10752
  139.9075  134.8045  156.2127 H   0  0  0  0  0  0  0  0  0  0  0  0  # atno 11005 bound_to 11000
  146.3331  140.2761  142.8608 LP  0  0  0  0  0  0  0  0  0  0  0  0  # atno 17320 bound_to 7965
  144.9597  140.8263  143.5521 LP  0  0  0  0  0  0  0  0  0  0  0  0  # atno 17321 bound_to 7965
  139.8805  144.7020  150.8884 LP  0  0  0  0  0  0  0  0  0  0  0  0  # atno 17342 bound_to 10162
  140.7761  143.3665  151.1729 LP  0  0  0  0  0  0  0  0  0  0  0  0  # atno 17343 bound_to 10162
  156.8549  130.5093  149.5308 LP  0  0  0  0  0  0  0  0  0  0  0  0  # atno 17370 bound_to 10713
  156.0898  130.5887  150.9713 LP  0  0  0  0  0  0  0  0  0  0  0  0  # atno 17371 bound_to 10713
  141.0455  133.6915  156.1675 LP  0  0  0  0  0  0  0  0  0  0  0  0  # atno 17394 bound_to 11000
  140.6891  134.4686  157.5589 LP  0  0  0  0  0  0  0  0  0  0  0  0  # atno 17395 bound_to 11000

$$$$
