#       Name:                AV-unprocessed.smi:3205
#       Creating user name   scv26
#       Creation time:       Fri Mar 27 18:08:59 2020


#       File generated by GOLD software.
#

@<TRIPOS>MOLECULE
AV-unprocessed.smi:3205
    41    42     1
SMALL
NO_CHARGES


@<TRIPOS>ATOM
      1 ****        -1.4577  -0.7009  -1.8479 C.3            1 S1                 0.0000
      2 ****        -1.0448  -0.3920  -0.3944 C.3            1 S1                 0.0000
      3 ****         0.4312  -0.2943  -0.3040 N.4            1 S1                 1.0000
      4 ****         1.0159   0.9772  -0.7792 C.3            1 S1                 0.0000
      5 ****         2.5312   1.0067  -0.5309 C.3            1 S1                 0.0000
      6 ****         3.1356   2.2372  -1.0046 N.pl3          1 S1                 0.0000
      7 ****         4.0233   2.4119  -2.0455 C.2            1 S1                 0.0000
      8 ****         4.3217   3.7430  -2.1052 C.2            1 S1                 0.0000
      9 ****         3.5621   4.3082  -1.0432 C.2            1 S1                 0.0000
     10 ****         2.8560   3.4035  -0.3840 N.2            1 S1                 0.0000
     11 ****        -1.5610  -1.4522   0.6151 C.3            1 S1                 0.0000
     12 ****        -3.0928  -1.6379   0.5693 C.3            1 S1                 0.0000
     13 ****        -3.5714  -2.6246   1.6474 C.3            1 S1                 0.0000
     14 ****        -3.1598  -2.1800   2.9335 O.3            1 S1                 0.0000
     15 ****        -1.7457  -2.1201   3.0647 C.3            1 S1                 0.0000
     16 ****        -1.1722  -1.1006   2.0678 C.3            1 S1                 0.0000
     17 ****        -2.5393  -0.6699  -1.9756 H              1 S1                 0.0000
     18 ****        -1.1123  -1.6881  -2.1569 H              1 S1                 0.0000
     19 ****        -1.0496   0.0258  -2.5495 H              1 S1                 0.0000
     20 ****        -1.4687   0.5732  -0.1123 H              1 S1                 0.0000
     21 ****         0.6781  -0.3839   0.6714 H              1 S1                 0.0000
     22 ****         0.8155   1.1057  -1.8429 H              1 S1                 0.0000
     23 ****         0.5372   1.8071  -0.2574 H              1 S1                 0.0000
     24 ****         2.7472   0.9045   0.5335 H              1 S1                 0.0000
     25 ****         3.0139   0.1680  -1.0347 H              1 S1                 0.0000
     26 ****         4.3655   1.5852  -2.6506 H              1 S1                 0.0000
     27 ****         4.9838   4.2379  -2.8002 H              1 S1                 0.0000
     28 ****         3.5047   5.3411  -0.7332 H              1 S1                 0.0000
     29 ****        -1.1034  -2.4113   0.3661 H              1 S1                 0.0000
     30 ****        -3.5878  -0.6766   0.7138 H              1 S1                 0.0000
     31 ****        -3.4110  -2.0118  -0.4033 H              1 S1                 0.0000
     32 ****        -4.6592  -2.6957   1.6326 H              1 S1                 0.0000
     33 ****        -3.1859  -3.6273   1.4558 H              1 S1                 0.0000
     34 ****        -1.5003  -1.8246   4.0848 H              1 S1                 0.0000
     35 ****        -1.3108  -3.1081   2.9062 H              1 S1                 0.0000
     36 ****        -0.0888  -1.0668   2.1837 H              1 S1                 0.0000
     37 ****        -1.5424  -0.1058   2.3197 H              1 S1                 0.0000
     38 ****         0.8438  -1.0655  -0.8093 H              1 S1                 0.0000
     39 ****         2.2509   3.5507   0.3984 LP             1 S1                 0.0000
     40 ****        -3.5188  -2.8116   3.6207 LP             1 S1                 0.0000
     41 ****        -3.5351  -1.2667   3.0919 LP             1 S1                 0.0000
@<TRIPOS>BOND
    1    1    2 1     
    2    1   17 1     
    3    1   18 1     
    4    1   19 1     
    5    2    3 1     
    6    2   11 1     
    7    2   20 1     
    8    3    4 1     
    9    3   21 1     
   10    3   38 1     
   11    4    5 1     
   12    4   22 1     
   13    4   23 1     
   14    5    6 1     
   15    5   24 1     
   16    5   25 1     
   17    6   10 1     
   18    6    7 1     
   19    7    8 2     
   20    7   26 1     
   21    8    9 1     
   22    8   27 1     
   23    9   10 2     
   24    9   28 1     
   25   11   16 1     
   26   11   12 1     
   27   11   29 1     
   28   12   13 1     
   29   12   30 1     
   30   12   31 1     
   31   13   14 1     
   32   13   32 1     
   33   13   33 1     
   34   14   15 1     
   35   15   16 1     
   36   15   34 1     
   37   15   35 1     
   38   16   36 1     
   39   16   37 1     
   40   10   39 1     
   41   14   40 1     
   42   14   41 1     
@<TRIPOS>SUBSTRUCTURE
      1 S1             1
@<TRIPOS>SET
LONE_PAIRS      STATIC     ATOMS    <user>   **** ""
3 39 40 41
DONOR_HYDROGENS      STATIC     ATOMS    <user>   **** ""
2 21 38
ATOM$BLUE        STATIC     ATOMS    COLORGROUP SYSTEM
3 39 40 41
ATOM$RED        STATIC     ATOMS    COLORGROUP SYSTEM
2 21 38
