#       Name:                AV-unprocessed.smi:2862
#       Creating user name   scv26
#       Creation time:       Fri Mar 27 15:47:09 2020


#       File generated by GOLD software.
#

@<TRIPOS>MOLECULE
AV-unprocessed.smi:2862
    58    60     1
SMALL
NO_CHARGES


@<TRIPOS>ATOM
      1 ****        -3.0347   1.8595   3.7132 C.3            1 S1                 0.0000
      2 ****        -2.7856   1.5181   2.2358 C.3            1 S1                 0.0000
      3 ****        -2.4565   0.1056   2.0970 N.am           1 S1                 0.0000
      4 ****        -3.3286  -0.9144   2.0190 C.2            1 S1                 0.0000
      5 ****        -4.5449  -0.7633   2.1242 O.2            1 S1                 0.0000
      6 ****        -2.7645  -2.3261   1.7712 C.3            1 S1                 0.0000
      7 ****        -1.3184  -2.3620   1.4793 N.am           1 S1                 0.0000
      8 ****        -0.4600  -2.6616   2.5565 C.2            1 S1                 0.0000
      9 ****         0.8755  -2.6629   2.4264 C.2            1 S1                 0.0000
     10 ****         1.4379  -2.3363   1.1391 C.2            1 S1                 0.0000
     11 ****         0.6243  -2.0315   0.1032 C.2            1 S1                 0.0000
     12 ****         1.1432  -1.7231  -1.2336 C.2            1 S1                 0.0000
     13 ****         0.8059  -2.3574  -2.2349 O.2            1 S1                 0.0000
     14 ****         2.0455  -0.7013  -1.2958 N.am           1 S1                 0.0000
     15 ****         2.1802   0.3227  -0.2448 C.3            1 S1                 0.0000
     16 ****         2.8596  -0.4238  -2.4998 C.3            1 S1                 0.0000
     17 ****         3.7426  -1.6271  -2.8873 C.3            1 S1                 0.0000
     18 ****         2.0679   0.0891  -3.6955 C.3            1 S1                 0.0000
     19 ****         2.7088   0.9901  -4.7236 C.3            1 S1                 0.0000
     20 ****         1.6490   1.5359  -3.7923 C.3            1 S1                 0.0000
     21 ****        -0.8496  -2.0698   0.2250 C.2            1 S1                 0.0000
     22 ****        -1.6275  -1.8242  -0.7013 O.2            1 S1                 0.0000
     23 ****        -1.7055   2.4064   1.6481 C.3            1 S1                 0.0000
     24 ****        -2.0183   3.7931   1.1409 C.3            1 S1                 0.0000
     25 ****        -1.6547   2.6931   0.1672 C.3            1 S1                 0.0000
     26 ****        -3.3049   2.9092   3.8313 H              1 S1                 0.0000
     27 ****        -2.1464   1.6753   4.3181 H              1 S1                 0.0000
     28 ****        -3.8491   1.2640   4.1271 H              1 S1                 0.0000
     29 ****        -3.7055   1.7130   1.6812 H              1 S1                 0.0000
     30 ****        -1.4756  -0.1161   2.0077 H              1 S1                 0.0000
     31 ****        -2.9921  -2.9370   2.6458 H              1 S1                 0.0000
     32 ****        -3.3241  -2.7867   0.9551 H              1 S1                 0.0000
     33 ****        -0.9544  -2.8813   3.4917 H              1 S1                 0.0000
     34 ****         1.5137  -2.8920   3.2671 H              1 S1                 0.0000
     35 ****         2.5114  -2.3398   1.0145 H              1 S1                 0.0000
     36 ****         1.2536   0.4831   0.3084 H              1 S1                 0.0000
     37 ****         2.4428   1.2981  -0.6557 H              1 S1                 0.0000
     38 ****         2.9609   0.0410   0.4621 H              1 S1                 0.0000
     39 ****         3.5737   0.3618  -2.2474 H              1 S1                 0.0000
     40 ****         4.4559  -1.3470  -3.6629 H              1 S1                 0.0000
     41 ****         3.1614  -2.4635  -3.2748 H              1 S1                 0.0000
     42 ****         4.3162  -1.9850  -2.0318 H              1 S1                 0.0000
     43 ****         1.3605  -0.6322  -4.0992 H              1 S1                 0.0000
     44 ****         3.7364   1.3056  -4.5540 H              1 S1                 0.0000
     45 ****         2.4336   0.8372  -5.7652 H              1 S1                 0.0000
     46 ****         0.6669   1.7447  -4.2114 H              1 S1                 0.0000
     47 ****         1.9736   2.2135  -3.0054 H              1 S1                 0.0000
     48 ****        -0.7386   2.2917   2.1353 H              1 S1                 0.0000
     49 ****        -3.0560   4.1207   1.1621 H              1 S1                 0.0000
     50 ****        -1.2795   4.5715   1.3204 H              1 S1                 0.0000
     51 ****        -0.6729   2.7346  -0.3002 H              1 S1                 0.0000
     52 ****        -2.4508   2.2884  -0.4548 H              1 S1                 0.0000
     53 ****        -4.9242   0.1496   2.2747 LP             1 S1                 0.0000
     54 ****        -5.1544  -1.5535   2.0591 LP             1 S1                 0.0000
     55 ****         0.1560  -3.1130  -2.1528 LP             1 S1                 0.0000
     56 ****         1.1821  -2.1166  -3.1296 LP             1 S1                 0.0000
     57 ****        -2.6147  -1.8368  -0.5419 LP             1 S1                 0.0000
     58 ****        -1.2707  -1.6127  -1.6112 LP             1 S1                 0.0000
@<TRIPOS>BOND
    1    1    2 1     
    2    1   26 1     
    3    1   27 1     
    4    1   28 1     
    5    2    3 1     
    6    2   23 1     
    7    2   29 1     
    8    3    4 am    
    9    3   30 1     
   10    4    5 2     
   11    4    6 1     
   12    6    7 1     
   13    6   31 1     
   14    6   32 1     
   15    7   21 am    
   16    7    8 1     
   17    8    9 2     
   18    8   33 1     
   19    9   10 1     
   20    9   34 1     
   21   10   11 2     
   22   10   35 1     
   23   11   12 1     
   24   11   21 1     
   25   12   13 2     
   26   12   14 am    
   27   14   15 1     
   28   14   16 1     
   29   15   36 1     
   30   15   37 1     
   31   15   38 1     
   32   16   17 1     
   33   16   18 1     
   34   16   39 1     
   35   17   40 1     
   36   17   41 1     
   37   17   42 1     
   38   18   20 1     
   39   18   19 1     
   40   18   43 1     
   41   19   20 1     
   42   19   44 1     
   43   19   45 1     
   44   20   46 1     
   45   20   47 1     
   46   21   22 2     
   47   23   25 1     
   48   23   24 1     
   49   23   48 1     
   50   24   25 1     
   51   24   49 1     
   52   24   50 1     
   53   25   51 1     
   54   25   52 1     
   55    5   53 1     
   56    5   54 1     
   57   13   55 1     
   58   13   56 1     
   59   22   57 1     
   60   22   58 1     
@<TRIPOS>SUBSTRUCTURE
      1 S1             1
@<TRIPOS>SET
LONE_PAIRS      STATIC     ATOMS    <user>   **** ""
6 53 54 55 56 57 58
DONOR_HYDROGENS      STATIC     ATOMS    <user>   **** ""
1 30
ATOM$BLUE        STATIC     ATOMS    COLORGROUP SYSTEM
6 53 54 55 56 57 58
ATOM$RED        STATIC     ATOMS    COLORGROUP SYSTEM
1 30
