#       Name:                AV-unprocessed.smi:290
#       Creating user name   scv26
#       Creation time:       Thu Mar 26 22:08:02 2020


#       File generated by GOLD software.
#

@<TRIPOS>MOLECULE
AV-unprocessed.smi:290
    69    72     1
SMALL
NO_CHARGES


@<TRIPOS>ATOM
      1 ****        -6.4681  -3.2396   0.2063 C.3            1 S1                 0.0000
      2 ****        -5.9035  -2.6570   1.5115 C.3            1 S1                 0.0000
      3 ****        -5.7829  -3.7211   2.4513 O.3            1 S1                 0.0000
      4 ****        -4.7361  -3.4102   3.3529 C.3            1 S1                 0.0000
      5 ****        -3.6773  -2.8289   2.4290 C.3            1 S1                 0.0000
      6 ****        -4.4954  -1.9998   1.4406 C.3            1 S1                 0.0000
      7 ****        -4.6073  -0.6877   1.9658 O.3            1 S1                 0.0000
      8 ****        -3.8498  -1.9008   0.0334 C.3            1 S1                 0.0000
      9 ****        -2.4931  -1.3754   0.0563 N.pl3          1 S1                 0.0000
     10 ****        -1.3285  -2.1056   0.1487 C.2            1 S1                 0.0000
     11 ****        -0.2279  -1.4038   0.1529 N.2            1 S1                 0.0000
     12 ****        -0.6691  -0.0918   0.0451 C.ar           1 S1                 0.0000
     13 ****        -0.0138   1.1643  -0.0146 C.ar           1 S1                 0.0000
     14 ****         1.3332   1.2598   0.0333 N.3            1 S1                 0.0000
     15 ****         1.8526   1.8738   1.2451 C.3            1 S1                 0.0000
     16 ****         3.3183   2.2136   0.9473 C.3            1 S1                 0.0000
     17 ****         3.4283   2.1959  -0.5933 C.3            1 S1                 0.0000
     18 ****         4.4344   1.2346  -1.1446 N.4            1 S1                 1.0000
     19 ****         4.3586  -0.1507  -0.6127 C.3            1 S1                 0.0000
     20 ****         5.8244   1.7585  -1.1382 C.3            1 S1                 0.0000
     21 ****         6.0945   2.7072  -2.3188 C.3            1 S1                 0.0000
     22 ****         6.0314   1.9934  -3.5353 O.3            1 S1                 0.0000
     23 ****         1.9851   1.9443  -1.0747 C.3            1 S1                 0.0000
     24 ****         1.8134   1.2483  -2.4401 C.3            1 S1                 0.0000
     25 ****        -0.7814   2.2802  -0.1292 N.ar           1 S1                 0.0000
     26 ****        -2.1126   2.1696  -0.1828 C.ar           1 S1                 0.0000
     27 ****        -2.8609   1.0646  -0.1386 N.ar           1 S1                 0.0000
     28 ****        -2.0892  -0.0541  -0.0224 C.ar           1 S1                 0.0000
     29 ****         3.6991   3.1940  -0.9367 H              1 S1                 0.0000
     30 ****         1.5174   2.9267  -1.1626 H              1 S1                 0.0000
     31 ****        -6.5899  -2.4686  -0.5546 H              1 S1                 0.0000
     32 ****        -7.4482  -3.6846   0.3788 H              1 S1                 0.0000
     33 ****        -5.8239  -4.0211  -0.1972 H              1 S1                 0.0000
     34 ****        -6.6316  -1.9493   1.9132 H              1 S1                 0.0000
     35 ****        -5.0768  -2.6705   4.0789 H              1 S1                 0.0000
     36 ****        -4.3899  -4.2930   3.8904 H              1 S1                 0.0000
     37 ****        -2.9111  -2.2600   2.9576 H              1 S1                 0.0000
     38 ****        -3.1814  -3.6502   1.9104 H              1 S1                 0.0000
     39 ****        -3.7514  -0.2871   1.9598 H              1 S1                 0.0000
     40 ****        -3.8086  -2.8834  -0.4372 H              1 S1                 0.0000
     41 ****        -4.4523  -1.2695  -0.6212 H              1 S1                 0.0000
     42 ****        -1.3211  -3.1838   0.2178 H              1 S1                 0.0000
     43 ****         1.2961   2.7814   1.4844 H              1 S1                 0.0000
     44 ****         1.7661   1.1934   2.0929 H              1 S1                 0.0000
     45 ****         3.5700   3.1951   1.3501 H              1 S1                 0.0000
     46 ****         3.9828   1.5023   1.4336 H              1 S1                 0.0000
     47 ****         4.8058  -0.2331   0.3776 H              1 S1                 0.0000
     48 ****         4.9036  -0.8272  -1.2716 H              1 S1                 0.0000
     49 ****         3.3339  -0.5149  -0.5545 H              1 S1                 0.0000
     50 ****         6.0201   2.2622  -0.1904 H              1 S1                 0.0000
     51 ****         6.5365   0.9331  -1.1935 H              1 S1                 0.0000
     52 ****         5.3939   3.5411  -2.3478 H              1 S1                 0.0000
     53 ****         7.0926   3.1360  -2.2264 H              1 S1                 0.0000
     54 ****         6.2538   2.5807  -4.2424 H              1 S1                 0.0000
     55 ****         2.3703   1.7732  -3.2166 H              1 S1                 0.0000
     56 ****         0.7661   1.2383  -2.7438 H              1 S1                 0.0000
     57 ****         2.1534   0.2135  -2.4237 H              1 S1                 0.0000
     58 ****        -2.6560   3.0985  -0.2747 H              1 S1                 0.0000
     59 ****         4.2023   1.1460  -2.1240 H              1 S1                 0.0000
     60 ****        -5.5723  -4.5726   1.9711 LP             1 S1                 0.0000
     61 ****        -6.6409  -3.8255   2.9542 LP             1 S1                 0.0000
     62 ****        -4.9539  -0.7282   2.9029 LP             1 S1                 0.0000
     63 ****        -5.2345  -0.1511   1.4013 LP             1 S1                 0.0000
     64 ****         0.7137  -1.7342   0.2185 LP             1 S1                 0.0000
     65 ****         1.5607   0.2870  -0.0105 LP             1 S1                 0.0000
     66 ****         5.1061   1.6391  -3.6702 LP             1 S1                 0.0000
     67 ****         6.6797   1.2323  -3.5132 LP             1 S1                 0.0000
     68 ****        -0.3513   3.1819  -0.1733 LP             1 S1                 0.0000
     69 ****        -3.8598   1.0580  -0.1848 LP             1 S1                 0.0000
@<TRIPOS>BOND
    1    1    2 1     
    2    1   31 1     
    3    1   32 1     
    4    1   33 1     
    5    2    6 1     
    6    2    3 1     
    7    2   34 1     
    8    3    4 1     
    9    4    5 1     
   10    4   35 1     
   11    4   36 1     
   12    5    6 1     
   13    5   37 1     
   14    5   38 1     
   15    6    7 1     
   16    6    8 1     
   17    7   39 1     
   18    8    9 1     
   19    8   40 1     
   20    8   41 1     
   21    9   28 1     
   22    9   10 1     
   23   10   11 2     
   24   10   42 1     
   25   11   12 1     
   26   12   28 ar    
   27   12   13 ar    
   28   13   14 1     
   29   13   25 ar    
   30   14   23 1     
   31   14   15 1     
   32   15   16 1     
   33   15   43 1     
   34   15   44 1     
   35   16   17 1     
   36   16   45 1     
   37   16   46 1     
   38   17   29 1     
   39   17   18 1     
   40   17   23 1     
   41   18   19 1     
   42   18   20 1     
   43   18   59 1     
   44   19   47 1     
   45   19   48 1     
   46   19   49 1     
   47   20   21 1     
   48   20   50 1     
   49   20   51 1     
   50   21   22 1     
   51   21   52 1     
   52   21   53 1     
   53   22   54 1     
   54   23   30 1     
   55   23   24 1     
   56   24   55 1     
   57   24   56 1     
   58   24   57 1     
   59   25   26 ar    
   60   26   27 ar    
   61   26   58 1     
   62   27   28 ar    
   63    3   60 1     
   64    3   61 1     
   65    7   62 1     
   66    7   63 1     
   67   11   64 1     
   68   14   65 1     
   69   22   66 1     
   70   22   67 1     
   71   25   68 1     
   72   27   69 1     
@<TRIPOS>SUBSTRUCTURE
      1 S1             1
@<TRIPOS>SET
LONE_PAIRS      STATIC     ATOMS    <user>   **** ""
10 60 61 62 63 64 65 66 67 68 69
DONOR_HYDROGENS      STATIC     ATOMS    <user>   **** ""
3 39 59 54
ATOM$BLUE        STATIC     ATOMS    COLORGROUP SYSTEM
10 60 61 62 63 64 65 66 67 68 69
ATOM$RED        STATIC     ATOMS    COLORGROUP SYSTEM
3 39 59 54
