AV-unprocessed.smi:1564|AV-procd|sdf|6296|dock4
  -GOLD-   22720 6493D 1   1.00000     0.00000
 Structure written by MMmdl.
 43 44  0  0  0  0  0  0  0  0  2 V2000
  153.7327  138.6563  158.5289 C   0  0  0  0  0  0  0  0  0  0  0  0
  153.4197  139.0343  157.1928 O   0  0  0  0  0  0  0  0  0  0  0  0
  152.5381  138.2480  156.4798 C   0  0  0  0  0  0  0  0  0  0  0  0
  152.1810  138.6459  155.1765 C   0  0  0  0  0  0  0  0  0  0  0  0
  151.2782  137.8488  154.4480 C   0  0  0  0  0  0  0  0  0  0  0  0
  150.7534  136.6827  155.0412 C   0  0  0  0  0  0  0  0  0  0  0  0
  149.8534  135.8953  154.2719 N   0  0  0  0  0  0  0  0  0  0  0  0
  149.3555  134.6764  154.5433 C   0  0  0  0  0  0  0  0  0  0  0  0
  149.5966  134.0122  155.5506 O   0  0  0  0  0  0  0  0  0  0  0  0
  148.5307  134.2629  153.5712 N   0  0  0  0  0  0  0  0  0  0  0  0
  147.8281  132.9841  153.5658 C   0  0  1  0  0  0  0  0  0  0  0  0
  146.8140  132.8076  152.4426 C   0  0  0  0  0  0  0  0  0  0  0  0
  146.6401  131.2893  152.4318 C   0  0  0  0  0  0  0  0  0  0  0  0
  147.9765  130.7182  152.7356 N   0  3  2  0  0  0  0  0  0  0  0  0
  147.9762  129.4185  153.4667 C   0  0  0  0  0  0  0  0  0  0  0  0
  149.4101  128.8810  153.6417 C   0  0  0  0  0  0  0  0  0  0  0  0
  147.1265  128.3538  152.7438 C   0  0  0  0  0  0  0  0  0  0  0  0
  148.7808  131.8039  153.3551 C   0  0  0  0  0  0  0  0  0  0  0  0
  151.1854  136.3609  156.3515 C   0  0  0  0  0  0  0  0  0  0  0  0
  152.0507  137.1213  157.0553 N   0  0  0  0  0  0  0  0  0  0  0  0
  154.4370  139.3731  158.9507 H   0  0  0  0  0  0  0  0  0  0  0  0
  154.2009  137.6717  158.5668 H   0  0  0  0  0  0  0  0  0  0  0  0
  152.8434  138.6548  159.1609 H   0  0  0  0  0  0  0  0  0  0  0  0
  152.5909  139.5470  154.7446 H   0  0  0  0  0  0  0  0  0  0  0  0
  150.9911  138.1351  153.4465 H   0  0  0  0  0  0  0  0  0  0  0  0
  149.5088  136.3367  153.4319 H   0  0  0  0  0  0  0  0  0  0  0  0
  148.3845  134.8721  152.7794 H   0  0  0  0  0  0  0  0  0  0  0  0
  147.3204  132.8526  154.5240 H   0  0  0  0  0  0  0  0  0  0  0  0
  145.8784  133.3384  152.6222 H   0  0  0  0  0  0  0  0  0  0  0  0
  147.2264  133.1498  151.4921 H   0  0  0  0  0  0  0  0  0  0  0  0
  145.9330  131.0155  153.2170 H   0  0  0  0  0  0  0  0  0  0  0  0
  146.2504  130.9211  151.4825 H   0  0  0  0  0  0  0  0  0  0  0  0
  147.5438  129.5853  154.4546 H   0  0  0  0  0  0  0  0  0  0  0  0
  149.4056  127.9255  154.1670 H   0  0  0  0  0  0  0  0  0  0  0  0
  150.0426  129.5532  154.2200 H   0  0  0  0  0  0  0  0  0  0  0  0
  149.8916  128.7217  152.6764 H   0  0  0  0  0  0  0  0  0  0  0  0
  147.1853  127.3932  153.2570 H   0  0  0  0  0  0  0  0  0  0  0  0
  147.4703  128.2003  151.7202 H   0  0  0  0  0  0  0  0  0  0  0  0
  146.0709  128.6218  152.7059 H   0  0  0  0  0  0  0  0  0  0  0  0
  149.5832  132.0639  152.6632 H   0  0  0  0  0  0  0  0  0  0  0  0
  149.2391  131.5166  154.3017 H   0  0  0  0  0  0  0  0  0  0  0  0
  150.8586  135.4696  156.8630 H   0  0  0  0  0  0  0  0  0  0  0  0
  148.4073  130.5374  151.8399 H   0  0  0  0  0  0  0  0  0  0  0  0
  1  2  1  0  0  0  0
  1 21  1  0  0  0  0
  1 22  1  0  0  0  0
  1 23  1  0  0  0  0
  2  3  1  0  0  0  0
  3 20  1  0  0  0  0
  3  4  2  0  0  0  0
  4  5  1  0  0  0  0
  4 24  1  0  0  0  0
  5  6  2  0  0  0  0
  5 25  1  0  0  0  0
  6  7  1  0  0  0  0
  6 19  1  0  0  0  0
  7  8  1  0  0  0  0
  7 26  1  0  0  0  0
  8  9  2  0  0  0  0
  8 10  1  0  0  0  0
 10 11  1  0  0  0  0
 10 27  1  0  0  0  0
 11 18  1  0  0  0  0
 11 12  1  0  0  0  0
 11 28  1  0  0  0  0
 12 13  1  0  0  0  0
 12 29  1  0  0  0  0
 12 30  1  0  0  0  0
 13 14  1  0  0  0  0
 13 31  1  0  0  0  0
 13 32  1  0  0  0  0
 14 15  1  0  0  0  0
 14 18  1  0  0  0  0
 14 43  1  0  0  0  0
 15 16  1  0  0  0  0
 15 17  1  0  0  0  0
 15 33  1  0  0  0  0
 16 34  1  0  0  0  0
 16 35  1  0  0  0  0
 16 36  1  0  0  0  0
 17 37  1  0  0  0  0
 17 38  1  0  0  0  0
 17 39  1  0  0  0  0
 18 40  1  0  0  0  0
 18 41  1  0  0  0  0
 19 20  2  0  0  0  0
 19 42  1  0  0  0  0
M  CHG  1  14   1
M  END
> <s_m_source_file>
AV-unprocessed.smi

> <i_m_source_file_index>
1564

> <i_lp_mmshare_version>
43012

> <i_f3d_flags>
0

> <s_epik_input>
W0NIM11PYzFbY0hdW2NIXWMoW2NIXW4xKVtOSF1DKD1PKVtOSF1bQ0BASF0yW0NIMl1bQ0gyXU4oW0NIMl0yKVtDSF0oW0NIM10pW0NIM10=

> <s_epik_cmdline>
J2VwaWtfcHl0aG9uJywgJy1waCcsICc3LjAnLCAnLXRuJywgJzgnLCAnLW1hJywgJzIwMCcsICctbWV0YWxfYmluZGluZycsICctaW1hZScsICc8aW5maWxlLm1hZT4nLCAnLW9tYWUnLCAnPG91dGZpbGUubWFlPic=

> <r_lp_tautomer_probability>
1

> <r_epik_Ionization_Penalty>
0.000679474

> <r_epik_Ionization_Penalty_Charging>
0.000606352

> <r_epik_Ionization_Penalty_Neutral>
7.31222e-05

> <r_epik_State_Penalty>
0.000382168

> <r_epik_Charging_Adjusted_Penalty>
0.00098852

> <i_epik_Tot_Q>
1

> <i_epik_Tot_abs_Q>
1

> <r_epik_Metal_State_Penalty>
-0

> <b_epik_Metal_Only>
0

> <s_lp_Force_Field>
OPLS_2005

> <r_lp_Energy>
33.6805

> <b_lp_Chiralities_Consistent>
1

> <s_lp_Variant>
AV-unprocessed.smi:1564-4

> <Gold.Version>
5.8.1

> <Gold.Id.Protein>
6NUR|6NUR_protein|mol2

> <Gold.PLP.Fitness>
42.7935

> <Gold.PLP.PLP>
-30.9800

> <Gold.PLP.part.hbond>
-4.4655

> <Gold.PLP.part.metal>
0.0000

> <Gold.PLP.part.buried>
-2.7777

> <Gold.PLP.part.nonpolar>
-23.5735

> <Gold.PLP.part.repulsive>
0.0963

> <Gold.PLP.ligand.clash>
0.0000

> <Gold.PLP.ligand.torsion>
0.1108

> <Gold.PLP.Chemscore.Hbond>
4.0000

> <Gold.PLP.Chemscore.CHOScore>
0.0000

> <Gold.PLP.Chemscore.Metal>
0.0000

> <Gold.Chemscore.Hbonds>
donor molecule, donor type, donor heavy atom, donor atom, acceptor molecule, acceptor atom, score
      L1  H     7    26       P1  7948  0.99
      L1  H    10    27       P1  7948  0.94
      L1  H    14    43       P1 10747  1.00
      P1  H  7997  8009       L1     2  0.91

> <Gold.PLP.Chemscore.Internal.Correction>
0.0350

> <Gold.Rescore>
     Score         DG    S(hbond)    S(metal)    S(lipo)     H(rot)  DE(clash)    DE(int)     intcor
     20.32     -21.64       3.59        0.00      67.33       1.44       0.00       1.32       ----

> <Gold.Chemscore.Fitness>
20.3213

> <Gold.Chemscore.DG>
-21.6380

> <Gold.Chemscore.ZeroCoef>
-5.4800

> <Gold.Chemscore.Hbond>
3.5864

> <Gold.Chemscore.Metal>
0.0000

> <Gold.Chemscore.Lipo>
67.3260

> <Gold.Chemscore.Internal_Hbond>
0.0000

> <Gold.Chemscore.DEClash>
0.0000

> <Gold.Chemscore.DEInternal>
1.3166

> <Gold.Chemscore.Rot>
1.4445

> <Gold.Chemscore.Internal.Correction>
   9.000000E+99

> <Gold.Chemscore.Hbonds>
donor molecule, donor type, donor heavy atom, donor atom, acceptor molecule, acceptor atom, score
      L1  H     7    26       P1  7948  0.57
      L1  H    10    27       P1  7948  0.50
      L1  H    14    43       P1 10747  0.94
      P1  H  7997  8009       L1     2  0.52

> <Gold.Chemscore.Hbond.Weighted>
-11.9787

> <Gold.Chemscore.Metal.Weighted>
-0.0000

> <Gold.Chemscore.Lipo.Weighted>
-7.8771

> <Gold.Chemscore.Internal_Hbond.Weighted>
0.0000

> <Gold.Chemscore.DEClash.Weighted>
0.0000

> <Gold.Chemscore.DEInternal.Weighted>
1.3166

> <Gold.Chemscore.Rot.Weighted>
3.6979

> <Gold.Chemscore.Internal.Correction.Weighted>
   9.000000E+99

> <Gold.Protein.RotatedTorsions>
[ 6907 6896 6895 6894 ] final  -52.55 input  -60.11 | X-H torsion
[ 7974 7965 7964 7962 ] final -102.60 input  175.53 | X-H torsion
[ 8008 7997 7996 7995 ] final  171.44 input   59.86 | X-H torsion
[ 10167 10162 10161 10158 ] final   80.99 input  -65.29 | X-H torsion
[ 10718 10713 10712 10709 ] final -102.74 input   66.30 | X-H torsion
[ 10763 10752 10751 10750 ] final   15.70 input  -60.55 | X-H torsion
[ 11005 11000 10999 10996 ] final  109.88 input  -57.11 | X-H torsion

> <Gold.Protein.ActiveResidues>
 VAL166  LYS551  ARG553  GLY616  TRP617  ASP618  TYR619  PRO620  LYS621  CYS622 
 ASP623  PHE694  ASN695  SER759  ASP760  ASP761  ALA762  ILE779  LEU786  VAL792 
 PHE793  MET794  SER795  GLU796  ALA797  LYS798  CYS799  TRP800  GLU811  SER814 

> <Gold.Protein.RotatedAtoms>
  150.8507  134.7831  159.7006 H   0  0  0  0  0  0  0  0  0  0  0  0  # atno 6907 bound_to 6896
  152.4573  134.5260  159.9807 H   0  0  0  0  0  0  0  0  0  0  0  0  # atno 6908 bound_to 6896
  151.5382  133.3399  159.2966 H   0  0  0  0  0  0  0  0  0  0  0  0  # atno 6909 bound_to 6896
  145.2667  140.9286  143.3010 H   0  0  0  0  0  0  0  0  0  0  0  0  # atno 7974 bound_to 7965
  156.1271  140.1512  156.9121 H   0  0  0  0  0  0  0  0  0  0  0  0  # atno 8008 bound_to 7997
  154.4880  140.0859  156.7570 H   0  0  0  0  0  0  0  0  0  0  0  0  # atno 8009 bound_to 7997
  155.4324  140.3427  155.4284 H   0  0  0  0  0  0  0  0  0  0  0  0  # atno 8010 bound_to 7997
  139.9439  144.6071  150.8225 H   0  0  0  0  0  0  0  0  0  0  0  0  # atno 10167 bound_to 10162
  156.0239  130.5434  150.7151 H   0  0  0  0  0  0  0  0  0  0  0  0  # atno 10718 bound_to 10713
  153.1500  135.6776  153.8896 H   0  0  0  0  0  0  0  0  0  0  0  0  # atno 10763 bound_to 10752
  153.8326  135.3115  155.3421 H   0  0  0  0  0  0  0  0  0  0  0  0  # atno 10764 bound_to 10752
  154.7855  135.4864  154.0022 H   0  0  0  0  0  0  0  0  0  0  0  0  # atno 10765 bound_to 10752
  139.8870  134.9470  156.6194 H   0  0  0  0  0  0  0  0  0  0  0  0  # atno 11005 bound_to 11000
  144.9371  139.4232  143.6467 LP  0  0  0  0  0  0  0  0  0  0  0  0  # atno 17320 bound_to 7965
  146.3259  139.8311  142.8908 LP  0  0  0  0  0  0  0  0  0  0  0  0  # atno 17321 bound_to 7965
  140.7603  143.3147  151.2760 LP  0  0  0  0  0  0  0  0  0  0  0  0  # atno 17342 bound_to 10162
  139.6682  144.0067  152.2736 LP  0  0  0  0  0  0  0  0  0  0  0  0  # atno 17343 bound_to 10162
  157.4780  131.0899  151.0568 LP  0  0  0  0  0  0  0  0  0  0  0  0  # atno 17370 bound_to 10713
  157.1009  130.5981  149.5460 LP  0  0  0  0  0  0  0  0  0  0  0  0  # atno 17371 bound_to 10713
  140.7751  133.8706  155.8522 LP  0  0  0  0  0  0  0  0  0  0  0  0  # atno 17394 bound_to 11000
  140.9809  134.1407  157.4495 LP  0  0  0  0  0  0  0  0  0  0  0  0  # atno 17395 bound_to 11000

$$$$
