AV-unprocessed.smi:671|AV-procd|sdf|3279|dock8
  -GOLD-   22720 0243D 1   1.00000     0.00000
 Structure written by MMmdl.
 49 50  0  0  0  0  0  0  0  0  1 V2000
  152.3319  138.3508  154.5527 C   0  0  0  0  0  0  0  0  0  0  0  0
  150.9831  138.8862  154.9413 C   0  0  0  0  0  0  0  0  0  0  0  0
  150.3591  139.7282  154.1346 N   0  0  0  0  0  0  0  0  0  0  0  0
  149.1999  140.0105  154.7627 N   0  0  0  0  0  0  0  0  0  0  0  0
  148.2581  140.9210  154.1408 C   0  0  0  0  0  0  0  0  0  0  0  0
  149.0891  139.3421  155.9667 C   0  0  0  0  0  0  0  0  0  0  0  0
  147.8904  139.4846  156.8483 C   0  0  0  0  0  0  0  0  0  0  0  0
  150.2299  138.5998  156.1170 C   0  0  0  0  0  0  0  0  0  0  0  0
  150.6291  137.6843  157.2445 C   0  0  0  0  0  0  0  0  0  0  0  0
  151.8781  138.1956  157.9953 C   0  0  2  0  0  0  0  0  0  0  0  0
  152.0233  137.5648  159.3886 C   0  0  0  0  0  0  0  0  0  0  0  0
  151.8230  139.6525  158.1369 N   0  0  0  0  0  0  0  0  0  0  0  0
  152.5615  140.4364  158.9446 C   0  0  0  0  0  0  0  0  0  0  0  0
  153.4148  139.9705  159.6969 O   0  0  0  0  0  0  0  0  0  0  0  0
  152.2853  141.7486  158.8564 N   0  0  0  0  0  0  0  0  0  0  0  0
  152.9065  142.8045  159.6498 C   0  0  1  0  0  0  0  0  0  0  0  0
  152.4312  144.1900  159.1704 C   0  0  0  0  0  0  0  0  0  0  0  0
  151.6194  144.7899  160.3199 C   0  0  0  0  0  0  0  0  0  0  0  0
  152.1958  144.1357  161.5709 C   0  0  0  0  0  0  0  0  0  0  0  0
  152.4979  142.6993  161.1358 C   0  0  2  0  0  0  0  0  0  0  0  0
  153.5386  141.9985  162.0200 C   0  0  0  0  0  0  0  0  0  0  0  0
  152.2566  137.3204  154.2055 H   0  0  0  0  0  0  0  0  0  0  0  0
  153.0168  138.3648  155.4006 H   0  0  0  0  0  0  0  0  0  0  0  0
  152.7861  138.9385  153.7542 H   0  0  0  0  0  0  0  0  0  0  0  0
  147.3765  140.3683  153.8152 H   0  0  0  0  0  0  0  0  0  0  0  0
  148.7090  141.4102  153.2759 H   0  0  0  0  0  0  0  0  0  0  0  0
  147.9557  141.6850  154.8575 H   0  0  0  0  0  0  0  0  0  0  0  0
  147.9309  138.7924  157.6890 H   0  0  0  0  0  0  0  0  0  0  0  0
  146.9745  139.2785  156.2942 H   0  0  0  0  0  0  0  0  0  0  0  0
  147.8241  140.4959  157.2497 H   0  0  0  0  0  0  0  0  0  0  0  0
  149.7960  137.5903  157.9417 H   0  0  0  0  0  0  0  0  0  0  0  0
  150.8080  136.6701  156.8862 H   0  0  0  0  0  0  0  0  0  0  0  0
  152.7716  137.9322  157.4268 H   0  0  0  0  0  0  0  0  0  0  0  0
  152.1363  136.4823  159.3249 H   0  0  0  0  0  0  0  0  0  0  0  0
  151.1532  137.7723  160.0124 H   0  0  0  0  0  0  0  0  0  0  0  0
  152.9028  137.9519  159.9042 H   0  0  0  0  0  0  0  0  0  0  0  0
  151.1653  140.1252  157.5339 H   0  0  0  0  0  0  0  0  0  0  0  0
  151.5710  142.0350  158.2031 H   0  0  0  0  0  0  0  0  0  0  0  0
  153.9929  142.7646  159.5475 H   0  0  0  0  0  0  0  0  0  0  0  0
  153.3003  144.8196  158.9753 H   0  0  0  0  0  0  0  0  0  0  0  0
  151.8522  144.1529  158.2464 H   0  0  0  0  0  0  0  0  0  0  0  0
  151.6771  145.8781  160.3505 H   0  0  0  0  0  0  0  0  0  0  0  0
  150.5694  144.5162  160.2135 H   0  0  0  0  0  0  0  0  0  0  0  0
  153.1171  144.6454  161.8564 H   0  0  0  0  0  0  0  0  0  0  0  0
  151.5125  144.1816  162.4195 H   0  0  0  0  0  0  0  0  0  0  0  0
  151.5613  142.1426  161.2053 H   0  0  0  0  0  0  0  0  0  0  0  0
  154.4970  142.5178  161.9940 H   0  0  0  0  0  0  0  0  0  0  0  0
  153.7060  140.9733  161.6887 H   0  0  0  0  0  0  0  0  0  0  0  0
  153.2068  141.9607  163.0578 H   0  0  0  0  0  0  0  0  0  0  0  0
  1  2  1  0  0  0  0
  1 22  1  0  0  0  0
  1 23  1  0  0  0  0
  1 24  1  0  0  0  0
  2  8  1  0  0  0  0
  2  3  2  0  0  0  0
  3  4  1  0  0  0  0
  4  5  1  0  0  0  0
  4  6  1  0  0  0  0
  5 25  1  0  0  0  0
  5 26  1  0  0  0  0
  5 27  1  0  0  0  0
  6  7  1  0  0  0  0
  6  8  2  0  0  0  0
  7 28  1  0  0  0  0
  7 29  1  0  0  0  0
  7 30  1  0  0  0  0
  8  9  1  0  0  0  0
  9 10  1  0  0  0  0
  9 31  1  0  0  0  0
  9 32  1  0  0  0  0
 10 11  1  0  0  0  0
 10 12  1  0  0  0  0
 10 33  1  0  0  0  0
 11 34  1  0  0  0  0
 11 35  1  0  0  0  0
 11 36  1  0  0  0  0
 12 13  1  0  0  0  0
 12 37  1  0  0  0  0
 13 14  2  0  0  0  0
 13 15  1  0  0  0  0
 15 16  1  0  0  0  0
 15 38  1  0  0  0  0
 16 20  1  0  0  0  0
 16 17  1  0  0  0  0
 16 39  1  0  0  0  0
 17 18  1  0  0  0  0
 17 40  1  0  0  0  0
 17 41  1  0  0  0  0
 18 19  1  0  0  0  0
 18 42  1  0  0  0  0
 18 43  1  0  0  0  0
 19 20  1  0  0  0  0
 19 44  1  0  0  0  0
 19 45  1  0  0  0  0
 20 21  1  0  0  0  0
 20 46  1  0  0  0  0
 21 47  1  0  0  0  0
 21 48  1  0  0  0  0
 21 49  1  0  0  0  0
M  END
> <s_m_source_file>
AV-unprocessed.smi

> <i_m_source_file_index>
671

> <i_lp_mmshare_version>
43012

> <i_f3d_flags>
0

> <s_epik_input>
W0NIM11jMW5uKFtDSDNdKWMoW0NIM10pYzFbQ0gyXVtDQEhdKFtDSDNdKVtOSF1DKD1PKVtOSF1bQ0BASF0yW0NIMl1bQ0gyXVtDSDJdW0NASF0yW0NIM10=

> <s_epik_cmdline>
J2VwaWtfcHl0aG9uJywgJy1waCcsICc3LjAnLCAnLXRuJywgJzgnLCAnLW1hJywgJzIwMCcsICctbWV0YWxfYmluZGluZycsICctaW1hZScsICc8aW5maWxlLm1hZT4nLCAnLW9tYWUnLCAnPG91dGZpbGUubWFlPic=

> <r_lp_tautomer_probability>
1

> <r_epik_Ionization_Penalty>
0.0126855

> <r_epik_Ionization_Penalty_Charging>
0

> <r_epik_Ionization_Penalty_Neutral>
0.0126855

> <r_epik_State_Penalty>
0.00977547

> <r_epik_Charging_Adjusted_Penalty>
0.00977547

> <i_epik_Tot_Q>
0

> <i_epik_Tot_abs_Q>
0

> <r_epik_Metal_State_Penalty>
0.00957132

> <b_epik_Metal_Only>
0

> <s_lp_Force_Field>
OPLS_2005

> <r_lp_Energy>
21.5891

> <b_lp_Chiralities_Consistent>
1

> <s_lp_Variant>
AV-unprocessed.smi:671-7

> <Gold.Version>
5.8.1

> <Gold.Id.Protein>
6NUR|6NUR_protein|mol2

> <Gold.PLP.Fitness>
45.9245

> <Gold.PLP.PLP>
-43.8411

> <Gold.PLP.part.hbond>
-1.0000

> <Gold.PLP.part.metal>
0.0000

> <Gold.PLP.part.buried>
-7.4012

> <Gold.PLP.part.nonpolar>
-36.7471

> <Gold.PLP.part.repulsive>
0.8444

> <Gold.PLP.ligand.clash>
0.0000

> <Gold.PLP.ligand.torsion>
0.4684

> <Gold.PLP.Chemscore.Hbond>
1.0000

> <Gold.PLP.Chemscore.CHOScore>
0.0000

> <Gold.PLP.Chemscore.Metal>
0.0000

> <Gold.Chemscore.Hbonds>
donor molecule, donor type, donor heavy atom, donor atom, acceptor molecule, acceptor atom, score
      P1  H  7989  7998       L1     3  1.00

> <Gold.PLP.Chemscore.Internal.Correction>
0.0202

> <Gold.Rescore>
     Score         DG    S(hbond)    S(metal)    S(lipo)     H(rot)  DE(clash)    DE(int)     intcor
     16.92     -18.84       0.97        0.00     118.36       1.45       0.04       1.88       ----

> <Gold.Chemscore.Fitness>
16.9187

> <Gold.Chemscore.DG>
-18.8438

> <Gold.Chemscore.ZeroCoef>
-5.4800

> <Gold.Chemscore.Hbond>
0.9662

> <Gold.Chemscore.Metal>
0.0000

> <Gold.Chemscore.Lipo>
118.3621

> <Gold.Chemscore.Internal_Hbond>
0.0000

> <Gold.Chemscore.DEClash>
0.0412

> <Gold.Chemscore.DEInternal>
1.8838

> <Gold.Chemscore.Rot>
1.4499

> <Gold.Chemscore.Internal.Correction>
   9.000000E+99

> <Gold.Chemscore.Hbonds>
donor molecule, donor type, donor heavy atom, donor atom, acceptor molecule, acceptor atom, score
      P1  H  7989  7998       L1     3  0.60

> <Gold.Chemscore.Hbond.Weighted>
-3.2273

> <Gold.Chemscore.Metal.Weighted>
-0.0000

> <Gold.Chemscore.Lipo.Weighted>
-13.8484

> <Gold.Chemscore.Internal_Hbond.Weighted>
0.0000

> <Gold.Chemscore.DEClash.Weighted>
0.0412

> <Gold.Chemscore.DEInternal.Weighted>
1.8838

> <Gold.Chemscore.Rot.Weighted>
3.7118

> <Gold.Chemscore.Internal.Correction.Weighted>
   9.000000E+99

> <Gold.Protein.RotatedTorsions>
[ 6907 6896 6895 6894 ] final -171.21 input  -60.11 | X-H torsion
[ 7974 7965 7964 7962 ] final  -80.44 input  175.53 | X-H torsion
[ 8008 7997 7996 7995 ] final  168.60 input   59.86 | X-H torsion
[ 10167 10162 10161 10158 ] final   72.15 input  -65.29 | X-H torsion
[ 10718 10713 10712 10709 ] final -174.18 input   66.30 | X-H torsion
[ 10763 10752 10751 10750 ] final   75.80 input  -60.55 | X-H torsion
[ 11005 11000 10999 10996 ] final  -17.18 input  -57.11 | X-H torsion

> <Gold.Protein.ActiveResidues>
 VAL166  LYS551  ARG553  GLY616  TRP617  ASP618  TYR619  PRO620  LYS621  CYS622 
 ASP623  PHE694  ASN695  SER759  ASP760  ASP761  ALA762  ILE779  LEU786  VAL792 
 PHE793  MET794  SER795  GLU796  ALA797  LYS798  CYS799  TRP800  GLU811  SER814 

> <Gold.Protein.RotatedAtoms>
  151.5201  133.3468  159.2899 H   0  0  0  0  0  0  0  0  0  0  0  0  # atno 6907 bound_to 6896
  150.8658  134.8023  159.7128 H   0  0  0  0  0  0  0  0  0  0  0  0  # atno 6908 bound_to 6896
  152.4663  134.5077  159.9796 H   0  0  0  0  0  0  0  0  0  0  0  0  # atno 6909 bound_to 6896
  145.5599  140.9484  143.1453 H   0  0  0  0  0  0  0  0  0  0  0  0  # atno 7974 bound_to 7965
  156.1532  140.1586  156.8735 H   0  0  0  0  0  0  0  0  0  0  0  0  # atno 8008 bound_to 7997
  154.5091  140.0805  156.7990 H   0  0  0  0  0  0  0  0  0  0  0  0  # atno 8009 bound_to 7997
  155.3854  140.3407  155.4251 H   0  0  0  0  0  0  0  0  0  0  0  0  # atno 8010 bound_to 7997
  140.0384  144.5409  150.7453 H   0  0  0  0  0  0  0  0  0  0  0  0  # atno 10167 bound_to 10162
  156.7813  130.9484  151.3120 H   0  0  0  0  0  0  0  0  0  0  0  0  # atno 10718 bound_to 10713
  153.0680  135.4975  154.8242 H   0  0  0  0  0  0  0  0  0  0  0  0  # atno 10763 bound_to 10752
  154.6981  135.2996  154.9383 H   0  0  0  0  0  0  0  0  0  0  0  0  # atno 10764 bound_to 10752
  154.0116  135.6753  153.4818 H   0  0  0  0  0  0  0  0  0  0  0  0  # atno 10765 bound_to 10752
  140.8142  133.8117  155.9594 H   0  0  0  0  0  0  0  0  0  0  0  0  # atno 11005 bound_to 11000
  144.7488  139.7248  143.7281 LP  0  0  0  0  0  0  0  0  0  0  0  0  # atno 17320 bound_to 7965
  146.1859  139.5073  142.9837 LP  0  0  0  0  0  0  0  0  0  0  0  0  # atno 17321 bound_to 7965
  140.7271  143.2648  151.4083 LP  0  0  0  0  0  0  0  0  0  0  0  0  # atno 17342 bound_to 10162
  139.6030  144.1257  152.2218 LP  0  0  0  0  0  0  0  0  0  0  0  0  # atno 17343 bound_to 10162
  157.6645  130.8995  149.9901 LP  0  0  0  0  0  0  0  0  0  0  0  0  # atno 17370 bound_to 10713
  156.1216  130.3646  149.9878 LP  0  0  0  0  0  0  0  0  0  0  0  0  # atno 17371 bound_to 10713
  140.9166  134.2194  157.4953 LP  0  0  0  0  0  0  0  0  0  0  0  0  # atno 17394 bound_to 11000
  139.8712  134.9774  156.4956 LP  0  0  0  0  0  0  0  0  0  0  0  0  # atno 17395 bound_to 11000

$$$$
