AV-unprocessed.smi:2027|AV-procd|sdf|8217|dock9
  -GOLD-   2272010483D 1   1.00000     0.00000
 Structure written by MMmdl.
 51 53  0  0  0  0  0  0  0  0  3 V2000
  152.3635  143.6307  159.7659 C   0  0  0  0  0  0  0  0  0  0  0  0
  151.9818  142.6163  158.7015 C   0  0  0  0  0  0  0  0  0  0  0  0
  151.0673  143.0052  157.6965 C   0  0  0  0  0  0  0  0  0  0  0  0
  150.7395  142.0560  156.7356 C   0  0  0  0  0  0  0  0  0  0  0  0
  149.8889  142.1274  155.6302 N   0  3  0  0  0  0  0  0  0  0  0  0
  149.8937  140.9337  154.9745 C   0  0  0  0  0  0  0  0  0  0  0  0
  150.7265  140.0972  155.6525 N   0  0  0  0  0  0  0  0  0  0  0  0
  151.1010  138.7050  155.3750 C   0  0  0  0  0  0  0  0  0  0  0  0
  150.0577  137.9485  154.5272 C   0  0  2  0  0  0  0  0  0  0  0  0
  150.0818  138.5023  153.2275 O   0  0  0  0  0  0  0  0  0  0  0  0
  148.6207  138.0427  155.0802 C   0  0  0  0  0  0  0  0  0  0  0  0
  147.6660  137.2454  154.2643 N   0  3  1  0  0  0  0  0  0  0  0  0
  146.8539  136.3168  155.0845 C   0  0  0  0  0  0  0  0  0  0  0  0
  146.8259  138.0659  153.3566 C   0  0  0  0  0  0  0  0  0  0  0  0
  145.8126  137.2172  152.6357 C   0  0  0  0  0  0  0  0  0  0  0  0
  144.3951  137.3572  152.6329 C   0  0  0  0  0  0  0  0  0  0  0  0
  143.7908  136.4563  151.8770 N   0  0  0  0  0  0  0  0  0  0  0  0
  144.7946  135.7043  151.3821 N   0  0  0  0  0  0  0  0  0  0  0  0
  144.4895  134.6024  150.4951 C   0  0  0  0  0  0  0  0  0  0  0  0
  146.0252  136.1365  151.8265 C   0  0  0  0  0  0  0  0  0  0  0  0
  151.2853  140.7579  156.7517 C   0  0  0  0  0  0  0  0  0  0  0  0
  152.1906  140.3593  157.7320 C   0  0  0  0  0  0  0  0  0  0  0  0
  152.5368  141.3104  158.7181 C   0  0  0  0  0  0  0  0  0  0  0  0
  153.5230  140.9052  159.8005 C   0  0  0  0  0  0  0  0  0  0  0  0
  151.8357  144.5745  159.6258 H   0  0  0  0  0  0  0  0  0  0  0  0
  153.4330  143.8385  159.7292 H   0  0  0  0  0  0  0  0  0  0  0  0
  152.1165  143.2563  160.7594 H   0  0  0  0  0  0  0  0  0  0  0  0
  150.6446  143.9992  157.6751 H   0  0  0  0  0  0  0  0  0  0  0  0
  149.3370  140.6952  154.0795 H   0  0  0  0  0  0  0  0  0  0  0  0
  152.0633  138.7247  154.8611 H   0  0  0  0  0  0  0  0  0  0  0  0
  151.2692  138.2023  156.3287 H   0  0  0  0  0  0  0  0  0  0  0  0
  150.3561  136.9040  154.4460 H   0  0  0  0  0  0  0  0  0  0  0  0
  149.6010  137.9338  152.6445 H   0  0  0  0  0  0  0  0  0  0  0  0
  148.5726  137.6987  156.1139 H   0  0  0  0  0  0  0  0  0  0  0  0
  148.3330  139.0937  155.1079 H   0  0  0  0  0  0  0  0  0  0  0  0
  146.1775  136.8655  155.7411 H   0  0  0  0  0  0  0  0  0  0  0  0
  147.4847  135.6783  155.7026 H   0  0  0  0  0  0  0  0  0  0  0  0
  146.2550  135.6641  154.4484 H   0  0  0  0  0  0  0  0  0  0  0  0
  146.3101  138.8300  153.9398 H   0  0  0  0  0  0  0  0  0  0  0  0
  147.4692  138.6042  152.6591 H   0  0  0  0  0  0  0  0  0  0  0  0
  143.7916  138.0899  153.1482 H   0  0  0  0  0  0  0  0  0  0  0  0
  145.4002  134.0548  150.2506 H   0  0  0  0  0  0  0  0  0  0  0  0
  144.0465  134.9827  149.5741 H   0  0  0  0  0  0  0  0  0  0  0  0
  143.7865  133.9222  150.9769 H   0  0  0  0  0  0  0  0  0  0  0  0
  146.9415  135.6499  151.5263 H   0  0  0  0  0  0  0  0  0  0  0  0
  152.6171  139.3670  157.7421 H   0  0  0  0  0  0  0  0  0  0  0  0
  153.8478  139.8716  159.6784 H   0  0  0  0  0  0  0  0  0  0  0  0
  153.0695  140.9960  160.7878 H   0  0  0  0  0  0  0  0  0  0  0  0
  154.4095  141.5387  159.7667 H   0  0  0  0  0  0  0  0  0  0  0  0
  148.2322  136.6681  153.6580 H   0  0  0  0  0  0  0  0  0  0  0  0
  149.3503  142.9332  155.3380 H   0  0  0  0  0  0  0  0  0  0  0  0
  1  2  1  0  0  0  0
  1 25  1  0  0  0  0
  1 26  1  0  0  0  0
  1 27  1  0  0  0  0
  2 23  1  0  0  0  0
  2  3  2  0  0  0  0
  3  4  1  0  0  0  0
  3 28  1  0  0  0  0
  4 21  2  0  0  0  0
  4  5  1  0  0  0  0
  5  6  2  0  0  0  0
  5 51  1  0  0  0  0
  6  7  1  0  0  0  0
  6 29  1  0  0  0  0
  7  8  1  0  0  0  0
  7 21  1  0  0  0  0
  8  9  1  0  0  0  0
  8 30  1  0  0  0  0
  8 31  1  0  0  0  0
  9 10  1  0  0  0  0
  9 11  1  0  0  0  0
  9 32  1  0  0  0  0
 10 33  1  0  0  0  0
 11 12  1  0  0  0  0
 11 34  1  0  0  0  0
 11 35  1  0  0  0  0
 12 13  1  0  0  0  0
 12 14  1  0  0  0  0
 12 50  1  0  0  0  0
 13 36  1  0  0  0  0
 13 37  1  0  0  0  0
 13 38  1  0  0  0  0
 14 15  1  0  0  0  0
 14 39  1  0  0  0  0
 14 40  1  0  0  0  0
 15 20  2  0  0  0  0
 15 16  1  0  0  0  0
 16 17  2  0  0  0  0
 16 41  1  0  0  0  0
 17 18  1  0  0  0  0
 18 19  1  0  0  0  0
 18 20  1  0  0  0  0
 19 42  1  0  0  0  0
 19 43  1  0  0  0  0
 19 44  1  0  0  0  0
 20 45  1  0  0  0  0
 21 22  1  0  0  0  0
 22 23  2  0  0  0  0
 22 46  1  0  0  0  0
 23 24  1  0  0  0  0
 24 47  1  0  0  0  0
 24 48  1  0  0  0  0
 24 49  1  0  0  0  0
M  CHG  1   5   1
M  CHG  1  12   1
M  END
> <s_m_source_file>
AV-unprocessed.smi

> <i_m_source_file_index>
2027

> <i_lp_mmshare_version>
43012

> <i_f3d_flags>
0

> <s_epik_input>
W0NIM11jKFtjSF0xKWMoW0NIM10pW2NIXWMoYzEyKW4oW2NIXW4yKVtDSDJdW0NASF0oW09IXSlbQ0gyXU4oW0NIM10pW0NIMl1jM1tjSF1ubihbQ0gzXSlbY0hdMw==

> <s_epik_cmdline>
J2VwaWtfcHl0aG9uJywgJy1waCcsICc3LjAnLCAnLXRuJywgJzgnLCAnLW1hJywgJzIwMCcsICctbWV0YWxfYmluZGluZycsICctaW1hZScsICc8aW5maWxlLm1hZT4nLCAnLW9tYWUnLCAnPG91dGZpbGUubWFlPic=

> <r_lp_tautomer_probability>
1

> <r_epik_Ionization_Penalty>
1.77469

> <r_epik_Ionization_Penalty_Charging>
1.77463

> <r_epik_Ionization_Penalty_Neutral>
6.41153e-05

> <r_epik_State_Penalty>
1.85225

> <r_epik_Charging_Adjusted_Penalty>
3.62688

> <i_epik_Tot_Q>
2

> <i_epik_Tot_abs_Q>
2

> <r_epik_Metal_State_Penalty>
1.92669

> <b_epik_Metal_Only>
0

> <s_lp_Force_Field>
OPLS_2005

> <r_lp_Energy>
21.1473

> <b_lp_Chiralities_Consistent>
1

> <s_lp_Variant>
AV-unprocessed.smi:2027-9

> <Gold.Version>
5.8.1

> <Gold.Id.Protein>
6NUR|6NUR_protein|mol2

> <Gold.PLP.Fitness>
59.8062

> <Gold.PLP.PLP>
-41.5475

> <Gold.PLP.part.hbond>
-4.1085

> <Gold.PLP.part.metal>
0.0000

> <Gold.PLP.part.buried>
-0.6314

> <Gold.PLP.part.nonpolar>
-37.5205

> <Gold.PLP.part.repulsive>
0.8425

> <Gold.PLP.ligand.clash>
0.0026

> <Gold.PLP.ligand.torsion>
1.0898

> <Gold.PLP.Chemscore.Hbond>
5.0000

> <Gold.PLP.Chemscore.CHOScore>
1.7641

> <Gold.PLP.Chemscore.Metal>
0.0000

> <Gold.Chemscore.Hbonds>
donor molecule, donor type, donor heavy atom, donor atom, acceptor molecule, acceptor atom, score
      L1  H     5    51       P1  8028  1.92
      L1  H    10    33       P1  7948  1.00
      L1  H    12    50       P1  7948  2.00
      L1  C    16    41       P1 10175  0.87
      L1  C    20    45       P1  7948  1.00

> <Gold.PLP.Chemscore.Internal.Correction>
0.1485

> <Gold.Rescore>
     Score         DG    S(hbond)    S(metal)    S(lipo)     H(rot)  DE(clash)    DE(int)     intcor
     17.86     -20.64       2.64        0.00     110.68       2.58       0.58       2.19       ----

> <Gold.Chemscore.Fitness>
17.8649

> <Gold.Chemscore.DG>
-20.6395

> <Gold.Chemscore.ZeroCoef>
-5.4800

> <Gold.Chemscore.Hbond>
2.6420

> <Gold.Chemscore.Metal>
0.0000

> <Gold.Chemscore.Lipo>
110.6763

> <Gold.Chemscore.Internal_Hbond>
0.0000

> <Gold.Chemscore.DEClash>
0.5810

> <Gold.Chemscore.DEInternal>
2.1936

> <Gold.Chemscore.Rot>
2.5836

> <Gold.Chemscore.Internal.Correction>
   9.000000E+99

> <Gold.Chemscore.Hbonds>
donor molecule, donor type, donor heavy atom, donor atom, acceptor molecule, acceptor atom, score
      L1  H     5    51       P1  8028  0.92
      L1  H    10    33       P1  7948  0.59
      L1  H    12    50       P1  7948  0.93

> <Gold.Chemscore.Hbond.Weighted>
-8.8243

> <Gold.Chemscore.Metal.Weighted>
-0.0000

> <Gold.Chemscore.Lipo.Weighted>
-12.9491

> <Gold.Chemscore.Internal_Hbond.Weighted>
0.0000

> <Gold.Chemscore.DEClash.Weighted>
0.5810

> <Gold.Chemscore.DEInternal.Weighted>
2.1936

> <Gold.Chemscore.Rot.Weighted>
6.6139

> <Gold.Chemscore.Internal.Correction.Weighted>
   9.000000E+99

> <Gold.Protein.RotatedTorsions>
[ 6907 6896 6895 6894 ] final  -45.78 input  -60.11 | X-H torsion
[ 7974 7965 7964 7962 ] final -167.02 input  175.53 | X-H torsion
[ 8008 7997 7996 7995 ] final  158.76 input   59.86 | X-H torsion
[ 10167 10162 10161 10158 ] final   81.66 input  -65.29 | X-H torsion
[ 10718 10713 10712 10709 ] final  166.31 input   66.30 | X-H torsion
[ 10763 10752 10751 10750 ] final  177.51 input  -60.55 | X-H torsion
[ 11005 11000 10999 10996 ] final -127.51 input  -57.11 | X-H torsion

> <Gold.Protein.ActiveResidues>
 VAL166  LYS551  ARG553  GLY616  TRP617  ASP618  TYR619  PRO620  LYS621  CYS622 
 ASP623  PHE694  ASN695  SER759  ASP760  ASP761  ALA762  ILE779  LEU786  VAL792 
 PHE793  MET794  SER795  GLU796  ALA797  LYS798  CYS799  TRP800  GLU811  SER814 

> <Gold.Protein.RotatedAtoms>
  150.9182  134.8600  159.7470 H   0  0  0  0  0  0  0  0  0  0  0  0  # atno 6907 bound_to 6896
  152.4979  134.4257  159.9505 H   0  0  0  0  0  0  0  0  0  0  0  0  # atno 6908 bound_to 6896
  151.4294  133.3635  159.2802 H   0  0  0  0  0  0  0  0  0  0  0  0  # atno 6909 bound_to 6896
  144.7232  140.2581  143.6269 H   0  0  0  0  0  0  0  0  0  0  0  0  # atno 7974 bound_to 7965
  156.2282  140.1849  156.7309 H   0  0  0  0  0  0  0  0  0  0  0  0  # atno 8008 bound_to 7997
  154.5978  140.0641  156.9354 H   0  0  0  0  0  0  0  0  0  0  0  0  # atno 8009 bound_to 7997
  155.2226  140.3308  155.4316 H   0  0  0  0  0  0  0  0  0  0  0  0  # atno 8010 bound_to 7997
  139.9369  144.6115  150.8290 H   0  0  0  0  0  0  0  0  0  0  0  0  # atno 10167 bound_to 10162
  157.0676  131.0357  151.2623 H   0  0  0  0  0  0  0  0  0  0  0  0  # atno 10718 bound_to 10713
  154.4955  135.2781  155.1463 H   0  0  0  0  0  0  0  0  0  0  0  0  # atno 10763 bound_to 10752
  154.3117  135.6227  153.5472 H   0  0  0  0  0  0  0  0  0  0  0  0  # atno 10764 bound_to 10752
  152.9894  135.5721  154.5386 H   0  0  0  0  0  0  0  0  0  0  0  0  # atno 10765 bound_to 10752
  140.9593  134.0958  157.3984 H   0  0  0  0  0  0  0  0  0  0  0  0  # atno 11005 bound_to 11000
  145.8163  139.2024  143.1964 LP  0  0  0  0  0  0  0  0  0  0  0  0  # atno 17320 bound_to 7965
  146.0553  140.8027  142.9761 LP  0  0  0  0  0  0  0  0  0  0  0  0  # atno 17321 bound_to 7965
  140.7622  143.3192  151.2661 LP  0  0  0  0  0  0  0  0  0  0  0  0  # atno 17342 bound_to 10162
  139.6736  143.9977  152.2768 LP  0  0  0  0  0  0  0  0  0  0  0  0  # atno 17343 bound_to 10162
  157.4904  130.7818  149.7502 LP  0  0  0  0  0  0  0  0  0  0  0  0  # atno 17370 bound_to 10713
  155.9960  130.3908  150.2798 LP  0  0  0  0  0  0  0  0  0  0  0  0  # atno 17371 bound_to 10713
  139.8873  135.0088  156.6550 LP  0  0  0  0  0  0  0  0  0  0  0  0  # atno 17394 bound_to 11000
  140.7490  133.8913  155.8333 LP  0  0  0  0  0  0  0  0  0  0  0  0  # atno 17395 bound_to 11000

$$$$
