#       Name:                AV-unprocessed.smi:2164
#       Creating user name   scv26
#       Creation time:       Fri Mar 27 12:00:06 2020


#       File generated by GOLD software.
#

@<TRIPOS>MOLECULE
AV-unprocessed.smi:2164
    43    45     1
SMALL
NO_CHARGES


@<TRIPOS>ATOM
      1 ****         0.2825   2.9808   0.0217 O.2            1 S1                 0.0000
      2 ****        -0.1204   1.8109  -0.0181 C.2            1 S1                 0.0000
      3 ****         0.6839   0.7046  -0.0427 N.pl3          1 S1                -1.0000
      4 ****         2.1456   0.7242  -0.0418 C.3            1 S1                 0.0000
      5 ****         2.6827  -0.7205  -0.0541 C.3            1 S1                 0.0000
      6 ****         4.2026  -0.8052  -0.0552 C.ar           1 S1                 0.0000
      7 ****         4.9231  -0.8592  -1.2711 C.ar           1 S1                 0.0000
      8 ****         6.3304  -0.9459  -1.2401 C.ar           1 S1                 0.0000
      9 ****         6.9888  -0.9798   0.0059 C.ar           1 S1                 0.0000
     10 ****         6.2691  -0.9324   1.1482 N.pl3          1 S1                 1.0000
     11 ****         4.9208  -0.8508   1.1614 C.ar           1 S1                 0.0000
     12 ****        -1.5721   1.5779  -0.0416 C.2            1 S1                 0.0000
     13 ****        -2.1243   0.3459  -0.0961 C.2            1 S1                 0.0000
     14 ****        -3.5025   0.1163  -0.1194 N.pl3          1 S1                 0.0000
     15 ****        -3.9663  -1.2572  -0.2800 C.3            1 S1                 0.0000
     16 ****        -5.1653  -1.5195   0.6177 C.3            1 S1                 0.0000
     17 ****        -6.4963  -0.3979   0.0414 S.o2           1 S1                 0.0000
     18 ****        -6.7979  -0.7312  -1.3596 O.2            1 S1                 0.0000
     19 ****        -7.5787  -0.4235   1.0370 O.2            1 S1                 0.0000
     20 ****        -5.7048   1.0786   0.0984 N.2            1 S1                 0.0000
     21 ****        -4.4160   1.1958  -0.0121 C.2            1 S1                 0.0000
     22 ****        -3.8265   2.5242   0.0056 C.2            1 S1                 0.0000
     23 ****        -2.4902   2.7053  -0.0071 C.2            1 S1                 0.0000
     24 ****         2.5414   1.2554  -0.9084 H              1 S1                 0.0000
     25 ****         2.5421   1.2399   0.8338 H              1 S1                 0.0000
     26 ****         2.3067  -1.2630   0.8147 H              1 S1                 0.0000
     27 ****         2.3039  -1.2499  -0.9297 H              1 S1                 0.0000
     28 ****         4.4025  -0.8305  -2.2175 H              1 S1                 0.0000
     29 ****         6.8955  -0.9849  -2.1598 H              1 S1                 0.0000
     30 ****         8.0607  -1.0441   0.1227 H              1 S1                 0.0000
     31 ****         4.4584  -0.8185   2.1373 H              1 S1                 0.0000
     32 ****        -1.5338  -0.5585  -0.1267 H              1 S1                 0.0000
     33 ****        -4.2197  -1.4313  -1.3263 H              1 S1                 0.0000
     34 ****        -3.1736  -1.9622  -0.0280 H              1 S1                 0.0000
     35 ****        -5.5140  -2.5487   0.5358 H              1 S1                 0.0000
     36 ****        -4.9446  -1.3113   1.6652 H              1 S1                 0.0000
     37 ****        -4.4462   3.4087   0.0388 H              1 S1                 0.0000
     38 ****        -2.1128   3.7172   0.0092 H              1 S1                 0.0000
     39 ****         6.7640  -0.9590   2.0400 H              1 S1                 0.0000
     40 ****         1.2641   3.1713   0.0383 LP             1 S1                 0.0000
     41 ****        -0.3736   3.7353   0.0373 LP             1 S1                 0.0000
     42 ****         0.2360  -0.1893  -0.0629 LP             1 S1                 0.0000
     43 ****        -6.2501   1.9075   0.2233 LP             1 S1                 0.0000
@<TRIPOS>BOND
    1    1    2 2     
    2    2    3 1     
    3    2   12 1     
    4    3    4 1     
    5    4    5 1     
    6    4   24 1     
    7    4   25 1     
    8    5    6 1     
    9    5   26 1     
   10    5   27 1     
   11    6   11 ar    
   12    6    7 ar    
   13    7    8 ar    
   14    7   28 1     
   15    8    9 ar    
   16    8   29 1     
   17    9   10 ar    
   18    9   30 1     
   19   10   11 ar    
   20   10   39 1     
   21   11   31 1     
   22   12   23 1     
   23   12   13 2     
   24   13   14 1     
   25   13   32 1     
   26   14   21 1     
   27   14   15 1     
   28   15   16 1     
   29   15   33 1     
   30   15   34 1     
   31   16   17 1     
   32   16   35 1     
   33   16   36 1     
   34   17   18 2     
   35   17   19 2     
   36   17   20 1     
   37   20   21 2     
   38   21   22 1     
   39   22   23 2     
   40   22   37 1     
   41   23   38 1     
   42    1   40 1     
   43    1   41 1     
   44    3   42 1     
   45   20   43 1     
@<TRIPOS>SUBSTRUCTURE
      1 S1             1
@<TRIPOS>SET
LONE_PAIRS      STATIC     ATOMS    <user>   **** ""
6 40 41 42 18 19 43
DONOR_HYDROGENS      STATIC     ATOMS    <user>   **** ""
1 39
ATOM$BLUE        STATIC     ATOMS    COLORGROUP SYSTEM
6 40 41 42 18 19 43
ATOM$RED        STATIC     ATOMS    COLORGROUP SYSTEM
1 39
