AV-unprocessed.smi:3058|AV-procd|sdf|11669|dock1
  -GOLD-   2272017 73D 1   1.00000     0.00000
 Structure written by MMmdl.
 38 40  0  0  0  0  0  0  0  0  1 V2000
  153.0212  140.4120  158.6825 O   0  0  0  0  0  0  0  0  0  0  0  0
  152.3168  141.3679  158.3562 C   0  0  0  0  0  0  0  0  0  0  0  0
  151.2686  141.2521  157.5261 N   0  0  0  0  0  0  0  0  0  0  0  0
  150.8247  140.0106  156.9041 C   0  0  0  0  0  0  0  0  0  0  0  0
  150.7682  140.1321  155.3722 C   0  0  0  0  0  0  0  0  0  0  0  0
  149.3436  140.1839  154.8562 C   0  0  0  0  0  0  0  0  0  0  0  0
  148.6935  139.0127  154.4156 C   0  0  0  0  0  0  0  0  0  0  0  0
  147.3687  139.1074  153.9480 C   0  0  0  0  0  0  0  0  0  0  0  0
  146.7495  140.3733  153.9397 C   0  0  0  0  0  0  0  0  0  0  0  0
  147.3622  141.5014  154.3594 N   0  0  0  0  0  0  0  0  0  0  0  0
  148.6323  141.4017  154.8073 C   0  0  0  0  0  0  0  0  0  0  0  0
  152.6043  142.7818  158.8909 C   0  0  2  0  0  0  0  0  0  0  0  0
  152.3471  142.9246  160.4114 C   0  0  0  0  0  0  0  0  0  0  0  0
  151.3701  144.1137  160.4943 C   0  0  1  0  0  0  0  0  0  0  0  0
  152.1030  145.4096  160.0973 C   0  0  0  0  0  0  0  0  0  0  0  0
  152.2731  145.2507  158.5737 C   0  0  0  0  0  0  0  0  0  0  0  0
  151.6576  143.8633  158.3099 C   0  0  2  0  0  0  0  0  0  0  0  0
  150.4793  143.8747  159.2836 C   0  0  0  0  0  0  0  0  0  0  0  0
  150.7401  142.0851  157.3105 H   0  0  0  0  0  0  0  0  0  0  0  0
  151.4809  139.1906  157.2012 H   0  0  0  0  0  0  0  0  0  0  0  0
  149.8347  139.7727  157.2943 H   0  0  0  0  0  0  0  0  0  0  0  0
  151.3007  141.0273  155.0481 H   0  0  0  0  0  0  0  0  0  0  0  0
  151.2756  139.2873  154.9045 H   0  0  0  0  0  0  0  0  0  0  0  0
  149.1994  138.0585  154.4370 H   0  0  0  0  0  0  0  0  0  0  0  0
  146.8397  138.2311  153.6036 H   0  0  0  0  0  0  0  0  0  0  0  0
  145.7346  140.4824  153.5865 H   0  0  0  0  0  0  0  0  0  0  0  0
  149.0928  142.3212  155.1376 H   0  0  0  0  0  0  0  0  0  0  0  0
  153.6411  143.0348  158.6615 H   0  0  0  0  0  0  0  0  0  0  0  0
  151.8900  142.0302  160.8382 H   0  0  0  0  0  0  0  0  0  0  0  0
  153.2671  143.1139  160.9657 H   0  0  0  0  0  0  0  0  0  0  0  0
  150.8443  144.1826  161.4471 H   0  0  0  0  0  0  0  0  0  0  0  0
  151.4970  146.2873  160.3257 H   0  0  0  0  0  0  0  0  0  0  0  0
  153.0575  145.5178  160.6137 H   0  0  0  0  0  0  0  0  0  0  0  0
  151.7179  146.0261  158.0444 H   0  0  0  0  0  0  0  0  0  0  0  0
  153.3155  145.3153  158.2594 H   0  0  0  0  0  0  0  0  0  0  0  0
  151.3826  143.7033  157.2664 H   0  0  0  0  0  0  0  0  0  0  0  0
  149.9262  142.9363  159.3327 H   0  0  0  0  0  0  0  0  0  0  0  0
  149.7746  144.6876  159.0992 H   0  0  0  0  0  0  0  0  0  0  0  0
  1  2  2  0  0  0  0
  2  3  1  0  0  0  0
  2 12  1  0  0  0  0
  3  4  1  0  0  0  0
  3 19  1  0  0  0  0
  4  5  1  0  0  0  0
  4 20  1  0  0  0  0
  4 21  1  0  0  0  0
  5  6  1  0  0  0  0
  5 22  1  0  0  0  0
  5 23  1  0  0  0  0
  6 11  1  0  0  0  0
  6  7  2  0  0  0  0
  7  8  1  0  0  0  0
  7 24  1  0  0  0  0
  8  9  2  0  0  0  0
  8 25  1  0  0  0  0
  9 10  1  0  0  0  0
  9 26  1  0  0  0  0
 10 11  2  0  0  0  0
 11 27  1  0  0  0  0
 12 17  1  0  0  0  0
 12 13  1  0  0  0  0
 12 28  1  0  0  0  0
 13 14  1  0  0  0  0
 13 29  1  0  0  0  0
 13 30  1  0  0  0  0
 14 18  1  0  0  0  0
 14 15  1  0  0  0  0
 14 31  1  0  0  0  0
 15 16  1  0  0  0  0
 15 32  1  0  0  0  0
 15 33  1  0  0  0  0
 16 17  1  0  0  0  0
 16 34  1  0  0  0  0
 16 35  1  0  0  0  0
 17 18  1  0  0  0  0
 17 36  1  0  0  0  0
 18 37  1  0  0  0  0
 18 38  1  0  0  0  0
M  END
> <s_m_source_file>
AV-unprocessed.smi

> <i_m_source_file_index>
3058

> <i_lp_mmshare_version>
43012

> <i_f3d_flags>
0

> <s_epik_input>
W0NIMl0xW0NIMl1bQ0BIXShbQ0gyXTIpW0NAQEhdKFtDSDJdW0NAQEhdMTIpQyg9TylbTkhdW0NIMl1bQ0gyXWMzW2NIXVtjSF1bY0hdbltjSF0z

> <s_epik_cmdline>
J2VwaWtfcHl0aG9uJywgJy1waCcsICc3LjAnLCAnLXRuJywgJzgnLCAnLW1hJywgJzIwMCcsICctbWV0YWxfYmluZGluZycsICctaW1hZScsICc8aW5maWxlLm1hZT4nLCAnLW9tYWUnLCAnPG91dGZpbGUubWFlPic=

> <r_epik_Ionization_Penalty>
0.0135821

> <r_epik_Ionization_Penalty_Charging>
0

> <r_epik_Ionization_Penalty_Neutral>
0.0135821

> <r_epik_State_Penalty>
0.0105782

> <r_epik_Charging_Adjusted_Penalty>
0.0105782

> <i_epik_Tot_Q>
0

> <i_epik_Tot_abs_Q>
0

> <r_epik_Metal_State_Penalty>
0.0103407

> <b_epik_Metal_Only>
0

> <s_lp_Force_Field>
OPLS_2005

> <r_lp_Energy>
46.4183

> <b_lp_Chiralities_Consistent>
1

> <s_lp_Variant>
AV-unprocessed.smi:3058-1

> <Gold.Version>
5.8.1

> <Gold.Id.Protein>
6NUR|6NUR_protein|mol2

> <Gold.PLP.Fitness>
47.0950

> <Gold.PLP.PLP>
-40.9563

> <Gold.PLP.part.hbond>
-0.9694

> <Gold.PLP.part.metal>
0.0000

> <Gold.PLP.part.buried>
-1.2493

> <Gold.PLP.part.nonpolar>
-37.0415

> <Gold.PLP.part.repulsive>
0.2295

> <Gold.PLP.ligand.clash>
0.0000

> <Gold.PLP.ligand.torsion>
0.7650

> <Gold.PLP.Chemscore.Hbond>
0.5374

> <Gold.PLP.Chemscore.CHOScore>
2.0000

> <Gold.PLP.Chemscore.Metal>
0.0000

> <Gold.Chemscore.Hbonds>
donor molecule, donor type, donor heavy atom, donor atom, acceptor molecule, acceptor atom, score
      P1  H  7997  8009       L1     1  0.28
      L1  C     9    26       P1 10175  1.00
      L1  C    11    27       P1  8028  1.00

> <Gold.PLP.Chemscore.Internal.Correction>
0.0564

> <Gold.Rescore>
     Score         DG    S(hbond)    S(metal)    S(lipo)     H(rot)  DE(clash)    DE(int)     intcor
     17.02     -19.01       0.74        0.00     124.30       1.37       1.27       0.72       ----

> <Gold.Chemscore.Fitness>
17.0156

> <Gold.Chemscore.DG>
-19.0119

> <Gold.Chemscore.ZeroCoef>
-5.4800

> <Gold.Chemscore.Hbond>
0.7437

> <Gold.Chemscore.Metal>
0.0000

> <Gold.Chemscore.Lipo>
124.3010

> <Gold.Chemscore.Internal_Hbond>
0.0000

> <Gold.Chemscore.DEClash>
1.2731

> <Gold.Chemscore.DEInternal>
0.7233

> <Gold.Chemscore.Rot>
1.3653

> <Gold.Chemscore.Internal.Correction>
   9.000000E+99

> <Gold.Chemscore.Hbonds>
donor molecule, donor type, donor heavy atom, donor atom, acceptor molecule, acceptor atom, score
      P1  H  7997  8009       L1     1  0.20

> <Gold.Chemscore.Hbond.Weighted>
-2.4839

> <Gold.Chemscore.Metal.Weighted>
-0.0000

> <Gold.Chemscore.Lipo.Weighted>
-14.5432

> <Gold.Chemscore.Internal_Hbond.Weighted>
0.0000

> <Gold.Chemscore.DEClash.Weighted>
1.2731

> <Gold.Chemscore.DEInternal.Weighted>
0.7233

> <Gold.Chemscore.Rot.Weighted>
3.4951

> <Gold.Chemscore.Internal.Correction.Weighted>
   9.000000E+99

> <Gold.Protein.RotatedTorsions>
[ 6907 6896 6895 6894 ] final  -85.07 input  -60.11 | X-H torsion
[ 7974 7965 7964 7962 ] final  132.11 input  175.53 | X-H torsion
[ 8008 7997 7996 7995 ] final  152.52 input   59.86 | X-H torsion
[ 10167 10162 10161 10158 ] final  -13.64 input  -65.29 | X-H torsion
[ 10718 10713 10712 10709 ] final  150.49 input   66.30 | X-H torsion
[ 10763 10752 10751 10750 ] final   57.65 input  -60.55 | X-H torsion
[ 11005 11000 10999 10996 ] final -143.21 input  -57.11 | X-H torsion

> <Gold.Protein.ActiveResidues>
 VAL166  LYS551  ARG553  GLY616  TRP617  ASP618  TYR619  PRO620  LYS621  CYS622 
 ASP623  PHE694  ASN695  SER759  ASP760  ASP761  ALA762  ILE779  LEU786  VAL792 
 PHE793  MET794  SER795  GLU796  ALA797  LYS798  CYS799  TRP800  GLU811  SER814 

> <Gold.Protein.RotatedAtoms>
  150.6872  134.3261  159.4807 H   0  0  0  0  0  0  0  0  0  0  0  0  # atno 6907 bound_to 6896
  152.1131  134.9257  160.0575 H   0  0  0  0  0  0  0  0  0  0  0  0  # atno 6908 bound_to 6896
  152.0492  133.3977  159.4407 H   0  0  0  0  0  0  0  0  0  0  0  0  # atno 6909 bound_to 6896
  145.0003  139.4319  143.5296 H   0  0  0  0  0  0  0  0  0  0  0  0  # atno 7974 bound_to 7965
  156.2625  140.2018  156.6345 H   0  0  0  0  0  0  0  0  0  0  0  0  # atno 8008 bound_to 7997
  154.6657  140.0556  157.0135 H   0  0  0  0  0  0  0  0  0  0  0  0  # atno 8009 bound_to 7997
  155.1211  140.3225  155.4500 H   0  0  0  0  0  0  0  0  0  0  0  0  # atno 8010 bound_to 7997
  140.7186  143.5405  150.9415 H   0  0  0  0  0  0  0  0  0  0  0  0  # atno 10167 bound_to 10162
  157.2828  131.0838  151.1519 H   0  0  0  0  0  0  0  0  0  0  0  0  # atno 10718 bound_to 10713
  152.9854  135.5634  154.5424 H   0  0  0  0  0  0  0  0  0  0  0  0  # atno 10763 bound_to 10752
  154.4876  135.2791  155.1524 H   0  0  0  0  0  0  0  0  0  0  0  0  # atno 10764 bound_to 10752
  154.3006  135.6308  153.5476 H   0  0  0  0  0  0  0  0  0  0  0  0  # atno 10765 bound_to 10752
  140.8148  134.2702  157.4926 H   0  0  0  0  0  0  0  0  0  0  0  0  # atno 11005 bound_to 11000
  146.3450  139.9387  142.8744 LP  0  0  0  0  0  0  0  0  0  0  0  0  # atno 17320 bound_to 7965
  145.2163  140.9916  143.4071 LP  0  0  0  0  0  0  0  0  0  0  0  0  # atno 17321 bound_to 7965
  139.9127  143.6700  152.3112 LP  0  0  0  0  0  0  0  0  0  0  0  0  # atno 17342 bound_to 10162
  139.7089  144.7623  151.1145 LP  0  0  0  0  0  0  0  0  0  0  0  0  # atno 17343 bound_to 10162
  157.2947  130.6813  149.6132 LP  0  0  0  0  0  0  0  0  0  0  0  0  # atno 17370 bound_to 10713
  155.9665  130.4410  150.5323 LP  0  0  0  0  0  0  0  0  0  0  0  0  # atno 17371 bound_to 10713
  139.8712  134.9503  156.4051 LP  0  0  0  0  0  0  0  0  0  0  0  0  # atno 17394 bound_to 11000
  140.9161  133.7678  155.9849 LP  0  0  0  0  0  0  0  0  0  0  0  0  # atno 17395 bound_to 11000

$$$$
