#       Name:                AV-unprocessed.smi:114
#       Creating user name   scv26
#       Creation time:       Thu Mar 26 18:23:52 2020


#       File generated by GOLD software.
#

@<TRIPOS>MOLECULE
AV-unprocessed.smi:114
    43    45     1
SMALL
NO_CHARGES


@<TRIPOS>ATOM
      1 ****        -5.1868   0.2392   0.3796 N.pl3          1 S1                 0.0000
      2 ****        -3.8864   0.5026   0.1875 C.ar           1 S1                 0.0000
      3 ****        -3.5232   1.7740  -0.0996 N.ar           1 S1                 0.0000
      4 ****        -2.2355   2.0803  -0.2967 C.ar           1 S1                 0.0000
      5 ****        -1.9615   3.3752  -0.5808 F              1 S1                 0.0000
      6 ****        -1.1886   1.2501  -0.2468 N.ar           1 S1                 0.0000
      7 ****        -1.5473  -0.0341   0.0422 C.ar           1 S1                 0.0000
      8 ****        -2.8752  -0.4859   0.2718 C.ar           1 S1                 0.0000
      9 ****        -2.8736  -1.8477   0.5378 N.2            1 S1                 0.0000
     10 ****        -1.6116  -2.1771   0.4729 C.2            1 S1                 0.0000
     11 ****        -0.7426  -1.1504   0.1726 N.pl3          1 S1                 0.0000
     12 ****         0.7485  -1.2399   0.0579 C.3            1 S1                 0.0000
     13 ****         1.3108  -0.3725   0.9980 O.3            1 S1                 0.0000
     14 ****         2.0558   0.6598   0.3533 C.3            1 S1                 0.0000
     15 ****         3.2061   1.1541   1.2485 C.3            1 S1                 0.0000
     16 ****         2.7252   2.1030   2.1766 O.3            1 S1                 0.0000
     17 ****         2.4757   0.0206  -0.9766 C.3            1 S1                 0.0000
     18 ****         3.6389  -0.7742  -0.8024 O.3            1 S1                 0.0000
     19 ****         1.2476  -0.8123  -1.3308 C.3            1 S1                 0.0000
     20 ****         1.5779  -1.9011  -2.1729 O.3            1 S1                 0.0000
     21 ****         0.9987  -2.2697   0.3167 H              1 S1                 0.0000
     22 ****         1.3896   1.4920   0.1266 H              1 S1                 0.0000
     23 ****         2.6865   0.7716  -1.7388 H              1 S1                 0.0000
     24 ****         0.5055  -0.1820  -1.8208 H              1 S1                 0.0000
     25 ****        -5.4831  -0.7017   0.5958 H              1 S1                 0.0000
     26 ****        -5.8666   0.9832   0.3148 H              1 S1                 0.0000
     27 ****        -1.2768  -3.1898   0.6455 H              1 S1                 0.0000
     28 ****         3.6893   0.3273   1.7701 H              1 S1                 0.0000
     29 ****         3.9670   1.6484   0.6438 H              1 S1                 0.0000
     30 ****         3.4491   2.3972   2.7080 H              1 S1                 0.0000
     31 ****         3.7972  -1.2468  -1.6057 H              1 S1                 0.0000
     32 ****         0.7902  -2.3937  -2.3468 H              1 S1                 0.0000
     33 ****        -4.2203   2.4881  -0.1648 LP             1 S1                 0.0000
     34 ****        -0.2444   1.5393  -0.4044 LP             1 S1                 0.0000
     35 ****        -3.6561  -2.4388   0.7335 LP             1 S1                 0.0000
     36 ****         1.9200  -0.8903   1.5985 LP             1 S1                 0.0000
     37 ****         0.5798   0.0409   1.5409 LP             1 S1                 0.0000
     38 ****         2.0288   1.6827   2.7583 LP             1 S1                 0.0000
     39 ****         2.3273   2.8801   1.6888 LP             1 S1                 0.0000
     40 ****         3.4982  -1.4200  -0.0520 LP             1 S1                 0.0000
     41 ****         4.4217  -0.1875  -0.5951 LP             1 S1                 0.0000
     42 ****         2.2494  -2.4871  -1.7195 LP             1 S1                 0.0000
     43 ****         1.9594  -1.5599  -3.0320 LP             1 S1                 0.0000
@<TRIPOS>BOND
    1    1    2 1     
    2    1   25 1     
    3    1   26 1     
    4    2    8 ar    
    5    2    3 ar    
    6    3    4 ar    
    7    4    5 1     
    8    4    6 ar    
    9    6    7 ar    
   10    7   11 1     
   11    7    8 ar    
   12    8    9 1     
   13    9   10 2     
   14   10   11 1     
   15   10   27 1     
   16   11   12 1     
   17   12   21 1     
   18   12   19 1     
   19   12   13 1     
   20   13   14 1     
   21   14   22 1     
   22   14   15 1     
   23   14   17 1     
   24   15   16 1     
   25   15   28 1     
   26   15   29 1     
   27   16   30 1     
   28   17   23 1     
   29   17   18 1     
   30   17   19 1     
   31   18   31 1     
   32   19   24 1     
   33   19   20 1     
   34   20   32 1     
   35    3   33 1     
   36    6   34 1     
   37    9   35 1     
   38   13   36 1     
   39   13   37 1     
   40   16   38 1     
   41   16   39 1     
   42   18   40 1     
   43   18   41 1     
   44   20   42 1     
   45   20   43 1     
@<TRIPOS>SUBSTRUCTURE
      1 S1             1
@<TRIPOS>SET
LONE_PAIRS      STATIC     ATOMS    <user>   **** ""
11 33 34 35 36 37 38 39 40 41 42 43
DONOR_HYDROGENS      STATIC     ATOMS    <user>   **** ""
5 25 26 30 31 32
ATOM$BLUE        STATIC     ATOMS    COLORGROUP SYSTEM
11 33 34 35 36 37 38 39 40 41 42 43
ATOM$RED        STATIC     ATOMS    COLORGROUP SYSTEM
5 25 26 30 31 32
