#       Name:                AV-unprocessed.smi:1990
#       Creating user name   scv26
#       Creation time:       Fri Mar 27 10:26:42 2020


#       File generated by GOLD software.
#

@<TRIPOS>MOLECULE
AV-unprocessed.smi:1990
    52    53     1
SMALL
NO_CHARGES


@<TRIPOS>ATOM
      1 ****        -5.2990  -0.6913  -1.0646 C.3            1 S1                 0.0000
      2 ****        -4.8039   0.7652  -1.1075 C.3            1 S1                 0.0000
      3 ****        -3.2720   0.8890  -1.2314 C.3            1 S1                 0.0000
      4 ****        -2.6162   0.6006   0.0407 N.3            1 S1                 0.0000
      5 ****        -1.2196   0.4135  -0.0301 C.ar           1 S1                 0.0000
      6 ****        -0.6787  -0.5575  -0.9049 C.ar           1 S1                 0.0000
      7 ****         0.7173  -0.7332  -0.9626 C.ar           1 S1                 0.0000
      8 ****         1.5434   0.0758  -0.1476 C.ar           1 S1                 0.0000
      9 ****         2.9607  -0.0125  -0.0909 N.am           1 S1                 0.0000
     10 ****         3.8119  -0.5975  -0.9545 C.2            1 S1                 0.0000
     11 ****         3.4784  -1.1205  -2.0173 O.2            1 S1                 0.0000
     12 ****         5.2934  -0.5544  -0.5544 C.3            1 S1                 0.0000
     13 ****         6.2054  -0.2485  -1.7543 C.3            1 S1                 0.0000
     14 ****         5.7883  -2.1649   0.2202 S.o2           1 S1                 0.0000
     15 ****         4.7102  -2.2640   1.7114 C.3            1 S1                 0.0000
     16 ****         5.4171  -3.2646  -0.6837 O.2            1 S1                 0.0000
     17 ****         7.1832  -2.0424   0.6705 O.2            1 S1                 0.0000
     18 ****         0.9107   1.0062   0.7006 C.ar           1 S1                 0.0000
     19 ****        -0.4262   1.1752   0.7617 N.ar           1 S1                 0.0000
     20 ****        -3.1480   1.3844   1.1517 C.3            1 S1                 0.0000
     21 ****        -4.6722   1.2011   1.2545 C.3            1 S1                 0.0000
     22 ****        -5.2842   2.1032   2.3314 C.3            1 S1                 0.0000
     23 ****        -5.2769   1.5292   0.0044 O.3            1 S1                 0.0000
     24 ****        -5.0413  -1.2132  -1.9864 H              1 S1                 0.0000
     25 ****        -6.3829  -0.7302  -0.9555 H              1 S1                 0.0000
     26 ****        -4.8586  -1.2547  -0.2421 H              1 S1                 0.0000
     27 ****        -5.2440   1.2196  -1.9955 H              1 S1                 0.0000
     28 ****        -2.9187   0.2368  -2.0292 H              1 S1                 0.0000
     29 ****        -3.0109   1.9071  -1.5235 H              1 S1                 0.0000
     30 ****        -1.3178  -1.1794  -1.5144 H              1 S1                 0.0000
     31 ****         1.1170  -1.4932  -1.6151 H              1 S1                 0.0000
     32 ****         3.3859   0.4532   0.6976 H              1 S1                 0.0000
     33 ****         5.4407   0.2216   0.1976 H              1 S1                 0.0000
     34 ****         5.9120   0.6772  -2.2504 H              1 S1                 0.0000
     35 ****         6.1771  -1.0498  -2.4939 H              1 S1                 0.0000
     36 ****         7.2415  -0.1346  -1.4349 H              1 S1                 0.0000
     37 ****         4.9938  -3.1352   2.3015 H              1 S1                 0.0000
     38 ****         3.6675  -2.3648   1.4115 H              1 S1                 0.0000
     39 ****         4.8339  -1.3650   2.3146 H              1 S1                 0.0000
     40 ****         1.4950   1.6372   1.3544 H              1 S1                 0.0000
     41 ****        -2.6826   1.0741   2.0881 H              1 S1                 0.0000
     42 ****        -2.9037   2.4364   0.9981 H              1 S1                 0.0000
     43 ****        -4.8996   0.1667   1.5125 H              1 S1                 0.0000
     44 ****        -4.8630   1.8832   3.3125 H              1 S1                 0.0000
     45 ****        -6.3630   1.9594   2.3931 H              1 S1                 0.0000
     46 ****        -5.1000   3.1561   2.1166 H              1 S1                 0.0000
     47 ****        -2.8888  -0.3290   0.2887 LP             1 S1                 0.0000
     48 ****         2.5163  -1.1296  -2.2899 LP             1 S1                 0.0000
     49 ****         4.1695  -1.5364  -2.6084 LP             1 S1                 0.0000
     50 ****        -0.8253   1.8513   1.3810 LP             1 S1                 0.0000
     51 ****        -6.2625   1.3815   0.0870 LP             1 S1                 0.0000
     52 ****        -5.0992   2.4952  -0.1834 LP             1 S1                 0.0000
@<TRIPOS>BOND
    1    1    2 1     
    2    1   24 1     
    3    1   25 1     
    4    1   26 1     
    5    2   23 1     
    6    2    3 1     
    7    2   27 1     
    8    3    4 1     
    9    3   28 1     
   10    3   29 1     
   11    4    5 1     
   12    4   20 1     
   13    5   19 ar    
   14    5    6 ar    
   15    6    7 ar    
   16    6   30 1     
   17    7    8 ar    
   18    7   31 1     
   19    8    9 1     
   20    8   18 ar    
   21    9   10 am    
   22    9   32 1     
   23   10   11 2     
   24   10   12 1     
   25   12   13 1     
   26   12   14 1     
   27   12   33 1     
   28   13   34 1     
   29   13   35 1     
   30   13   36 1     
   31   14   15 1     
   32   14   16 2     
   33   14   17 2     
   34   15   37 1     
   35   15   38 1     
   36   15   39 1     
   37   18   19 ar    
   38   18   40 1     
   39   20   21 1     
   40   20   41 1     
   41   20   42 1     
   42   21   22 1     
   43   21   23 1     
   44   21   43 1     
   45   22   44 1     
   46   22   45 1     
   47   22   46 1     
   48    4   47 1     
   49   11   48 1     
   50   11   49 1     
   51   19   50 1     
   52   23   51 1     
   53   23   52 1     
@<TRIPOS>SUBSTRUCTURE
      1 S1             1
@<TRIPOS>SET
LONE_PAIRS      STATIC     ATOMS    <user>   **** ""
8 47 48 49 16 17 50 51 52
DONOR_HYDROGENS      STATIC     ATOMS    <user>   **** ""
1 32
ATOM$BLUE        STATIC     ATOMS    COLORGROUP SYSTEM
8 47 48 49 16 17 50 51 52
ATOM$RED        STATIC     ATOMS    COLORGROUP SYSTEM
1 32
