AV-unprocessed.smi:271|AV-procd|sdf|2050|dock10
  -GOLD-   2262021283D 1   1.00000     0.00000
 Structure written by MMmdl.
 58 60  0  0  0  0  0  0  0  0  1 V2000
  152.8153  143.0169  160.5383 C   0  0  0  0  0  0  0  0  0  0  0  0
  151.8799  143.4221  159.3887 C   0  0  0  0  0  0  0  0  0  0  0  0
  150.9213  144.5353  159.8445 C   0  0  0  0  0  0  0  0  0  0  0  0
  151.1289  142.1939  158.8381 C   0  0  0  0  0  0  0  0  0  0  0  0
  152.0251  141.2311  158.0309 C   0  0  0  0  0  0  0  0  0  0  0  0
  151.8592  139.8255  158.4011 N   0  0  0  0  0  0  0  0  0  0  0  0
  153.0488  138.9972  158.2163 C   0  0  0  0  0  0  0  0  0  0  0  0
  152.8144  137.5132  158.5412 C   0  0  0  0  0  0  0  0  0  0  0  0
  152.4891  136.7238  157.3444 C   0  0  0  0  0  0  0  0  0  0  0  0
  152.2329  136.1029  156.4025 N   0  0  0  0  0  0  0  0  0  0  0  0
  150.7406  139.2573  157.8956 C   0  0  0  0  0  0  0  0  0  0  0  0
  149.8747  138.7035  158.7796 N   0  0  0  0  0  0  0  0  0  0  0  0
  148.7486  138.1333  158.3413 C   0  0  0  0  0  0  0  0  0  0  0  0
  148.3066  138.0143  157.0876 N   0  0  0  0  0  0  0  0  0  0  0  0
  149.1756  138.5725  156.1963 C   0  0  0  0  0  0  0  0  0  0  0  0
  150.4104  139.2050  156.5119 C   0  0  0  0  0  0  0  0  0  0  0  0
  151.0312  139.6411  155.3486 N   0  0  0  0  0  0  0  0  0  0  0  0
  150.2087  139.2886  154.3991 C   0  0  0  0  0  0  0  0  0  0  0  0
  149.0586  138.6570  154.8187 N   0  0  0  0  0  0  0  0  0  0  0  0
  147.9733  138.1648  153.9812 C   0  0  0  0  0  0  0  0  0  0  0  0
  147.3958  139.2173  152.9944 C   0  0  1  0  0  0  0  0  0  0  0  0
  146.4590  138.5775  151.9424 C   0  0  0  0  0  0  0  0  0  0  0  0
  147.1758  137.7001  151.0993 O   0  0  0  0  0  0  0  0  0  0  0  0
  146.7031  140.3981  153.7250 C   0  0  2  0  0  0  0  0  0  0  0  0
  147.6452  141.3563  154.4355 C   0  0  0  0  0  0  0  0  0  0  0  0
  146.7233  142.0631  155.4255 C   0  0  0  0  0  0  0  0  0  0  0  0
  145.6781  141.1415  155.7158 O   0  0  0  0  0  0  0  0  0  0  0  0
  145.8178  139.9815  154.9044 C   0  0  0  0  0  0  0  0  0  0  0  0
  152.2559  142.5961  161.3745 H   0  0  0  0  0  0  0  0  0  0  0  0
  153.3760  143.8746  160.9114 H   0  0  0  0  0  0  0  0  0  0  0  0
  153.5397  142.2696  160.2130 H   0  0  0  0  0  0  0  0  0  0  0  0
  152.5047  143.8236  158.5897 H   0  0  0  0  0  0  0  0  0  0  0  0
  150.2437  144.1811  160.6221 H   0  0  0  0  0  0  0  0  0  0  0  0
  150.3159  144.9096  159.0195 H   0  0  0  0  0  0  0  0  0  0  0  0
  151.4728  145.3852  160.2477 H   0  0  0  0  0  0  0  0  0  0  0  0
  150.6949  141.6388  159.6709 H   0  0  0  0  0  0  0  0  0  0  0  0
  150.2891  142.5356  158.2316 H   0  0  0  0  0  0  0  0  0  0  0  0
  151.8433  141.3445  156.9624 H   0  0  0  0  0  0  0  0  0  0  0  0
  153.0686  141.5040  158.1923 H   0  0  0  0  0  0  0  0  0  0  0  0
  153.4153  139.1012  157.1942 H   0  0  0  0  0  0  0  0  0  0  0  0
  153.8380  139.3787  158.8651 H   0  0  0  0  0  0  0  0  0  0  0  0
  153.7042  137.0771  158.9957 H   0  0  0  0  0  0  0  0  0  0  0  0
  151.9921  137.3873  159.2459 H   0  0  0  0  0  0  0  0  0  0  0  0
  148.1091  137.7143  159.1042 H   0  0  0  0  0  0  0  0  0  0  0  0
  150.4212  139.4890  153.3597 H   0  0  0  0  0  0  0  0  0  0  0  0
  148.3307  137.2880  153.4413 H   0  0  0  0  0  0  0  0  0  0  0  0
  147.1822  137.7953  154.6346 H   0  0  0  0  0  0  0  0  0  0  0  0
  148.2447  139.6364  152.4517 H   0  0  0  0  0  0  0  0  0  0  0  0
  145.6349  138.0426  152.4145 H   0  0  0  0  0  0  0  0  0  0  0  0
  146.0132  139.3361  151.3003 H   0  0  0  0  0  0  0  0  0  0  0  0
  147.6739  137.1045  151.6379 H   0  0  0  0  0  0  0  0  0  0  0  0
  146.1058  140.9754  153.0179 H   0  0  0  0  0  0  0  0  0  0  0  0
  148.4150  140.8026  154.9752 H   0  0  0  0  0  0  0  0  0  0  0  0
  148.1392  142.0575  153.7624 H   0  0  0  0  0  0  0  0  0  0  0  0
  147.2476  142.3678  156.3314 H   0  0  0  0  0  0  0  0  0  0  0  0
  146.2843  142.9526  154.9725 H   0  0  0  0  0  0  0  0  0  0  0  0
  144.8432  139.6046  154.5967 H   0  0  0  0  0  0  0  0  0  0  0  0
  146.3051  139.2051  155.4961 H   0  0  0  0  0  0  0  0  0  0  0  0
  1  2  1  0  0  0  0
  1 29  1  0  0  0  0
  1 30  1  0  0  0  0
  1 31  1  0  0  0  0
  2  3  1  0  0  0  0
  2  4  1  0  0  0  0
  2 32  1  0  0  0  0
  3 33  1  0  0  0  0
  3 34  1  0  0  0  0
  3 35  1  0  0  0  0
  4  5  1  0  0  0  0
  4 36  1  0  0  0  0
  4 37  1  0  0  0  0
  5  6  1  0  0  0  0
  5 38  1  0  0  0  0
  5 39  1  0  0  0  0
  6  7  1  0  0  0  0
  6 11  1  0  0  0  0
  7  8  1  0  0  0  0
  7 40  1  0  0  0  0
  7 41  1  0  0  0  0
  8  9  1  0  0  0  0
  8 42  1  0  0  0  0
  8 43  1  0  0  0  0
  9 10  3  0  0  0  0
 11 16  1  0  0  0  0
 11 12  2  0  0  0  0
 12 13  1  0  0  0  0
 13 14  2  0  0  0  0
 13 44  1  0  0  0  0
 14 15  1  0  0  0  0
 15 19  1  0  0  0  0
 15 16  2  0  0  0  0
 16 17  1  0  0  0  0
 17 18  2  0  0  0  0
 18 19  1  0  0  0  0
 18 45  1  0  0  0  0
 19 20  1  0  0  0  0
 20 21  1  0  0  0  0
 20 46  1  0  0  0  0
 20 47  1  0  0  0  0
 21 22  1  0  0  0  0
 21 24  1  0  0  0  0
 21 48  1  0  0  0  0
 22 23  1  0  0  0  0
 22 49  1  0  0  0  0
 22 50  1  0  0  0  0
 23 51  1  0  0  0  0
 24 28  1  0  0  0  0
 24 25  1  0  0  0  0
 24 52  1  0  0  0  0
 25 26  1  0  0  0  0
 25 53  1  0  0  0  0
 25 54  1  0  0  0  0
 26 27  1  0  0  0  0
 26 55  1  0  0  0  0
 26 56  1  0  0  0  0
 27 28  1  0  0  0  0
 28 57  1  0  0  0  0
 28 58  1  0  0  0  0
M  END
> <s_m_source_file>
AV-unprocessed.smi

> <i_m_source_file_index>
271

> <i_lp_mmshare_version>
43012

> <i_f3d_flags>
0

> <s_epik_input>
W0NIM11bQ0hdKFtDSDNdKVtDSDJdW0NIMl1OKFtDSDJdW0NIMl1DI04pYyhuW2NIXW4xKWMoYzEyKW5bY0hdbjJbQ0gyXVtDQEhdKFtDSDJdW09IXSlbQ0BASF0zW0NIMl1bQ0gyXU9bQ0gyXTM=

> <s_epik_cmdline>
J2VwaWtfcHl0aG9uJywgJy1waCcsICc3LjAnLCAnLXRuJywgJzgnLCAnLW1hJywgJzIwMCcsICctbWV0YWxfYmluZGluZycsICctaW1hZScsICc8aW5maWxlLm1hZT4nLCAnLW9tYWUnLCAnPG91dGZpbGUubWFlPic=

> <r_lp_tautomer_probability>
1

> <r_epik_Ionization_Penalty>
0.000825874

> <r_epik_Ionization_Penalty_Charging>
0

> <r_epik_Ionization_Penalty_Neutral>
0.000825874

> <r_epik_State_Penalty>
0.000396768

> <r_epik_Charging_Adjusted_Penalty>
0.000396768

> <i_epik_Tot_Q>
0

> <i_epik_Tot_abs_Q>
0

> <r_epik_Metal_State_Penalty>
-0

> <b_epik_Metal_Only>
0

> <s_lp_Force_Field>
OPLS_2005

> <r_lp_Energy>
35.3128

> <b_lp_Chiralities_Consistent>
1

> <s_lp_Variant>
AV-unprocessed.smi:271-2

> <Gold.Version>
5.8.1

> <Gold.Id.Protein>
6NUR|6NUR_protein|mol2

> <Gold.PLP.Fitness>
49.5819

> <Gold.PLP.PLP>
-40.3064

> <Gold.PLP.part.hbond>
-3.4140

> <Gold.PLP.part.metal>
0.0000

> <Gold.PLP.part.buried>
-3.5589

> <Gold.PLP.part.nonpolar>
-33.9881

> <Gold.PLP.part.repulsive>
0.0945

> <Gold.PLP.ligand.clash>
0.0000

> <Gold.PLP.ligand.torsion>
1.6663

> <Gold.PLP.Chemscore.Hbond>
2.9120

> <Gold.PLP.Chemscore.CHOScore>
1.0000

> <Gold.PLP.Chemscore.Metal>
0.0000

> <Gold.Chemscore.Hbonds>
donor molecule, donor type, donor heavy atom, donor atom, acceptor molecule, acceptor atom, score
      L1  H    23    51       P1  7948  0.96
      P1  H  7954  7966       L1    23  1.00
      P1  H 10752 10765       L1    10  1.00
      L1  C    18    45       P1  7957  1.00

> <Gold.PLP.Chemscore.Internal.Correction>
0.8722

> <Gold.Rescore>
     Score         DG    S(hbond)    S(metal)    S(lipo)     H(rot)  DE(clash)    DE(int)     intcor
     13.04     -15.63       2.36        0.00     101.89       3.77       0.18       2.41       ----

> <Gold.Chemscore.Fitness>
13.0423

> <Gold.Chemscore.DG>
-15.6303

> <Gold.Chemscore.ZeroCoef>
-5.4800

> <Gold.Chemscore.Hbond>
2.3580

> <Gold.Chemscore.Metal>
0.0000

> <Gold.Chemscore.Lipo>
101.8924

> <Gold.Chemscore.Internal_Hbond>
0.0000

> <Gold.Chemscore.DEClash>
0.1809

> <Gold.Chemscore.DEInternal>
2.4071

> <Gold.Chemscore.Rot>
3.7683

> <Gold.Chemscore.Internal.Correction>
   9.000000E+99

> <Gold.Chemscore.Hbonds>
donor molecule, donor type, donor heavy atom, donor atom, acceptor molecule, acceptor atom, score
      L1  H    23    51       P1  7948  0.86
      P1  H  7954  7966       L1    23  0.25
      P1  H 10752 10765       L1    10  1.00

> <Gold.Chemscore.Hbond.Weighted>
-7.8757

> <Gold.Chemscore.Metal.Weighted>
-0.0000

> <Gold.Chemscore.Lipo.Weighted>
-11.9214

> <Gold.Chemscore.Internal_Hbond.Weighted>
0.0000

> <Gold.Chemscore.DEClash.Weighted>
0.1809

> <Gold.Chemscore.DEInternal.Weighted>
2.4071

> <Gold.Chemscore.Rot.Weighted>
9.6468

> <Gold.Chemscore.Internal.Correction.Weighted>
   9.000000E+99

> <Gold.Protein.RotatedTorsions>
[ 6907 6896 6895 6894 ] final   20.77 input  -60.11 | X-H torsion
[ 7974 7965 7964 7962 ] final  153.67 input  175.53 | X-H torsion
[ 8008 7997 7996 7995 ] final   41.30 input   59.86 | X-H torsion
[ 10167 10162 10161 10158 ] final    8.66 input  -65.29 | X-H torsion
[ 10718 10713 10712 10709 ] final  108.01 input   66.30 | X-H torsion
[ 10763 10752 10751 10750 ] final -153.04 input  -60.55 | X-H torsion
[ 11005 11000 10999 10996 ] final   62.09 input  -57.11 | X-H torsion

> <Gold.Protein.ActiveResidues>
 VAL166  LYS551  ARG553  GLY616  TRP617  ASP618  TYR619  PRO620  LYS621  CYS622 
 ASP623  PHE694  ASN695  SER759  ASP760  ASP761  ALA762  ILE779  LEU786  VAL792 
 PHE793  MET794  SER795  GLU796  ALA797  LYS798  CYS799  TRP800  GLU811  SER814 

> <Gold.Protein.RotatedAtoms>
  151.9015  135.0376  160.0506 H   0  0  0  0  0  0  0  0  0  0  0  0  # atno 6907 bound_to 6896
  152.2355  133.5088  159.5248 H   0  0  0  0  0  0  0  0  0  0  0  0  # atno 6908 bound_to 6896
  150.7038  134.1076  159.4031 H   0  0  0  0  0  0  0  0  0  0  0  0  # atno 6909 bound_to 6896
  144.8139  139.6832  143.6130 H   0  0  0  0  0  0  0  0  0  0  0  0  # atno 7974 bound_to 7965
  155.2673  140.3363  155.4268 H   0  0  0  0  0  0  0  0  0  0  0  0  # atno 8008 bound_to 7997
  156.2148  140.1784  156.7655 H   0  0  0  0  0  0  0  0  0  0  0  0  # atno 8009 bound_to 7997
  154.5738  140.0665  156.8988 H   0  0  0  0  0  0  0  0  0  0  0  0  # atno 8010 bound_to 7997
  140.6301  143.8013  150.7284 H   0  0  0  0  0  0  0  0  0  0  0  0  # atno 10167 bound_to 10162
  157.6604  131.0885  150.6242 H   0  0  0  0  0  0  0  0  0  0  0  0  # atno 10718 bound_to 10713
  154.7954  135.3222  154.7679 H   0  0  0  0  0  0  0  0  0  0  0  0  # atno 10763 bound_to 10752
  153.8358  135.6875  153.4813 H   0  0  0  0  0  0  0  0  0  0  0  0  # atno 10764 bound_to 10752
  153.1643  135.4648  154.9757 H   0  0  0  0  0  0  0  0  0  0  0  0  # atno 10765 bound_to 10752
  140.0116  134.6288  155.9772 H   0  0  0  0  0  0  0  0  0  0  0  0  # atno 11005 bound_to 11000
  146.2440  139.6060  142.9472 LP  0  0  0  0  0  0  0  0  0  0  0  0  # atno 17320 bound_to 7965
  145.5260  141.0429  143.2409 LP  0  0  0  0  0  0  0  0  0  0  0  0  # atno 17321 bound_to 7965
  140.1622  143.4266  152.2059 LP  0  0  0  0  0  0  0  0  0  0  0  0  # atno 17342 bound_to 10162
  139.5516  144.7342  151.4417 LP  0  0  0  0  0  0  0  0  0  0  0  0  # atno 17343 bound_to 10162
  156.6545  130.4494  149.5708 LP  0  0  0  0  0  0  0  0  0  0  0  0  # atno 17370 bound_to 10713
  156.2113  130.6680  151.1272 LP  0  0  0  0  0  0  0  0  0  0  0  0  # atno 17371 bound_to 10713
  141.1714  133.6537  156.4668 LP  0  0  0  0  0  0  0  0  0  0  0  0  # atno 17394 bound_to 11000
  140.4545  134.6898  157.5055 LP  0  0  0  0  0  0  0  0  0  0  0  0  # atno 17395 bound_to 11000

$$$$
