AV-unprocessed.smi:609|AV-procd|sdf|3048|dock5
  -GOLD-   2262023563D 1   1.00000     0.00000
 Structure written by MMmdl.
 42 44  0  0  0  0  0  0  0  0  1 V2000
  152.8699  142.8317  160.9620 C   0  0  0  0  0  0  0  0  0  0  0  0
  152.2397  142.4996  159.6208 C   0  0  0  0  0  0  0  0  0  0  0  0
  152.6549  141.3355  158.9356 C   0  0  0  0  0  0  0  0  0  0  0  0
  152.0937  140.9914  157.6863 C   0  0  0  0  0  0  0  0  0  0  0  0
  152.3454  139.9141  156.8539 N   0  0  0  0  0  0  0  0  0  0  0  0
  151.5103  140.1527  155.8470 C   0  0  0  0  0  0  0  0  0  0  0  0
  150.7460  141.2583  155.9287 N   0  0  0  0  0  0  0  0  0  0  0  0
  149.7694  141.7164  154.9566 C   0  0  0  0  0  0  0  0  0  0  0  0
  148.6631  140.6765  154.7012 C   0  0  1  0  0  0  0  0  0  0  0  0
  149.2012  139.5732  153.9975 O   0  0  0  0  0  0  0  0  0  0  0  0
  148.0294  140.1802  156.0146 C   0  0  0  0  0  0  0  0  0  0  0  0
  147.5146  141.5373  157.1146 S   0  0  0  0  0  0  0  0  0  0  0  0
  145.8500  141.7689  156.5679 C   0  0  0  0  0  0  0  0  0  0  0  0
  144.7659  141.3976  157.2447 N   0  0  0  0  0  0  0  0  0  0  0  0
  143.6938  141.7682  156.4405 C   0  0  0  0  0  0  0  0  0  0  0  0
  144.1688  142.3529  155.2922 C   0  0  0  0  0  0  0  0  0  0  0  0
  145.5539  142.3433  155.3872 N   0  0  0  0  0  0  0  0  0  0  0  0
  146.4812  142.8592  154.3994 C   0  0  0  0  0  0  0  0  0  0  0  0
  151.0985  141.8512  157.1363 C   0  0  0  0  0  0  0  0  0  0  0  0
  150.6767  143.0119  157.8086 C   0  0  0  0  0  0  0  0  0  0  0  0
  151.2472  143.3406  159.0562 C   0  0  0  0  0  0  0  0  0  0  0  0
  150.7840  144.5953  159.7750 C   0  0  0  0  0  0  0  0  0  0  0  0
  153.6139  142.0878  161.2481 H   0  0  0  0  0  0  0  0  0  0  0  0
  152.1111  142.8634  161.7441 H   0  0  0  0  0  0  0  0  0  0  0  0
  153.3660  143.8015  160.9212 H   0  0  0  0  0  0  0  0  0  0  0  0
  153.4103  140.6944  159.3656 H   0  0  0  0  0  0  0  0  0  0  0  0
  151.4482  139.4846  155.0003 H   0  0  0  0  0  0  0  0  0  0  0  0
  149.3410  142.6573  155.3046 H   0  0  0  0  0  0  0  0  0  0  0  0
  150.2957  141.9397  154.0275 H   0  0  0  0  0  0  0  0  0  0  0  0
  147.8987  141.1313  154.0711 H   0  0  0  0  0  0  0  0  0  0  0  0
  149.4992  139.8734  153.1523 H   0  0  0  0  0  0  0  0  0  0  0  0
  147.1529  139.5697  155.7950 H   0  0  0  0  0  0  0  0  0  0  0  0
  148.7219  139.5335  156.5538 H   0  0  0  0  0  0  0  0  0  0  0  0
  142.6743  141.5867  156.7472 H   0  0  0  0  0  0  0  0  0  0  0  0
  143.6498  142.7625  154.4381 H   0  0  0  0  0  0  0  0  0  0  0  0
  145.9364  143.2662  153.5472 H   0  0  0  0  0  0  0  0  0  0  0  0
  147.1331  142.0577  154.0515 H   0  0  0  0  0  0  0  0  0  0  0  0
  147.0881  143.6499  154.8415 H   0  0  0  0  0  0  0  0  0  0  0  0
  149.9181  143.6420  157.3682 H   0  0  0  0  0  0  0  0  0  0  0  0
  150.0184  145.1215  159.2039 H   0  0  0  0  0  0  0  0  0  0  0  0
  151.6188  145.2802  159.9255 H   0  0  0  0  0  0  0  0  0  0  0  0
  150.3614  144.3440  160.7479 H   0  0  0  0  0  0  0  0  0  0  0  0
  1  2  1  0  0  0  0
  1 23  1  0  0  0  0
  1 24  1  0  0  0  0
  1 25  1  0  0  0  0
  2 21  1  0  0  0  0
  2  3  2  0  0  0  0
  3  4  1  0  0  0  0
  3 26  1  0  0  0  0
  4 19  2  0  0  0  0
  4  5  1  0  0  0  0
  5  6  2  0  0  0  0
  6  7  1  0  0  0  0
  6 27  1  0  0  0  0
  7  8  1  0  0  0  0
  7 19  1  0  0  0  0
  8  9  1  0  0  0  0
  8 28  1  0  0  0  0
  8 29  1  0  0  0  0
  9 10  1  0  0  0  0
  9 11  1  0  0  0  0
  9 30  1  0  0  0  0
 10 31  1  0  0  0  0
 11 12  1  0  0  0  0
 11 32  1  0  0  0  0
 11 33  1  0  0  0  0
 12 13  1  0  0  0  0
 13 17  1  0  0  0  0
 13 14  2  0  0  0  0
 14 15  1  0  0  0  0
 15 16  2  0  0  0  0
 15 34  1  0  0  0  0
 16 17  1  0  0  0  0
 16 35  1  0  0  0  0
 17 18  1  0  0  0  0
 18 36  1  0  0  0  0
 18 37  1  0  0  0  0
 18 38  1  0  0  0  0
 19 20  1  0  0  0  0
 20 21  2  0  0  0  0
 20 39  1  0  0  0  0
 21 22  1  0  0  0  0
 22 40  1  0  0  0  0
 22 41  1  0  0  0  0
 22 42  1  0  0  0  0
M  END
> <s_m_source_file>
AV-unprocessed.smi

> <i_m_source_file_index>
609

> <i_lp_mmshare_version>
43012

> <i_f3d_flags>
0

> <s_epik_input>
W0NIM11jKFtjSF0xKWMoW0NIM10pW2NIXWMoYzEyKW4oW2NIXW4yKVtDSDJdW0NASF0oW09IXSlbQ0gyXVNjM25bY0hdW2NIXW4zW0NIM10=

> <s_epik_cmdline>
J2VwaWtfcHl0aG9uJywgJy1waCcsICc3LjAnLCAnLXRuJywgJzgnLCAnLW1hJywgJzIwMCcsICctbWV0YWxfYmluZGluZycsICctaW1hZScsICc8aW5maWxlLm1hZT4nLCAnLW9tYWUnLCAnPG91dGZpbGUubWFlPic=

> <r_lp_tautomer_probability>
1

> <r_epik_Ionization_Penalty>
1.15618

> <r_epik_Ionization_Penalty_Charging>
1.04908

> <r_epik_Ionization_Penalty_Neutral>
0.107097

> <r_epik_State_Penalty>
1.19446

> <r_epik_Charging_Adjusted_Penalty>
2.24354

> <i_epik_Tot_Q>
0

> <i_epik_Tot_abs_Q>
0

> <r_epik_Metal_State_Penalty>
0.487262

> <b_epik_Metal_Only>
0

> <s_lp_Force_Field>
OPLS_2005

> <r_lp_Energy>
7.62781

> <b_lp_Chiralities_Consistent>
1

> <s_lp_Variant>
AV-unprocessed.smi:609-4

> <Gold.Version>
5.8.1

> <Gold.Id.Protein>
6NUR|6NUR_protein|mol2

> <Gold.PLP.Fitness>
48.5066

> <Gold.PLP.PLP>
-40.5967

> <Gold.PLP.part.hbond>
-2.0000

> <Gold.PLP.part.metal>
0.0000

> <Gold.PLP.part.buried>
-3.8253

> <Gold.PLP.part.nonpolar>
-34.4304

> <Gold.PLP.part.repulsive>
0.0000

> <Gold.PLP.ligand.clash>
0.0000

> <Gold.PLP.ligand.torsion>
0.4359

> <Gold.PLP.Chemscore.Hbond>
1.9750

> <Gold.PLP.Chemscore.CHOScore>
0.9294

> <Gold.PLP.Chemscore.Metal>
0.0000

> <Gold.Chemscore.Hbonds>
donor molecule, donor type, donor heavy atom, donor atom, acceptor molecule, acceptor atom, score
      L1  H    10    31       P1  7957  1.00
      P1  H  7997  8009       L1     5  0.99
      L1  C    16    35       P1 10174  0.90

> <Gold.PLP.Chemscore.Internal.Correction>
0.0686

> <Gold.Rescore>
     Score         DG    S(hbond)    S(metal)    S(lipo)     H(rot)  DE(clash)    DE(int)     intcor
     15.90     -16.72       1.71        0.00      99.86       2.41       0.31       0.50       ----

> <Gold.Chemscore.Fitness>
15.9041

> <Gold.Chemscore.DG>
-16.7156

> <Gold.Chemscore.ZeroCoef>
-5.4800

> <Gold.Chemscore.Hbond>
1.7111

> <Gold.Chemscore.Metal>
0.0000

> <Gold.Chemscore.Lipo>
99.8603

> <Gold.Chemscore.Internal_Hbond>
0.0000

> <Gold.Chemscore.DEClash>
0.3088

> <Gold.Chemscore.DEInternal>
0.5027

> <Gold.Chemscore.Rot>
2.4074

> <Gold.Chemscore.Internal.Correction>
   9.000000E+99

> <Gold.Chemscore.Hbonds>
donor molecule, donor type, donor heavy atom, donor atom, acceptor molecule, acceptor atom, score
      L1  H    10    31       P1  7957  0.95
      P1  H  7997  8009       L1     5  0.30

> <Gold.Chemscore.Hbond.Weighted>
-5.7150

> <Gold.Chemscore.Metal.Weighted>
-0.0000

> <Gold.Chemscore.Lipo.Weighted>
-11.6837

> <Gold.Chemscore.Internal_Hbond.Weighted>
0.0000

> <Gold.Chemscore.DEClash.Weighted>
0.3088

> <Gold.Chemscore.DEInternal.Weighted>
0.5027

> <Gold.Chemscore.Rot.Weighted>
6.1630

> <Gold.Chemscore.Internal.Correction.Weighted>
   9.000000E+99

> <Gold.Protein.RotatedTorsions>
[ 6907 6896 6895 6894 ] final   79.18 input  -60.11 | X-H torsion
[ 7974 7965 7964 7962 ] final  -68.29 input  175.53 | X-H torsion
[ 8008 7997 7996 7995 ] final -170.07 input   59.86 | X-H torsion
[ 10167 10162 10161 10158 ] final   26.41 input  -65.29 | X-H torsion
[ 10718 10713 10712 10709 ] final -118.36 input   66.30 | X-H torsion
[ 10763 10752 10751 10750 ] final  103.87 input  -60.55 | X-H torsion
[ 11005 11000 10999 10996 ] final  140.50 input  -57.11 | X-H torsion

> <Gold.Protein.ActiveResidues>
 VAL166  LYS551  ARG553  GLY616  TRP617  ASP618  TYR619  PRO620  LYS621  CYS622 
 ASP623  PHE694  ASN695  SER759  ASP760  ASP761  ALA762  ILE779  LEU786  VAL792 
 PHE793  MET794  SER795  GLU796  ALA797  LYS798  CYS799  TRP800  GLU811  SER814 

> <Gold.Protein.RotatedAtoms>
  152.5188  134.3551  159.9264 H   0  0  0  0  0  0  0  0  0  0  0  0  # atno 6907 bound_to 6896
  151.3502  133.3922  159.2687 H   0  0  0  0  0  0  0  0  0  0  0  0  # atno 6908 bound_to 6896
  150.9733  134.9120  159.7859 H   0  0  0  0  0  0  0  0  0  0  0  0  # atno 6909 bound_to 6896
  145.7184  140.9049  143.0643 H   0  0  0  0  0  0  0  0  0  0  0  0  # atno 7974 bound_to 7965
  155.9134  140.1061  157.1262 H   0  0  0  0  0  0  0  0  0  0  0  0  # atno 8008 bound_to 7997
  154.4043  140.1270  156.4651 H   0  0  0  0  0  0  0  0  0  0  0  0  # atno 8009 bound_to 7997
  155.7283  140.3469  155.5050 H   0  0  0  0  0  0  0  0  0  0  0  0  # atno 8010 bound_to 7997
  140.5025  144.0292  150.6338 H   0  0  0  0  0  0  0  0  0  0  0  0  # atno 10167 bound_to 10162
  156.1100  130.6241  150.9281 H   0  0  0  0  0  0  0  0  0  0  0  0  # atno 10718 bound_to 10713
  153.3584  135.3962  155.1700 H   0  0  0  0  0  0  0  0  0  0  0  0  # atno 10763 bound_to 10752
  154.8675  135.3673  154.5131 H   0  0  0  0  0  0  0  0  0  0  0  0  # atno 10764 bound_to 10752
  153.5588  135.7081  153.5617 H   0  0  0  0  0  0  0  0  0  0  0  0  # atno 10765 bound_to 10752
  140.0332  134.9342  157.0702 H   0  0  0  0  0  0  0  0  0  0  0  0  # atno 11005 bound_to 11000
  144.6923  139.9169  143.7466 LP  0  0  0  0  0  0  0  0  0  0  0  0  # atno 17320 bound_to 7965
  146.0648  139.3640  143.0559 LP  0  0  0  0  0  0  0  0  0  0  0  0  # atno 17321 bound_to 7965
  140.3592  143.2918  152.0402 LP  0  0  0  0  0  0  0  0  0  0  0  0  # atno 17342 bound_to 10162
  139.4875  144.6315  151.7059 LP  0  0  0  0  0  0  0  0  0  0  0  0  # atno 17343 bound_to 10162
  157.6281  131.0924  150.8495 LP  0  0  0  0  0  0  0  0  0  0  0  0  # atno 17370 bound_to 10713
  156.8607  130.5112  149.5304 LP  0  0  0  0  0  0  0  0  0  0  0  0  # atno 17371 bound_to 10713
  140.4191  134.1899  155.7164 LP  0  0  0  0  0  0  0  0  0  0  0  0  # atno 17394 bound_to 11000
  141.1842  133.8348  157.1146 LP  0  0  0  0  0  0  0  0  0  0  0  0  # atno 17395 bound_to 11000

$$$$
