AV-unprocessed.smi:1621|AV-procd|sdf|6493|dock2
  -GOLD-   22720 7153D 1   1.00000     0.00000
 Structure written by MMmdl.
 39 40  0  0  0  0  0  0  0  0  2 V2000
  150.9598  141.3414  155.8936 C   0  0  0  0  0  0  0  0  0  0  0  0
  149.7562  140.6869  155.3373 N   0  3  2  0  0  0  0  0  0  0  0  0
  150.0755  139.4151  154.6431 C   0  0  0  0  0  0  0  0  0  0  0  0
  148.7955  138.6995  154.1800 C   0  0  0  0  0  0  0  0  0  0  0  0
  147.9393  139.6092  153.2762 C   0  0  1  0  0  0  0  0  0  0  0  0
  146.6275  138.9353  152.8203 C   0  0  0  0  0  0  0  0  0  0  0  0
  146.8405  137.5982  152.2743 N   0  0  0  0  0  0  0  0  0  0  0  0
  145.8701  136.7145  151.9984 C   0  0  0  0  0  0  0  0  0  0  0  0
  144.6751  136.9503  152.1730 O   0  0  0  0  0  0  0  0  0  0  0  0
  146.3831  135.5647  151.5254 N   0  0  0  0  0  0  0  0  0  0  0  0
  145.7154  134.3715  151.1314 C   0  0  0  0  0  0  0  0  0  0  0  0
  146.5167  133.2535  150.8187 C   0  0  0  0  0  0  0  0  0  0  0  0
  145.8905  132.0571  150.4159 C   0  0  0  0  0  0  0  0  0  0  0  0
  144.5527  131.9216  150.3050 N   0  0  0  0  0  0  0  0  0  0  0  0
  143.7868  132.9946  150.5942 C   0  0  0  0  0  0  0  0  0  0  0  0
  144.3110  134.2365  151.0059 C   0  0  0  0  0  0  0  0  0  0  0  0
  147.6574  140.9282  154.0178 C   0  0  0  0  0  0  0  0  0  0  0  0
  148.9599  141.6012  154.4823 C   0  0  0  0  0  0  0  0  0  0  0  0
  151.6496  141.6316  155.1003 H   0  0  0  0  0  0  0  0  0  0  0  0
  151.4835  140.6692  156.5741 H   0  0  0  0  0  0  0  0  0  0  0  0
  150.6874  142.2355  156.4553 H   0  0  0  0  0  0  0  0  0  0  0  0
  150.7230  139.6172  153.7882 H   0  0  0  0  0  0  0  0  0  0  0  0
  150.6329  138.7622  155.3161 H   0  0  0  0  0  0  0  0  0  0  0  0
  149.0684  137.7855  153.6518 H   0  0  0  0  0  0  0  0  0  0  0  0
  148.2148  138.3912  155.0508 H   0  0  0  0  0  0  0  0  0  0  0  0
  148.5240  139.8493  152.3867 H   0  0  0  0  0  0  0  0  0  0  0  0
  145.9401  138.8487  153.6623 H   0  0  0  0  0  0  0  0  0  0  0  0
  146.1218  139.5545  152.0774 H   0  0  0  0  0  0  0  0  0  0  0  0
  147.7971  137.3227  152.1063 H   0  0  0  0  0  0  0  0  0  0  0  0
  147.3906  135.5194  151.4853 H   0  0  0  0  0  0  0  0  0  0  0  0
  147.5935  133.3049  150.8880 H   0  0  0  0  0  0  0  0  0  0  0  0
  146.4814  131.1858  150.1746 H   0  0  0  0  0  0  0  0  0  0  0  0
  142.7202  132.8612  150.4896 H   0  0  0  0  0  0  0  0  0  0  0  0
  143.6284  135.0473  151.2036 H   0  0  0  0  0  0  0  0  0  0  0  0
  147.1059  141.6106  153.3699 H   0  0  0  0  0  0  0  0  0  0  0  0
  147.0174  140.7390  154.8809 H   0  0  0  0  0  0  0  0  0  0  0  0
  148.7213  142.5074  155.0406 H   0  0  0  0  0  0  0  0  0  0  0  0
  149.5539  141.9070  153.6195 H   0  0  0  0  0  0  0  0  0  0  0  0
  149.1708  140.4466  156.1247 H   0  0  0  0  0  0  0  0  0  0  0  0
  1  2  1  0  0  0  0
  1 19  1  0  0  0  0
  1 20  1  0  0  0  0
  1 21  1  0  0  0  0
  2 18  1  0  0  0  0
  2  3  1  0  0  0  0
  2 39  1  0  0  0  0
  3  4  1  0  0  0  0
  3 22  1  0  0  0  0
  3 23  1  0  0  0  0
  4  5  1  0  0  0  0
  4 24  1  0  0  0  0
  4 25  1  0  0  0  0
  5  6  1  0  0  0  0
  5 17  1  0  0  0  0
  5 26  1  0  0  0  0
  6  7  1  0  0  0  0
  6 27  1  0  0  0  0
  6 28  1  0  0  0  0
  7  8  1  0  0  0  0
  7 29  1  0  0  0  0
  8  9  2  0  0  0  0
  8 10  1  0  0  0  0
 10 11  1  0  0  0  0
 10 30  1  0  0  0  0
 11 16  1  0  0  0  0
 11 12  2  0  0  0  0
 12 13  1  0  0  0  0
 12 31  1  0  0  0  0
 13 14  2  0  0  0  0
 13 32  1  0  0  0  0
 14 15  1  0  0  0  0
 15 16  2  0  0  0  0
 15 33  1  0  0  0  0
 16 34  1  0  0  0  0
 17 18  1  0  0  0  0
 17 35  1  0  0  0  0
 17 36  1  0  0  0  0
 18 37  1  0  0  0  0
 18 38  1  0  0  0  0
M  CHG  1   2   1
M  END
> <s_m_source_file>
AV-unprocessed.smi

> <i_m_source_file_index>
1621

> <i_lp_mmshare_version>
43012

> <i_f3d_flags>
0

> <s_epik_input>
W0NIM11OMVtDSDJdW0NIMl1bQ0hdKFtDSDJdW0NIMl0xKVtDSDJdW05IXUMoPU8pW05IXWMyW2NIXVtjSF1uW2NIXVtjSF0y

> <s_epik_cmdline>
J2VwaWtfcHl0aG9uJywgJy1waCcsICc3LjAnLCAnLXRuJywgJzgnLCAnLW1hJywgJzIwMCcsICctbWV0YWxfYmluZGluZycsICctaW1hZScsICc8aW5maWxlLm1hZT4nLCAnLW9tYWUnLCAnPG91dGZpbGUubWFlPic=

> <r_epik_Ionization_Penalty>
0.107254

> <r_epik_Ionization_Penalty_Charging>
0.00106265

> <r_epik_Ionization_Penalty_Neutral>
0.106191

> <r_epik_State_Penalty>
0.0960133

> <r_epik_Charging_Adjusted_Penalty>
0.0970759

> <i_epik_Tot_Q>
1

> <i_epik_Tot_abs_Q>
1

> <r_epik_Metal_State_Penalty>
0.0813061

> <b_epik_Metal_Only>
0

> <s_lp_Force_Field>
OPLS_2005

> <r_lp_Energy>
22.3351

> <b_lp_Chiralities_Consistent>
1

> <s_lp_Variant>
AV-unprocessed.smi:1621-1

> <Gold.Version>
5.8.1

> <Gold.Id.Protein>
6NUR|6NUR_protein|mol2

> <Gold.PLP.Fitness>
44.3598

> <Gold.PLP.PLP>
-32.5849

> <Gold.PLP.part.hbond>
-2.0000

> <Gold.PLP.part.metal>
0.0000

> <Gold.PLP.part.buried>
-1.4733

> <Gold.PLP.part.nonpolar>
-29.8098

> <Gold.PLP.part.repulsive>
1.4927

> <Gold.PLP.ligand.clash>
0.0000

> <Gold.PLP.ligand.torsion>
0.1122

> <Gold.PLP.Chemscore.Hbond>
2.0000

> <Gold.PLP.Chemscore.CHOScore>
1.9986

> <Gold.PLP.Chemscore.Metal>
0.0000

> <Gold.Chemscore.Hbonds>
donor molecule, donor type, donor heavy atom, donor atom, acceptor molecule, acceptor atom, score
      L1  H     7    29       P1  7948  1.00
      L1  H    10    30       P1  7948  1.00
      L1  C    13    32       P1 10747  1.00
      L1  C    15    33       P1 10186  1.00

> <Gold.PLP.Chemscore.Internal.Correction>
0.0036

> <Gold.Rescore>
     Score         DG    S(hbond)    S(metal)    S(lipo)     H(rot)  DE(clash)    DE(int)     intcor
     16.67     -18.25       1.95        0.00      80.81       1.25       0.41       1.17       ----

> <Gold.Chemscore.Fitness>
16.6718

> <Gold.Chemscore.DG>
-18.2490

> <Gold.Chemscore.ZeroCoef>
-5.4800

> <Gold.Chemscore.Hbond>
1.9491

> <Gold.Chemscore.Metal>
0.0000

> <Gold.Chemscore.Lipo>
80.8082

> <Gold.Chemscore.Internal_Hbond>
0.0000

> <Gold.Chemscore.DEClash>
0.4094

> <Gold.Chemscore.DEInternal>
1.1678

> <Gold.Chemscore.Rot>
1.2482

> <Gold.Chemscore.Internal.Correction>
   9.000000E+99

> <Gold.Chemscore.Hbonds>
donor molecule, donor type, donor heavy atom, donor atom, acceptor molecule, acceptor atom, score
      L1  H     7    29       P1  7948  0.95
      L1  H    10    30       P1  7948  0.90

> <Gold.Chemscore.Hbond.Weighted>
-6.5099

> <Gold.Chemscore.Metal.Weighted>
-0.0000

> <Gold.Chemscore.Lipo.Weighted>
-9.4546

> <Gold.Chemscore.Internal_Hbond.Weighted>
0.0000

> <Gold.Chemscore.DEClash.Weighted>
0.4094

> <Gold.Chemscore.DEInternal.Weighted>
1.1678

> <Gold.Chemscore.Rot.Weighted>
3.1954

> <Gold.Chemscore.Internal.Correction.Weighted>
   9.000000E+99

> <Gold.Protein.RotatedTorsions>
[ 6907 6896 6895 6894 ] final  165.79 input  -60.11 | X-H torsion
[ 7974 7965 7964 7962 ] final  116.16 input  175.53 | X-H torsion
[ 8008 7997 7996 7995 ] final  165.88 input   59.86 | X-H torsion
[ 10167 10162 10161 10158 ] final   42.33 input  -65.29 | X-H torsion
[ 10718 10713 10712 10709 ] final -113.96 input   66.30 | X-H torsion
[ 10763 10752 10751 10750 ] final   25.72 input  -60.55 | X-H torsion
[ 11005 11000 10999 10996 ] final  -70.31 input  -57.11 | X-H torsion

> <Gold.Protein.ActiveResidues>
 VAL166  LYS551  ARG553  GLY616  TRP617  ASP618  TYR619  PRO620  LYS621  CYS622 
 ASP623  PHE694  ASN695  SER759  ASP760  ASP761  ALA762  ILE779  LEU786  VAL792 
 PHE793  MET794  SER795  GLU796  ALA797  LYS798  CYS799  TRP800  GLU811  SER814 

> <Gold.Protein.RotatedAtoms>
  151.8890  133.3512  159.3791 H   0  0  0  0  0  0  0  0  0  0  0  0  # atno 6907 bound_to 6896
  150.7108  134.4943  159.5540 H   0  0  0  0  0  0  0  0  0  0  0  0  # atno 6908 bound_to 6896
  152.2509  134.8134  160.0497 H   0  0  0  0  0  0  0  0  0  0  0  0  # atno 6909 bound_to 6896
  145.1830  139.3040  143.4408 H   0  0  0  0  0  0  0  0  0  0  0  0  # atno 7974 bound_to 7965
  156.1764  140.1658  156.8355 H   0  0  0  0  0  0  0  0  0  0  0  0  # atno 8008 bound_to 7997
  154.5312  140.0756  156.8381 H   0  0  0  0  0  0  0  0  0  0  0  0  # atno 8009 bound_to 7997
  155.3404  140.3384  155.4241 H   0  0  0  0  0  0  0  0  0  0  0  0  # atno 8010 bound_to 7997
  140.3555  144.2296  150.6142 H   0  0  0  0  0  0  0  0  0  0  0  0  # atno 10167 bound_to 10162
  156.0799  130.6001  150.8711 H   0  0  0  0  0  0  0  0  0  0  0  0  # atno 10718 bound_to 10713
  153.0672  135.6576  154.0328 H   0  0  0  0  0  0  0  0  0  0  0  0  # atno 10763 bound_to 10752
  153.9982  135.2939  155.3407 H   0  0  0  0  0  0  0  0  0  0  0  0  # atno 10764 bound_to 10752
  154.7034  135.5235  153.8628 H   0  0  0  0  0  0  0  0  0  0  0  0  # atno 10765 bound_to 10752
  141.1571  133.6786  156.6733 H   0  0  0  0  0  0  0  0  0  0  0  0  # atno 11005 bound_to 11000
  146.3450  140.2016  142.8589 LP  0  0  0  0  0  0  0  0  0  0  0  0  # atno 17320 bound_to 7965
  145.0117  140.8719  143.5220 LP  0  0  0  0  0  0  0  0  0  0  0  0  # atno 17321 bound_to 7965
  140.5178  143.2273  151.8436 LP  0  0  0  0  0  0  0  0  0  0  0  0  # atno 17342 bound_to 10162
  139.4821  144.4873  151.9230 LP  0  0  0  0  0  0  0  0  0  0  0  0  # atno 17343 bound_to 10162
  157.5911  131.0944  150.9116 LP  0  0  0  0  0  0  0  0  0  0  0  0  # atno 17370 bound_to 10713
  156.9292  130.5343  149.5279 LP  0  0  0  0  0  0  0  0  0  0  0  0  # atno 17371 bound_to 10713
  140.3158  134.8048  157.4213 LP  0  0  0  0  0  0  0  0  0  0  0  0  # atno 17394 bound_to 11000
  140.1139  134.5309  155.8242 LP  0  0  0  0  0  0  0  0  0  0  0  0  # atno 17395 bound_to 11000

$$$$
