AV-unprocessed.smi:811|AV-procd|sdf|3814|dock5
  -GOLD-   22720 1253D 1   1.00000     0.00000
 Structure written by MMmdl.
 46 48  0  0  0  0  0  0  0  0  2 V2000
  142.5850  136.7865  153.2606 C   0  0  0  0  0  0  0  0  0  0  0  0
  143.6346  137.1414  152.2833 N   0  3  2  0  0  0  0  0  0  0  0  0
  144.1067  136.0133  151.4465 C   0  0  0  0  0  0  0  0  0  0  0  0
  145.6138  136.2267  151.2237 C   0  0  0  0  0  0  0  0  0  0  0  0
  145.8910  137.6247  151.7835 C   0  0  2  0  0  0  0  0  0  0  0  0
  147.2403  137.8061  152.3083 N   0  0  0  0  0  0  0  0  0  0  0  0
  147.5847  138.7331  153.2130 C   0  0  0  0  0  0  0  0  0  0  0  0
  146.7809  139.5262  153.7013 O   0  0  0  0  0  0  0  0  0  0  0  0
  148.8948  138.6634  153.5063 N   0  0  0  0  0  0  0  0  0  0  0  0
  149.6595  139.4616  154.4017 C   0  0  0  0  0  0  0  0  0  0  0  0
  150.9822  139.1759  154.8137 C   0  0  0  0  0  0  0  0  0  0  0  0
  151.6215  140.0495  155.7142 C   0  0  0  0  0  0  0  0  0  0  0  0
  150.9262  141.1847  156.1941 C   0  0  0  0  0  0  0  0  0  0  0  0
  151.5481  142.0770  157.0961 N   0  0  0  0  0  0  0  0  0  0  0  0
  151.8862  141.5344  158.4102 C   0  0  0  0  0  0  0  0  0  0  0  0
  152.8322  142.4899  159.1581 C   0  0  0  0  0  0  0  0  0  0  0  0
  152.2504  143.7869  159.2302 O   0  0  0  0  0  0  0  0  0  0  0  0
  152.0369  144.3419  157.9370 C   0  0  0  0  0  0  0  0  0  0  0  0
  151.0608  143.4548  157.1463 C   0  0  0  0  0  0  0  0  0  0  0  0
  149.6572  141.4523  155.7996 N   0  0  0  0  0  0  0  0  0  0  0  0
  149.0485  140.6132  154.9362 C   0  0  0  0  0  0  0  0  0  0  0  0
  144.8323  137.7649  152.8729 C   0  0  0  0  0  0  0  0  0  0  0  0
  142.9489  136.0523  153.9805 H   0  0  0  0  0  0  0  0  0  0  0  0
  141.7172  136.3668  152.7509 H   0  0  0  0  0  0  0  0  0  0  0  0
  142.2601  137.6717  153.8081 H   0  0  0  0  0  0  0  0  0  0  0  0
  143.9331  135.0532  151.9352 H   0  0  0  0  0  0  0  0  0  0  0  0
  143.5581  136.0093  150.5041 H   0  0  0  0  0  0  0  0  0  0  0  0
  146.1744  135.4752  151.7819 H   0  0  0  0  0  0  0  0  0  0  0  0
  145.8980  136.1386  150.1746 H   0  0  0  0  0  0  0  0  0  0  0  0
  145.6935  138.3695  151.0093 H   0  0  0  0  0  0  0  0  0  0  0  0
  147.9587  137.1884  151.9594 H   0  0  0  0  0  0  0  0  0  0  0  0
  149.4085  137.9213  153.0542 H   0  0  0  0  0  0  0  0  0  0  0  0
  151.5233  138.3097  154.4687 H   0  0  0  0  0  0  0  0  0  0  0  0
  152.6384  139.8430  156.0112 H   0  0  0  0  0  0  0  0  0  0  0  0
  150.9666  141.3985  158.9807 H   0  0  0  0  0  0  0  0  0  0  0  0
  152.3605  140.5572  158.3384 H   0  0  0  0  0  0  0  0  0  0  0  0
  153.0108  142.1250  160.1696 H   0  0  0  0  0  0  0  0  0  0  0  0
  153.8033  142.5419  158.6632 H   0  0  0  0  0  0  0  0  0  0  0  0
  151.6272  145.3463  158.0445 H   0  0  0  0  0  0  0  0  0  0  0  0
  152.9874  144.4404  157.4098 H   0  0  0  0  0  0  0  0  0  0  0  0
  150.9492  143.8561  156.1384 H   0  0  0  0  0  0  0  0  0  0  0  0
  150.0762  143.4719  157.6158 H   0  0  0  0  0  0  0  0  0  0  0  0
  148.0373  140.8753  154.6604 H   0  0  0  0  0  0  0  0  0  0  0  0
  144.6488  138.8038  153.1494 H   0  0  0  0  0  0  0  0  0  0  0  0
  145.1306  137.2190  153.7703 H   0  0  0  0  0  0  0  0  0  0  0  0
  143.2435  137.8227  151.6482 H   0  0  0  0  0  0  0  0  0  0  0  0
  1  2  1  0  0  0  0
  1 23  1  0  0  0  0
  1 24  1  0  0  0  0
  1 25  1  0  0  0  0
  2 22  1  0  0  0  0
  2  3  1  0  0  0  0
  2 46  1  0  0  0  0
  3  4  1  0  0  0  0
  3 26  1  0  0  0  0
  3 27  1  0  0  0  0
  4  5  1  0  0  0  0
  4 28  1  0  0  0  0
  4 29  1  0  0  0  0
  5  6  1  0  0  0  0
  5 22  1  0  0  0  0
  5 30  1  0  0  0  0
  6  7  1  0  0  0  0
  6 31  1  0  0  0  0
  7  8  2  0  0  0  0
  7  9  1  0  0  0  0
  9 10  1  0  0  0  0
  9 32  1  0  0  0  0
 10 21  1  0  0  0  0
 10 11  2  0  0  0  0
 11 12  1  0  0  0  0
 11 33  1  0  0  0  0
 12 13  2  0  0  0  0
 12 34  1  0  0  0  0
 13 14  1  0  0  0  0
 13 20  1  0  0  0  0
 14 19  1  0  0  0  0
 14 15  1  0  0  0  0
 15 16  1  0  0  0  0
 15 35  1  0  0  0  0
 15 36  1  0  0  0  0
 16 17  1  0  0  0  0
 16 37  1  0  0  0  0
 16 38  1  0  0  0  0
 17 18  1  0  0  0  0
 18 19  1  0  0  0  0
 18 39  1  0  0  0  0
 18 40  1  0  0  0  0
 19 41  1  0  0  0  0
 19 42  1  0  0  0  0
 20 21  2  0  0  0  0
 21 43  1  0  0  0  0
 22 44  1  0  0  0  0
 22 45  1  0  0  0  0
M  CHG  1   2   1
M  END
> <s_m_source_file>
AV-unprocessed.smi

> <i_m_source_file_index>
811

> <i_lp_mmshare_version>
43012

> <i_f3d_flags>
0

> <s_epik_input>
W0NIM11OMVtDSDJdW0NIMl1bQ0BIXShbQ0gyXTEpW05IXUMoPU8pW05IXWMyW2NIXVtjSF1jKG5bY0hdMilOM1tDSDJdW0NIMl1PW0NIMl1bQ0gyXTM=

> <s_epik_cmdline>
J2VwaWtfcHl0aG9uJywgJy1waCcsICc3LjAnLCAnLXRuJywgJzgnLCAnLW1hJywgJzIwMCcsICctbWV0YWxfYmluZGluZycsICctaW1hZScsICc8aW5maWxlLm1hZT4nLCAnLW9tYWUnLCAnPG91dGZpbGUubWFlPic=

> <r_lp_tautomer_probability>
1

> <r_epik_Ionization_Penalty>
0.00503422

> <r_epik_Ionization_Penalty_Charging>
0.00366104

> <r_epik_Ionization_Penalty_Neutral>
0.00137318

> <r_epik_State_Penalty>
-0

> <r_epik_Charging_Adjusted_Penalty>
0.00366104

> <i_epik_Tot_Q>
1

> <i_epik_Tot_abs_Q>
1

> <r_epik_Metal_State_Penalty>
-0

> <b_epik_Metal_Only>
0

> <s_lp_Force_Field>
OPLS_2005

> <r_lp_Energy>
43.0214

> <b_lp_Chiralities_Consistent>
1

> <s_lp_Variant>
AV-unprocessed.smi:811-4

> <Gold.Version>
5.8.1

> <Gold.Id.Protein>
6NUR|6NUR_protein|mol2

> <Gold.PLP.Fitness>
43.2333

> <Gold.PLP.PLP>
-38.5935

> <Gold.PLP.part.hbond>
-3.5497

> <Gold.PLP.part.metal>
0.0000

> <Gold.PLP.part.buried>
4.7795

> <Gold.PLP.part.nonpolar>
-39.5706

> <Gold.PLP.part.repulsive>
0.4919

> <Gold.PLP.ligand.clash>
0.0000

> <Gold.PLP.ligand.torsion>
0.6852

> <Gold.PLP.Chemscore.Hbond>
1.8789

> <Gold.PLP.Chemscore.CHOScore>
0.0000

> <Gold.PLP.Chemscore.Metal>
0.0000

> <Gold.Chemscore.Hbonds>
donor molecule, donor type, donor heavy atom, donor atom, acceptor molecule, acceptor atom, score
      L1  H     2    46       P1 10171  0.63
      L1  H     6    31       P1  7948  0.57
      L1  H     9    32       P1  7948  0.67

> <Gold.PLP.Chemscore.Internal.Correction>
0.3736

> <Gold.Rescore>
     Score         DG    S(hbond)    S(metal)    S(lipo)     H(rot)  DE(clash)    DE(int)     intcor
     14.06     -17.85       1.26        0.00      96.61       1.23       0.33       3.46       ----

> <Gold.Chemscore.Fitness>
14.0609

> <Gold.Chemscore.DG>
-17.8512

> <Gold.Chemscore.ZeroCoef>
-5.4800

> <Gold.Chemscore.Hbond>
1.2620

> <Gold.Chemscore.Metal>
0.0000

> <Gold.Chemscore.Lipo>
96.6122

> <Gold.Chemscore.Internal_Hbond>
0.0000

> <Gold.Chemscore.DEClash>
0.3299

> <Gold.Chemscore.DEInternal>
3.4605

> <Gold.Chemscore.Rot>
1.2295

> <Gold.Chemscore.Internal.Correction>
   9.000000E+99

> <Gold.Chemscore.Hbonds>
donor molecule, donor type, donor heavy atom, donor atom, acceptor molecule, acceptor atom, score
      L1  H     2    46       P1 10171  0.46
      L1  H     6    31       P1  7948  0.58
      L1  H     9    32       P1  7948  0.60

> <Gold.Chemscore.Hbond.Weighted>
-4.2150

> <Gold.Chemscore.Metal.Weighted>
-0.0000

> <Gold.Chemscore.Lipo.Weighted>
-11.3036

> <Gold.Chemscore.Internal_Hbond.Weighted>
0.0000

> <Gold.Chemscore.DEClash.Weighted>
0.3299

> <Gold.Chemscore.DEInternal.Weighted>
3.4605

> <Gold.Chemscore.Rot.Weighted>
3.1474

> <Gold.Chemscore.Internal.Correction.Weighted>
   9.000000E+99

> <Gold.Protein.RotatedTorsions>
[ 6907 6896 6895 6894 ] final   62.07 input  -60.11 | X-H torsion
[ 7974 7965 7964 7962 ] final -113.70 input  175.53 | X-H torsion
[ 8008 7997 7996 7995 ] final   35.77 input   59.86 | X-H torsion
[ 10167 10162 10161 10158 ] final   79.42 input  -65.29 | X-H torsion
[ 10718 10713 10712 10709 ] final  177.13 input   66.30 | X-H torsion
[ 10763 10752 10751 10750 ] final   77.28 input  -60.55 | X-H torsion
[ 11005 11000 10999 10996 ] final -135.85 input  -57.11 | X-H torsion

> <Gold.Protein.ActiveResidues>
 VAL166  LYS551  ARG553  GLY616  TRP617  ASP618  TYR619  PRO620  LYS621  CYS622 
 ASP623  PHE694  ASN695  SER759  ASP760  ASP761  ALA762  ILE779  LEU786  VAL792 
 PHE793  MET794  SER795  GLU796  ALA797  LYS798  CYS799  TRP800  GLU811  SER814 

> <Gold.Protein.RotatedAtoms>
  152.4141  134.6072  160.0015 H   0  0  0  0  0  0  0  0  0  0  0  0  # atno 6907 bound_to 6896
  151.6240  133.3331  159.3102 H   0  0  0  0  0  0  0  0  0  0  0  0  # atno 6908 bound_to 6896
  150.8031  134.7177  159.6685 H   0  0  0  0  0  0  0  0  0  0  0  0  # atno 6909 bound_to 6896
  145.1289  140.8713  143.3769 H   0  0  0  0  0  0  0  0  0  0  0  0  # atno 7974 bound_to 7965
  155.1764  140.3296  155.4383 H   0  0  0  0  0  0  0  0  0  0  0  0  # atno 8008 bound_to 7997
  156.2492  140.1934  156.6815 H   0  0  0  0  0  0  0  0  0  0  0  0  # atno 8009 bound_to 7997
  154.6301  140.0583  156.9708 H   0  0  0  0  0  0  0  0  0  0  0  0  # atno 8010 bound_to 7997
  139.9605  144.5964  150.8076 H   0  0  0  0  0  0  0  0  0  0  0  0  # atno 10167 bound_to 10162
  156.9099  130.9906  151.3022 H   0  0  0  0  0  0  0  0  0  0  0  0  # atno 10718 bound_to 10713
  153.0787  135.4920  154.8458 H   0  0  0  0  0  0  0  0  0  0  0  0  # atno 10763 bound_to 10752
  154.7122  135.3022  154.9181 H   0  0  0  0  0  0  0  0  0  0  0  0  # atno 10764 bound_to 10752
  153.9872  135.6782  153.4805 H   0  0  0  0  0  0  0  0  0  0  0  0  # atno 10765 bound_to 10752
  140.8859  134.1872  157.4560 H   0  0  0  0  0  0  0  0  0  0  0  0  # atno 11005 bound_to 11000
  145.0657  139.3070  143.5857 LP  0  0  0  0  0  0  0  0  0  0  0  0  # atno 17320 bound_to 7965
  146.3515  140.0114  142.8667 LP  0  0  0  0  0  0  0  0  0  0  0  0  # atno 17321 bound_to 7965
  140.7554  143.3046  151.2993 LP  0  0  0  0  0  0  0  0  0  0  0  0  # atno 17342 bound_to 10162
  139.6558  144.0280  152.2658 LP  0  0  0  0  0  0  0  0  0  0  0  0  # atno 17343 bound_to 10162
  157.5974  130.8487  149.8749 LP  0  0  0  0  0  0  0  0  0  0  0  0  # atno 17370 bound_to 10713
  156.0541  130.3712  150.1133 LP  0  0  0  0  0  0  0  0  0  0  0  0  # atno 17371 bound_to 10713
  139.8724  134.9838  156.5212 LP  0  0  0  0  0  0  0  0  0  0  0  0  # atno 17394 bound_to 11000
  140.8405  133.8209  155.9070 LP  0  0  0  0  0  0  0  0  0  0  0  0  # atno 17395 bound_to 11000

$$$$
