AV-unprocessed.smi:3315|AV-procd|sdf|12752|dock2
  -GOLD-   2272019 93D 1   1.00000     0.00000
 Structure written by MMmdl.
 37 38  0  0  0  0  0  0  0  0  1 V2000
  149.7701  141.5247  155.2740 C   0  0  0  0  0  0  0  0  0  0  0  0
  150.6114  140.5989  154.5979 O   0  0  0  0  0  0  0  0  0  0  0  0
  151.0116  139.4463  155.3413 C   0  0  2  0  0  0  0  0  0  0  0  0
  151.9280  139.8632  156.5023 C   0  0  0  0  0  0  0  0  0  0  0  0
  151.4801  138.2986  154.4281 C   0  0  0  0  0  0  0  0  0  0  0  0
  150.6639  137.3696  155.3242 C   0  0  2  0  0  0  0  0  0  0  0  0
  150.0197  136.2922  154.5803 N   0  0  0  0  0  0  0  0  0  0  0  0
  150.0672  134.9990  154.9274 C   0  0  0  0  0  0  0  0  0  0  0  0
  150.6707  134.5832  155.9170 O   0  0  0  0  0  0  0  0  0  0  0  0
  149.3752  134.2362  154.0640 N   0  0  0  0  0  0  0  0  0  0  0  0
  149.2008  132.8291  154.1008 C   0  0  0  0  0  0  0  0  0  0  0  0
  148.2769  132.1865  153.2342 C   0  0  0  0  0  0  0  0  0  0  0  0
  148.4069  130.8701  153.5752 C   0  0  0  0  0  0  0  0  0  0  0  0
  149.3286  130.7182  154.5630 O   0  0  0  0  0  0  0  0  0  0  0  0
  149.8345  131.9804  154.8965 N   0  0  0  0  0  0  0  0  0  0  0  0
  149.7482  138.5774  155.6490 C   0  0  0  0  0  0  0  0  0  0  0  0
  149.2017  138.6329  157.0792 C   0  0  0  0  0  0  0  0  0  0  0  0
  148.5325  138.7963  154.7258 C   0  0  0  0  0  0  0  0  0  0  0  0
  149.6212  142.3984  154.6397 H   0  0  0  0  0  0  0  0  0  0  0  0
  150.2091  141.8687  156.2107 H   0  0  0  0  0  0  0  0  0  0  0  0
  148.7861  141.1049  155.4808 H   0  0  0  0  0  0  0  0  0  0  0  0
  152.1402  139.0300  157.1719 H   0  0  0  0  0  0  0  0  0  0  0  0
  151.4751  140.6548  157.0997 H   0  0  0  0  0  0  0  0  0  0  0  0
  152.8935  140.2249  156.1496 H   0  0  0  0  0  0  0  0  0  0  0  0
  151.1014  138.3681  153.4067 H   0  0  0  0  0  0  0  0  0  0  0  0
  152.5540  138.1112  154.4428 H   0  0  0  0  0  0  0  0  0  0  0  0
  151.2426  137.0276  156.1855 H   0  0  0  0  0  0  0  0  0  0  0  0
  149.5019  136.5512  153.7534 H   0  0  0  0  0  0  0  0  0  0  0  0
  148.9267  134.7132  153.2961 H   0  0  0  0  0  0  0  0  0  0  0  0
  147.6269  132.6155  152.4863 H   0  0  0  0  0  0  0  0  0  0  0  0
  147.9365  129.9637  153.2237 H   0  0  0  0  0  0  0  0  0  0  0  0
  148.3772  137.9332  157.2202 H   0  0  0  0  0  0  0  0  0  0  0  0
  148.8342  139.6292  157.3266 H   0  0  0  0  0  0  0  0  0  0  0  0
  149.9597  138.3725  157.8173 H   0  0  0  0  0  0  0  0  0  0  0  0
  147.7728  138.0275  154.8703 H   0  0  0  0  0  0  0  0  0  0  0  0
  148.8055  138.7807  153.6705 H   0  0  0  0  0  0  0  0  0  0  0  0
  148.0563  139.7586  154.9171 H   0  0  0  0  0  0  0  0  0  0  0  0
  1  2  1  0  0  0  0
  1 19  1  0  0  0  0
  1 20  1  0  0  0  0
  1 21  1  0  0  0  0
  2  3  1  0  0  0  0
  3 16  1  0  0  0  0
  3  4  1  0  0  0  0
  3  5  1  0  0  0  0
  4 22  1  0  0  0  0
  4 23  1  0  0  0  0
  4 24  1  0  0  0  0
  5  6  1  0  0  0  0
  5 25  1  0  0  0  0
  5 26  1  0  0  0  0
  6  7  1  0  0  0  0
  6 16  1  0  0  0  0
  6 27  1  0  0  0  0
  7  8  1  0  0  0  0
  7 28  1  0  0  0  0
  8  9  2  0  0  0  0
  8 10  1  0  0  0  0
 10 11  1  0  0  0  0
 10 29  1  0  0  0  0
 11 15  2  0  0  0  0
 11 12  1  0  0  0  0
 12 13  2  0  0  0  0
 12 30  1  0  0  0  0
 13 14  1  0  0  0  0
 13 31  1  0  0  0  0
 14 15  1  0  0  0  0
 16 17  1  0  0  0  0
 16 18  1  0  0  0  0
 17 32  1  0  0  0  0
 17 33  1  0  0  0  0
 17 34  1  0  0  0  0
 18 35  1  0  0  0  0
 18 36  1  0  0  0  0
 18 37  1  0  0  0  0
M  END
> <s_m_source_file>
AV-unprocessed.smi

> <i_m_source_file_index>
3315

> <i_lp_mmshare_version>
43012

> <i_f3d_flags>
0

> <s_epik_input>
W0NIM11PW0NAQF0xKFtDSDNdKVtDSDJdW0NASF0oQzEoW0NIM10pW0NIM10pW05IXUMoPU8pW05IXWMyW2NIXVtjSF1vbjI=

> <s_epik_cmdline>
J2VwaWtfcHl0aG9uJywgJy1waCcsICc3LjAnLCAnLXRuJywgJzgnLCAnLW1hJywgJzIwMCcsICctbWV0YWxfYmluZGluZycsICctaW1hZScsICc8aW5maWxlLm1hZT4nLCAnLW9tYWUnLCAnPG91dGZpbGUubWFlPic=

> <r_lp_tautomer_probability>
1

> <r_epik_Ionization_Penalty>
2.28875e-05

> <r_epik_Ionization_Penalty_Charging>
0

> <r_epik_Ionization_Penalty_Neutral>
2.28875e-05

> <r_epik_State_Penalty>
-0

> <r_epik_Charging_Adjusted_Penalty>
0

> <i_epik_Tot_Q>
0

> <i_epik_Tot_abs_Q>
0

> <r_epik_Metal_State_Penalty>
-0

> <b_epik_Metal_Only>
0

> <s_lp_Force_Field>
OPLS_2005

> <r_lp_Energy>
21.6117

> <b_lp_Chiralities_Consistent>
1

> <s_lp_Variant>
AV-unprocessed.smi:3315-4

> <Gold.Version>
5.8.1

> <Gold.Id.Protein>
6NUR|6NUR_protein|mol2

> <Gold.PLP.Fitness>
36.0859

> <Gold.PLP.PLP>
-27.9281

> <Gold.PLP.part.hbond>
-2.9636

> <Gold.PLP.part.metal>
0.0000

> <Gold.PLP.part.buried>
-3.1838

> <Gold.PLP.part.nonpolar>
-22.0616

> <Gold.PLP.part.repulsive>
0.2813

> <Gold.PLP.ligand.clash>
0.0000

> <Gold.PLP.ligand.torsion>
0.2375

> <Gold.PLP.Chemscore.Hbond>
2.7536

> <Gold.PLP.Chemscore.CHOScore>
0.0000

> <Gold.PLP.Chemscore.Metal>
0.0000

> <Gold.Chemscore.Hbonds>
donor molecule, donor type, donor heavy atom, donor atom, acceptor molecule, acceptor atom, score
      L1  H     7    28       P1  7948  1.00
      L1  H    10    29       P1  7948  0.84
      P1  H  7989  7998       L1     2  0.95

> <Gold.PLP.Chemscore.Internal.Correction>
0.3720

> <Gold.Rescore>
     Score         DG    S(hbond)    S(metal)    S(lipo)     H(rot)  DE(clash)    DE(int)     intcor
     12.51     -13.97       1.73        0.00      51.73       1.30       0.02       1.45       ----

> <Gold.Chemscore.Fitness>
12.5054

> <Gold.Chemscore.DG>
-13.9728

> <Gold.Chemscore.ZeroCoef>
-5.4800

> <Gold.Chemscore.Hbond>
1.7300

> <Gold.Chemscore.Metal>
0.0000

> <Gold.Chemscore.Lipo>
51.7300

> <Gold.Chemscore.Internal_Hbond>
0.0000

> <Gold.Chemscore.DEClash>
0.0193

> <Gold.Chemscore.DEInternal>
1.4482

> <Gold.Chemscore.Rot>
1.3038

> <Gold.Chemscore.Internal.Correction>
   9.000000E+99

> <Gold.Chemscore.Hbonds>
donor molecule, donor type, donor heavy atom, donor atom, acceptor molecule, acceptor atom, score
      L1  H     7    28       P1  7948  0.73
      L1  H    10    29       P1  7948  0.15
      P1  H  7989  7998       L1     2  0.63

> <Gold.Chemscore.Hbond.Weighted>
-5.7782

> <Gold.Chemscore.Metal.Weighted>
-0.0000

> <Gold.Chemscore.Lipo.Weighted>
-6.0524

> <Gold.Chemscore.Internal_Hbond.Weighted>
0.0000

> <Gold.Chemscore.DEClash.Weighted>
0.0193

> <Gold.Chemscore.DEInternal.Weighted>
1.4482

> <Gold.Chemscore.Rot.Weighted>
3.3377

> <Gold.Chemscore.Internal.Correction.Weighted>
   9.000000E+99

> <Gold.Protein.RotatedTorsions>
[ 6907 6896 6895 6894 ] final -149.73 input  -60.11 | X-H torsion
[ 7974 7965 7964 7962 ] final  -66.77 input  175.53 | X-H torsion
[ 8008 7997 7996 7995 ] final   89.71 input   59.86 | X-H torsion
[ 10167 10162 10161 10158 ] final   20.50 input  -65.29 | X-H torsion
[ 10718 10713 10712 10709 ] final    5.89 input   66.30 | X-H torsion
[ 10763 10752 10751 10750 ] final -160.93 input  -60.55 | X-H torsion
[ 11005 11000 10999 10996 ] final   19.87 input  -57.11 | X-H torsion

> <Gold.Protein.ActiveResidues>
 VAL166  LYS551  ARG553  GLY616  TRP617  ASP618  TYR619  PRO620  LYS621  CYS622 
 ASP623  PHE694  ASN695  SER759  ASP760  ASP761  ALA762  ILE779  LEU786  VAL792 
 PHE793  MET794  SER795  GLU796  ALA797  LYS798  CYS799  TRP800  GLU811  SER814 

> <Gold.Protein.RotatedAtoms>
  151.1884  133.4682  159.2594 H   0  0  0  0  0  0  0  0  0  0  0  0  # atno 6907 bound_to 6896
  151.1188  135.0068  159.8539 H   0  0  0  0  0  0  0  0  0  0  0  0  # atno 6908 bound_to 6896
  152.5455  134.1797  159.8683 H   0  0  0  0  0  0  0  0  0  0  0  0  # atno 6909 bound_to 6896
  145.7376  140.8968  143.0547 H   0  0  0  0  0  0  0  0  0  0  0  0  # atno 7974 bound_to 7965
  156.0032  140.3357  155.6866 H   0  0  0  0  0  0  0  0  0  0  0  0  # atno 8008 bound_to 7997
  155.6261  140.0680  157.2681 H   0  0  0  0  0  0  0  0  0  0  0  0  # atno 8009 bound_to 7997
  154.4256  140.1768  156.1410 H   0  0  0  0  0  0  0  0  0  0  0  0  # atno 8010 bound_to 7997
  140.5499  143.9528  150.6571 H   0  0  0  0  0  0  0  0  0  0  0  0  # atno 10167 bound_to 10162
  156.9141  130.5767  149.5647 H   0  0  0  0  0  0  0  0  0  0  0  0  # atno 10718 bound_to 10713
  154.7348  135.3054  154.8831 H   0  0  0  0  0  0  0  0  0  0  0  0  # atno 10763 bound_to 10752
  153.9663  135.6747  153.4750 H   0  0  0  0  0  0  0  0  0  0  0  0  # atno 10764 bound_to 10752
  153.0952  135.4939  154.8687 H   0  0  0  0  0  0  0  0  0  0  0  0  # atno 10765 bound_to 10752
  140.4089  134.1639  155.7666 H   0  0  0  0  0  0  0  0  0  0  0  0  # atno 11005 bound_to 11000
  144.6878  139.9417  143.7475 LP  0  0  0  0  0  0  0  0  0  0  0  0  # atno 17320 bound_to 7965
  146.0478  139.3482  143.0658 LP  0  0  0  0  0  0  0  0  0  0  0  0  # atno 17321 bound_to 7965
  140.2951  143.3298  152.1025 LP  0  0  0  0  0  0  0  0  0  0  0  0  # atno 17342 bound_to 10162
  139.5023  144.6731  151.6194 LP  0  0  0  0  0  0  0  0  0  0  0  0  # atno 17343 bound_to 10162
  156.0522  130.5589  150.9014 LP  0  0  0  0  0  0  0  0  0  0  0  0  # atno 17370 bound_to 10713
  157.5949  131.0943  150.9057 LP  0  0  0  0  0  0  0  0  0  0  0  0  # atno 17371 bound_to 10713
  141.1829  133.8376  157.1195 LP  0  0  0  0  0  0  0  0  0  0  0  0  # atno 17394 bound_to 11000
  140.0282  134.9914  157.0728 LP  0  0  0  0  0  0  0  0  0  0  0  0  # atno 17395 bound_to 11000

$$$$
