AV-unprocessed.smi:1056|AV-procd|sdf|4635|dock2
  -GOLD-   22720 3143D 1   1.00000     0.00000
 Structure written by MMmdl.
 46 48  0  0  0  0  0  0  0  0  3 V2000
  153.1976  142.9505  160.6415 C   0  0  0  0  0  0  0  0  0  0  0  0
  152.5914  142.2254  159.4518 C   0  0  0  0  0  0  0  0  0  0  0  0
  151.6897  142.9292  158.6217 C   0  0  0  0  0  0  0  0  0  0  0  0
  151.1524  142.2398  157.5414 C   0  0  0  0  0  0  0  0  0  0  0  0
  150.2520  142.6443  156.5535 N   0  3  0  0  0  0  0  0  0  0  0  0
  150.0199  141.6100  155.6986 C   0  0  0  0  0  0  0  0  0  0  0  0
  150.7570  140.5492  156.1283 N   0  0  0  0  0  0  0  0  0  0  0  0
  150.8738  139.1919  155.5779 C   0  0  0  0  0  0  0  0  0  0  0  0
  149.9124  138.9397  154.3993 C   0  0  1  0  0  0  0  0  0  0  0  0
  150.5677  138.1450  153.4292 O   0  0  0  0  0  0  0  0  0  0  0  0
  148.6266  138.2191  154.8518 C   0  0  0  0  0  0  0  0  0  0  0  0
  147.6542  138.0346  153.7442 N   0  3  2  0  0  0  0  0  0  0  0  0
  147.2856  139.2941  153.0540 C   0  0  0  0  0  0  0  0  0  0  0  0
  146.4568  138.9840  151.7950 C   0  0  0  0  0  0  0  0  0  0  0  0
  145.4341  137.9655  152.0223 N   0  0  0  0  0  0  0  0  0  0  0  0
  145.3785  137.1404  153.0805 C   0  0  0  0  0  0  0  0  0  0  0  0
  144.4923  136.2981  153.1980 O   0  0  0  0  0  0  0  0  0  0  0  0
  146.4554  137.2669  154.1692 C   0  0  0  0  0  0  0  0  0  0  0  0
  151.4821  140.8971  157.2731 C   0  0  0  0  0  0  0  0  0  0  0  0
  152.3690  140.1889  158.0801 C   0  0  0  0  0  0  0  0  0  0  0  0
  152.9277  140.8732  159.1834 C   0  0  0  0  0  0  0  0  0  0  0  0
  153.9001  140.1276  160.0818 C   0  0  0  0  0  0  0  0  0  0  0  0
  152.8000  143.9614  160.7376 H   0  0  0  0  0  0  0  0  0  0  0  0
  154.2797  143.0269  160.5315 H   0  0  0  0  0  0  0  0  0  0  0  0
  152.9796  142.4187  161.5678 H   0  0  0  0  0  0  0  0  0  0  0  0
  151.4299  143.9591  158.8190 H   0  0  0  0  0  0  0  0  0  0  0  0
  149.3665  141.6284  154.8383 H   0  0  0  0  0  0  0  0  0  0  0  0
  151.9089  139.0543  155.2618 H   0  0  0  0  0  0  0  0  0  0  0  0
  150.7007  138.4777  156.3839 H   0  0  0  0  0  0  0  0  0  0  0  0
  149.6670  139.8962  153.9395 H   0  0  0  0  0  0  0  0  0  0  0  0
  150.0013  137.4264  153.1911 H   0  0  0  0  0  0  0  0  0  0  0  0
  148.9021  137.2461  155.2631 H   0  0  0  0  0  0  0  0  0  0  0  0
  148.1447  138.7660  155.6637 H   0  0  0  0  0  0  0  0  0  0  0  0
  146.7100  139.9209  153.7372 H   0  0  0  0  0  0  0  0  0  0  0  0
  148.1683  139.8660  152.7705 H   0  0  0  0  0  0  0  0  0  0  0  0
  145.9867  139.8915  151.4156 H   0  0  0  0  0  0  0  0  0  0  0  0
  147.1142  138.6183  151.0053 H   0  0  0  0  0  0  0  0  0  0  0  0
  144.7157  137.8753  151.3176 H   0  0  0  0  0  0  0  0  0  0  0  0
  146.7591  136.2670  154.4823 H   0  0  0  0  0  0  0  0  0  0  0  0
  146.0035  137.7513  155.0361 H   0  0  0  0  0  0  0  0  0  0  0  0
  152.6252  139.1600  157.8760 H   0  0  0  0  0  0  0  0  0  0  0  0
  154.0829  139.1154  159.7194 H   0  0  0  0  0  0  0  0  0  0  0  0
  153.5039  140.0524  161.0946 H   0  0  0  0  0  0  0  0  0  0  0  0
  154.8592  140.6445  160.1218 H   0  0  0  0  0  0  0  0  0  0  0  0
  148.1180  137.4581  153.0561 H   0  0  0  0  0  0  0  0  0  0  0  0
  149.8261  143.5584  156.4668 H   0  0  0  0  0  0  0  0  0  0  0  0
  1  2  1  0  0  0  0
  1 23  1  0  0  0  0
  1 24  1  0  0  0  0
  1 25  1  0  0  0  0
  2 21  1  0  0  0  0
  2  3  2  0  0  0  0
  3  4  1  0  0  0  0
  3 26  1  0  0  0  0
  4 19  2  0  0  0  0
  4  5  1  0  0  0  0
  5  6  2  0  0  0  0
  5 46  1  0  0  0  0
  6  7  1  0  0  0  0
  6 27  1  0  0  0  0
  7  8  1  0  0  0  0
  7 19  1  0  0  0  0
  8  9  1  0  0  0  0
  8 28  1  0  0  0  0
  8 29  1  0  0  0  0
  9 10  1  0  0  0  0
  9 11  1  0  0  0  0
  9 30  1  0  0  0  0
 10 31  1  0  0  0  0
 11 12  1  0  0  0  0
 11 32  1  0  0  0  0
 11 33  1  0  0  0  0
 12 18  1  0  0  0  0
 12 13  1  0  0  0  0
 12 45  1  0  0  0  0
 13 14  1  0  0  0  0
 13 34  1  0  0  0  0
 13 35  1  0  0  0  0
 14 15  1  0  0  0  0
 14 36  1  0  0  0  0
 14 37  1  0  0  0  0
 15 16  1  0  0  0  0
 15 38  1  0  0  0  0
 16 17  2  0  0  0  0
 16 18  1  0  0  0  0
 18 39  1  0  0  0  0
 18 40  1  0  0  0  0
 19 20  1  0  0  0  0
 20 21  2  0  0  0  0
 20 41  1  0  0  0  0
 21 22  1  0  0  0  0
 22 42  1  0  0  0  0
 22 43  1  0  0  0  0
 22 44  1  0  0  0  0
M  CHG  1   5   1
M  CHG  1  12   1
M  END
> <s_m_source_file>
AV-unprocessed.smi

> <i_m_source_file_index>
1056

> <i_lp_mmshare_version>
43012

> <i_f3d_flags>
0

> <s_epik_input>
W0NIM11jKFtjSF0xKWMoW0NIM10pW2NIXWMoYzEyKW4oW2NIXW4yKVtDSDJdW0NASF0oW09IXSlbQ0gyXU4zW0NIMl1bQ0gyXVtOSF1DKD1PKVtDSDJdMw==

> <s_epik_cmdline>
J2VwaWtfcHl0aG9uJywgJy1waCcsICc3LjAnLCAnLXRuJywgJzgnLCAnLW1hJywgJzIwMCcsICctbWV0YWxfYmluZGluZycsICctaW1hZScsICc8aW5maWxlLm1hZT4nLCAnLW9tYWUnLCAnPG91dGZpbGUubWFlPic=

> <r_epik_Ionization_Penalty>
1.262

> <r_epik_Ionization_Penalty_Charging>
1.26188

> <r_epik_Ionization_Penalty_Neutral>
0.000125436

> <r_epik_State_Penalty>
1.3387

> <r_epik_Charging_Adjusted_Penalty>
2.60058

> <i_epik_Tot_Q>
2

> <i_epik_Tot_abs_Q>
2

> <r_epik_Metal_State_Penalty>
1.58938

> <b_epik_Metal_Only>
0

> <s_lp_Force_Field>
OPLS_2005

> <r_lp_Energy>
34.6646

> <b_lp_Chiralities_Consistent>
1

> <s_lp_Variant>
AV-unprocessed.smi:1056-6

> <Gold.Version>
5.8.1

> <Gold.Id.Protein>
6NUR|6NUR_protein|mol2

> <Gold.PLP.Fitness>
59.3750

> <Gold.PLP.PLP>
-42.4667

> <Gold.PLP.part.hbond>
-6.5451

> <Gold.PLP.part.metal>
0.0000

> <Gold.PLP.part.buried>
-2.3067

> <Gold.PLP.part.nonpolar>
-35.3043

> <Gold.PLP.part.repulsive>
0.2410

> <Gold.PLP.ligand.clash>
0.0000

> <Gold.PLP.ligand.torsion>
0.5649

> <Gold.PLP.Chemscore.Hbond>
6.0000

> <Gold.PLP.Chemscore.CHOScore>
0.0000

> <Gold.PLP.Chemscore.Metal>
0.0000

> <Gold.Chemscore.Hbonds>
donor molecule, donor type, donor heavy atom, donor atom, acceptor molecule, acceptor atom, score
      L1  H     5    46       P1  8028  2.00
      L1  H    10    31       P1  7948  1.00
      L1  H    12    45       P1  7948  2.00
      L1  H    15    38       P1 10171  0.96

> <Gold.PLP.Chemscore.Internal.Correction>
0.0380

> <Gold.Rescore>
     Score         DG    S(hbond)    S(metal)    S(lipo)     H(rot)  DE(clash)    DE(int)     intcor
     22.08     -22.93       3.42        0.00     104.90       2.44       0.28       0.57       ----

> <Gold.Chemscore.Fitness>
22.0802

> <Gold.Chemscore.DG>
-22.9348

> <Gold.Chemscore.ZeroCoef>
-5.4800

> <Gold.Chemscore.Hbond>
3.4184

> <Gold.Chemscore.Metal>
0.0000

> <Gold.Chemscore.Lipo>
104.8950

> <Gold.Chemscore.Internal_Hbond>
0.0000

> <Gold.Chemscore.DEClash>
0.2831

> <Gold.Chemscore.DEInternal>
0.5715

> <Gold.Chemscore.Rot>
2.4357

> <Gold.Chemscore.Internal.Correction>
   9.000000E+99

> <Gold.Chemscore.Hbonds>
donor molecule, donor type, donor heavy atom, donor atom, acceptor molecule, acceptor atom, score
      L1  H     5    46       P1  8028  0.98
      L1  H    10    31       P1  7948  0.23
      L1  H    12    45       P1  7948  1.00
      L1  H    15    38       P1 10171  0.92

> <Gold.Chemscore.Hbond.Weighted>
-11.4174

> <Gold.Chemscore.Metal.Weighted>
-0.0000

> <Gold.Chemscore.Lipo.Weighted>
-12.2727

> <Gold.Chemscore.Internal_Hbond.Weighted>
0.0000

> <Gold.Chemscore.DEClash.Weighted>
0.2831

> <Gold.Chemscore.DEInternal.Weighted>
0.5715

> <Gold.Chemscore.Rot.Weighted>
6.2353

> <Gold.Chemscore.Internal.Correction.Weighted>
   9.000000E+99

> <Gold.Protein.RotatedTorsions>
[ 6907 6896 6895 6894 ] final  -83.86 input  -60.11 | X-H torsion
[ 7974 7965 7964 7962 ] final  -91.71 input  175.53 | X-H torsion
[ 8008 7997 7996 7995 ] final -124.15 input   59.86 | X-H torsion
[ 10167 10162 10161 10158 ] final   18.48 input  -65.29 | X-H torsion
[ 10718 10713 10712 10709 ] final   21.53 input   66.30 | X-H torsion
[ 10763 10752 10751 10750 ] final   66.39 input  -60.55 | X-H torsion
[ 11005 11000 10999 10996 ] final -155.05 input  -57.11 | X-H torsion

> <Gold.Protein.ActiveResidues>
 VAL166  LYS551  ARG553  GLY616  TRP617  ASP618  TYR619  PRO620  LYS621  CYS622 
 ASP623  PHE694  ASN695  SER759  ASP760  ASP761  ALA762  ILE779  LEU786  VAL792 
 PHE793  MET794  SER795  GLU796  ALA797  LYS798  CYS799  TRP800  GLU811  SER814 

> <Gold.Protein.RotatedAtoms>
  150.6881  134.3447  159.4882 H   0  0  0  0  0  0  0  0  0  0  0  0  # atno 6907 bound_to 6896
  152.1295  134.9142  160.0568 H   0  0  0  0  0  0  0  0  0  0  0  0  # atno 6908 bound_to 6896
  152.0317  133.3905  159.4337 H   0  0  0  0  0  0  0  0  0  0  0  0  # atno 6909 bound_to 6896
  145.4094  140.9544  143.2242 H   0  0  0  0  0  0  0  0  0  0  0  0  # atno 7974 bound_to 7965
  155.1921  140.0413  157.2902 H   0  0  0  0  0  0  0  0  0  0  0  0  # atno 8008 bound_to 7997
  154.6131  140.2482  155.7615 H   0  0  0  0  0  0  0  0  0  0  0  0  # atno 8009 bound_to 7997
  156.2391  140.2910  156.0404 H   0  0  0  0  0  0  0  0  0  0  0  0  # atno 8010 bound_to 7997
  140.5650  143.9267  150.6670 H   0  0  0  0  0  0  0  0  0  0  0  0  # atno 10167 bound_to 10162
  157.1397  130.6627  149.5977 H   0  0  0  0  0  0  0  0  0  0  0  0  # atno 10718 bound_to 10713
  153.0138  135.5322  154.6817 H   0  0  0  0  0  0  0  0  0  0  0  0  # atno 10763 bound_to 10752
  154.5975  135.2865  155.0573 H   0  0  0  0  0  0  0  0  0  0  0  0  # atno 10764 bound_to 10752
  154.1642  135.6542  153.5046 H   0  0  0  0  0  0  0  0  0  0  0  0  # atno 10765 bound_to 10752
  140.6907  134.4044  157.5219 H   0  0  0  0  0  0  0  0  0  0  0  0  # atno 11005 bound_to 11000
  144.8319  139.5614  143.6940 LP  0  0  0  0  0  0  0  0  0  0  0  0  # atno 17320 bound_to 7965
  146.2712  139.6640  142.9294 LP  0  0  0  0  0  0  0  0  0  0  0  0  # atno 17321 bound_to 7965
  140.2728  143.3444  152.1223 LP  0  0  0  0  0  0  0  0  0  0  0  0  # atno 17342 bound_to 10162
  139.5088  144.6857  151.5893 LP  0  0  0  0  0  0  0  0  0  0  0  0  # atno 17343 bound_to 10162
  155.9791  130.4782  150.6695 LP  0  0  0  0  0  0  0  0  0  0  0  0  # atno 17370 bound_to 10713
  157.4318  131.0850  151.1031 LP  0  0  0  0  0  0  0  0  0  0  0  0  # atno 17371 bound_to 10713
  139.8924  134.8755  156.2271 LP  0  0  0  0  0  0  0  0  0  0  0  0  # atno 17394 bound_to 11000
  141.0243  133.7023  156.1322 LP  0  0  0  0  0  0  0  0  0  0  0  0  # atno 17395 bound_to 11000

$$$$
