AV-unprocessed.smi:821|AV-procd|sdf|3841|dock1
  -GOLD-   22720 1283D 1   1.00000     0.00000
 Structure written by MMmdl.
 45 46  0  0  0  0  0  0  0  0  2 V2000
  149.0450  137.7165  156.5688 C   0  0  0  0  0  0  0  0  0  0  0  0
  149.2492  138.4245  155.2226 C   0  0  1  0  0  0  0  0  0  0  0  0
  147.9042  138.9040  154.6300 C   0  0  0  0  0  0  0  0  0  0  0  0
  147.2817  137.9074  153.7221 N   0  3  0  0  0  0  0  0  0  0  0  0
  146.4661  136.8906  154.4298 C   0  0  0  0  0  0  0  0  0  0  0  0
  145.9280  135.8536  153.4305 C   0  0  0  0  0  0  0  0  0  0  0  0
  145.1691  136.5129  152.4237 O   0  0  0  0  0  0  0  0  0  0  0  0
  145.9544  137.4397  151.6835 C   0  0  0  0  0  0  0  0  0  0  0  0
  146.5000  138.5260  152.6264 C   0  0  0  0  0  0  0  0  0  0  0  0
  150.1782  139.5400  155.4084 N   0  0  0  0  0  0  0  0  0  0  0  0
  149.9416  140.6577  156.1132 C   0  0  0  0  0  0  0  0  0  0  0  0
  148.8985  140.8529  156.7382 O   0  0  0  0  0  0  0  0  0  0  0  0
  151.0761  141.6915  156.1341 C   0  0  0  0  0  0  0  0  0  0  0  0
  151.4981  142.0652  157.4949 N   0  0  0  0  0  0  0  0  0  0  0  0
  150.9677  143.2565  158.0216 C   0  0  0  0  0  0  0  0  0  0  0  0
  151.2874  143.6881  159.2490 C   0  0  0  0  0  0  0  0  0  0  0  0
  152.2003  142.8946  160.0353 C   0  0  0  0  0  0  0  0  0  0  0  0
  152.7309  141.7467  159.5537 C   0  0  0  0  0  0  0  0  0  0  0  0
  153.6958  140.8929  160.3740 C   0  0  0  0  0  0  0  0  0  0  0  0
  154.9284  140.9643  159.8703 F   0  0  0  0  0  0  0  0  0  0  0  0
  153.7516  141.2922  161.6454 F   0  0  0  0  0  0  0  0  0  0  0  0
  153.3152  139.6147  160.3648 F   0  0  0  0  0  0  0  0  0  0  0  0
  152.3762  141.2831  158.1967 C   0  0  0  0  0  0  0  0  0  0  0  0
  152.8391  140.2499  157.7099 O   0  0  0  0  0  0  0  0  0  0  0  0
  148.3870  136.8536  156.4618 H   0  0  0  0  0  0  0  0  0  0  0  0
  148.6003  138.3843  157.3075 H   0  0  0  0  0  0  0  0  0  0  0  0
  149.9929  137.3574  156.9718 H   0  0  0  0  0  0  0  0  0  0  0  0
  149.6984  137.6932  154.5493 H   0  0  0  0  0  0  0  0  0  0  0  0
  147.2018  139.1640  155.4236 H   0  0  0  0  0  0  0  0  0  0  0  0
  148.0887  139.8260  154.0765 H   0  0  0  0  0  0  0  0  0  0  0  0
  147.0618  136.3859  155.1900 H   0  0  0  0  0  0  0  0  0  0  0  0
  145.6366  137.3775  154.9452 H   0  0  0  0  0  0  0  0  0  0  0  0
  146.7446  135.2878  152.9786 H   0  0  0  0  0  0  0  0  0  0  0  0
  145.2876  135.1353  153.9422 H   0  0  0  0  0  0  0  0  0  0  0  0
  146.7687  136.9200  151.1756 H   0  0  0  0  0  0  0  0  0  0  0  0
  145.3330  137.8911  150.9099 H   0  0  0  0  0  0  0  0  0  0  0  0
  145.6783  139.1091  153.0454 H   0  0  0  0  0  0  0  0  0  0  0  0
  147.1304  139.2150  152.0632 H   0  0  0  0  0  0  0  0  0  0  0  0
  151.0672  139.4677  154.9341 H   0  0  0  0  0  0  0  0  0  0  0  0
  151.9163  141.2833  155.5709 H   0  0  0  0  0  0  0  0  0  0  0  0
  150.7691  142.5807  155.5796 H   0  0  0  0  0  0  0  0  0  0  0  0
  150.2968  143.7941  157.3673 H   0  0  0  0  0  0  0  0  0  0  0  0
  150.8747  144.6072  159.6388 H   0  0  0  0  0  0  0  0  0  0  0  0
  152.4542  143.2381  161.0271 H   0  0  0  0  0  0  0  0  0  0  0  0
  148.0443  137.4140  153.2798 H   0  0  0  0  0  0  0  0  0  0  0  0
  1  2  1  0  0  0  0
  1 25  1  0  0  0  0
  1 26  1  0  0  0  0
  1 27  1  0  0  0  0
  2  3  1  0  0  0  0
  2 10  1  0  0  0  0
  2 28  1  0  0  0  0
  3  4  1  0  0  0  0
  3 29  1  0  0  0  0
  3 30  1  0  0  0  0
  4  9  1  0  0  0  0
  4  5  1  0  0  0  0
  4 45  1  0  0  0  0
  5  6  1  0  0  0  0
  5 31  1  0  0  0  0
  5 32  1  0  0  0  0
  6  7  1  0  0  0  0
  6 33  1  0  0  0  0
  6 34  1  0  0  0  0
  7  8  1  0  0  0  0
  8  9  1  0  0  0  0
  8 35  1  0  0  0  0
  8 36  1  0  0  0  0
  9 37  1  0  0  0  0
  9 38  1  0  0  0  0
 10 11  1  0  0  0  0
 10 39  1  0  0  0  0
 11 12  2  0  0  0  0
 11 13  1  0  0  0  0
 13 14  1  0  0  0  0
 13 40  1  0  0  0  0
 13 41  1  0  0  0  0
 14 23  1  0  0  0  0
 14 15  1  0  0  0  0
 15 16  2  0  0  0  0
 15 42  1  0  0  0  0
 16 17  1  0  0  0  0
 16 43  1  0  0  0  0
 17 18  2  0  0  0  0
 17 44  1  0  0  0  0
 18 19  1  0  0  0  0
 18 23  1  0  0  0  0
 19 20  1  0  0  0  0
 19 21  1  0  0  0  0
 19 22  1  0  0  0  0
 23 24  2  0  0  0  0
M  CHG  1   4   1
M  END
> <s_m_source_file>
AV-unprocessed.smi

> <i_m_source_file_index>
821

> <i_lp_mmshare_version>
43012

> <i_f3d_flags>
0

> <s_epik_input>
W0NIMl0xW0NIMl1PW0NIMl1bQ0gyXU4xW0NIMl1bQ0BASF0oW0NIM10pW05IXUMoPU8pW0NIMl1uMltjSF1bY0hdW2NIXWMoQyhGKShGKUYpYzI9Tw==

> <s_epik_cmdline>
J2VwaWtfcHl0aG9uJywgJy1waCcsICc3LjAnLCAnLXRuJywgJzgnLCAnLW1hJywgJzIwMCcsICctbWV0YWxfYmluZGluZycsICctaW1hZScsICc8aW5maWxlLm1hZT4nLCAnLW9tYWUnLCAnPG91dGZpbGUubWFlPic=

> <r_lp_tautomer_probability>
1

> <r_epik_Ionization_Penalty>
0.656654

> <r_epik_Ionization_Penalty_Charging>
0.656653

> <r_epik_Ionization_Penalty_Neutral>
9.12373e-08

> <r_epik_State_Penalty>
0.675641

> <r_epik_Charging_Adjusted_Penalty>
1.33229

> <i_epik_Tot_Q>
1

> <i_epik_Tot_abs_Q>
1

> <r_epik_Metal_State_Penalty>
0.675695

> <b_epik_Metal_Only>
0

> <s_lp_Force_Field>
OPLS_2005

> <r_lp_Energy>
32.7589

> <b_lp_Chiralities_Consistent>
1

> <s_lp_Variant>
AV-unprocessed.smi:821-4

> <Gold.Version>
5.8.1

> <Gold.Id.Protein>
6NUR|6NUR_protein|mol2

> <Gold.PLP.Fitness>
45.0429

> <Gold.PLP.PLP>
-35.5718

> <Gold.PLP.part.hbond>
-2.0000

> <Gold.PLP.part.metal>
0.0000

> <Gold.PLP.part.buried>
-2.0412

> <Gold.PLP.part.nonpolar>
-31.7128

> <Gold.PLP.part.repulsive>
0.2932

> <Gold.PLP.ligand.clash>
0.0000

> <Gold.PLP.ligand.torsion>
1.4733

> <Gold.PLP.Chemscore.Hbond>
2.9280

> <Gold.PLP.Chemscore.CHOScore>
1.0000

> <Gold.PLP.Chemscore.Metal>
0.0000

> <Gold.Chemscore.Hbonds>
donor molecule, donor type, donor heavy atom, donor atom, acceptor molecule, acceptor atom, score
      L1  H     4    45       P1  7948  1.89
      P1  H  7997  8009       L1    24  0.96
      L1  C    15    42       P1  8028  1.00

> <Gold.PLP.Chemscore.Internal.Correction>
0.6337

> <Gold.Rescore>
     Score         DG    S(hbond)    S(metal)    S(lipo)     H(rot)  DE(clash)    DE(int)     intcor
     12.27     -15.85       1.92        0.00      81.24       2.17       0.02       3.56       ----

> <Gold.Chemscore.Fitness>
12.2714

> <Gold.Chemscore.DG>
-15.8540

> <Gold.Chemscore.ZeroCoef>
-5.4800

> <Gold.Chemscore.Hbond>
1.9247

> <Gold.Chemscore.Metal>
0.0000

> <Gold.Chemscore.Lipo>
81.2357

> <Gold.Chemscore.Internal_Hbond>
0.0000

> <Gold.Chemscore.DEClash>
0.0213

> <Gold.Chemscore.DEInternal>
3.5613

> <Gold.Chemscore.Rot>
2.1716

> <Gold.Chemscore.Internal.Correction>
   9.000000E+99

> <Gold.Chemscore.Hbonds>
donor molecule, donor type, donor heavy atom, donor atom, acceptor molecule, acceptor atom, score
      L1  H     4    45       P1  7948  0.89
      P1  H  7997  8009       L1    24  0.92

> <Gold.Chemscore.Hbond.Weighted>
-6.4286

> <Gold.Chemscore.Metal.Weighted>
-0.0000

> <Gold.Chemscore.Lipo.Weighted>
-9.5046

> <Gold.Chemscore.Internal_Hbond.Weighted>
0.0000

> <Gold.Chemscore.DEClash.Weighted>
0.0213

> <Gold.Chemscore.DEInternal.Weighted>
3.5613

> <Gold.Chemscore.Rot.Weighted>
5.5592

> <Gold.Chemscore.Internal.Correction.Weighted>
   9.000000E+99

> <Gold.Protein.RotatedTorsions>
[ 6907 6896 6895 6894 ] final   52.05 input  -60.11 | X-H torsion
[ 7974 7965 7964 7962 ] final  105.90 input  175.53 | X-H torsion
[ 8008 7997 7996 7995 ] final  172.18 input   59.86 | X-H torsion
[ 10167 10162 10161 10158 ] final    1.94 input  -65.29 | X-H torsion
[ 10718 10713 10712 10709 ] final -101.34 input   66.30 | X-H torsion
[ 10763 10752 10751 10750 ] final -166.42 input  -60.55 | X-H torsion
[ 11005 11000 10999 10996 ] final  137.69 input  -57.11 | X-H torsion

> <Gold.Protein.ActiveResidues>
 VAL166  LYS551  ARG553  GLY616  TRP617  ASP618  TYR619  PRO620  LYS621  CYS622 
 ASP623  PHE694  ASN695  SER759  ASP760  ASP761  ALA762  ILE779  LEU786  VAL792 
 PHE793  MET794  SER795  GLU796  ALA797  LYS798  CYS799  TRP800  GLU811  SER814 

> <Gold.Protein.RotatedAtoms>
  152.3192  134.7402  160.0317 H   0  0  0  0  0  0  0  0  0  0  0  0  # atno 6907 bound_to 6896
  151.7856  133.3349  159.3492 H   0  0  0  0  0  0  0  0  0  0  0  0  # atno 6908 bound_to 6896
  150.7360  134.5821  159.5988 H   0  0  0  0  0  0  0  0  0  0  0  0  # atno 6909 bound_to 6896
  145.3136  139.2533  143.3749 H   0  0  0  0  0  0  0  0  0  0  0  0  # atno 7974 bound_to 7965
  156.1200  140.1492  156.9219 H   0  0  0  0  0  0  0  0  0  0  0  0  # atno 8008 bound_to 7997
  154.4828  140.0874  156.7459 H   0  0  0  0  0  0  0  0  0  0  0  0  # atno 8009 bound_to 7997
  155.4446  140.3432  155.4296 H   0  0  0  0  0  0  0  0  0  0  0  0  # atno 8010 bound_to 7997
  140.6659  143.7181  150.7826 H   0  0  0  0  0  0  0  0  0  0  0  0  # atno 10167 bound_to 10162
  156.0192  130.5369  150.6949 H   0  0  0  0  0  0  0  0  0  0  0  0  # atno 10718 bound_to 10713
  154.6835  135.2958  154.9580 H   0  0  0  0  0  0  0  0  0  0  0  0  # atno 10763 bound_to 10752
  154.0568  135.6637  153.4811 H   0  0  0  0  0  0  0  0  0  0  0  0  # atno 10764 bound_to 10752
  153.0563  135.5143  154.7890 H   0  0  0  0  0  0  0  0  0  0  0  0  # atno 10765 bound_to 10752
  140.0132  134.9430  157.0321 H   0  0  0  0  0  0  0  0  0  0  0  0  # atno 11005 bound_to 11000
  146.3109  140.3678  142.8671 LP  0  0  0  0  0  0  0  0  0  0  0  0  # atno 17320 bound_to 7965
  144.8996  140.7625  143.5875 LP  0  0  0  0  0  0  0  0  0  0  0  0  # atno 17321 bound_to 7965
  140.0858  143.4925  152.2505 LP  0  0  0  0  0  0  0  0  0  0  0  0  # atno 17342 bound_to 10162
  139.5908  144.7549  151.3406 LP  0  0  0  0  0  0  0  0  0  0  0  0  # atno 17343 bound_to 10162
  157.4623  131.0884  151.0733 LP  0  0  0  0  0  0  0  0  0  0  0  0  # atno 17370 bound_to 10713
  157.1217  130.6064  149.5507 LP  0  0  0  0  0  0  0  0  0  0  0  0  # atno 17371 bound_to 10713
  140.4518  134.1575  155.7182 LP  0  0  0  0  0  0  0  0  0  0  0  0  # atno 17394 bound_to 11000
  141.1725  133.8580  157.1526 LP  0  0  0  0  0  0  0  0  0  0  0  0  # atno 17395 bound_to 11000

$$$$
