#       Name:                AV-unprocessed.smi:2496
#       Creating user name   scv26
#       Creation time:       Fri Mar 27 13:45:45 2020


#       File generated by GOLD software.
#

@<TRIPOS>MOLECULE
AV-unprocessed.smi:2496
    43    43     1
SMALL
NO_CHARGES


@<TRIPOS>ATOM
      1 ****        -3.1573   1.2756  -0.9996 C.3            1 S1                 0.0000
      2 ****        -2.4086   0.0343  -1.3934 C.2            1 S1                 0.0000
      3 ****        -2.2830  -0.2638  -2.6771 N.2            1 S1                 0.0000
      4 ****        -1.5687  -1.4013  -2.6751 N.pl3          1 S1                 0.0000
      5 ****        -1.2359  -1.8302  -1.4120 C.2            1 S1                 0.0000
      6 ****        -0.4330  -3.0705  -1.1960 C.3            1 S1                 0.0000
      7 ****        -1.7718  -0.9177  -0.5385 C.2            1 S1                 0.0000
      8 ****        -1.7099  -0.8757   0.9756 C.3            1 S1                 0.0000
      9 ****        -2.3145  -2.1418   1.6112 C.3            1 S1                 0.0000
     10 ****        -0.2633  -0.6060   1.4218 C.2            1 S1                 0.0000
     11 ****         0.3359  -1.4025   2.1452 O.2            1 S1                 0.0000
     12 ****         0.2871   0.5315   0.9673 N.am           1 S1                 0.0000
     13 ****         1.6711   0.9555   1.1648 C.3            1 S1                 0.0000
     14 ****         1.7388   1.8560   2.4118 C.3            1 S1                 0.0000
     15 ****         2.2008   1.6402  -0.1231 C.3            1 S1                 0.0000
     16 ****         2.0179   0.7555  -1.3733 C.3            1 S1                 0.0000
     17 ****         3.6777   2.0553   0.0007 C.3            1 S1                 0.0000
     18 ****        -1.3151  -1.8689  -3.5339 H              1 S1                 0.0000
     19 ****        -2.5294   1.9334  -0.3986 H              1 S1                 0.0000
     20 ****        -4.0390   1.0266  -0.4087 H              1 S1                 0.0000
     21 ****        -3.4910   1.8423  -1.8697 H              1 S1                 0.0000
     22 ****         0.2849  -2.9361  -0.3872 H              1 S1                 0.0000
     23 ****         0.1254  -3.3395  -2.0928 H              1 S1                 0.0000
     24 ****        -1.0803  -3.9086  -0.9383 H              1 S1                 0.0000
     25 ****        -2.2962  -0.0339   1.3456 H              1 S1                 0.0000
     26 ****        -1.7736  -3.0432   1.3236 H              1 S1                 0.0000
     27 ****        -3.3535  -2.2689   1.3062 H              1 S1                 0.0000
     28 ****        -2.3010  -2.0823   2.7000 H              1 S1                 0.0000
     29 ****        -0.2852   1.1236   0.3832 H              1 S1                 0.0000
     30 ****         2.2887   0.0743   1.3491 H              1 S1                 0.0000
     31 ****         2.7664   2.1010   2.6783 H              1 S1                 0.0000
     32 ****         1.2995   1.3596   3.2779 H              1 S1                 0.0000
     33 ****         1.1991   2.7909   2.2571 H              1 S1                 0.0000
     34 ****         1.6201   2.5494  -0.2862 H              1 S1                 0.0000
     35 ****         2.5278  -0.2014  -1.2572 H              1 S1                 0.0000
     36 ****         2.4232   1.2412  -2.2612 H              1 S1                 0.0000
     37 ****         0.9672   0.5496  -1.5794 H              1 S1                 0.0000
     38 ****         4.3128   1.1980   0.2251 H              1 S1                 0.0000
     39 ****         3.8264   2.7979   0.7840 H              1 S1                 0.0000
     40 ****         4.0387   2.5005  -0.9268 H              1 S1                 0.0000
     41 ****        -2.6373   0.2404  -3.4647 LP             1 S1                 0.0000
     42 ****        -0.1181  -2.2393   2.4512 LP             1 S1                 0.0000
     43 ****         1.2765  -1.2124   2.4266 LP             1 S1                 0.0000
@<TRIPOS>BOND
    1    1    2 1     
    2    1   19 1     
    3    1   20 1     
    4    1   21 1     
    5    2    7 1     
    6    2    3 2     
    7    3    4 1     
    8    4   18 1     
    9    4    5 1     
   10    5    6 1     
   11    5    7 2     
   12    6   22 1     
   13    6   23 1     
   14    6   24 1     
   15    7    8 1     
   16    8    9 1     
   17    8   10 1     
   18    8   25 1     
   19    9   26 1     
   20    9   27 1     
   21    9   28 1     
   22   10   11 2     
   23   10   12 am    
   24   12   13 1     
   25   12   29 1     
   26   13   14 1     
   27   13   15 1     
   28   13   30 1     
   29   14   31 1     
   30   14   32 1     
   31   14   33 1     
   32   15   16 1     
   33   15   17 1     
   34   15   34 1     
   35   16   35 1     
   36   16   36 1     
   37   16   37 1     
   38   17   38 1     
   39   17   39 1     
   40   17   40 1     
   41    3   41 1     
   42   11   42 1     
   43   11   43 1     
@<TRIPOS>SUBSTRUCTURE
      1 S1             1
@<TRIPOS>SET
LONE_PAIRS      STATIC     ATOMS    <user>   **** ""
3 41 42 43
DONOR_HYDROGENS      STATIC     ATOMS    <user>   **** ""
2 18 29
ATOM$BLUE        STATIC     ATOMS    COLORGROUP SYSTEM
3 41 42 43
ATOM$RED        STATIC     ATOMS    COLORGROUP SYSTEM
2 18 29
