#       Name:                AV-unprocessed.smi:2078
#       Creating user name   scv26
#       Creation time:       Fri Mar 27 11:17:19 2020


#       File generated by GOLD software.
#

@<TRIPOS>MOLECULE
AV-unprocessed.smi:2078
    47    48     1
SMALL
NO_CHARGES


@<TRIPOS>ATOM
      1 ****        -7.7819   3.6793   0.3931 C.3            1 S1                 0.0000
      2 ****        -6.3500   3.2755   0.4785 C.2            1 S1                 0.0000
      3 ****        -5.7067   2.0849   0.2897 C.2            1 S1                 0.0000
      4 ****        -4.3462   2.4126   0.5326 C.2            1 S1                 0.0000
      5 ****        -3.3350   1.4207   0.4328 N.am           1 S1                 0.0000
      6 ****        -2.0121   1.5392   0.6487 C.2            1 S1                 0.0000
      7 ****        -1.5300   2.6253   0.9920 O.2            1 S1                 0.0000
      8 ****        -1.3517   0.3663   0.4451 N.pl3          1 S1                -1.0000
      9 ****         0.0888   0.1878   0.6065 C.3            1 S1                 0.0000
     10 ****         0.5100  -1.1720   0.0175 C.3            1 S1                 0.0000
     11 ****         1.9713  -1.4126   0.1578 N.4            1 S1                 1.0000
     12 ****         2.2884  -2.8199   0.5157 C.3            1 S1                 0.0000
     13 ****         3.7877  -2.9925   0.8078 C.3            1 S1                 0.0000
     14 ****         4.6393  -2.5235  -0.3791 C.3            1 S1                 0.0000
     15 ****         4.2790  -1.0766  -0.7558 C.3            1 S1                 0.0000
     16 ****         5.0995  -0.5868  -1.9572 C.3            1 S1                 0.0000
     17 ****         2.7648  -0.9592  -1.0198 C.3            1 S1                 0.0000
     18 ****        -4.1754   3.6898   0.8406 N.2            1 S1                 0.0000
     19 ****        -5.4584   4.2489   0.8077 O.3            1 S1                 0.0000
     20 ****        -8.4119   2.8274   0.1370 H              1 S1                 0.0000
     21 ****        -7.9220   4.4453  -0.3696 H              1 S1                 0.0000
     22 ****        -8.1272   4.0813   1.3456 H              1 S1                 0.0000
     23 ****        -6.1409   1.1333   0.0218 H              1 S1                 0.0000
     24 ****        -3.6526   0.5015   0.1638 H              1 S1                 0.0000
     25 ****         0.6543   0.9771   0.1096 H              1 S1                 0.0000
     26 ****         0.3841   0.2246   1.6558 H              1 S1                 0.0000
     27 ****        -0.0443  -1.9507   0.5443 H              1 S1                 0.0000
     28 ****         0.2175  -1.2532  -1.0308 H              1 S1                 0.0000
     29 ****         1.7194  -3.1136   1.3988 H              1 S1                 0.0000
     30 ****         1.9813  -3.4813  -0.2961 H              1 S1                 0.0000
     31 ****         4.0547  -2.4227   1.6988 H              1 S1                 0.0000
     32 ****         4.0055  -4.0371   1.0320 H              1 S1                 0.0000
     33 ****         5.6980  -2.5977  -0.1282 H              1 S1                 0.0000
     34 ****         4.4735  -3.1832  -1.2320 H              1 S1                 0.0000
     35 ****         4.5236  -0.4342   0.0919 H              1 S1                 0.0000
     36 ****         4.9078  -1.1929  -2.8430 H              1 S1                 0.0000
     37 ****         6.1685  -0.6324  -1.7473 H              1 S1                 0.0000
     38 ****         4.8568   0.4473  -2.2035 H              1 S1                 0.0000
     39 ****         2.4864  -1.5507  -1.8938 H              1 S1                 0.0000
     40 ****         2.5224   0.0778  -1.2549 H              1 S1                 0.0000
     41 ****         2.2647  -0.8517   0.9448 H              1 S1                 0.0000
     42 ****        -2.1241   3.4209   1.1105 LP             1 S1                 0.0000
     43 ****        -0.5462   2.7077   1.1511 LP             1 S1                 0.0000
     44 ****        -1.8905  -0.4285   0.1656 LP             1 S1                 0.0000
     45 ****        -3.3153   4.1543   1.0512 LP             1 S1                 0.0000
     46 ****        -5.6855   4.6232   1.7068 LP             1 S1                 0.0000
     47 ****        -5.4900   4.9789   0.1251 LP             1 S1                 0.0000
@<TRIPOS>BOND
    1    1    2 1     
    2    1   20 1     
    3    1   21 1     
    4    1   22 1     
    5    2   19 1     
    6    2    3 2     
    7    3    4 1     
    8    3   23 1     
    9    4    5 1     
   10    4   18 2     
   11    5    6 am    
   12    5   24 1     
   13    6    7 2     
   14    6    8 1     
   15    8    9 1     
   16    9   10 1     
   17    9   25 1     
   18    9   26 1     
   19   10   11 1     
   20   10   27 1     
   21   10   28 1     
   22   11   17 1     
   23   11   12 1     
   24   11   41 1     
   25   12   13 1     
   26   12   29 1     
   27   12   30 1     
   28   13   14 1     
   29   13   31 1     
   30   13   32 1     
   31   14   15 1     
   32   14   33 1     
   33   14   34 1     
   34   15   16 1     
   35   15   17 1     
   36   15   35 1     
   37   16   36 1     
   38   16   37 1     
   39   16   38 1     
   40   17   39 1     
   41   17   40 1     
   42   18   19 1     
   43    7   42 1     
   44    7   43 1     
   45    8   44 1     
   46   18   45 1     
   47   19   46 1     
   48   19   47 1     
@<TRIPOS>SUBSTRUCTURE
      1 S1             1
@<TRIPOS>SET
LONE_PAIRS      STATIC     ATOMS    <user>   **** ""
6 42 43 44 45 46 47
DONOR_HYDROGENS      STATIC     ATOMS    <user>   **** ""
2 24 41
ATOM$BLUE        STATIC     ATOMS    COLORGROUP SYSTEM
6 42 43 44 45 46 47
ATOM$RED        STATIC     ATOMS    COLORGROUP SYSTEM
2 24 41
