#       Name:                AV-unprocessed.smi:686
#       Creating user name   scv26
#       Creation time:       Fri Mar 27 00:31:23 2020


#       File generated by GOLD software.
#

@<TRIPOS>MOLECULE
AV-unprocessed.smi:686
    45    46     1
SMALL
NO_CHARGES


@<TRIPOS>ATOM
      1 ****        -0.6909   0.3228  -3.4271 C.3            1 S1                 0.0000
      2 ****        -1.4309   0.2249  -2.0829 C.3            1 S1                 0.0000
      3 ****        -1.4082  -1.1624  -1.4244 C.3            1 S1                 0.0000
      4 ****        -1.3689  -0.9489   0.0452 N.4            1 S1                 1.0000
      5 ****        -2.2725  -1.8255   0.8424 C.3            1 S1                 0.0000
      6 ****        -2.2161  -1.4892   2.3452 C.3            1 S1                 0.0000
      7 ****        -1.9225  -3.3119   0.6381 C.3            1 S1                 0.0000
      8 ****        -1.5114   0.5067   0.2815 C.3            1 S1                 0.0000
      9 ****        -0.9759   1.1863  -0.9806 C.3            1 S1                 0.0000
     10 ****         0.4860   1.3010  -0.9259 N.3            1 S1                 0.0000
     11 ****         1.2030   2.6800  -0.1779 S.o2           1 S1                 0.0000
     12 ****         0.8844   3.8409  -1.0225 O.2            1 S1                 0.0000
     13 ****         0.8100   2.6712   1.2395 O.2            1 S1                 0.0000
     14 ****         3.0043   2.3105  -0.3214 C.3            1 S1                 0.0000
     15 ****         3.3947   1.2744   0.6952 C.2            1 S1                 0.0000
     16 ****         4.0770   1.4591   1.9294 C.2            1 S1                 0.0000
     17 ****         4.1559   0.1964   2.4423 C.2            1 S1                 0.0000
     18 ****         3.5745  -0.6957   1.6007 O.3            1 S1                 0.0000
     19 ****         3.0944   0.0012   0.4863 N.2            1 S1                 0.0000
     20 ****         0.3604   0.0492  -3.3332 H              1 S1                 0.0000
     21 ****        -0.7388   1.3366  -3.8254 H              1 S1                 0.0000
     22 ****        -1.1380  -0.3443  -4.1646 H              1 S1                 0.0000
     23 ****        -2.4783   0.4612  -2.2789 H              1 S1                 0.0000
     24 ****        -2.2815  -1.7356  -1.7386 H              1 S1                 0.0000
     25 ****        -0.5207  -1.7270  -1.7130 H              1 S1                 0.0000
     26 ****        -3.2949  -1.6614   0.4982 H              1 S1                 0.0000
     27 ****        -2.8402  -2.1730   2.9214 H              1 S1                 0.0000
     28 ****        -2.5793  -0.4830   2.5546 H              1 S1                 0.0000
     29 ****        -1.1991  -1.5661   2.7316 H              1 S1                 0.0000
     30 ****        -2.5706  -3.9511   1.2385 H              1 S1                 0.0000
     31 ****        -0.8929  -3.5194   0.9318 H              1 S1                 0.0000
     32 ****        -2.0420  -3.6262  -0.3984 H              1 S1                 0.0000
     33 ****        -2.5690   0.7518   0.3946 H              1 S1                 0.0000
     34 ****        -1.0005   0.8188   1.1920 H              1 S1                 0.0000
     35 ****        -1.4044   2.1797  -1.1201 H              1 S1                 0.0000
     36 ****         0.9384   0.4350  -0.6335 H              1 S1                 0.0000
     37 ****         3.2201   1.9869  -1.3401 H              1 S1                 0.0000
     38 ****         3.5502   3.2378  -0.1477 H              1 S1                 0.0000
     39 ****         4.4470   2.3729   2.3704 H              1 S1                 0.0000
     40 ****         4.5738  -0.2107   3.3512 H              1 S1                 0.0000
     41 ****        -0.4257  -1.1752   0.3272 H              1 S1                 0.0000
     42 ****         0.6794   1.4815  -1.8903 LP             1 S1                 0.0000
     43 ****         2.8169  -1.1545   2.0649 LP             1 S1                 0.0000
     44 ****         4.2481  -1.3753   1.3102 LP             1 S1                 0.0000
     45 ****         2.6211  -0.3834  -0.3062 LP             1 S1                 0.0000
@<TRIPOS>BOND
    1    1    2 1     
    2    1   20 1     
    3    1   21 1     
    4    1   22 1     
    5    2    9 1     
    6    2    3 1     
    7    2   23 1     
    8    3    4 1     
    9    3   24 1     
   10    3   25 1     
   11    4    5 1     
   12    4    8 1     
   13    4   41 1     
   14    5    6 1     
   15    5    7 1     
   16    5   26 1     
   17    6   27 1     
   18    6   28 1     
   19    6   29 1     
   20    7   30 1     
   21    7   31 1     
   22    7   32 1     
   23    8    9 1     
   24    8   33 1     
   25    8   34 1     
   26    9   10 1     
   27    9   35 1     
   28   10   11 1     
   29   10   36 1     
   30   11   12 2     
   31   11   13 2     
   32   11   14 1     
   33   14   15 1     
   34   14   37 1     
   35   14   38 1     
   36   15   19 2     
   37   15   16 1     
   38   16   17 2     
   39   16   39 1     
   40   17   18 1     
   41   17   40 1     
   42   18   19 1     
   43   10   42 1     
   44   18   43 1     
   45   18   44 1     
   46   19   45 1     
@<TRIPOS>SUBSTRUCTURE
      1 S1             1
@<TRIPOS>SET
LONE_PAIRS      STATIC     ATOMS    <user>   **** ""
6 42 12 13 43 44 45
DONOR_HYDROGENS      STATIC     ATOMS    <user>   **** ""
2 41 36
ATOM$BLUE        STATIC     ATOMS    COLORGROUP SYSTEM
6 42 12 13 43 44 45
ATOM$RED        STATIC     ATOMS    COLORGROUP SYSTEM
2 41 36
