AV-unprocessed.smi:82|AV-procd|sdf|799|dock10
  -GOLD-   2262017183D 1   1.00000     0.00000
 Structure written by MMmdl.
 58 61  0  0  0  0  0  0  0  0  1 V2000
  144.4682  144.0288  161.2314 C   0  0  0  0  0  0  0  0  0  0  0  0
  145.0543  142.9275  160.5596 O   0  0  0  0  0  0  0  0  0  0  0  0
  144.2290  142.4195  159.5247 C   0  0  0  0  0  0  0  0  0  0  0  0
  144.9622  141.2537  158.8408 C   0  0  0  0  0  0  0  0  0  0  0  0
  144.1251  140.3830  158.0042 N   0  0  0  0  0  0  0  0  0  0  0  0
  144.1713  140.8129  156.6006 C   0  0  0  0  0  0  0  0  0  0  0  0
  143.2871  139.9557  155.6843 C   0  0  0  0  0  0  0  0  0  0  0  0
  143.6805  138.5546  155.7914 N   0  0  0  0  0  0  0  0  0  0  0  0
  143.1970  137.6817  154.8709 C   0  0  0  0  0  0  0  0  0  0  0  0
  141.8657  137.4059  154.8274 N   0  0  0  0  0  0  0  0  0  0  0  0
  141.3840  136.5381  153.9329 C   0  0  0  0  0  0  0  0  0  0  0  0
  142.0434  135.8500  152.9994 N   0  0  0  0  0  0  0  0  0  0  0  0
  143.3776  136.1318  153.0270 C   0  0  0  0  0  0  0  0  0  0  0  0
  144.0320  137.0226  153.9246 C   0  0  0  0  0  0  0  0  0  0  0  0
  145.3949  137.0490  153.6528 N   0  0  0  0  0  0  0  0  0  0  0  0
  145.5399  136.2104  152.6637 C   0  0  0  0  0  0  0  0  0  0  0  0
  144.3755  135.6369  152.2053 N   0  0  0  0  0  0  0  0  0  0  0  0
  144.2544  134.6620  151.1615 C   0  0  0  0  0  0  0  0  0  0  0  0
  143.8128  133.2290  151.4654 C   0  0  0  0  0  0  0  0  0  0  0  0
  144.7021  132.7175  150.3090 C   0  0  0  0  0  0  0  0  0  0  0  0
  145.5097  131.4377  150.5866 C   0  0  0  0  0  0  0  0  0  0  0  0
  146.4575  131.6249  151.6174 O   0  0  0  0  0  0  0  0  0  0  0  0
  144.0339  132.6082  148.9220 C   0  0  0  0  0  0  0  0  0  0  0  0
  142.7570  132.0074  148.9883 O   0  0  0  0  0  0  0  0  0  0  0  0
  145.4916  134.0292  150.5198 C   0  0  0  0  0  0  0  0  0  0  0  0
  143.6625  138.0724  157.1691 C   0  0  0  0  0  0  0  0  0  0  0  0
  144.5345  138.9645  158.0827 C   0  0  2  0  0  0  0  0  0  0  0  0
  144.4888  138.3664  159.5032 C   0  0  0  0  0  0  0  0  0  0  0  0
  145.1352  144.3736  162.0215 H   0  0  0  0  0  0  0  0  0  0  0  0
  143.5187  143.7511  161.6904 H   0  0  0  0  0  0  0  0  0  0  0  0
  144.2966  144.8619  160.5484 H   0  0  0  0  0  0  0  0  0  0  0  0
  143.2817  142.0733  159.9415 H   0  0  0  0  0  0  0  0  0  0  0  0
  144.0115  143.2184  158.8154 H   0  0  0  0  0  0  0  0  0  0  0  0
  145.7989  141.6396  158.2567 H   0  0  0  0  0  0  0  0  0  0  0  0
  145.4008  140.6684  159.6468 H   0  0  0  0  0  0  0  0  0  0  0  0
  143.8344  141.8443  156.5086 H   0  0  0  0  0  0  0  0  0  0  0  0
  145.2004  140.7884  156.2383 H   0  0  0  0  0  0  0  0  0  0  0  0
  142.2380  140.0671  155.9622 H   0  0  0  0  0  0  0  0  0  0  0  0
  143.3910  140.2972  154.6535 H   0  0  0  0  0  0  0  0  0  0  0  0
  140.3174  136.3724  153.9695 H   0  0  0  0  0  0  0  0  0  0  0  0
  146.5069  135.9932  152.2335 H   0  0  0  0  0  0  0  0  0  0  0  0
  143.6105  135.1112  150.4034 H   0  0  0  0  0  0  0  0  0  0  0  0
  144.1555  132.8836  152.4429 H   0  0  0  0  0  0  0  0  0  0  0  0
  142.7441  133.0506  151.3433 H   0  0  0  0  0  0  0  0  0  0  0  0
  144.8569  130.6058  150.8518 H   0  0  0  0  0  0  0  0  0  0  0  0
  146.0568  131.1249  149.6967 H   0  0  0  0  0  0  0  0  0  0  0  0
  147.3085  131.3723  151.2939 H   0  0  0  0  0  0  0  0  0  0  0  0
  143.9077  133.5912  148.4680 H   0  0  0  0  0  0  0  0  0  0  0  0
  144.6539  132.0358  148.2312 H   0  0  0  0  0  0  0  0  0  0  0  0
  142.1157  132.6807  149.1560 H   0  0  0  0  0  0  0  0  0  0  0  0
  145.8241  134.5185  149.6036 H   0  0  0  0  0  0  0  0  0  0  0  0
  146.3175  133.9281  151.2266 H   0  0  0  0  0  0  0  0  0  0  0  0
  142.6310  138.0659  157.5251 H   0  0  0  0  0  0  0  0  0  0  0  0
  144.0160  137.0435  157.2238 H   0  0  0  0  0  0  0  0  0  0  0  0
  145.5640  138.8823  157.7299 H   0  0  0  0  0  0  0  0  0  0  0  0
  144.6699  137.2914  159.4810 H   0  0  0  0  0  0  0  0  0  0  0  0
  143.5163  138.5263  159.9701 H   0  0  0  0  0  0  0  0  0  0  0  0
  145.2526  138.7894  160.1549 H   0  0  0  0  0  0  0  0  0  0  0  0
  1  2  1  0  0  0  0
  1 29  1  0  0  0  0
  1 30  1  0  0  0  0
  1 31  1  0  0  0  0
  2  3  1  0  0  0  0
  3  4  1  0  0  0  0
  3 32  1  0  0  0  0
  3 33  1  0  0  0  0
  4  5  1  0  0  0  0
  4 34  1  0  0  0  0
  4 35  1  0  0  0  0
  5 27  1  0  0  0  0
  5  6  1  0  0  0  0
  6  7  1  0  0  0  0
  6 36  1  0  0  0  0
  6 37  1  0  0  0  0
  7  8  1  0  0  0  0
  7 38  1  0  0  0  0
  7 39  1  0  0  0  0
  8  9  1  0  0  0  0
  8 26  1  0  0  0  0
  9 14  1  0  0  0  0
  9 10  2  0  0  0  0
 10 11  1  0  0  0  0
 11 12  2  0  0  0  0
 11 40  1  0  0  0  0
 12 13  1  0  0  0  0
 13 17  1  0  0  0  0
 13 14  2  0  0  0  0
 14 15  1  0  0  0  0
 15 16  2  0  0  0  0
 16 17  1  0  0  0  0
 16 41  1  0  0  0  0
 17 18  1  0  0  0  0
 18 25  1  0  0  0  0
 18 19  1  0  0  0  0
 18 42  1  0  0  0  0
 19 20  1  0  0  0  0
 19 43  1  0  0  0  0
 19 44  1  0  0  0  0
 20 21  1  0  0  0  0
 20 23  1  0  0  0  0
 20 25  1  0  0  0  0
 21 22  1  0  0  0  0
 21 45  1  0  0  0  0
 21 46  1  0  0  0  0
 22 47  1  0  0  0  0
 23 24  1  0  0  0  0
 23 48  1  0  0  0  0
 23 49  1  0  0  0  0
 24 50  1  0  0  0  0
 25 51  1  0  0  0  0
 25 52  1  0  0  0  0
 26 27  1  0  0  0  0
 26 53  1  0  0  0  0
 26 54  1  0  0  0  0
 27 28  1  0  0  0  0
 27 55  1  0  0  0  0
 28 56  1  0  0  0  0
 28 57  1  0  0  0  0
 28 58  1  0  0  0  0
M  END
> <s_m_source_file>
AV-unprocessed.smi

> <i_m_source_file_index>
82

> <i_lp_mmshare_version>
43012

> <i_f3d_flags>
0

> <s_epik_input>
W0NIM11PW0NIMl1bQ0gyXU4xW0NIMl1bQ0gyXU4oW0NIMl1bQ0BIXTFbQ0gzXSljKG5bY0hdbjIpYyhjMjMpbltjSF1uM1tDSF0oW0NIMl00KVtDSDJdQzQoW0NIMl1bT0hdKVtDSDJdW09IXQ==

> <s_epik_cmdline>
J2VwaWtfcHl0aG9uJywgJy1waCcsICc3LjAnLCAnLXRuJywgJzgnLCAnLW1hJywgJzIwMCcsICctbWV0YWxfYmluZGluZycsICctaW1hZScsICc8aW5maWxlLm1hZT4nLCAnLW9tYWUnLCAnPG91dGZpbGUubWFlPic=

> <r_lp_tautomer_probability>
1

> <r_epik_Ionization_Penalty>
0.549054

> <r_epik_Ionization_Penalty_Charging>
0

> <r_epik_Ionization_Penalty_Neutral>
0.549054

> <r_epik_State_Penalty>
0.552556

> <r_epik_Charging_Adjusted_Penalty>
0.552556

> <i_epik_Tot_Q>
0

> <i_epik_Tot_abs_Q>
0

> <r_epik_Metal_State_Penalty>
0.545162

> <b_epik_Metal_Only>
0

> <s_lp_Force_Field>
OPLS_2005

> <r_lp_Energy>
68.3354

> <b_lp_Chiralities_Consistent>
1

> <s_lp_Variant>
AV-unprocessed.smi:82-6

> <Gold.Version>
5.8.1

> <Gold.Id.Protein>
6NUR|6NUR_protein|mol2

> <Gold.PLP.Fitness>
44.0122

> <Gold.PLP.PLP>
-34.2911

> <Gold.PLP.part.hbond>
-4.0000

> <Gold.PLP.part.metal>
0.0000

> <Gold.PLP.part.buried>
-7.0516

> <Gold.PLP.part.nonpolar>
-23.1627

> <Gold.PLP.part.repulsive>
0.3397

> <Gold.PLP.ligand.clash>
0.0000

> <Gold.PLP.ligand.torsion>
1.5429

> <Gold.PLP.Chemscore.Hbond>
3.0000

> <Gold.PLP.Chemscore.CHOScore>
1.0000

> <Gold.PLP.Chemscore.Metal>
0.0000

> <Gold.Chemscore.Hbonds>
donor molecule, donor type, donor heavy atom, donor atom, acceptor molecule, acceptor atom, score
      L1  H    22    47       P1 10747  1.00
      L1  H    24    50       P1 10186  0.86
      P1  H 10785 10796       L1    24  1.00
      L1  C    16    41       P1  7948  1.00

> <Gold.PLP.Chemscore.Internal.Correction>
0.8069

> <Gold.Rescore>
     Score         DG    S(hbond)    S(metal)    S(lipo)     H(rot)  DE(clash)    DE(int)     intcor
     10.28     -11.37       2.61        0.00      59.96       3.84       0.01       1.08       ----

> <Gold.Chemscore.Fitness>
10.2803

> <Gold.Chemscore.DG>
-11.3667

> <Gold.Chemscore.ZeroCoef>
-5.4800

> <Gold.Chemscore.Hbond>
2.6080

> <Gold.Chemscore.Metal>
0.0000

> <Gold.Chemscore.Lipo>
59.9573

> <Gold.Chemscore.Internal_Hbond>
0.0000

> <Gold.Chemscore.DEClash>
0.0057

> <Gold.Chemscore.DEInternal>
1.0807

> <Gold.Chemscore.Rot>
3.8434

> <Gold.Chemscore.Internal.Correction>
   9.000000E+99

> <Gold.Chemscore.Hbonds>
donor molecule, donor type, donor heavy atom, donor atom, acceptor molecule, acceptor atom, score
      L1  H    22    47       P1 10747  0.94
      L1  H    24    50       P1 10186  0.84
      P1  H 10785 10796       L1    24  0.34

> <Gold.Chemscore.Hbond.Weighted>
-8.7108

> <Gold.Chemscore.Metal.Weighted>
-0.0000

> <Gold.Chemscore.Lipo.Weighted>
-7.0150

> <Gold.Chemscore.Internal_Hbond.Weighted>
0.0000

> <Gold.Chemscore.DEClash.Weighted>
0.0057

> <Gold.Chemscore.DEInternal.Weighted>
1.0807

> <Gold.Chemscore.Rot.Weighted>
9.8391

> <Gold.Chemscore.Internal.Correction.Weighted>
   9.000000E+99

> <Gold.Protein.RotatedTorsions>
[ 6907 6896 6895 6894 ] final   78.69 input  -60.11 | X-H torsion
[ 7974 7965 7964 7962 ] final -158.47 input  175.53 | X-H torsion
[ 8008 7997 7996 7995 ] final  124.05 input   59.86 | X-H torsion
[ 10167 10162 10161 10158 ] final -123.42 input  -65.29 | X-H torsion
[ 10718 10713 10712 10709 ] final  102.53 input   66.30 | X-H torsion
[ 10763 10752 10751 10750 ] final   95.12 input  -60.55 | X-H torsion
[ 11005 11000 10999 10996 ] final  114.69 input  -57.11 | X-H torsion

> <Gold.Protein.ActiveResidues>
 VAL166  LYS551  ARG553  GLY616  TRP617  ASP618  TYR619  PRO620  LYS621  CYS622 
 ASP623  PHE694  ASN695  SER759  ASP760  ASP761  ALA762  ILE779  LEU786  VAL792 
 PHE793  MET794  SER795  GLU796  ALA797  LYS798  CYS799  TRP800  GLU811  SER814 

> <Gold.Protein.RotatedAtoms>
  152.5169  134.3626  159.9289 H   0  0  0  0  0  0  0  0  0  0  0  0  # atno 6907 bound_to 6896
  151.3578  133.3894  159.2694 H   0  0  0  0  0  0  0  0  0  0  0  0  # atno 6908 bound_to 6896
  150.9675  134.9073  159.7826 H   0  0  0  0  0  0  0  0  0  0  0  0  # atno 6909 bound_to 6896
  144.7504  140.3823  143.6052 H   0  0  0  0  0  0  0  0  0  0  0  0  # atno 7974 bound_to 7965
  156.2788  140.2748  156.1726 H   0  0  0  0  0  0  0  0  0  0  0  0  # atno 8008 bound_to 7997
  155.0639  140.0387  157.2603 H   0  0  0  0  0  0  0  0  0  0  0  0  # atno 8009 bound_to 7997
  154.7095  140.2665  155.6648 H   0  0  0  0  0  0  0  0  0  0  0  0  # atno 8010 bound_to 7997
  140.0037  143.5514  152.2293 H   0  0  0  0  0  0  0  0  0  0  0  0  # atno 10167 bound_to 10162
  157.6799  131.0755  150.5418 H   0  0  0  0  0  0  0  0  0  0  0  0  # atno 10718 bound_to 10713
  153.2496  135.4265  155.0783 H   0  0  0  0  0  0  0  0  0  0  0  0  # atno 10763 bound_to 10752
  154.8376  135.3422  154.6532 H   0  0  0  0  0  0  0  0  0  0  0  0  # atno 10764 bound_to 10752
  153.6954  135.7031  153.5135 H   0  0  0  0  0  0  0  0  0  0  0  0  # atno 10765 bound_to 10752
  139.8988  134.9572  156.6930 H   0  0  0  0  0  0  0  0  0  0  0  0  # atno 11005 bound_to 11000
  145.6964  139.1651  143.2618 LP  0  0  0  0  0  0  0  0  0  0  0  0  # atno 17320 bound_to 7965
  146.1447  140.7009  142.9350 LP  0  0  0  0  0  0  0  0  0  0  0  0  # atno 17321 bound_to 7965
  139.6254  144.7636  151.2650 LP  0  0  0  0  0  0  0  0  0  0  0  0  # atno 17342 bound_to 10162
  140.7409  143.6574  150.8195 LP  0  0  0  0  0  0  0  0  0  0  0  0  # atno 17343 bound_to 10162
  156.5725  130.4283  149.6013 LP  0  0  0  0  0  0  0  0  0  0  0  0  # atno 17370 bound_to 10713
  156.2729  130.7027  151.1829 LP  0  0  0  0  0  0  0  0  0  0  0  0  # atno 17371 bound_to 10713
  140.7210  133.9141  155.8146 LP  0  0  0  0  0  0  0  0  0  0  0  0  # atno 17394 bound_to 11000
  141.0228  134.0866  157.4102 LP  0  0  0  0  0  0  0  0  0  0  0  0  # atno 17395 bound_to 11000

$$$$
