AV-unprocessed.smi:109|AV-procd|sdf|1044|dock9
  -GOLD-   2262018 83D 1   1.00000     0.00000
 Structure written by MMmdl.
 58 61  0  0  0  0  0  0  0  0  1 V2000
  145.4340  138.7791  156.8482 O   0  0  0  0  0  0  0  0  0  0  0  0
  145.1572  137.5581  156.1969 C   0  0  0  0  0  0  0  0  0  0  0  0
  146.2859  137.2251  155.2054 C   0  0  0  0  0  0  0  0  0  0  0  0
  146.3960  138.2126  154.0177 C   0  0  1  0  0  0  0  0  0  0  0  0
  145.0659  138.4298  153.4425 N   0  0  0  0  0  0  0  0  0  0  0  0
  144.2340  137.4030  153.1573 C   0  0  0  0  0  0  0  0  0  0  0  0
  142.9115  137.4556  153.4624 N   0  0  0  0  0  0  0  0  0  0  0  0
  142.1139  136.4259  153.1639 C   0  0  0  0  0  0  0  0  0  0  0  0
  142.4276  135.2729  152.5684 N   0  0  0  0  0  0  0  0  0  0  0  0
  143.7552  135.2163  152.2572 C   0  0  0  0  0  0  0  0  0  0  0  0
  144.7170  136.2297  152.5222 C   0  0  0  0  0  0  0  0  0  0  0  0
  145.9647  135.8209  152.0729 N   0  0  0  0  0  0  0  0  0  0  0  0
  145.7472  134.6334  151.5748 C   0  0  0  0  0  0  0  0  0  0  0  0
  144.4381  134.1962  151.6297 N   0  0  0  0  0  0  0  0  0  0  0  0
  143.8316  132.8955  151.1843 C   0  0  2  0  0  0  0  0  0  0  0  0
  144.3844  131.8780  151.9555 O   0  0  0  0  0  0  0  0  0  0  0  0
  145.5731  131.4119  151.3339 C   0  0  1  0  0  0  0  0  0  0  0  0
  145.8983  130.0030  151.8533 C   0  0  0  0  0  0  0  0  0  0  0  0
  147.1671  129.5891  151.3936 O   0  0  0  0  0  0  0  0  0  0  0  0
  145.2505  131.4879  149.8315 C   0  0  2  0  0  0  0  0  0  0  0  0
  146.4049  131.8587  149.1035 O   0  0  0  0  0  0  0  0  0  0  0  0
  144.1726  132.5727  149.7198 C   0  0  1  0  0  0  0  0  0  0  0  0
  143.0393  132.0817  149.0329 O   0  0  0  0  0  0  0  0  0  0  0  0
  147.0266  139.5833  154.3967 C   0  0  0  0  0  0  0  0  0  0  0  0
  147.0820  140.5245  153.1658 C   0  0  0  0  0  0  0  0  0  0  0  0
  147.7068  141.8899  153.4929 C   0  0  0  0  0  0  0  0  0  0  0  0
  149.1133  141.7282  154.0815 C   0  0  0  0  0  0  0  0  0  0  0  0
  149.0775  140.8237  155.3187 C   0  0  0  0  0  0  0  0  0  0  0  0
  148.4483  139.4572  155.0000 C   0  0  0  0  0  0  0  0  0  0  0  0
  142.7633  133.0092  151.3722 H   0  0  0  0  0  0  0  0  0  0  0  0
  146.3780  132.0999  151.5982 H   0  0  0  0  0  0  0  0  0  0  0  0
  144.8793  130.5286  149.4672 H   0  0  0  0  0  0  0  0  0  0  0  0
  144.5140  133.4690  149.1999 H   0  0  0  0  0  0  0  0  0  0  0  0
  146.2525  138.6936  157.3129 H   0  0  0  0  0  0  0  0  0  0  0  0
  145.0585  136.7715  156.9456 H   0  0  0  0  0  0  0  0  0  0  0  0
  144.1973  137.6494  155.6891 H   0  0  0  0  0  0  0  0  0  0  0  0
  147.2389  137.1763  155.7341 H   0  0  0  0  0  0  0  0  0  0  0  0
  146.0882  136.2213  154.8329 H   0  0  0  0  0  0  0  0  0  0  0  0
  147.0647  137.7597  153.2863 H   0  0  0  0  0  0  0  0  0  0  0  0
  144.7537  139.3903  153.4381 H   0  0  0  0  0  0  0  0  0  0  0  0
  141.0764  136.5432  153.4399 H   0  0  0  0  0  0  0  0  0  0  0  0
  146.5490  134.0480  151.1508 H   0  0  0  0  0  0  0  0  0  0  0  0
  145.9144  130.0015  152.9437 H   0  0  0  0  0  0  0  0  0  0  0  0
  145.1401  129.2843  151.5410 H   0  0  0  0  0  0  0  0  0  0  0  0
  147.5809  130.3173  150.9556 H   0  0  0  0  0  0  0  0  0  0  0  0
  147.1680  131.5513  149.5674 H   0  0  0  0  0  0  0  0  0  0  0  0
  142.3232  132.6839  149.1662 H   0  0  0  0  0  0  0  0  0  0  0  0
  146.3906  140.0511  155.1501 H   0  0  0  0  0  0  0  0  0  0  0  0
  147.6542  140.0487  152.3683 H   0  0  0  0  0  0  0  0  0  0  0  0
  146.0831  140.6921  152.7628 H   0  0  0  0  0  0  0  0  0  0  0  0
  147.7507  142.5027  152.5920 H   0  0  0  0  0  0  0  0  0  0  0  0
  147.0713  142.4243  154.2000 H   0  0  0  0  0  0  0  0  0  0  0  0
  149.7801  141.2998  153.3321 H   0  0  0  0  0  0  0  0  0  0  0  0
  149.5244  142.7036  154.3434 H   0  0  0  0  0  0  0  0  0  0  0  0
  150.0873  140.6848  155.7055 H   0  0  0  0  0  0  0  0  0  0  0  0
  148.5084  141.3119  156.1110 H   0  0  0  0  0  0  0  0  0  0  0  0
  148.4262  138.8872  155.9275 H   0  0  0  0  0  0  0  0  0  0  0  0
  149.0935  138.9095  154.3118 H   0  0  0  0  0  0  0  0  0  0  0  0
  1  2  1  0  0  0  0
  1 34  1  0  0  0  0
  2  3  1  0  0  0  0
  2 35  1  0  0  0  0
  2 36  1  0  0  0  0
  3  4  1  0  0  0  0
  3 37  1  0  0  0  0
  3 38  1  0  0  0  0
  4  5  1  0  0  0  0
  4 24  1  0  0  0  0
  4 39  1  0  0  0  0
  5  6  1  0  0  0  0
  5 40  1  0  0  0  0
  6 11  1  0  0  0  0
  6  7  2  0  0  0  0
  7  8  1  0  0  0  0
  8  9  2  0  0  0  0
  8 41  1  0  0  0  0
  9 10  1  0  0  0  0
 10 14  1  0  0  0  0
 10 11  2  0  0  0  0
 11 12  1  0  0  0  0
 12 13  2  0  0  0  0
 13 14  1  0  0  0  0
 13 42  1  0  0  0  0
 14 15  1  0  0  0  0
 15 30  1  0  0  0  0
 15 22  1  0  0  0  0
 15 16  1  0  0  0  0
 16 17  1  0  0  0  0
 17 31  1  0  0  0  0
 17 18  1  0  0  0  0
 17 20  1  0  0  0  0
 18 19  1  0  0  0  0
 18 43  1  0  0  0  0
 18 44  1  0  0  0  0
 19 45  1  0  0  0  0
 20 32  1  0  0  0  0
 20 21  1  0  0  0  0
 20 22  1  0  0  0  0
 21 46  1  0  0  0  0
 22 33  1  0  0  0  0
 22 23  1  0  0  0  0
 23 47  1  0  0  0  0
 24 29  1  0  0  0  0
 24 25  1  0  0  0  0
 24 48  1  0  0  0  0
 25 26  1  0  0  0  0
 25 49  1  0  0  0  0
 25 50  1  0  0  0  0
 26 27  1  0  0  0  0
 26 51  1  0  0  0  0
 26 52  1  0  0  0  0
 27 28  1  0  0  0  0
 27 53  1  0  0  0  0
 27 54  1  0  0  0  0
 28 29  1  0  0  0  0
 28 55  1  0  0  0  0
 28 56  1  0  0  0  0
 29 57  1  0  0  0  0
 29 58  1  0  0  0  0
M  END
> <s_m_source_file>
AV-unprocessed.smi

> <i_m_source_file_index>
109

> <i_lp_mmshare_version>
43012

> <i_f3d_flags>
0

> <s_epik_input>
W0NIMl0xW0NIMl1bQ0gyXVtDSDJdW0NIMl1bQ0hdMVtDQEhdKFtDSDJdW0NIMl1bT0hdKVtOSF1jKG5bY0hdbjIpYyhjMjMpbltjSF1uM1tDQEBIXTRPW0NASF0oW0NIMl1bT0hdKVtDQEBIXShbT0hdKVtDQEhdNFtPSF0=

> <s_epik_cmdline>
J2VwaWtfcHl0aG9uJywgJy1waCcsICc3LjAnLCAnLXRuJywgJzgnLCAnLW1hJywgJzIwMCcsICctbWV0YWxfYmluZGluZycsICctaW1hZScsICc8aW5maWxlLm1hZT4nLCAnLW9tYWUnLCAnPG91dGZpbGUubWFlPic=

> <r_lp_tautomer_probability>
1

> <r_epik_Ionization_Penalty>
0.000793976

> <r_epik_Ionization_Penalty_Charging>
0

> <r_epik_Ionization_Penalty_Neutral>
0.000793976

> <r_epik_State_Penalty>
-0

> <r_epik_Charging_Adjusted_Penalty>
0

> <i_epik_Tot_Q>
0

> <i_epik_Tot_abs_Q>
0

> <r_epik_Metal_State_Penalty>
-0

> <b_epik_Metal_Only>
0

> <s_epik_Chemistry_Notes>
This compound contains an acetal/aminal-like group ( X-CH(R)-Y where X, Y are N, S, or O) that may be acid/base labile, releasing an aldehyde.

> <s_lp_Force_Field>
OPLS_2005

> <r_lp_Energy>
47.5037

> <b_lp_Chiralities_Consistent>
1

> <s_lp_Variant>
AV-unprocessed.smi:109-14

> <Gold.Version>
5.8.1

> <Gold.Id.Protein>
6NUR|6NUR_protein|mol2

> <Gold.PLP.Fitness>
50.4872

> <Gold.PLP.PLP>
-39.0450

> <Gold.PLP.part.hbond>
-5.8191

> <Gold.PLP.part.metal>
0.0000

> <Gold.PLP.part.buried>
-5.9571

> <Gold.PLP.part.nonpolar>
-29.0816

> <Gold.PLP.part.repulsive>
1.4596

> <Gold.PLP.ligand.clash>
0.0000

> <Gold.PLP.ligand.torsion>
0.7043

> <Gold.PLP.Chemscore.Hbond>
4.2500

> <Gold.PLP.Chemscore.CHOScore>
0.0000

> <Gold.PLP.Chemscore.Metal>
0.0000

> <Gold.Chemscore.Hbonds>
donor molecule, donor type, donor heavy atom, donor atom, acceptor molecule, acceptor atom, score
      L1  H     5    40       P1 10175  0.78
      L1  H    19    45       P1 10747  0.86
      L1  H    21    46       P1 10747  0.98
      L1  H    23    47       P1 10186  0.57
      P1  H 10785 10796       L1    23  1.00

> <Gold.PLP.Chemscore.Internal.Correction>
0.1007

> <Gold.Rescore>
     Score         DG    S(hbond)    S(metal)    S(lipo)     H(rot)  DE(clash)    DE(int)     intcor
     12.30     -13.80       4.01        0.00      76.17       5.47       0.64       0.86       ----

> <Gold.Chemscore.Fitness>
12.2986

> <Gold.Chemscore.DG>
-13.7983

> <Gold.Chemscore.ZeroCoef>
-5.4800

> <Gold.Chemscore.Hbond>
4.0118

> <Gold.Chemscore.Metal>
0.0000

> <Gold.Chemscore.Lipo>
76.1734

> <Gold.Chemscore.Internal_Hbond>
0.0000

> <Gold.Chemscore.DEClash>
0.6390

> <Gold.Chemscore.DEInternal>
0.8607

> <Gold.Chemscore.Rot>
5.4662

> <Gold.Chemscore.Internal.Correction>
   9.000000E+99

> <Gold.Chemscore.Hbonds>
donor molecule, donor type, donor heavy atom, donor atom, acceptor molecule, acceptor atom, score
      L1  H     5    40       P1 10175  0.78
      L1  H    19    45       P1 10747  0.84
      L1  H    21    46       P1 10747  0.92
      L1  H    23    47       P1 10186  0.58
      P1  H 10785 10796       L1    23  0.76

> <Gold.Chemscore.Hbond.Weighted>
-13.3995

> <Gold.Chemscore.Metal.Weighted>
-0.0000

> <Gold.Chemscore.Lipo.Weighted>
-8.9123

> <Gold.Chemscore.Internal_Hbond.Weighted>
0.0000

> <Gold.Chemscore.DEClash.Weighted>
0.6390

> <Gold.Chemscore.DEInternal.Weighted>
0.8607

> <Gold.Chemscore.Rot.Weighted>
13.9935

> <Gold.Chemscore.Internal.Correction.Weighted>
   9.000000E+99

> <Gold.Protein.RotatedTorsions>
[ 6907 6896 6895 6894 ] final -150.10 input  -60.11 | X-H torsion
[ 7974 7965 7964 7962 ] final -143.09 input  175.53 | X-H torsion
[ 8008 7997 7996 7995 ] final -118.75 input   59.86 | X-H torsion
[ 10167 10162 10161 10158 ] final   16.62 input  -65.29 | X-H torsion
[ 10718 10713 10712 10709 ] final   80.13 input   66.30 | X-H torsion
[ 10763 10752 10751 10750 ] final  -38.84 input  -60.55 | X-H torsion
[ 11005 11000 10999 10996 ] final -129.35 input  -57.11 | X-H torsion

> <Gold.Protein.ActiveResidues>
 VAL166  LYS551  ARG553  GLY616  TRP617  ASP618  TYR619  PRO620  LYS621  CYS622 
 ASP623  PHE694  ASN695  SER759  ASP760  ASP761  ALA762  ILE779  LEU786  VAL792 
 PHE793  MET794  SER795  GLU796  ALA797  LYS798  CYS799  TRP800  GLU811  SER814 

> <Gold.Protein.RotatedAtoms>
  151.1936  133.4652  159.2594 H   0  0  0  0  0  0  0  0  0  0  0  0  # atno 6907 bound_to 6896
  151.1139  135.0042  159.8517 H   0  0  0  0  0  0  0  0  0  0  0  0  # atno 6908 bound_to 6896
  152.5452  134.1853  159.8705 H   0  0  0  0  0  0  0  0  0  0  0  0  # atno 6909 bound_to 6896
  144.8395  140.5877  143.5462 H   0  0  0  0  0  0  0  0  0  0  0  0  # atno 7974 bound_to 7965
  155.1046  140.0396  157.2707 H   0  0  0  0  0  0  0  0  0  0  0  0  # atno 8008 bound_to 7997
  154.6732  140.2617  155.6960 H   0  0  0  0  0  0  0  0  0  0  0  0  # atno 8009 bound_to 7997
  156.2666  140.2793  156.1248 H   0  0  0  0  0  0  0  0  0  0  0  0  # atno 8010 bound_to 7997
  140.5784  143.9027  150.6769 H   0  0  0  0  0  0  0  0  0  0  0  0  # atno 10167 bound_to 10162
  157.6797  130.9946  150.2034 H   0  0  0  0  0  0  0  0  0  0  0  0  # atno 10718 bound_to 10713
  153.9194  135.6784  153.4748 H   0  0  0  0  0  0  0  0  0  0  0  0  # atno 10763 bound_to 10752
  153.1036  135.4816  154.8909 H   0  0  0  0  0  0  0  0  0  0  0  0  # atno 10764 bound_to 10752
  154.7486  135.3179  154.8556 H   0  0  0  0  0  0  0  0  0  0  0  0  # atno 10765 bound_to 10752
  140.9439  134.1157  157.4126 H   0  0  0  0  0  0  0  0  0  0  0  0  # atno 11005 bound_to 11000
  145.4725  139.1502  143.3806 LP  0  0  0  0  0  0  0  0  0  0  0  0  # atno 17320 bound_to 7965
  146.2689  140.4858  142.8822 LP  0  0  0  0  0  0  0  0  0  0  0  0  # atno 17321 bound_to 7965
  140.2521  143.3586  152.1397 LP  0  0  0  0  0  0  0  0  0  0  0  0  # atno 17342 bound_to 10162
  139.5156  144.6965  151.5616 LP  0  0  0  0  0  0  0  0  0  0  0  0  # atno 17343 bound_to 10162
  156.2720  130.3723  149.8021 LP  0  0  0  0  0  0  0  0  0  0  0  0  # atno 17370 bound_to 10713
  156.5735  130.8435  151.3363 LP  0  0  0  0  0  0  0  0  0  0  0  0  # atno 17371 bound_to 10713
  139.8828  135.0045  156.6254 LP  0  0  0  0  0  0  0  0  0  0  0  0  # atno 17394 bound_to 11000
  140.7697  133.8749  155.8482 LP  0  0  0  0  0  0  0  0  0  0  0  0  # atno 17395 bound_to 11000

$$$$
