AV-unprocessed.smi:36|AV-procd|sdf|293|dock4
  -GOLD-   2262016 83D 1   1.00000     0.00000
 Structure written by MMmdl.
 64 67  0  0  0  0  0  0  0  0  1 V2000
  148.1013  133.9275  159.5948 C   0  0  0  0  0  0  0  0  0  0  0  0
  147.6169  135.2489  160.2145 C   0  0  0  0  0  0  0  0  0  0  0  0
  147.1394  135.0060  161.6559 C   0  0  0  0  0  0  0  0  0  0  0  0
  148.7609  136.2767  160.2134 C   0  0  0  0  0  0  0  0  0  0  0  0
  146.1630  135.9373  159.1835 Si  0  0  0  0  0  0  0  0  0  0  0  0
  144.7651  134.6573  159.0382 C   0  0  0  0  0  0  0  0  0  0  0  0
  145.4796  137.5373  159.9475 C   0  0  0  0  0  0  0  0  0  0  0  0
  146.7419  136.2998  157.6334 O   0  0  0  0  0  0  0  0  0  0  0  0
  146.1995  137.3086  156.8044 C   0  0  0  0  0  0  0  0  0  0  0  0
  146.4992  136.9785  155.3277 C   0  0  2  0  0  0  0  0  0  0  0  0
  147.9039  137.1532  155.1259 O   0  0  0  0  0  0  0  0  0  0  0  0
  148.1542  138.2861  154.3457 C   0  0  2  0  0  0  0  0  0  0  0  0
  149.2000  139.1180  155.0111 N   0  0  0  0  0  0  0  0  0  0  0  0
  149.7492  140.2678  154.5731 C   0  0  0  0  0  0  0  0  0  0  0  0
  150.6774  140.7936  155.3695 N   0  0  0  0  0  0  0  0  0  0  0  0
  150.7254  139.8859  156.4228 C   0  0  0  0  0  0  0  0  0  0  0  0
  151.5565  139.8793  157.6466 C   0  0  0  0  0  0  0  0  0  0  0  0
  152.3914  140.8595  157.8155 N   0  0  0  0  0  0  0  0  0  0  0  0
  153.1905  140.9070  158.9510 C   0  0  0  0  0  0  0  0  0  0  0  0
  154.1511  140.1920  159.2502 O   0  0  0  0  0  0  0  0  0  0  0  0
  152.8395  142.0269  159.8762 C   0  0  0  0  0  0  0  0  0  0  0  0
  152.1622  143.1650  159.3885 C   0  0  0  0  0  0  0  0  0  0  0  0
  151.8334  144.2201  160.2619 C   0  0  0  0  0  0  0  0  0  0  0  0
  152.1795  144.1408  161.6246 C   0  0  0  0  0  0  0  0  0  0  0  0
  152.8569  143.0072  162.1142 C   0  0  0  0  0  0  0  0  0  0  0  0
  153.1879  141.9521  161.2416 C   0  0  0  0  0  0  0  0  0  0  0  0
  151.2556  138.7495  158.4190 N   0  0  0  0  0  0  0  0  0  0  0  0
  150.3124  137.7603  158.0996 C   0  0  0  0  0  0  0  0  0  0  0  0
  149.5714  137.7541  157.0238 N   0  0  0  0  0  0  0  0  0  0  0  0
  149.8310  138.8567  156.2223 C   0  0  0  0  0  0  0  0  0  0  0  0
  146.8454  139.0626  154.2488 C   0  0  0  0  0  0  0  0  0  0  0  0
  145.8543  137.9238  154.3003 C   0  0  2  0  0  0  0  0  0  0  0  0
  144.5548  138.3661  154.6370 O   0  0  0  0  0  0  0  0  0  0  0  0
  148.9313  133.5053  160.1624 H   0  0  0  0  0  0  0  0  0  0  0  0
  148.4444  134.0711  158.5701 H   0  0  0  0  0  0  0  0  0  0  0  0
  147.3056  133.1822  159.5739 H   0  0  0  0  0  0  0  0  0  0  0  0
  146.3280  134.2787  161.6887 H   0  0  0  0  0  0  0  0  0  0  0  0
  146.7747  135.9267  162.1127 H   0  0  0  0  0  0  0  0  0  0  0  0
  147.9466  134.6244  162.2823 H   0  0  0  0  0  0  0  0  0  0  0  0
  149.6058  135.9304  160.8095 H   0  0  0  0  0  0  0  0  0  0  0  0
  148.4350  137.2320  160.6266 H   0  0  0  0  0  0  0  0  0  0  0  0
  149.1275  136.4637  159.2038 H   0  0  0  0  0  0  0  0  0  0  0  0
  144.3584  134.3976  160.0152 H   0  0  0  0  0  0  0  0  0  0  0  0
  145.1117  133.7339  158.5752 H   0  0  0  0  0  0  0  0  0  0  0  0
  143.9399  135.0338  158.4340 H   0  0  0  0  0  0  0  0  0  0  0  0
  145.1041  137.3713  160.9569 H   0  0  0  0  0  0  0  0  0  0  0  0
  144.6562  137.9411  159.3587 H   0  0  0  0  0  0  0  0  0  0  0  0
  146.2443  138.3114  160.0072 H   0  0  0  0  0  0  0  0  0  0  0  0
  145.1253  137.3615  156.9818 H   0  0  0  0  0  0  0  0  0  0  0  0
  146.6144  138.2755  157.0892 H   0  0  0  0  0  0  0  0  0  0  0  0
  146.2154  135.9485  155.1132 H   0  0  0  0  0  0  0  0  0  0  0  0
  148.5714  137.9998  153.3793 H   0  0  0  0  0  0  0  0  0  0  0  0
  149.4636  140.7344  153.6419 H   0  0  0  0  0  0  0  0  0  0  0  0
  151.8935  143.2331  158.3441 H   0  0  0  0  0  0  0  0  0  0  0  0
  151.3158  145.0902  159.8862 H   0  0  0  0  0  0  0  0  0  0  0  0
  151.9267  144.9499  162.2936 H   0  0  0  0  0  0  0  0  0  0  0  0
  153.1222  142.9466  163.1593 H   0  0  0  0  0  0  0  0  0  0  0  0
  153.7082  141.0860  161.6250 H   0  0  0  0  0  0  0  0  0  0  0  0
  150.2366  136.9642  158.8414 H   0  0  0  0  0  0  0  0  0  0  0  0
  146.7375  139.7215  155.1124 H   0  0  0  0  0  0  0  0  0  0  0  0
  146.8005  139.6539  153.3338 H   0  0  0  0  0  0  0  0  0  0  0  0
  145.8183  137.4329  153.3265 H   0  0  0  0  0  0  0  0  0  0  0  0
  144.2724  138.9909  153.9867 H   0  0  0  0  0  0  0  0  0  0  0  0
  151.7652  138.6375  159.2836 H   0  0  0  0  0  0  0  0  0  0  0  0
  1  2  1  0  0  0  0
  1 34  1  0  0  0  0
  1 35  1  0  0  0  0
  1 36  1  0  0  0  0
  2  3  1  0  0  0  0
  2  4  1  0  0  0  0
  2  5  1  0  0  0  0
  3 37  1  0  0  0  0
  3 38  1  0  0  0  0
  3 39  1  0  0  0  0
  4 40  1  0  0  0  0
  4 41  1  0  0  0  0
  4 42  1  0  0  0  0
  5  6  1  0  0  0  0
  5  7  1  0  0  0  0
  5  8  1  0  0  0  0
  6 43  1  0  0  0  0
  6 44  1  0  0  0  0
  6 45  1  0  0  0  0
  7 46  1  0  0  0  0
  7 47  1  0  0  0  0
  7 48  1  0  0  0  0
  8  9  1  0  0  0  0
  9 10  1  0  0  0  0
  9 49  1  0  0  0  0
  9 50  1  0  0  0  0
 10 32  1  0  0  0  0
 10 11  1  0  0  0  0
 10 51  1  0  0  0  0
 11 12  1  0  0  0  0
 12 13  1  0  0  0  0
 12 31  1  0  0  0  0
 12 52  1  0  0  0  0
 13 30  1  0  0  0  0
 13 14  1  0  0  0  0
 14 15  2  0  0  0  0
 14 53  1  0  0  0  0
 15 16  1  0  0  0  0
 16 30  2  0  0  0  0
 16 17  1  0  0  0  0
 17 18  2  0  0  0  0
 17 27  1  0  0  0  0
 18 19  1  0  0  0  0
 19 20  2  0  0  0  0
 19 21  1  0  0  0  0
 21 26  1  0  0  0  0
 21 22  2  0  0  0  0
 22 23  1  0  0  0  0
 22 54  1  0  0  0  0
 23 24  2  0  0  0  0
 23 55  1  0  0  0  0
 24 25  1  0  0  0  0
 24 56  1  0  0  0  0
 25 26  2  0  0  0  0
 25 57  1  0  0  0  0
 26 58  1  0  0  0  0
 27 28  1  0  0  0  0
 27 64  1  0  0  0  0
 28 29  2  0  0  0  0
 28 59  1  0  0  0  0
 29 30  1  0  0  0  0
 31 32  1  0  0  0  0
 31 60  1  0  0  0  0
 31 61  1  0  0  0  0
 32 33  1  0  0  0  0
 32 62  1  0  0  0  0
 33 63  1  0  0  0  0
M  END
> <s_m_source_file>
AV-unprocessed.smi

> <i_m_source_file_index>
36

> <i_lp_mmshare_version>
43012

> <i_f3d_flags>
0

> <s_epik_input>
W0NIM11DKFtDSDNdKShbQ0gzXSlbU2ldKFtDSDNdKShbQ0gzXSlPW0NIMl1bQ0BASF0xT1tDQEhdKFtDSDJdW0NASF0xW09IXSluKFtjSF1uMiljKGMyMyluW2NIXW5jM1tOSF1DKD1PKWM0W2NIXVtjSF1bY0hdW2NIXVtjSF00

> <s_epik_cmdline>
J2VwaWtfcHl0aG9uJywgJy1waCcsICc3LjAnLCAnLXRuJywgJzgnLCAnLW1hJywgJzIwMCcsICctbWV0YWxfYmluZGluZycsICctaW1hZScsICc8aW5maWxlLm1hZT4nLCAnLW9tYWUnLCAnPG91dGZpbGUubWFlPic=

> <r_epik_Ionization_Penalty>
0.0850405

> <r_epik_Ionization_Penalty_Charging>
0.0850403

> <r_epik_Ionization_Penalty_Neutral>
1.47497e-07

> <r_epik_State_Penalty>
2.6133

> <r_epik_Charging_Adjusted_Penalty>
2.69834

> <i_epik_Tot_Q>
0

> <i_epik_Tot_abs_Q>
0

> <r_epik_Metal_State_Penalty>
2.92945

> <b_epik_Metal_Only>
0

> <s_epik_Chemistry_Notes>
This compound contains an acetal/aminal-like group ( X-CH(R)-Y where X, Y are N, S, or O) that may be acid/base labile, releasing an aldehyde.

> <s_lp_Force_Field>
OPLS_2005

> <r_lp_Energy>
48.5801

> <b_lp_Chiralities_Consistent>
1

> <s_lp_Variant>
AV-unprocessed.smi:36-15

> <Gold.Version>
5.8.1

> <Gold.Id.Protein>
6NUR|6NUR_protein|mol2

> <Gold.PLP.Fitness>
51.1036

> <Gold.PLP.PLP>
-44.9572

> <Gold.PLP.part.hbond>
-3.2928

> <Gold.PLP.part.metal>
0.0000

> <Gold.PLP.part.buried>
-4.3135

> <Gold.PLP.part.nonpolar>
-36.5273

> <Gold.PLP.part.repulsive>
0.2250

> <Gold.PLP.ligand.clash>
0.0000

> <Gold.PLP.ligand.torsion>
1.6506

> <Gold.PLP.Chemscore.Hbond>
2.0156

> <Gold.PLP.Chemscore.CHOScore>
0.9917

> <Gold.PLP.Chemscore.Metal>
0.0000

> <Gold.Chemscore.Hbonds>
donor molecule, donor type, donor heavy atom, donor atom, acceptor molecule, acceptor atom, score
      L1  H    33    63       P1 10175  0.62
      P1  H  7997  8010       L1    20  0.61
      L1  C    14    53       P1  7957  0.88

> <Gold.PLP.Chemscore.Internal.Correction>
0.4259

> <Gold.Rescore>
     Score         DG    S(hbond)    S(metal)    S(lipo)     H(rot)  DE(clash)    DE(int)     intcor
     10.70     -13.93       1.07        0.00     100.71       2.70       0.02       3.21       ----

> <Gold.Chemscore.Fitness>
10.7011

> <Gold.Chemscore.DG>
-13.9304

> <Gold.Chemscore.ZeroCoef>
-5.4800

> <Gold.Chemscore.Hbond>
1.0747

> <Gold.Chemscore.Metal>
0.0000

> <Gold.Chemscore.Lipo>
100.7127

> <Gold.Chemscore.Internal_Hbond>
0.0000

> <Gold.Chemscore.DEClash>
0.0205

> <Gold.Chemscore.DEInternal>
3.2088

> <Gold.Chemscore.Rot>
2.7041

> <Gold.Chemscore.Internal.Correction>
   9.000000E+99

> <Gold.Chemscore.Hbonds>
donor molecule, donor type, donor heavy atom, donor atom, acceptor molecule, acceptor atom, score
      L1  H    33    63       P1 10175  0.60
      P1  H  7997  8010       L1    20  0.10

> <Gold.Chemscore.Hbond.Weighted>
-3.5895

> <Gold.Chemscore.Metal.Weighted>
-0.0000

> <Gold.Chemscore.Lipo.Weighted>
-11.7834

> <Gold.Chemscore.Internal_Hbond.Weighted>
0.0000

> <Gold.Chemscore.DEClash.Weighted>
0.0205

> <Gold.Chemscore.DEInternal.Weighted>
3.2088

> <Gold.Chemscore.Rot.Weighted>
6.9225

> <Gold.Chemscore.Internal.Correction.Weighted>
   9.000000E+99

> <Gold.Protein.RotatedTorsions>
[ 6907 6896 6895 6894 ] final   40.35 input  -60.11 | X-H torsion
[ 7974 7965 7964 7962 ] final -152.56 input  175.53 | X-H torsion
[ 8008 7997 7996 7995 ] final    8.68 input   59.86 | X-H torsion
[ 10167 10162 10161 10158 ] final  157.65 input  -65.29 | X-H torsion
[ 10718 10713 10712 10709 ] final  -59.68 input   66.30 | X-H torsion
[ 10763 10752 10751 10750 ] final   36.06 input  -60.55 | X-H torsion
[ 11005 11000 10999 10996 ] final  -28.35 input  -57.11 | X-H torsion

> <Gold.Protein.ActiveResidues>
 VAL166  LYS551  ARG553  GLY616  TRP617  ASP618  TYR619  PRO620  LYS621  CYS622 
 ASP623  PHE694  ASN695  SER759  ASP760  ASP761  ALA762  ILE779  LEU786  VAL792 
 PHE793  MET794  SER795  GLU796  ALA797  LYS798  CYS799  TRP800  GLU811  SER814 

> <Gold.Protein.RotatedAtoms>
  152.1814  134.8750  160.0525 H   0  0  0  0  0  0  0  0  0  0  0  0  # atno 6907 bound_to 6896
  151.9673  133.3709  159.4066 H   0  0  0  0  0  0  0  0  0  0  0  0  # atno 6908 bound_to 6896
  150.6918  134.4100  159.5201 H   0  0  0  0  0  0  0  0  0  0  0  0  # atno 6909 bound_to 6896
  144.7787  140.4645  143.5854 H   0  0  0  0  0  0  0  0  0  0  0  0  # atno 7974 bound_to 7965
  154.7701  140.2800  155.6145 H   0  0  0  0  0  0  0  0  0  0  0  0  # atno 8008 bound_to 7997
  156.2932  140.2643  156.2429 H   0  0  0  0  0  0  0  0  0  0  0  0  # atno 8009 bound_to 7997
  154.9911  140.0373  157.2309 H   0  0  0  0  0  0  0  0  0  0  0  0  # atno 8010 bound_to 7997
  139.4824  144.4898  151.8325 H   0  0  0  0  0  0  0  0  0  0  0  0  # atno 10167 bound_to 10162
  156.1044  130.4182  150.0749 H   0  0  0  0  0  0  0  0  0  0  0  0  # atno 10718 bound_to 10713
  153.0092  135.6316  154.1926 H   0  0  0  0  0  0  0  0  0  0  0  0  # atno 10763 bound_to 10752
  154.1668  135.2820  155.3094 H   0  0  0  0  0  0  0  0  0  0  0  0  # atno 10764 bound_to 10752
  154.5939  135.5609  153.7366 H   0  0  0  0  0  0  0  0  0  0  0  0  # atno 10765 bound_to 10752
  140.9201  133.7405  156.0789 H   0  0  0  0  0  0  0  0  0  0  0  0  # atno 11005 bound_to 11000
  145.6111  139.1513  143.3075 LP  0  0  0  0  0  0  0  0  0  0  0  0  # atno 17320 bound_to 7965
  146.1983  140.6227  142.9114 LP  0  0  0  0  0  0  0  0  0  0  0  0  # atno 17321 bound_to 7965
  140.4381  144.2024  150.5890 LP  0  0  0  0  0  0  0  0  0  0  0  0  # atno 17342 bound_to 10162
  140.4711  143.2412  151.9087 LP  0  0  0  0  0  0  0  0  0  0  0  0  # atno 17343 bound_to 10162
  156.8728  130.9530  151.3607 LP  0  0  0  0  0  0  0  0  0  0  0  0  # atno 17370 bound_to 10713
  157.6219  130.8661  149.9123 LP  0  0  0  0  0  0  0  0  0  0  0  0  # atno 17371 bound_to 10713
  140.7999  134.3520  157.5442 LP  0  0  0  0  0  0  0  0  0  0  0  0  # atno 17394 bound_to 11000
  139.8773  134.9191  156.3220 LP  0  0  0  0  0  0  0  0  0  0  0  0  # atno 17395 bound_to 11000

$$$$
