AV-unprocessed.smi:3050|AV-procd|sdf|11631|dock5
  -GOLD-   2272017 23D 1   1.00000     0.00000
 Structure written by MMmdl.
 45 46  0  0  0  0  0  0  0  0  1 V2000
  151.9574  139.3968  156.9562 C   0  0  0  0  0  0  0  0  0  0  0  0
  152.9914  138.7838  157.9091 C   0  0  0  0  0  0  0  0  0  0  0  0
  153.2263  139.6415  159.1668 C   0  0  2  0  0  0  0  0  0  0  0  0
  153.1976  141.0126  158.7710 O   0  0  0  0  0  0  0  0  0  0  0  0
  152.5571  141.9186  159.6648 C   0  0  0  0  0  0  0  0  0  0  0  0
  152.4455  143.3002  159.0235 C   0  0  0  0  0  0  0  0  0  0  0  0
  152.2808  144.2601  160.2051 C   0  0  0  0  0  0  0  0  0  0  0  0
  152.9561  143.5762  161.4045 C   0  0  0  0  0  0  0  0  0  0  0  0
  153.3913  142.1876  160.9203 C   0  0  0  0  0  0  0  0  0  0  0  0
  154.5685  139.2995  159.8345 C   0  0  0  0  0  0  0  0  0  0  0  0
  155.6130  139.3312  159.1835 O   0  0  0  0  0  0  0  0  0  0  0  0
  154.5234  138.9891  161.1393 N   0  0  0  0  0  0  0  0  0  0  0  0
  155.6763  138.6427  161.9617 C   0  0  0  0  0  0  0  0  0  0  0  0
  155.2952  138.4956  163.4435 C   0  0  0  0  0  0  0  0  0  0  0  0
  156.0262  137.3522  164.0885 C   0  0  0  0  0  0  0  0  0  0  0  0
  156.9474  136.4516  163.4814 C   0  0  0  0  0  0  0  0  0  0  0  0
  157.4166  135.5483  164.3267 N   0  0  0  0  0  0  0  0  0  0  0  0
  156.8143  135.8394  165.4979 N   0  0  0  0  0  0  0  0  0  0  0  0
  157.1021  135.0361  166.6667 C   0  0  0  0  0  0  0  0  0  0  0  0
  155.9706  136.9234  165.3847 C   0  0  0  0  0  0  0  0  0  0  0  0
  151.8072  138.7592  156.0848 H   0  0  0  0  0  0  0  0  0  0  0  0
  152.2798  140.3752  156.5991 H   0  0  0  0  0  0  0  0  0  0  0  0
  150.9926  139.5204  157.4485 H   0  0  0  0  0  0  0  0  0  0  0  0
  152.6487  137.7897  158.2001 H   0  0  0  0  0  0  0  0  0  0  0  0
  153.9312  138.6398  157.3739 H   0  0  0  0  0  0  0  0  0  0  0  0
  152.4129  139.4521  159.8705 H   0  0  0  0  0  0  0  0  0  0  0  0
  151.5556  141.5839  159.9422 H   0  0  0  0  0  0  0  0  0  0  0  0
  153.3687  143.5352  158.4914 H   0  0  0  0  0  0  0  0  0  0  0  0
  151.6250  143.3663  158.3083 H   0  0  0  0  0  0  0  0  0  0  0  0
  152.7111  145.2392  159.9927 H   0  0  0  0  0  0  0  0  0  0  0  0
  151.2212  144.4076  160.4173 H   0  0  0  0  0  0  0  0  0  0  0  0
  153.8111  144.1483  161.7667 H   0  0  0  0  0  0  0  0  0  0  0  0
  152.2490  143.4892  162.2307 H   0  0  0  0  0  0  0  0  0  0  0  0
  153.2637  141.4230  161.6853 H   0  0  0  0  0  0  0  0  0  0  0  0
  154.4492  142.2128  160.6557 H   0  0  0  0  0  0  0  0  0  0  0  0
  153.6225  138.9928  161.5952 H   0  0  0  0  0  0  0  0  0  0  0  0
  156.0821  137.7021  161.5883 H   0  0  0  0  0  0  0  0  0  0  0  0
  156.4619  139.3906  161.8397 H   0  0  0  0  0  0  0  0  0  0  0  0
  155.5148  139.4251  163.9699 H   0  0  0  0  0  0  0  0  0  0  0  0
  154.2169  138.3553  163.5271 H   0  0  0  0  0  0  0  0  0  0  0  0
  157.2855  136.4281  162.4559 H   0  0  0  0  0  0  0  0  0  0  0  0
  156.4677  135.3447  167.4981 H   0  0  0  0  0  0  0  0  0  0  0  0
  158.1470  135.1618  166.9517 H   0  0  0  0  0  0  0  0  0  0  0  0
  156.9132  133.9845  166.4491 H   0  0  0  0  0  0  0  0  0  0  0  0
  155.4052  137.2960  166.2262 H   0  0  0  0  0  0  0  0  0  0  0  0
  1  2  1  0  0  0  0
  1 21  1  0  0  0  0
  1 22  1  0  0  0  0
  1 23  1  0  0  0  0
  2  3  1  0  0  0  0
  2 24  1  0  0  0  0
  2 25  1  0  0  0  0
  3  4  1  0  0  0  0
  3 10  1  0  0  0  0
  3 26  1  0  0  0  0
  4  5  1  0  0  0  0
  5  9  1  0  0  0  0
  5  6  1  0  0  0  0
  5 27  1  0  0  0  0
  6  7  1  0  0  0  0
  6 28  1  0  0  0  0
  6 29  1  0  0  0  0
  7  8  1  0  0  0  0
  7 30  1  0  0  0  0
  7 31  1  0  0  0  0
  8  9  1  0  0  0  0
  8 32  1  0  0  0  0
  8 33  1  0  0  0  0
  9 34  1  0  0  0  0
  9 35  1  0  0  0  0
 10 11  2  0  0  0  0
 10 12  1  0  0  0  0
 12 13  1  0  0  0  0
 12 36  1  0  0  0  0
 13 14  1  0  0  0  0
 13 37  1  0  0  0  0
 13 38  1  0  0  0  0
 14 15  1  0  0  0  0
 14 39  1  0  0  0  0
 14 40  1  0  0  0  0
 15 20  2  0  0  0  0
 15 16  1  0  0  0  0
 16 17  2  0  0  0  0
 16 41  1  0  0  0  0
 17 18  1  0  0  0  0
 18 19  1  0  0  0  0
 18 20  1  0  0  0  0
 19 42  1  0  0  0  0
 19 43  1  0  0  0  0
 19 44  1  0  0  0  0
 20 45  1  0  0  0  0
M  END
> <s_m_source_file>
AV-unprocessed.smi

> <i_m_source_file_index>
3050

> <i_lp_mmshare_version>
43012

> <i_f3d_flags>
0

> <s_epik_input>
W0NIMl0xW0NIMl1bQ0gyXVtDSDJdW0NIXTFPW0NAQEhdKFtDSDJdW0NIM10pQyg9TylbTkhdW0NIMl1bQ0gyXWMyW2NIXW5uKFtDSDNdKVtjSF0y

> <s_epik_cmdline>
J2VwaWtfcHl0aG9uJywgJy1waCcsICc3LjAnLCAnLXRuJywgJzgnLCAnLW1hJywgJzIwMCcsICctbWV0YWxfYmluZGluZycsICctaW1hZScsICc8aW5maWxlLm1hZT4nLCAnLW9tYWUnLCAnPG91dGZpbGUubWFlPic=

> <r_lp_tautomer_probability>
1

> <r_epik_Ionization_Penalty>
0.000440265

> <r_epik_Ionization_Penalty_Charging>
0

> <r_epik_Ionization_Penalty_Neutral>
0.000440265

> <r_epik_State_Penalty>
-0

> <r_epik_Charging_Adjusted_Penalty>
0

> <i_epik_Tot_Q>
0

> <i_epik_Tot_abs_Q>
0

> <r_epik_Metal_State_Penalty>
-0

> <b_epik_Metal_Only>
0

> <s_lp_Force_Field>
OPLS_2005

> <r_lp_Energy>
20.5357

> <b_lp_Chiralities_Consistent>
1

> <s_lp_Variant>
AV-unprocessed.smi:3050-1

> <Gold.Version>
5.8.1

> <Gold.Id.Protein>
6NUR|6NUR_protein|mol2

> <Gold.PLP.Fitness>
43.3084

> <Gold.PLP.PLP>
-42.4394

> <Gold.PLP.part.hbond>
-1.4379

> <Gold.PLP.part.metal>
0.0000

> <Gold.PLP.part.buried>
-2.9496

> <Gold.PLP.part.nonpolar>
-38.2438

> <Gold.PLP.part.repulsive>
0.0568

> <Gold.PLP.ligand.clash>
0.0000

> <Gold.PLP.ligand.torsion>
1.1629

> <Gold.PLP.Chemscore.Hbond>
1.0000

> <Gold.PLP.Chemscore.CHOScore>
0.0000

> <Gold.PLP.Chemscore.Metal>
0.0000

> <Gold.Chemscore.Hbonds>
donor molecule, donor type, donor heavy atom, donor atom, acceptor molecule, acceptor atom, score
      P1  H  7997  8009       L1    11  0.22

> <Gold.PLP.Chemscore.Internal.Correction>
0.1948

> <Gold.Rescore>
     Score         DG    S(hbond)    S(metal)    S(lipo)     H(rot)  DE(clash)    DE(int)     intcor
     16.44     -17.69       0.96        0.00     116.83       1.83       0.01       1.23       ----

> <Gold.Chemscore.Fitness>
16.4426

> <Gold.Chemscore.DG>
-17.6860

> <Gold.Chemscore.ZeroCoef>
-5.4800

> <Gold.Chemscore.Hbond>
0.9636

> <Gold.Chemscore.Metal>
0.0000

> <Gold.Chemscore.Lipo>
116.8267

> <Gold.Chemscore.Internal_Hbond>
0.0000

> <Gold.Chemscore.DEClash>
0.0090

> <Gold.Chemscore.DEInternal>
1.2343

> <Gold.Chemscore.Rot>
1.8286

> <Gold.Chemscore.Internal.Correction>
   9.000000E+99

> <Gold.Chemscore.Hbonds>
donor molecule, donor type, donor heavy atom, donor atom, acceptor molecule, acceptor atom, score
      P1  H  7997  8009       L1    11  0.06

> <Gold.Chemscore.Hbond.Weighted>
-3.2184

> <Gold.Chemscore.Metal.Weighted>
-0.0000

> <Gold.Chemscore.Lipo.Weighted>
-13.6687

> <Gold.Chemscore.Internal_Hbond.Weighted>
0.0000

> <Gold.Chemscore.DEClash.Weighted>
0.0090

> <Gold.Chemscore.DEInternal.Weighted>
1.2343

> <Gold.Chemscore.Rot.Weighted>
4.6811

> <Gold.Chemscore.Internal.Correction.Weighted>
   9.000000E+99

> <Gold.Protein.RotatedTorsions>
[ 6907 6896 6895 6894 ] final  134.42 input  -60.11 | X-H torsion
[ 7974 7965 7964 7962 ] final -122.50 input  175.53 | X-H torsion
[ 8008 7997 7996 7995 ] final  142.04 input   59.86 | X-H torsion
[ 10167 10162 10161 10158 ] final  163.79 input  -65.29 | X-H torsion
[ 10718 10713 10712 10709 ] final  170.14 input   66.30 | X-H torsion
[ 10763 10752 10751 10750 ] final  153.59 input  -60.55 | X-H torsion
[ 11005 11000 10999 10996 ] final  -49.07 input  -57.11 | X-H torsion

> <Gold.Protein.ActiveResidues>
 VAL166  LYS551  ARG553  GLY616  TRP617  ASP618  TYR619  PRO620  LYS621  CYS622 
 ASP623  PHE694  ASN695  SER759  ASP760  ASP761  ALA762  ILE779  LEU786  VAL792 
 PHE793  MET794  SER795  GLU796  ALA797  LYS798  CYS799  TRP800  GLU811  SER814 

> <Gold.Protein.RotatedAtoms>
  152.3115  133.5758  159.5683 H   0  0  0  0  0  0  0  0  0  0  0  0  # atno 6907 bound_to 6896
  150.7325  134.0145  159.3689 H   0  0  0  0  0  0  0  0  0  0  0  0  # atno 6908 bound_to 6896
  151.8038  135.0701  160.0454 H   0  0  0  0  0  0  0  0  0  0  0  0  # atno 6909 bound_to 6896
  145.0288  140.8050  143.4336 H   0  0  0  0  0  0  0  0  0  0  0  0  # atno 7974 bound_to 7965
  156.2956  140.2299  156.4663 H   0  0  0  0  0  0  0  0  0  0  0  0  # atno 8008 bound_to 7997
  154.7974  140.0450  157.1268 H   0  0  0  0  0  0  0  0  0  0  0  0  # atno 8009 bound_to 7997
  154.9573  140.3050  155.5050 H   0  0  0  0  0  0  0  0  0  0  0  0  # atno 8010 bound_to 7997
  139.4879  144.4302  151.9080 H   0  0  0  0  0  0  0  0  0  0  0  0  # atno 10167 bound_to 10162
  157.0125  131.0208  151.2799 H   0  0  0  0  0  0  0  0  0  0  0  0  # atno 10718 bound_to 10713
  154.1387  135.2822  155.3166 H   0  0  0  0  0  0  0  0  0  0  0  0  # atno 10763 bound_to 10752
  154.6303  135.5437  153.7676 H   0  0  0  0  0  0  0  0  0  0  0  0  # atno 10764 bound_to 10752
  153.0258  135.6461  154.1534 H   0  0  0  0  0  0  0  0  0  0  0  0  # atno 10765 bound_to 10752
  141.0738  133.6671  156.3533 H   0  0  0  0  0  0  0  0  0  0  0  0  # atno 11005 bound_to 11000
  145.1798  139.2358  143.5298 LP  0  0  0  0  0  0  0  0  0  0  0  0  # atno 17320 bound_to 7965
  146.3496  140.1569  142.8591 LP  0  0  0  0  0  0  0  0  0  0  0  0  # atno 17321 bound_to 7965
  140.3749  144.2809  150.5915 LP  0  0  0  0  0  0  0  0  0  0  0  0  # atno 17342 bound_to 10162
  140.5286  143.2248  151.8275 LP  0  0  0  0  0  0  0  0  0  0  0  0  # atno 17343 bound_to 10162
  157.5310  130.8058  149.7917 LP  0  0  0  0  0  0  0  0  0  0  0  0  # atno 17370 bound_to 10713
  156.0131  130.3825  150.2199 LP  0  0  0  0  0  0  0  0  0  0  0  0  # atno 17371 bound_to 10713
  140.5617  134.5927  157.5435 LP  0  0  0  0  0  0  0  0  0  0  0  0  # atno 17394 bound_to 11000
  139.9550  134.7550  156.0361 LP  0  0  0  0  0  0  0  0  0  0  0  0  # atno 17395 bound_to 11000

$$$$
