#       Name:                AV-unprocessed.smi:39
#       Creating user name   scv26
#       Creation time:       Thu Mar 26 16:20:11 2020


#       File generated by GOLD software.
#

@<TRIPOS>MOLECULE
AV-unprocessed.smi:39
    42    43     1
SMALL
NO_CHARGES


@<TRIPOS>ATOM
      1 ****        -3.5885   1.5508   0.3059 C.3            1 S1                 0.0000
      2 ****        -2.8678   0.2602   0.6543 C.2            1 S1                 0.0000
      3 ****        -1.5756   0.0433   0.3238 C.2            1 S1                 0.0000
      4 ****        -0.9155  -1.1314   0.6422 N.am           1 S1                 0.0000
      5 ****         0.5588  -1.2845   0.3240 C.3            1 S1                 0.0000
      6 ****         0.9278  -0.9436  -1.1242 C.3            1 S1                 0.0000
      7 ****         2.3853  -0.5604  -0.9400 C.3            1 S1                 0.0000
      8 ****         2.9353   0.2560  -2.0273 N.2            1 S1                 0.0000
      9 ****         3.1278  -0.3189  -3.1065 N.1            1 S1                 1.0000
     10 ****         3.2151  -0.7745  -4.1457 N.1            1 S1                -1.0000
     11 ****         2.3731   0.1319   0.4387 C.3            1 S1                 0.0000
     12 ****         2.2688   1.6732   0.4907 C.3            1 S1                 0.0000
     13 ****         1.2497   2.1926  -0.3388 O.3            1 S1                 0.0000
     14 ****         1.2791  -0.4330   1.1615 O.3            1 S1                 0.0000
     15 ****        -1.5845  -2.1066   1.4329 C.2            1 S1                 0.0000
     16 ****        -0.9598  -3.1040   1.7939 O.2            1 S1                 0.0000
     17 ****        -2.8943  -1.9053   1.7558 N.pl3          1 S1                -1.0000
     18 ****        -3.5824  -0.7855   1.3935 C.2            1 S1                 0.0000
     19 ****        -4.7710  -0.6283   1.6721 O.2            1 S1                 0.0000
     20 ****         0.8509  -2.3104   0.5459 H              1 S1                 0.0000
     21 ****         2.9624  -1.4823  -0.8374 H              1 S1                 0.0000
     22 ****         3.2833  -0.1468   0.9712 H              1 S1                 0.0000
     23 ****        -2.9359   2.2348  -0.2375 H              1 S1                 0.0000
     24 ****        -3.9261   2.0545   1.2120 H              1 S1                 0.0000
     25 ****        -4.4577   1.3449  -0.3195 H              1 S1                 0.0000
     26 ****        -1.0437   0.8277  -0.1896 H              1 S1                 0.0000
     27 ****         0.7780  -1.8030  -1.7781 H              1 S1                 0.0000
     28 ****         0.3515  -0.1042  -1.5080 H              1 S1                 0.0000
     29 ****         2.1007   2.0058   1.5152 H              1 S1                 0.0000
     30 ****         3.2122   2.1145   0.1687 H              1 S1                 0.0000
     31 ****         1.2415   3.1333  -0.2512 H              1 S1                 0.0000
     32 ****         3.1439   1.2261  -1.9032 LP             1 S1                 0.0000
     33 ****         3.2919  -1.1749  -5.0588 LP             1 S1                 0.0000
     34 ****         0.3648   1.8202  -0.0591 LP             1 S1                 0.0000
     35 ****         1.4302   1.9441  -1.2904 LP             1 S1                 0.0000
     36 ****         1.6277  -0.9505   1.9431 LP             1 S1                 0.0000
     37 ****         0.6808   0.2993   1.4867 LP             1 S1                 0.0000
     38 ****        -0.0015  -3.2162   1.5308 LP             1 S1                 0.0000
     39 ****        -1.4105  -3.8021   2.3503 LP             1 S1                 0.0000
     40 ****        -3.3708  -2.6101   2.2814 LP             1 S1                 0.0000
     41 ****        -5.2431   0.2083   1.3946 LP             1 S1                 0.0000
     42 ****        -5.2644  -1.3373   2.1760 LP             1 S1                 0.0000
@<TRIPOS>BOND
    1    1    2 1     
    2    1   23 1     
    3    1   24 1     
    4    1   25 1     
    5    2   18 1     
    6    2    3 2     
    7    3    4 1     
    8    3   26 1     
    9    4    5 1     
   10    4   15 am    
   11    5   20 1     
   12    5   14 1     
   13    5    6 1     
   14    6    7 1     
   15    6   27 1     
   16    6   28 1     
   17    7   21 1     
   18    7    8 1     
   19    7   11 1     
   20    8    9 2     
   21    9   10 2     
   22   11   22 1     
   23   11   12 1     
   24   11   14 1     
   25   12   13 1     
   26   12   29 1     
   27   12   30 1     
   28   13   31 1     
   29   15   16 2     
   30   15   17 1     
   31   17   18 1     
   32   18   19 2     
   33    8   32 1     
   34   10   33 1     
   35   13   34 1     
   36   13   35 1     
   37   14   36 1     
   38   14   37 1     
   39   16   38 1     
   40   16   39 1     
   41   17   40 1     
   42   19   41 1     
   43   19   42 1     
@<TRIPOS>SUBSTRUCTURE
      1 S1             1
@<TRIPOS>SET
LONE_PAIRS      STATIC     ATOMS    <user>   **** ""
11 32 33 34 35 36 37 38 39 40 41 42
DONOR_HYDROGENS      STATIC     ATOMS    <user>   **** ""
1 31
ATOM$BLUE        STATIC     ATOMS    COLORGROUP SYSTEM
11 32 33 34 35 36 37 38 39 40 41 42
ATOM$RED        STATIC     ATOMS    COLORGROUP SYSTEM
1 31
