AV-unprocessed.smi:929|AV-procd|sdf|4195|dock9
  -GOLD-   22720 2103D 1   1.00000     0.00000
 Structure written by MMmdl.
 34 35  0  0  0  0  0  0  0  0  1 V2000
  143.7277  143.3955  161.7922 C   0  0  0  0  0  0  0  0  0  0  0  0
  145.0452  143.7674  161.1865 C   0  0  0  0  0  0  0  0  0  0  0  0
  145.5005  143.3362  159.9001 C   0  0  0  0  0  0  0  0  0  0  0  0
  146.7448  143.8274  159.5923 C   0  0  0  0  0  0  0  0  0  0  0  0
  147.5327  143.6773  158.4983 N   0  0  0  0  0  0  0  0  0  0  0  0
  148.4014  142.6864  158.2357 C   0  0  0  0  0  0  0  0  0  0  0  0
  148.6502  141.7402  158.9834 O   0  0  0  0  0  0  0  0  0  0  0  0
  148.9775  142.8522  157.0357 N   0  0  0  0  0  0  0  0  0  0  0  0
  149.9436  141.9369  156.4311 C   0  0  0  0  0  0  0  0  0  0  0  0
  150.9440  141.3480  157.4438 C   0  0  0  0  0  0  0  0  0  0  0  0
  151.0381  140.1262  157.5770 O   0  0  0  0  0  0  0  0  0  0  0  0
  151.7056  142.2043  158.1554 N   0  0  0  0  0  0  0  0  0  0  0  0
  151.6869  143.6624  158.0408 C   0  0  0  0  0  0  0  0  0  0  0  0
  152.8873  144.1550  158.8502 C   0  0  0  0  0  0  0  0  0  0  0  0
  153.1234  143.0533  159.8739 C   0  0  0  0  0  0  0  0  0  0  0  0
  152.6811  141.7776  159.1567 C   0  0  0  0  0  0  0  0  0  0  0  0
  147.2568  144.7926  160.9376 S   0  0  0  0  0  0  0  0  0  0  0  0
  145.8733  144.5430  161.8538 N   0  0  0  0  0  0  0  0  0  0  0  0
  143.0587  142.9556  161.0521 H   0  0  0  0  0  0  0  0  0  0  0  0
  143.2234  144.2666  162.2111 H   0  0  0  0  0  0  0  0  0  0  0  0
  143.8556  142.6681  162.5940 H   0  0  0  0  0  0  0  0  0  0  0  0
  144.8997  142.6970  159.2710 H   0  0  0  0  0  0  0  0  0  0  0  0
  147.4402  144.3944  157.7939 H   0  0  0  0  0  0  0  0  0  0  0  0
  148.7092  143.6551  156.4861 H   0  0  0  0  0  0  0  0  0  0  0  0
  149.3878  141.1195  155.9713 H   0  0  0  0  0  0  0  0  0  0  0  0
  150.4783  142.4469  155.6282 H   0  0  0  0  0  0  0  0  0  0  0  0
  151.7494  143.9985  157.0050 H   0  0  0  0  0  0  0  0  0  0  0  0
  150.7586  144.0427  158.4690 H   0  0  0  0  0  0  0  0  0  0  0  0
  153.7581  144.2381  158.1983 H   0  0  0  0  0  0  0  0  0  0  0  0
  152.7178  145.1300  159.3078 H   0  0  0  0  0  0  0  0  0  0  0  0
  154.1567  143.0088  160.2188 H   0  0  0  0  0  0  0  0  0  0  0  0
  152.4876  143.2227  160.7440 H   0  0  0  0  0  0  0  0  0  0  0  0
  152.2614  141.0542  159.8578 H   0  0  0  0  0  0  0  0  0  0  0  0
  153.5263  141.3089  158.6505 H   0  0  0  0  0  0  0  0  0  0  0  0
  1  2  1  0  0  0  0
  1 19  1  0  0  0  0
  1 20  1  0  0  0  0
  1 21  1  0  0  0  0
  2 18  2  0  0  0  0
  2  3  1  0  0  0  0
  3  4  2  0  0  0  0
  3 22  1  0  0  0  0
  4  5  1  0  0  0  0
  4 17  1  0  0  0  0
  5  6  1  0  0  0  0
  5 23  1  0  0  0  0
  6  7  2  0  0  0  0
  6  8  1  0  0  0  0
  8  9  1  0  0  0  0
  8 24  1  0  0  0  0
  9 10  1  0  0  0  0
  9 25  1  0  0  0  0
  9 26  1  0  0  0  0
 10 11  2  0  0  0  0
 10 12  1  0  0  0  0
 12 16  1  0  0  0  0
 12 13  1  0  0  0  0
 13 14  1  0  0  0  0
 13 27  1  0  0  0  0
 13 28  1  0  0  0  0
 14 15  1  0  0  0  0
 14 29  1  0  0  0  0
 14 30  1  0  0  0  0
 15 16  1  0  0  0  0
 15 31  1  0  0  0  0
 15 32  1  0  0  0  0
 16 33  1  0  0  0  0
 16 34  1  0  0  0  0
 17 18  1  0  0  0  0
M  END
> <s_m_source_file>
AV-unprocessed.smi

> <i_m_source_file_index>
929

> <i_lp_mmshare_version>
43012

> <i_f3d_flags>
0

> <s_epik_input>
W0NIM11jMVtjSF1jKHNuMSlbTkhdQyg9TylbTkhdW0NIMl1DKD1PKU4yW0NIMl1bQ0gyXVtDSDJdW0NIMl0y

> <s_epik_cmdline>
J2VwaWtfcHl0aG9uJywgJy1waCcsICc3LjAnLCAnLXRuJywgJzgnLCAnLW1hJywgJzIwMCcsICctbWV0YWxfYmluZGluZycsICctaW1hZScsICc8aW5maWxlLm1hZT4nLCAnLW9tYWUnLCAnPG91dGZpbGUubWFlPic=

> <r_lp_tautomer_probability>
1

> <r_epik_Ionization_Penalty>
3.14678e-05

> <r_epik_Ionization_Penalty_Charging>
0

> <r_epik_Ionization_Penalty_Neutral>
3.14678e-05

> <r_epik_State_Penalty>
-0

> <r_epik_Charging_Adjusted_Penalty>
0

> <i_epik_Tot_Q>
0

> <i_epik_Tot_abs_Q>
0

> <r_epik_Metal_State_Penalty>
-0

> <b_epik_Metal_Only>
0

> <s_lp_Force_Field>
OPLS_2005

> <r_lp_Energy>
23.5851

> <b_lp_Chiralities_Consistent>
1

> <s_lp_Variant>
AV-unprocessed.smi:929-1

> <Gold.Version>
5.8.1

> <Gold.Id.Protein>
6NUR|6NUR_protein|mol2

> <Gold.PLP.Fitness>
38.5020

> <Gold.PLP.PLP>
-34.7518

> <Gold.PLP.part.hbond>
-4.9131

> <Gold.PLP.part.metal>
0.0000

> <Gold.PLP.part.buried>
-1.9002

> <Gold.PLP.part.nonpolar>
-29.6015

> <Gold.PLP.part.repulsive>
0.2609

> <Gold.PLP.ligand.clash>
0.0000

> <Gold.PLP.ligand.torsion>
0.9029

> <Gold.PLP.Chemscore.Hbond>
1.8512

> <Gold.PLP.Chemscore.CHOScore>
0.0000

> <Gold.PLP.Chemscore.Metal>
0.0000

> <Gold.Chemscore.Hbonds>
donor molecule, donor type, donor heavy atom, donor atom, acceptor molecule, acceptor atom, score
      L1  H     5    23       P1  8029  0.78
      L1  H     8    24       P1  8028  0.54

> <Gold.PLP.Chemscore.Internal.Correction>
0.0024

> <Gold.Rescore>
     Score         DG    S(hbond)    S(metal)    S(lipo)     H(rot)  DE(clash)    DE(int)     intcor
     11.07     -14.29       0.91        0.00      77.62       1.29       1.19       2.03       ----

> <Gold.Chemscore.Fitness>
11.0721

> <Gold.Chemscore.DG>
-14.2938

> <Gold.Chemscore.ZeroCoef>
-5.4800

> <Gold.Chemscore.Hbond>
0.9110

> <Gold.Chemscore.Metal>
0.0000

> <Gold.Chemscore.Lipo>
77.6206

> <Gold.Chemscore.Internal_Hbond>
0.0000

> <Gold.Chemscore.DEClash>
1.1907

> <Gold.Chemscore.DEInternal>
2.0311

> <Gold.Chemscore.Rot>
1.2931

> <Gold.Chemscore.Internal.Correction>
   9.000000E+99

> <Gold.Chemscore.Hbonds>
donor molecule, donor type, donor heavy atom, donor atom, acceptor molecule, acceptor atom, score
      L1  H     5    23       P1  8029  0.11
      L1  H     8    24       P1  8028  0.35

> <Gold.Chemscore.Hbond.Weighted>
-3.0427

> <Gold.Chemscore.Metal.Weighted>
-0.0000

> <Gold.Chemscore.Lipo.Weighted>
-9.0816

> <Gold.Chemscore.Internal_Hbond.Weighted>
0.0000

> <Gold.Chemscore.DEClash.Weighted>
1.1907

> <Gold.Chemscore.DEInternal.Weighted>
2.0311

> <Gold.Chemscore.Rot.Weighted>
3.3105

> <Gold.Chemscore.Internal.Correction.Weighted>
   9.000000E+99

> <Gold.Protein.RotatedTorsions>
[ 6907 6896 6895 6894 ] final  -20.16 input  -60.11 | X-H torsion
[ 7974 7965 7964 7962 ] final   87.09 input  175.53 | X-H torsion
[ 8008 7997 7996 7995 ] final  106.68 input   59.86 | X-H torsion
[ 10167 10162 10161 10158 ] final  128.80 input  -65.29 | X-H torsion
[ 10718 10713 10712 10709 ] final  -43.47 input   66.30 | X-H torsion
[ 10763 10752 10751 10750 ] final  -53.40 input  -60.55 | X-H torsion
[ 11005 11000 10999 10996 ] final  127.30 input  -57.11 | X-H torsion

> <Gold.Protein.ActiveResidues>
 VAL166  LYS551  ARG553  GLY616  TRP617  ASP618  TYR619  PRO620  LYS621  CYS622 
 ASP623  PHE694  ASN695  SER759  ASP760  ASP761  ALA762  ILE779  LEU786  VAL792 
 PHE793  MET794  SER795  GLU796  ALA797  LYS798  CYS799  TRP800  GLU811  SER814 

> <Gold.Protein.RotatedAtoms>
  151.2524  135.0626  159.9066 H   0  0  0  0  0  0  0  0  0  0  0  0  # atno 6907 bound_to 6896
  152.5378  134.0318  159.8038 H   0  0  0  0  0  0  0  0  0  0  0  0  # atno 6908 bound_to 6896
  151.0528  133.5560  159.2672 H   0  0  0  0  0  0  0  0  0  0  0  0  # atno 6909 bound_to 6896
  145.5636  139.2306  143.2445 H   0  0  0  0  0  0  0  0  0  0  0  0  # atno 7974 bound_to 7965
  156.1763  140.3108  155.9065 H   0  0  0  0  0  0  0  0  0  0  0  0  # atno 8008 bound_to 7997
  155.3481  140.0469  157.3063 H   0  0  0  0  0  0  0  0  0  0  0  0  # atno 8009 bound_to 7997
  154.5293  140.2225  155.8843 H   0  0  0  0  0  0  0  0  0  0  0  0  # atno 8010 bound_to 7997
  139.5509  144.6812  151.4327 H   0  0  0  0  0  0  0  0  0  0  0  0  # atno 10167 bound_to 10162
  156.2486  130.4186  149.8675 H   0  0  0  0  0  0  0  0  0  0  0  0  # atno 10718 bound_to 10713
  154.1583  135.6479  153.4980 H   0  0  0  0  0  0  0  0  0  0  0  0  # atno 10763 bound_to 10752
  153.0118  135.5354  154.6737 H   0  0  0  0  0  0  0  0  0  0  0  0  # atno 10764 bound_to 10752
  154.6044  135.2947  155.0472 H   0  0  0  0  0  0  0  0  0  0  0  0  # atno 10765 bound_to 10752
  139.9500  134.9623  156.8834 H   0  0  0  0  0  0  0  0  0  0  0  0  # atno 11005 bound_to 11000
  146.1833  140.6462  142.9179 LP  0  0  0  0  0  0  0  0  0  0  0  0  # atno 17320 bound_to 7965
  144.7471  140.5095  143.6828 LP  0  0  0  0  0  0  0  0  0  0  0  0  # atno 17321 bound_to 7965
  140.6771  143.8165  150.7072 LP  0  0  0  0  0  0  0  0  0  0  0  0  # atno 17342 bound_to 10162
  140.1607  143.4278  152.2069 LP  0  0  0  0  0  0  0  0  0  0  0  0  # atno 17343 bound_to 10162
  156.6232  130.8635  151.3480 LP  0  0  0  0  0  0  0  0  0  0  0  0  # atno 17370 bound_to 10713
  157.7205  130.9553  150.1421 LP  0  0  0  0  0  0  0  0  0  0  0  0  # atno 17371 bound_to 10713
  140.5741  134.0415  155.7441 LP  0  0  0  0  0  0  0  0  0  0  0  0  # atno 17394 bound_to 11000
  141.1161  133.9538  157.2820 LP  0  0  0  0  0  0  0  0  0  0  0  0  # atno 17395 bound_to 11000

$$$$
