AV-unprocessed.smi:1464|AV-procd|sdf|5948|dock1
  -GOLD-   22720 6 33D 1   1.00000     0.00000
 Structure written by MMmdl.
 41 42  0  0  0  0  0  0  0  0  1 V2000
  151.5009  145.6404  160.5082 C   0  0  0  0  0  0  0  0  0  0  0  0
  152.3542  144.3800  160.2725 C   0  0  1  0  0  0  0  0  0  0  0  0
  152.4803  143.5906  161.5906 C   0  0  0  0  0  0  0  0  0  0  0  0
  153.3501  142.3399  161.4261 C   0  0  0  0  0  0  0  0  0  0  0  0
  152.7872  141.4328  160.3284 C   0  0  0  0  0  0  0  0  0  0  0  0
  152.6573  142.1835  158.9887 C   0  0  1  0  0  0  0  0  0  0  0  0
  152.0688  141.2878  157.9941 N   0  0  0  0  0  0  0  0  0  0  0  0
  152.5456  140.0815  157.6508 C   0  0  0  0  0  0  0  0  0  0  0  0
  153.5647  139.5929  158.1411 O   0  0  0  0  0  0  0  0  0  0  0  0
  151.7490  139.3290  156.5750 C   0  0  0  0  0  0  0  0  0  0  0  0
  150.4195  139.9027  156.3204 N   0  0  0  0  0  0  0  0  0  0  0  0
  150.2427  140.3714  155.0274 N   0  0  0  0  0  0  0  0  0  0  0  0
  149.1141  140.8900  154.6783 C   0  0  0  0  0  0  0  0  0  0  0  0
  148.9819  141.3402  153.3877 O   0  0  0  0  0  0  0  0  0  0  0  0
  148.0173  140.9967  155.6153 C   0  0  0  0  0  0  0  0  0  0  0  0
  148.2007  140.5420  156.8743 C   0  0  0  0  0  0  0  0  0  0  0  0
  149.4689  139.9499  157.3042 C   0  0  0  0  0  0  0  0  0  0  0  0
  149.6655  139.5323  158.4453 O   0  0  0  0  0  0  0  0  0  0  0  0
  151.8097  143.4777  159.1283 C   0  0  2  0  0  0  0  0  0  0  0  0
  151.7308  144.2350  157.7841 C   0  0  0  0  0  0  0  0  0  0  0  0
  149.1432  140.5862  152.8415 H   0  0  0  0  0  0  0  0  0  0  0  0
  150.4593  145.3837  160.7035 H   0  0  0  0  0  0  0  0  0  0  0  0
  151.5277  146.3162  159.6541 H   0  0  0  0  0  0  0  0  0  0  0  0
  151.8675  146.2061  161.3653 H   0  0  0  0  0  0  0  0  0  0  0  0
  153.3553  144.7117  159.9921 H   0  0  0  0  0  0  0  0  0  0  0  0
  152.9088  144.2255  162.3670 H   0  0  0  0  0  0  0  0  0  0  0  0
  151.4894  143.3007  161.9433 H   0  0  0  0  0  0  0  0  0  0  0  0
  154.3728  142.6289  161.1796 H   0  0  0  0  0  0  0  0  0  0  0  0
  153.3998  141.7947  162.3691 H   0  0  0  0  0  0  0  0  0  0  0  0
  153.4339  140.5622  160.2113 H   0  0  0  0  0  0  0  0  0  0  0  0
  151.8121  141.0532  160.6373 H   0  0  0  0  0  0  0  0  0  0  0  0
  153.6567  142.4751  158.6593 H   0  0  0  0  0  0  0  0  0  0  0  0
  151.2292  141.6112  157.5356 H   0  0  0  0  0  0  0  0  0  0  0  0
  152.3240  139.3028  155.6473 H   0  0  0  0  0  0  0  0  0  0  0  0
  151.6573  138.2884  156.8914 H   0  0  0  0  0  0  0  0  0  0  0  0
  147.0783  141.4316  155.3062 H   0  0  0  0  0  0  0  0  0  0  0  0
  147.3905  140.6154  157.5846 H   0  0  0  0  0  0  0  0  0  0  0  0
  150.7940  143.1813  159.3963 H   0  0  0  0  0  0  0  0  0  0  0  0
  152.7107  144.6067  157.4831 H   0  0  0  0  0  0  0  0  0  0  0  0
  151.0517  145.0851  157.8364 H   0  0  0  0  0  0  0  0  0  0  0  0
  151.3590  143.6003  156.9801 H   0  0  0  0  0  0  0  0  0  0  0  0
  1  2  1  0  0  0  0
  1 22  1  0  0  0  0
  1 23  1  0  0  0  0
  1 24  1  0  0  0  0
  2 19  1  0  0  0  0
  2  3  1  0  0  0  0
  2 25  1  0  0  0  0
  3  4  1  0  0  0  0
  3 26  1  0  0  0  0
  3 27  1  0  0  0  0
  4  5  1  0  0  0  0
  4 28  1  0  0  0  0
  4 29  1  0  0  0  0
  5  6  1  0  0  0  0
  5 30  1  0  0  0  0
  5 31  1  0  0  0  0
  6  7  1  0  0  0  0
  6 19  1  0  0  0  0
  6 32  1  0  0  0  0
  7  8  1  0  0  0  0
  7 33  1  0  0  0  0
  8  9  2  0  0  0  0
  8 10  1  0  0  0  0
 10 34  1  0  0  0  0
 10 35  1  0  0  0  0
 10 11  1  0  0  0  0
 11 12  1  0  0  0  0
 11 17  1  0  0  0  0
 12 13  2  0  0  0  0
 13 14  1  0  0  0  0
 13 15  1  0  0  0  0
 14 21  1  0  0  0  0
 15 36  1  0  0  0  0
 15 16  2  0  0  0  0
 16 37  1  0  0  0  0
 16 17  1  0  0  0  0
 17 18  2  0  0  0  0
 19 20  1  0  0  0  0
 19 38  1  0  0  0  0
 20 39  1  0  0  0  0
 20 40  1  0  0  0  0
 20 41  1  0  0  0  0
M  END
> <s_m_source_file>
AV-unprocessed.smi

> <i_m_source_file_index>
1464

> <i_lp_mmshare_version>
43012

> <i_f3d_flags>
0

> <s_epik_input>
W0NIM11bQ0BASF0xW0NIMl1bQ0gyXVtDSDJdW0NASF0oW0NASF0xW0NIM10pW05IXUMoPU8pW0NIMl1uMltuSF1jKD1PKVtjSF1bY0hdYzI9Tw==

> <s_epik_cmdline>
J2VwaWtfcHl0aG9uJywgJy1waCcsICc3LjAnLCAnLXRuJywgJzgnLCAnLW1hJywgJzIwMCcsICctbWV0YWxfYmluZGluZycsICctaW1hZScsICc8aW5maWxlLm1hZT4nLCAnLW9tYWUnLCAnPG91dGZpbGUubWFlPic=

> <r_lp_tautomer_probability>
0.9996

> <r_epik_Ionization_Penalty>
2.10335

> <r_epik_Ionization_Penalty_Charging>
3.98079e-08

> <r_epik_Ionization_Penalty_Neutral>
2.10335

> <r_epik_State_Penalty>
1.67957

> <r_epik_Charging_Adjusted_Penalty>
1.67957

> <i_epik_Tot_Q>
0

> <i_epik_Tot_abs_Q>
0

> <r_epik_Metal_State_Penalty>
1.67957

> <b_epik_Metal_Only>
0

> <s_lp_Force_Field>
OPLS_2005

> <r_lp_Energy>
24.139

> <b_lp_Chiralities_Consistent>
1

> <s_lp_Variant>
AV-unprocessed.smi:1464-14

> <Gold.Version>
5.8.1

> <Gold.Id.Protein>
6NUR|6NUR_protein|mol2

> <Gold.PLP.Fitness>
54.1096

> <Gold.PLP.PLP>
-42.9222

> <Gold.PLP.part.hbond>
-4.6407

> <Gold.PLP.part.metal>
0.0000

> <Gold.PLP.part.buried>
-3.0403

> <Gold.PLP.part.nonpolar>
-35.4166

> <Gold.PLP.part.repulsive>
0.1563

> <Gold.PLP.ligand.clash>
0.0000

> <Gold.PLP.ligand.torsion>
0.1722

> <Gold.PLP.Chemscore.Hbond>
3.8393

> <Gold.PLP.Chemscore.CHOScore>
0.0000

> <Gold.PLP.Chemscore.Metal>
0.0000

> <Gold.Chemscore.Hbonds>
donor molecule, donor type, donor heavy atom, donor atom, acceptor molecule, acceptor atom, score
      L1  H    14    21       P1  7957  0.88
      P1  H  7989  7998       L1    12  0.78
      P1  H  7997  8008       L1     9  1.00
      P1  H  8011  8017       L1    14  0.66

> <Gold.PLP.Chemscore.Internal.Correction>
0.0140

> <Gold.Rescore>
     Score         DG    S(hbond)    S(metal)    S(lipo)     H(rot)  DE(clash)    DE(int)     intcor
     16.56     -20.29       2.43        0.00     105.75       2.22       0.20       3.53       ----

> <Gold.Chemscore.Fitness>
16.5597

> <Gold.Chemscore.DG>
-20.2910

> <Gold.Chemscore.ZeroCoef>
-5.4800

> <Gold.Chemscore.Hbond>
2.4335

> <Gold.Chemscore.Metal>
0.0000

> <Gold.Chemscore.Lipo>
105.7472

> <Gold.Chemscore.Internal_Hbond>
0.0000

> <Gold.Chemscore.DEClash>
0.2032

> <Gold.Chemscore.DEInternal>
3.5282

> <Gold.Chemscore.Rot>
2.2224

> <Gold.Chemscore.Internal.Correction>
   9.000000E+99

> <Gold.Chemscore.Hbonds>
donor molecule, donor type, donor heavy atom, donor atom, acceptor molecule, acceptor atom, score
      L1  H    14    21       P1  7957  0.87
      P1  H  7989  7998       L1    12  0.41
      P1  H  7997  8008       L1     9  0.64
      P1  H  8011  8017       L1    14  0.07

> <Gold.Chemscore.Hbond.Weighted>
-8.1279

> <Gold.Chemscore.Metal.Weighted>
-0.0000

> <Gold.Chemscore.Lipo.Weighted>
-12.3724

> <Gold.Chemscore.Internal_Hbond.Weighted>
0.0000

> <Gold.Chemscore.DEClash.Weighted>
0.2032

> <Gold.Chemscore.DEInternal.Weighted>
3.5282

> <Gold.Chemscore.Rot.Weighted>
5.6893

> <Gold.Chemscore.Internal.Correction.Weighted>
   9.000000E+99

> <Gold.Protein.RotatedTorsions>
[ 6907 6896 6895 6894 ] final   75.01 input  -60.11 | X-H torsion
[ 7974 7965 7964 7962 ] final -125.07 input  175.53 | X-H torsion
[ 8008 7997 7996 7995 ] final -104.18 input   59.86 | X-H torsion
[ 10167 10162 10161 10158 ] final  138.70 input  -65.29 | X-H torsion
[ 10718 10713 10712 10709 ] final  161.47 input   66.30 | X-H torsion
[ 10763 10752 10751 10750 ] final    6.34 input  -60.55 | X-H torsion
[ 11005 11000 10999 10996 ] final  132.62 input  -57.11 | X-H torsion

> <Gold.Protein.ActiveResidues>
 VAL166  LYS551  ARG553  GLY616  TRP617  ASP618  TYR619  PRO620  LYS621  CYS622 
 ASP623  PHE694  ASN695  SER759  ASP760  ASP761  ALA762  ILE779  LEU786  VAL792 
 PHE793  MET794  SER795  GLU796  ALA797  LYS798  CYS799  TRP800  GLU811  SER814 

> <Gold.Protein.RotatedAtoms>
  152.5004  134.4186  159.9472 H   0  0  0  0  0  0  0  0  0  0  0  0  # atno 6907 bound_to 6896
  151.4157  133.3707  159.2757 H   0  0  0  0  0  0  0  0  0  0  0  0  # atno 6908 bound_to 6896
  150.9259  134.8698  159.7579 H   0  0  0  0  0  0  0  0  0  0  0  0  # atno 6909 bound_to 6896
  145.0014  140.7824  143.4494 H   0  0  0  0  0  0  0  0  0  0  0  0  # atno 7974 bound_to 7965
  154.8816  140.0419  157.1785 H   0  0  0  0  0  0  0  0  0  0  0  0  # atno 8008 bound_to 7997
  154.8633  140.2947  155.5504 H   0  0  0  0  0  0  0  0  0  0  0  0  # atno 8009 bound_to 7997
  156.2998  140.2443  156.3611 H   0  0  0  0  0  0  0  0  0  0  0  0  # atno 8010 bound_to 7997
  139.5102  144.6338  151.5750 H   0  0  0  0  0  0  0  0  0  0  0  0  # atno 10167 bound_to 10162
  157.1361  131.0529  151.2349 H   0  0  0  0  0  0  0  0  0  0  0  0  # atno 10718 bound_to 10713
  153.2489  135.6911  153.7701 H   0  0  0  0  0  0  0  0  0  0  0  0  # atno 10763 bound_to 10752
  153.6803  135.3329  155.3177 H   0  0  0  0  0  0  0  0  0  0  0  0  # atno 10764 bound_to 10752
  154.8386  135.4521  154.1439 H   0  0  0  0  0  0  0  0  0  0  0  0  # atno 10765 bound_to 10752
  139.9801  134.9551  156.9607 H   0  0  0  0  0  0  0  0  0  0  0  0  # atno 11005 bound_to 11000
  145.2148  139.2187  143.5124 LP  0  0  0  0  0  0  0  0  0  0  0  0  # atno 17320 bound_to 7965
  146.3452  140.1993  142.8589 LP  0  0  0  0  0  0  0  0  0  0  0  0  # atno 17321 bound_to 7965
  140.6080  143.9489  150.6432 LP  0  0  0  0  0  0  0  0  0  0  0  0  # atno 17342 bound_to 10162
  140.2723  143.3447  152.1227 LP  0  0  0  0  0  0  0  0  0  0  0  0  # atno 17343 bound_to 10162
  157.4349  130.7511  149.7020 LP  0  0  0  0  0  0  0  0  0  0  0  0  # atno 17370 bound_to 10713
  155.9798  130.4036  150.3567 LP  0  0  0  0  0  0  0  0  0  0  0  0  # atno 17371 bound_to 10713
  140.5114  134.0998  155.7271 LP  0  0  0  0  0  0  0  0  0  0  0  0  # atno 17394 bound_to 11000
  141.1474  133.9030  157.2182 LP  0  0  0  0  0  0  0  0  0  0  0  0  # atno 17395 bound_to 11000

$$$$
