AV-unprocessed.smi:193|AV-procd|sdf|1506|dock1
  -GOLD-   2262019333D 1   1.00000     0.00000
 Structure written by MMmdl.
 62 66  0  0  0  0  0  0  0  0  2 V2000
  146.4437  129.0718  153.3811 C   0  0  0  0  0  0  0  0  0  0  0  0
  146.8172  130.5366  153.1066 C   0  0  2  0  0  0  0  0  0  0  0  0
  146.7914  131.3632  154.4074 C   0  0  0  0  0  0  0  0  0  0  0  0
  147.7379  132.4769  154.3602 N   0  0  0  0  0  0  0  0  0  0  0  0
  148.1524  132.8507  155.5884 C   0  0  0  0  0  0  0  0  0  0  0  0
  149.2824  133.5941  155.6679 N   0  0  0  0  0  0  0  0  0  0  0  0
  149.7398  133.9824  156.8626 C   0  0  0  0  0  0  0  0  0  0  0  0
  149.2288  133.7393  158.0721 N   0  0  0  0  0  0  0  0  0  0  0  0
  148.0907  132.9914  157.9908 C   0  0  0  0  0  0  0  0  0  0  0  0
  147.4875  132.5059  156.7977 C   0  0  0  0  0  0  0  0  0  0  0  0
  146.3439  131.7779  157.1024 N   0  0  0  0  0  0  0  0  0  0  0  0
  146.2711  131.8359  158.4046 C   0  0  0  0  0  0  0  0  0  0  0  0
  147.2765  132.5490  159.0185 N   0  0  0  0  0  0  0  0  0  0  0  0
  147.4374  132.7720  160.4472 C   0  0  0  0  0  0  0  0  0  0  0  0
  147.2016  134.2389  160.8842 C   0  0  0  0  0  0  0  0  0  0  0  0
  145.8127  134.5025  160.7784 O   0  0  0  0  0  0  0  0  0  0  0  0
  147.6235  134.4346  162.3543 C   0  0  0  0  0  0  0  0  0  0  0  0
  147.5718  135.9120  162.7825 C   0  0  0  0  0  0  0  0  0  0  0  0
  148.3700  136.6996  161.9078 O   0  0  0  0  0  0  0  0  0  0  0  0
  147.8968  136.6815  160.5666 C   0  0  0  0  0  0  0  0  0  0  0  0
  147.9611  135.2522  159.9998 C   0  0  0  0  0  0  0  0  0  0  0  0
  147.4741  133.6195  153.4889 C   0  0  0  0  0  0  0  0  0  0  0  0
  147.2203  133.2319  152.0243 C   0  0  0  0  0  0  0  0  0  0  0  0
  145.8902  132.5906  151.8922 N   0  3  1  0  0  0  0  0  0  0  0  0
  145.1382  133.0510  150.7015 C   0  0  2  0  0  0  0  0  0  0  0  0
  145.5075  134.4453  150.2460 C   0  0  0  0  0  0  0  0  0  0  0  0
  144.1881  134.2108  150.9477 C   0  0  2  0  0  0  0  0  0  0  0  0
  143.9383  134.8199  152.3157 C   0  0  0  0  0  0  0  0  0  0  0  0
  145.9113  131.1082  151.9910 C   0  0  0  0  0  0  0  0  0  0  0  0
  145.4286  128.9853  153.7700 H   0  0  0  0  0  0  0  0  0  0  0  0
  147.1178  128.6231  154.1116 H   0  0  0  0  0  0  0  0  0  0  0  0
  146.5049  128.4739  152.4715 H   0  0  0  0  0  0  0  0  0  0  0  0
  147.8459  130.5214  152.7425 H   0  0  0  0  0  0  0  0  0  0  0  0
  145.7844  131.7279  154.6155 H   0  0  0  0  0  0  0  0  0  0  0  0
  147.0616  130.7165  155.2446 H   0  0  0  0  0  0  0  0  0  0  0  0
  150.6445  134.5724  156.8478 H   0  0  0  0  0  0  0  0  0  0  0  0
  145.4747  131.3606  158.9589 H   0  0  0  0  0  0  0  0  0  0  0  0
  146.7541  132.1050  160.9749 H   0  0  0  0  0  0  0  0  0  0  0  0
  148.4432  132.4561  160.7271 H   0  0  0  0  0  0  0  0  0  0  0  0
  145.4105  133.7985  160.2928 H   0  0  0  0  0  0  0  0  0  0  0  0
  147.0008  133.8305  163.0158 H   0  0  0  0  0  0  0  0  0  0  0  0
  148.6451  134.0752  162.4859 H   0  0  0  0  0  0  0  0  0  0  0  0
  146.5464  136.2840  162.7936 H   0  0  0  0  0  0  0  0  0  0  0  0
  147.9561  136.0181  163.7971 H   0  0  0  0  0  0  0  0  0  0  0  0
  146.8810  137.0767  160.5220 H   0  0  0  0  0  0  0  0  0  0  0  0
  148.5193  137.3462  159.9673 H   0  0  0  0  0  0  0  0  0  0  0  0
  149.0083  134.9545  159.9331 H   0  0  0  0  0  0  0  0  0  0  0  0
  147.5753  135.2462  158.9797 H   0  0  0  0  0  0  0  0  0  0  0  0
  146.6280  134.1935  153.8691 H   0  0  0  0  0  0  0  0  0  0  0  0
  148.3390  134.2840  153.5268 H   0  0  0  0  0  0  0  0  0  0  0  0
  147.2405  134.1508  151.4373 H   0  0  0  0  0  0  0  0  0  0  0  0
  148.0153  132.6049  151.6182 H   0  0  0  0  0  0  0  0  0  0  0  0
  144.9059  132.2877  149.9610 H   0  0  0  0  0  0  0  0  0  0  0  0
  146.2853  134.9758  150.7930 H   0  0  0  0  0  0  0  0  0  0  0  0
  145.4712  134.6514  149.1781 H   0  0  0  0  0  0  0  0  0  0  0  0
  143.3058  134.2262  150.3106 H   0  0  0  0  0  0  0  0  0  0  0  0
  144.8540  134.8674  152.9058 H   0  0  0  0  0  0  0  0  0  0  0  0
  143.1995  134.2319  152.8603 H   0  0  0  0  0  0  0  0  0  0  0  0
  143.5535  135.8338  152.2043 H   0  0  0  0  0  0  0  0  0  0  0  0
  146.2236  130.6870  151.0341 H   0  0  0  0  0  0  0  0  0  0  0  0
  144.8852  130.7759  152.1489 H   0  0  0  0  0  0  0  0  0  0  0  0
  145.3608  132.9182  152.6876 H   0  0  0  0  0  0  0  0  0  0  0  0
  1  2  1  0  0  0  0
  1 30  1  0  0  0  0
  1 31  1  0  0  0  0
  1 32  1  0  0  0  0
  2 29  1  0  0  0  0
  2  3  1  0  0  0  0
  2 33  1  0  0  0  0
  3  4  1  0  0  0  0
  3 34  1  0  0  0  0
  3 35  1  0  0  0  0
  4  5  1  0  0  0  0
  4 22  1  0  0  0  0
  5 10  1  0  0  0  0
  5  6  2  0  0  0  0
  6  7  1  0  0  0  0
  7  8  2  0  0  0  0
  7 36  1  0  0  0  0
  8  9  1  0  0  0  0
  9 13  1  0  0  0  0
  9 10  2  0  0  0  0
 10 11  1  0  0  0  0
 11 12  2  0  0  0  0
 12 13  1  0  0  0  0
 12 37  1  0  0  0  0
 13 14  1  0  0  0  0
 14 15  1  0  0  0  0
 14 38  1  0  0  0  0
 14 39  1  0  0  0  0
 15 21  1  0  0  0  0
 15 16  1  0  0  0  0
 15 17  1  0  0  0  0
 16 40  1  0  0  0  0
 17 18  1  0  0  0  0
 17 41  1  0  0  0  0
 17 42  1  0  0  0  0
 18 19  1  0  0  0  0
 18 43  1  0  0  0  0
 18 44  1  0  0  0  0
 19 20  1  0  0  0  0
 20 21  1  0  0  0  0
 20 45  1  0  0  0  0
 20 46  1  0  0  0  0
 21 47  1  0  0  0  0
 21 48  1  0  0  0  0
 22 23  1  0  0  0  0
 22 49  1  0  0  0  0
 22 50  1  0  0  0  0
 23 24  1  0  0  0  0
 23 51  1  0  0  0  0
 23 52  1  0  0  0  0
 24 25  1  0  0  0  0
 24 29  1  0  0  0  0
 24 62  1  0  0  0  0
 25 27  1  0  0  0  0
 25 26  1  0  0  0  0
 25 53  1  0  0  0  0
 26 27  1  0  0  0  0
 26 54  1  0  0  0  0
 26 55  1  0  0  0  0
 27 28  1  0  0  0  0
 27 56  1  0  0  0  0
 28 57  1  0  0  0  0
 28 58  1  0  0  0  0
 28 59  1  0  0  0  0
 29 60  1  0  0  0  0
 29 61  1  0  0  0  0
M  CHG  1  24   1
M  END
> <s_m_source_file>
AV-unprocessed.smi

> <i_m_source_file_index>
193

> <i_lp_mmshare_version>
43012

> <i_f3d_flags>
0

> <s_epik_input>
W0NIM11bQ0BASF0xW0NIMl1bQ0BIXTFOKFtDSDJdMilbQ0gyXVtDSDJdTihbQ0gyXVtDQEhdMltDSDNdKWMobltjSF1uMyljKGMzNCluW2NIXW40W0NIMl1DNShbT0hdKVtDSDJdW0NIMl1PW0NIMl1bQ0gyXTU=

> <s_epik_cmdline>
J2VwaWtfcHl0aG9uJywgJy1waCcsICc3LjAnLCAnLXRuJywgJzgnLCAnLW1hJywgJzIwMCcsICctbWV0YWxfYmluZGluZycsICctaW1hZScsICc8aW5maWxlLm1hZT4nLCAnLW9tYWUnLCAnPG91dGZpbGUubWFlPic=

> <r_lp_tautomer_probability>
1

> <r_epik_Ionization_Penalty>
0.0540825

> <r_epik_Ionization_Penalty_Charging>
0.0538476

> <r_epik_Ionization_Penalty_Neutral>
0.000234891

> <r_epik_State_Penalty>
0.0200719

> <r_epik_Charging_Adjusted_Penalty>
0.0739194

> <i_epik_Tot_Q>
1

> <i_epik_Tot_abs_Q>
1

> <r_epik_Metal_State_Penalty>
0.0199414

> <b_epik_Metal_Only>
0

> <s_lp_Force_Field>
OPLS_2005

> <r_lp_Energy>
59.2238

> <b_lp_Chiralities_Consistent>
1

> <s_lp_Variant>
AV-unprocessed.smi:193-11

> <Gold.Version>
5.8.1

> <Gold.Id.Protein>
6NUR|6NUR_protein|mol2

> <Gold.PLP.Fitness>
42.3079

> <Gold.PLP.PLP>
-37.6317

> <Gold.PLP.part.hbond>
-2.0000

> <Gold.PLP.part.metal>
0.0000

> <Gold.PLP.part.buried>
-5.7781

> <Gold.PLP.part.nonpolar>
-30.1562

> <Gold.PLP.part.repulsive>
0.1040

> <Gold.PLP.ligand.clash>
0.3894

> <Gold.PLP.ligand.torsion>
1.2761

> <Gold.PLP.Chemscore.Hbond>
2.0000

> <Gold.PLP.Chemscore.CHOScore>
0.0000

> <Gold.PLP.Chemscore.Metal>
0.0000

> <Gold.Chemscore.Hbonds>
donor molecule, donor type, donor heavy atom, donor atom, acceptor molecule, acceptor atom, score
      P1  H  6896  6909       L1     8  1.00
      P1  H  6931  6943       L1    19  0.95

> <Gold.PLP.Chemscore.Internal.Correction>
1.6178

> <Gold.Rescore>
     Score         DG    S(hbond)    S(metal)    S(lipo)     H(rot)  DE(clash)    DE(int)     intcor
     14.17     -17.32       1.88        0.00      95.75       2.20       0.07       3.08       ----

> <Gold.Chemscore.Fitness>
14.1682

> <Gold.Chemscore.DG>
-17.3243

> <Gold.Chemscore.ZeroCoef>
-5.4800

> <Gold.Chemscore.Hbond>
1.8798

> <Gold.Chemscore.Metal>
0.0000

> <Gold.Chemscore.Lipo>
95.7466

> <Gold.Chemscore.Internal_Hbond>
0.0000

> <Gold.Chemscore.DEClash>
0.0750

> <Gold.Chemscore.DEInternal>
3.0811

> <Gold.Chemscore.Rot>
2.2018

> <Gold.Chemscore.Internal.Correction>
   9.000000E+99

> <Gold.Chemscore.Hbonds>
donor molecule, donor type, donor heavy atom, donor atom, acceptor molecule, acceptor atom, score
      P1  H  6896  6909       L1     8  0.59
      P1  H  6931  6943       L1    19  0.22

> <Gold.Chemscore.Hbond.Weighted>
-6.2785

> <Gold.Chemscore.Metal.Weighted>
-0.0000

> <Gold.Chemscore.Lipo.Weighted>
-11.2024

> <Gold.Chemscore.Internal_Hbond.Weighted>
0.0000

> <Gold.Chemscore.DEClash.Weighted>
0.0750

> <Gold.Chemscore.DEInternal.Weighted>
3.0811

> <Gold.Chemscore.Rot.Weighted>
5.6366

> <Gold.Chemscore.Internal.Correction.Weighted>
   9.000000E+99

> <Gold.Protein.RotatedTorsions>
[ 6907 6896 6895 6894 ] final   24.73 input  -60.11 | X-H torsion
[ 7974 7965 7964 7962 ] final   21.63 input  175.53 | X-H torsion
[ 8008 7997 7996 7995 ] final -105.44 input   59.86 | X-H torsion
[ 10167 10162 10161 10158 ] final  127.98 input  -65.29 | X-H torsion
[ 10718 10713 10712 10709 ] final  -21.75 input   66.30 | X-H torsion
[ 10763 10752 10751 10750 ] final   53.72 input  -60.55 | X-H torsion
[ 11005 11000 10999 10996 ] final   -4.19 input  -57.11 | X-H torsion

> <Gold.Protein.ActiveResidues>
 VAL166  LYS551  ARG553  GLY616  TRP617  ASP618  TYR619  PRO620  LYS621  CYS622 
 ASP623  PHE694  ASN695  SER759  ASP760  ASP761  ALA762  ILE779  LEU786  VAL792 
 PHE793  MET794  SER795  GLU796  ALA797  LYS798  CYS799  TRP800  GLU811  SER814 

> <Gold.Protein.RotatedAtoms>
  151.9618  135.0119  160.0547 H   0  0  0  0  0  0  0  0  0  0  0  0  # atno 6907 bound_to 6896
  152.1861  133.4736  159.4992 H   0  0  0  0  0  0  0  0  0  0  0  0  # atno 6908 bound_to 6896
  150.6926  134.1689  159.4247 H   0  0  0  0  0  0  0  0  0  0  0  0  # atno 6909 bound_to 6896
  146.2063  139.8000  142.8723 H   0  0  0  0  0  0  0  0  0  0  0  0  # atno 7974 bound_to 7965
  154.8999  140.0413  157.1887 H   0  0  0  0  0  0  0  0  0  0  0  0  # atno 8008 bound_to 7997
  154.8455  140.2921  155.5611 H   0  0  0  0  0  0  0  0  0  0  0  0  # atno 8009 bound_to 7997
  156.2994  140.2474  156.3405 H   0  0  0  0  0  0  0  0  0  0  0  0  # atno 8010 bound_to 7997
  139.5550  144.6842  151.4209 H   0  0  0  0  0  0  0  0  0  0  0  0  # atno 10167 bound_to 10162
  156.5139  130.4616  149.6633 H   0  0  0  0  0  0  0  0  0  0  0  0  # atno 10718 bound_to 10713
  152.9798  135.5769  154.4788 H   0  0  0  0  0  0  0  0  0  0  0  0  # atno 10763 bound_to 10752
  154.4340  135.2774  155.1895 H   0  0  0  0  0  0  0  0  0  0  0  0  # atno 10764 bound_to 10752
  154.3591  135.6192  153.5735 H   0  0  0  0  0  0  0  0  0  0  0  0  # atno 10765 bound_to 10752
  140.6775  133.9182  155.8534 H   0  0  0  0  0  0  0  0  0  0  0  0  # atno 11005 bound_to 11000
  145.3306  141.0265  143.3448 LP  0  0  0  0  0  0  0  0  0  0  0  0  # atno 17320 bound_to 7965
  144.8801  139.4915  143.6727 LP  0  0  0  0  0  0  0  0  0  0  0  0  # atno 17321 bound_to 7965
  140.6821  143.8057  150.7136 LP  0  0  0  0  0  0  0  0  0  0  0  0  # atno 17342 bound_to 10162
  140.1514  143.4354  152.2128 LP  0  0  0  0  0  0  0  0  0  0  0  0  # atno 17343 bound_to 10162
  156.3213  130.7282  151.2195 LP  0  0  0  0  0  0  0  0  0  0  0  0  # atno 17370 bound_to 10713
  157.7446  131.0455  150.4845 LP  0  0  0  0  0  0  0  0  0  0  0  0  # atno 17371 bound_to 10713
  141.0343  134.0711  157.3977 LP  0  0  0  0  0  0  0  0  0  0  0  0  # atno 17394 bound_to 11000
  139.8962  135.0144  156.7039 LP  0  0  0  0  0  0  0  0  0  0  0  0  # atno 17395 bound_to 11000

$$$$
