#       Name:                AV-unprocessed.smi:1929
#       Creating user name   scv26
#       Creation time:       Fri Mar 27 09:54:57 2020


#       File generated by GOLD software.
#

@<TRIPOS>MOLECULE
AV-unprocessed.smi:1929
    48    49     1
SMALL
NO_CHARGES


@<TRIPOS>ATOM
      1 ****        -5.9712   4.0681   0.0850 C.3            1 S1                 0.0000
      2 ****        -5.4608   2.7027   0.1092 N.pl3          1 S1                -1.0000
      3 ****        -4.7907   2.1701   1.1662 C.2            1 S1                 0.0000
      4 ****        -4.4794   2.6639   2.2551 O.2            1 S1                 0.0000
      5 ****        -4.3588   0.7277   0.8763 C.3            1 S1                 0.0000
      6 ****        -2.8814   0.6479   0.7563 N.4            1 S1                 1.0000
      7 ****        -2.3678   1.1616  -0.5427 C.3            1 S1                 0.0000
      8 ****        -0.8308   1.1807  -0.5625 C.3            1 S1                 0.0000
      9 ****        -0.2527  -0.2127  -0.2692 C.3            1 S1                 0.0000
     10 ****         1.2046  -0.1409  -0.2100 N.am           1 S1                 0.0000
     11 ****         2.0403  -1.1551  -0.4768 C.2            1 S1                 0.0000
     12 ****         1.6608  -2.2826  -0.7919 O.2            1 S1                 0.0000
     13 ****         3.3235  -0.7809  -0.3323 N.am           1 S1                 0.0000
     14 ****         4.4974  -1.5524  -0.5505 C.ar           1 S1                 0.0000
     15 ****         5.6814  -1.1444   0.1033 C.ar           1 S1                 0.0000
     16 ****         6.8728  -1.8709  -0.0981 C.ar           1 S1                 0.0000
     17 ****         6.8766  -2.9418  -0.9206 N.pl3          1 S1                 1.0000
     18 ****         5.7745  -3.3605  -1.5790 C.ar           1 S1                 0.0000
     19 ****         4.5537  -2.6741  -1.4165 C.ar           1 S1                 0.0000
     20 ****        -0.8293  -0.7405   1.0569 C.3            1 S1                 0.0000
     21 ****        -2.3672  -0.7152   1.0443 C.3            1 S1                 0.0000
     22 ****        -6.4644   4.2997  -0.8589 H              1 S1                 0.0000
     23 ****        -5.1810   4.8091   0.2094 H              1 S1                 0.0000
     24 ****        -6.7042   4.2531   0.8709 H              1 S1                 0.0000
     25 ****        -4.6961   0.1222   1.7186 H              1 S1                 0.0000
     26 ****        -4.8374   0.3108  -0.0128 H              1 S1                 0.0000
     27 ****        -2.7471   0.5416  -1.3564 H              1 S1                 0.0000
     28 ****        -2.7327   2.1730  -0.7229 H              1 S1                 0.0000
     29 ****        -0.4810   1.5356  -1.5328 H              1 S1                 0.0000
     30 ****        -0.4705   1.8972   0.1774 H              1 S1                 0.0000
     31 ****        -0.5501  -0.8828  -1.0785 H              1 S1                 0.0000
     32 ****         1.6042   0.7497   0.0483 H              1 S1                 0.0000
     33 ****         3.4772   0.1508   0.0248 H              1 S1                 0.0000
     34 ****         5.6795  -0.2862   0.7598 H              1 S1                 0.0000
     35 ****         7.8162  -1.6281   0.3689 H              1 S1                 0.0000
     36 ****         5.9016  -4.2228  -2.2169 H              1 S1                 0.0000
     37 ****         3.6899  -3.0129  -1.9680 H              1 S1                 0.0000
     38 ****        -0.4824  -1.7580   1.2412 H              1 S1                 0.0000
     39 ****        -0.4650  -0.1343   1.8877 H              1 S1                 0.0000
     40 ****        -2.7370  -1.0514   2.0137 H              1 S1                 0.0000
     41 ****        -2.7500  -1.4140   0.2988 H              1 S1                 0.0000
     42 ****        -2.5150   1.2518   1.4784 H              1 S1                 0.0000
     43 ****         7.7497  -3.4529  -1.0543 H              1 S1                 0.0000
     44 ****        -5.6114   2.1268  -0.6943 LP             1 S1                 0.0000
     45 ****        -4.7286   3.6093   2.4649 LP             1 S1                 0.0000
     46 ****        -3.9783   2.1181   2.9267 LP             1 S1                 0.0000
     47 ****         0.6829  -2.4802  -0.8600 LP             1 S1                 0.0000
     48 ****         2.3304  -3.0012  -0.9798 LP             1 S1                 0.0000
@<TRIPOS>BOND
    1    1    2 1     
    2    1   22 1     
    3    1   23 1     
    4    1   24 1     
    5    2    3 1     
    6    3    4 2     
    7    3    5 1     
    8    5    6 1     
    9    5   25 1     
   10    5   26 1     
   11    6   21 1     
   12    6    7 1     
   13    6   42 1     
   14    7    8 1     
   15    7   27 1     
   16    7   28 1     
   17    8    9 1     
   18    8   29 1     
   19    8   30 1     
   20    9   10 1     
   21    9   20 1     
   22    9   31 1     
   23   10   11 am    
   24   10   32 1     
   25   11   12 2     
   26   11   13 am    
   27   13   14 1     
   28   13   33 1     
   29   14   19 ar    
   30   14   15 ar    
   31   15   16 ar    
   32   15   34 1     
   33   16   17 ar    
   34   16   35 1     
   35   17   18 ar    
   36   17   43 1     
   37   18   19 ar    
   38   18   36 1     
   39   19   37 1     
   40   20   21 1     
   41   20   38 1     
   42   20   39 1     
   43   21   40 1     
   44   21   41 1     
   45    2   44 1     
   46    4   45 1     
   47    4   46 1     
   48   12   47 1     
   49   12   48 1     
@<TRIPOS>SUBSTRUCTURE
      1 S1             1
@<TRIPOS>SET
LONE_PAIRS      STATIC     ATOMS    <user>   **** ""
5 44 45 46 47 48
DONOR_HYDROGENS      STATIC     ATOMS    <user>   **** ""
4 42 32 33 43
ATOM$BLUE        STATIC     ATOMS    COLORGROUP SYSTEM
5 44 45 46 47 48
ATOM$RED        STATIC     ATOMS    COLORGROUP SYSTEM
4 42 32 33 43
