#       Name:                AV-unprocessed.smi:1966
#       Creating user name   scv26
#       Creation time:       Fri Mar 27 10:11:43 2020


#       File generated by GOLD software.
#

@<TRIPOS>MOLECULE
AV-unprocessed.smi:1966
    61    62     1
SMALL
NO_CHARGES


@<TRIPOS>ATOM
      1 ****        -5.6848  -2.4184   2.8502 C.3            1 S1                 0.0000
      2 ****        -5.0370  -1.4419   1.8751 C.2            1 S1                 0.0000
      3 ****        -4.7378  -0.3065   2.2439 O.2            1 S1                 0.0000
      4 ****        -4.8270  -1.8974   0.6297 N.am           1 S1                 0.0000
      5 ****        -4.2097  -1.1365  -0.4591 C.3            1 S1                 0.0000
      6 ****        -2.6775  -1.2077  -0.3062 C.2            1 S1                 0.0000
      7 ****        -2.1264  -2.2989  -0.1568 O.2            1 S1                 0.0000
      8 ****        -2.0324  -0.0292  -0.3875 N.am           1 S1                 0.0000
      9 ****        -0.6393   0.2357  -0.2925 C.ar           1 S1                 0.0000
     10 ****        -0.1713   1.4740  -0.7729 C.ar           1 S1                 0.0000
     11 ****         1.2001   1.7767  -0.6797 C.ar           1 S1                 0.0000
     12 ****         2.0768   0.8322  -0.0964 C.ar           1 S1                 0.0000
     13 ****         3.4562   1.1145   0.0082 N.3            1 S1                 0.0000
     14 ****         3.7912   2.3751   0.6646 C.3            1 S1                 0.0000
     15 ****         5.2774   2.7186   0.4471 C.3            1 S1                 0.0000
     16 ****         5.6979   3.9683   1.2271 C.3            1 S1                 0.0000
     17 ****         6.0826   1.6275   0.8848 O.3            1 S1                 0.0000
     18 ****         5.8214   0.4322   0.1547 C.3            1 S1                 0.0000
     19 ****         6.8005  -0.6458   0.6308 C.3            1 S1                 0.0000
     20 ****         4.3536   0.0199   0.3725 C.3            1 S1                 0.0000
     21 ****         1.6252  -0.3568   0.3727 N.ar           1 S1                 0.0000
     22 ****         0.3091  -0.6431   0.2826 C.ar           1 S1                 0.0000
     23 ****        -4.6423  -1.7594  -1.8196 C.3            1 S1                 0.0000
     24 ****        -4.0113  -1.0509  -3.0367 C.3            1 S1                 0.0000
     25 ****        -6.1750  -1.7704  -1.9835 C.3            1 S1                 0.0000
     26 ****        -5.0800  -3.3207   2.9451 H              1 S1                 0.0000
     27 ****        -6.6781  -2.7019   2.5009 H              1 S1                 0.0000
     28 ****        -5.7852  -1.9693   3.8390 H              1 S1                 0.0000
     29 ****        -5.0985  -2.8471   0.4210 H              1 S1                 0.0000
     30 ****        -4.5433  -0.0973  -0.4154 H              1 S1                 0.0000
     31 ****        -2.6113   0.7737  -0.5866 H              1 S1                 0.0000
     32 ****        -0.8527   2.1860  -1.2155 H              1 S1                 0.0000
     33 ****         1.5627   2.7174  -1.0661 H              1 S1                 0.0000
     34 ****         3.1791   3.1956   0.2931 H              1 S1                 0.0000
     35 ****         3.5794   2.2799   1.7306 H              1 S1                 0.0000
     36 ****         5.4615   2.8944  -0.6143 H              1 S1                 0.0000
     37 ****         5.1192   4.8380   0.9155 H              1 S1                 0.0000
     38 ****         6.7519   4.1934   1.0628 H              1 S1                 0.0000
     39 ****         5.5492   3.8329   2.2988 H              1 S1                 0.0000
     40 ****         5.9976   0.6155  -0.9070 H              1 S1                 0.0000
     41 ****         6.6441  -1.5819   0.0942 H              1 S1                 0.0000
     42 ****         6.6806  -0.8451   1.6960 H              1 S1                 0.0000
     43 ****         7.8323  -0.3350   0.4640 H              1 S1                 0.0000
     44 ****         4.1887  -0.2469   1.4174 H              1 S1                 0.0000
     45 ****         4.1319  -0.8626  -0.2292 H              1 S1                 0.0000
     46 ****         0.0294  -1.5954   0.7042 H              1 S1                 0.0000
     47 ****        -4.3120  -2.7995  -1.8454 H              1 S1                 0.0000
     48 ****        -4.2597   0.0108  -3.0467 H              1 S1                 0.0000
     49 ****        -4.3702  -1.4826  -3.9715 H              1 S1                 0.0000
     50 ****        -2.9250  -1.1399  -3.0483 H              1 S1                 0.0000
     51 ****        -6.5836  -0.7608  -1.9309 H              1 S1                 0.0000
     52 ****        -6.6647  -2.3681  -1.2147 H              1 S1                 0.0000
     53 ****        -6.4639  -2.1945  -2.9455 H              1 S1                 0.0000
     54 ****        -4.9195  -0.0224   3.1854 LP             1 S1                 0.0000
     55 ****        -4.3130   0.3320   1.6022 LP             1 S1                 0.0000
     56 ****        -2.6728  -3.1362  -0.1349 LP             1 S1                 0.0000
     57 ****        -1.1325  -2.3477  -0.0574 LP             1 S1                 0.0000
     58 ****         3.6635   1.2472  -0.9610 LP             1 S1                 0.0000
     59 ****         5.8969   1.4595   1.8530 LP             1 S1                 0.0000
     60 ****         7.0453   1.8715   0.7675 LP             1 S1                 0.0000
     61 ****         2.2593  -1.0138   0.7805 LP             1 S1                 0.0000
@<TRIPOS>BOND
    1    1    2 1     
    2    1   26 1     
    3    1   27 1     
    4    1   28 1     
    5    2    3 2     
    6    2    4 am    
    7    4    5 1     
    8    4   29 1     
    9    5    6 1     
   10    5   23 1     
   11    5   30 1     
   12    6    7 2     
   13    6    8 am    
   14    8    9 1     
   15    8   31 1     
   16    9   22 ar    
   17    9   10 ar    
   18   10   11 ar    
   19   10   32 1     
   20   11   12 ar    
   21   11   33 1     
   22   12   13 1     
   23   12   21 ar    
   24   13   20 1     
   25   13   14 1     
   26   14   15 1     
   27   14   34 1     
   28   14   35 1     
   29   15   16 1     
   30   15   17 1     
   31   15   36 1     
   32   16   37 1     
   33   16   38 1     
   34   16   39 1     
   35   17   18 1     
   36   18   19 1     
   37   18   20 1     
   38   18   40 1     
   39   19   41 1     
   40   19   42 1     
   41   19   43 1     
   42   20   44 1     
   43   20   45 1     
   44   21   22 ar    
   45   22   46 1     
   46   23   24 1     
   47   23   25 1     
   48   23   47 1     
   49   24   48 1     
   50   24   49 1     
   51   24   50 1     
   52   25   51 1     
   53   25   52 1     
   54   25   53 1     
   55    3   54 1     
   56    3   55 1     
   57    7   56 1     
   58    7   57 1     
   59   13   58 1     
   60   17   59 1     
   61   17   60 1     
   62   21   61 1     
@<TRIPOS>SUBSTRUCTURE
      1 S1             1
@<TRIPOS>SET
LONE_PAIRS      STATIC     ATOMS    <user>   **** ""
8 54 55 56 57 58 59 60 61
DONOR_HYDROGENS      STATIC     ATOMS    <user>   **** ""
2 29 31
ATOM$BLUE        STATIC     ATOMS    COLORGROUP SYSTEM
8 54 55 56 57 58 59 60 61
ATOM$RED        STATIC     ATOMS    COLORGROUP SYSTEM
2 29 31
