AV-unprocessed.smi:911|AV-procd|sdf|4138|dock8
  -GOLD-   22720 2 43D 1   1.00000     0.00000
 Structure written by MMmdl.
 47 49  0  0  0  0  0  0  0  0  3 V2000
  146.3579  134.2214  151.4594 C   0  0  0  0  0  0  0  0  0  0  0  0
  145.0600  135.0517  151.6716 C   0  0  0  0  0  0  0  0  0  0  0  0
  144.4150  135.1607  150.2611 C   0  0  0  0  0  0  0  0  0  0  0  0
  144.1191  134.4931  152.7579 C   0  0  2  0  0  0  0  0  0  0  0  0
  142.9904  135.5465  152.8361 C   0  0  0  0  0  0  0  0  0  0  0  0
  143.7485  136.8682  152.5918 C   0  0  0  0  0  0  0  0  0  0  0  0
  145.2176  136.3967  152.4360 C   0  0  2  0  0  0  0  0  0  0  0  0
  146.1068  137.4562  151.7551 C   0  0  0  0  0  0  0  0  0  0  0  0
  145.6570  135.9803  153.8753 C   0  0  2  0  0  0  0  0  0  0  0  0
  147.1051  135.8657  154.0225 N   0  0  0  0  0  0  0  0  0  0  0  0
  147.8005  135.7321  155.1640 C   0  0  0  0  0  0  0  0  0  0  0  0
  147.2688  135.6237  156.2679 O   0  0  0  0  0  0  0  0  0  0  0  0
  149.3362  135.7520  155.0663 C   0  0  0  0  0  0  0  0  0  0  0  0
  149.9296  137.1002  155.1464 N   0  0  0  0  0  0  0  0  0  0  0  0
  149.1164  138.1724  154.7288 C   0  0  0  0  0  0  0  0  0  0  0  0
  149.5630  139.4429  154.7030 C   0  0  0  0  0  0  0  0  0  0  0  0
  148.7242  140.5245  154.2367 N   0  3  0  0  0  0  0  0  0  0  0  0
  147.5724  140.2717  153.8988 O   0  0  0  0  0  0  0  0  0  0  0  0
  149.1862  141.6609  154.1971 O   0  5  0  0  0  0  0  0  0  0  0  0
  150.9242  139.6874  155.1383 C   0  0  0  0  0  0  0  0  0  0  0  0
  151.7089  138.6659  155.5346 C   0  0  0  0  0  0  0  0  0  0  0  0
  151.2265  137.2809  155.5429 C   0  0  0  0  0  0  0  0  0  0  0  0
  151.9485  136.3408  155.8737 O   0  0  0  0  0  0  0  0  0  0  0  0
  144.9402  134.6244  154.0612 C   0  0  0  0  0  0  0  0  0  0  0  0
  146.1315  133.2744  150.9688 H   0  0  0  0  0  0  0  0  0  0  0  0
  146.8989  133.9609  152.3644 H   0  0  0  0  0  0  0  0  0  0  0  0
  147.0588  134.7532  150.8152 H   0  0  0  0  0  0  0  0  0  0  0  0
  143.4854  135.7237  150.2180 H   0  0  0  0  0  0  0  0  0  0  0  0
  144.1910  134.1701  149.8641 H   0  0  0  0  0  0  0  0  0  0  0  0
  145.0989  135.6389  149.5592 H   0  0  0  0  0  0  0  0  0  0  0  0
  143.7552  133.4812  152.5766 H   0  0  0  0  0  0  0  0  0  0  0  0
  142.2297  135.3793  152.0732 H   0  0  0  0  0  0  0  0  0  0  0  0
  142.4824  135.5375  153.8012 H   0  0  0  0  0  0  0  0  0  0  0  0
  143.3841  137.3691  151.6946 H   0  0  0  0  0  0  0  0  0  0  0  0
  143.6168  137.5745  153.4123 H   0  0  0  0  0  0  0  0  0  0  0  0
  146.1787  138.3550  152.3679 H   0  0  0  0  0  0  0  0  0  0  0  0
  145.7014  137.7502  150.7871 H   0  0  0  0  0  0  0  0  0  0  0  0
  147.1191  137.0893  151.5853 H   0  0  0  0  0  0  0  0  0  0  0  0
  145.2828  136.6919  154.6136 H   0  0  0  0  0  0  0  0  0  0  0  0
  147.6381  135.9415  153.1685 H   0  0  0  0  0  0  0  0  0  0  0  0
  149.7355  135.1318  155.8702 H   0  0  0  0  0  0  0  0  0  0  0  0
  149.6307  135.2439  154.1467 H   0  0  0  0  0  0  0  0  0  0  0  0
  148.1244  137.8823  154.4130 H   0  0  0  0  0  0  0  0  0  0  0  0
  151.3244  140.6906  155.1493 H   0  0  0  0  0  0  0  0  0  0  0  0
  152.7205  138.8707  155.8534 H   0  0  0  0  0  0  0  0  0  0  0  0
  144.3064  134.6181  154.9488 H   0  0  0  0  0  0  0  0  0  0  0  0
  145.6414  133.7971  154.1748 H   0  0  0  0  0  0  0  0  0  0  0  0
  1  2  1  0  0  0  0
  1 25  1  0  0  0  0
  1 26  1  0  0  0  0
  1 27  1  0  0  0  0
  2  7  1  0  0  0  0
  2  3  1  0  0  0  0
  2  4  1  0  0  0  0
  3 28  1  0  0  0  0
  3 29  1  0  0  0  0
  3 30  1  0  0  0  0
  4 24  1  0  0  0  0
  4  5  1  0  0  0  0
  4 31  1  0  0  0  0
  5  6  1  0  0  0  0
  5 32  1  0  0  0  0
  5 33  1  0  0  0  0
  6  7  1  0  0  0  0
  6 34  1  0  0  0  0
  6 35  1  0  0  0  0
  7  8  1  0  0  0  0
  7  9  1  0  0  0  0
  8 36  1  0  0  0  0
  8 37  1  0  0  0  0
  8 38  1  0  0  0  0
  9 10  1  0  0  0  0
  9 24  1  0  0  0  0
  9 39  1  0  0  0  0
 10 11  1  0  0  0  0
 10 40  1  0  0  0  0
 11 12  2  0  0  0  0
 11 13  1  0  0  0  0
 13 14  1  0  0  0  0
 13 41  1  0  0  0  0
 13 42  1  0  0  0  0
 14 22  1  0  0  0  0
 14 15  1  0  0  0  0
 15 16  2  0  0  0  0
 15 43  1  0  0  0  0
 16 17  1  0  0  0  0
 16 20  1  0  0  0  0
 17 18  2  0  0  0  0
 17 19  1  0  0  0  0
 20 21  2  0  0  0  0
 20 44  1  0  0  0  0
 21 22  1  0  0  0  0
 21 45  1  0  0  0  0
 22 23  2  0  0  0  0
 24 46  1  0  0  0  0
 24 47  1  0  0  0  0
M  CHG  1  17   1
M  CHG  1  19  -1
M  END
> <s_m_source_file>
AV-unprocessed.smi

> <i_m_source_file_index>
911

> <i_lp_mmshare_version>
43012

> <i_f3d_flags>
0

> <s_epik_input>
W0NIM11bQ0BdMTJDKFtDSDNdKShbQ0gzXSlbQ0BIXShbQ0gyXVtDSDJdMSlbQ0gyXVtDQEBIXTJbTkhdQyg9TylbQ0gyXW4zW2NIXWMoW04rXSg9TylbTy1dKVtjSF1bY0hdYzM9Tw==

> <s_epik_cmdline>
J2VwaWtfcHl0aG9uJywgJy1waCcsICc3LjAnLCAnLXRuJywgJzgnLCAnLW1hJywgJzIwMCcsICctbWV0YWxfYmluZGluZycsICctaW1hZScsICc8aW5maWxlLm1hZT4nLCAnLW9tYWUnLCAnPG91dGZpbGUubWFlPic=

> <r_lp_tautomer_probability>
1

> <r_epik_Ionization_Penalty>
2.04092e-08

> <r_epik_Ionization_Penalty_Charging>
8.54191e-11

> <r_epik_Ionization_Penalty_Neutral>
2.03238e-08

> <r_epik_State_Penalty>
-0

> <r_epik_Charging_Adjusted_Penalty>
8.54191e-11

> <i_epik_Tot_Q>
0

> <i_epik_Tot_abs_Q>
2

> <r_epik_Metal_State_Penalty>
-0

> <b_epik_Metal_Only>
0

> <s_lp_Force_Field>
OPLS_2005

> <r_lp_Energy>
66.6033

> <b_lp_Chiralities_Consistent>
1

> <s_lp_Variant>
AV-unprocessed.smi:911-3

> <Gold.Version>
5.8.1

> <Gold.Id.Protein>
6NUR|6NUR_protein|mol2

> <Gold.PLP.Fitness>
41.0210

> <Gold.PLP.PLP>
-35.0238

> <Gold.PLP.part.hbond>
-3.8567

> <Gold.PLP.part.metal>
0.0000

> <Gold.PLP.part.buried>
1.3747

> <Gold.PLP.part.nonpolar>
-32.2563

> <Gold.PLP.part.repulsive>
0.3984

> <Gold.PLP.ligand.clash>
0.0000

> <Gold.PLP.ligand.torsion>
0.8811

> <Gold.PLP.Chemscore.Hbond>
2.5760

> <Gold.PLP.Chemscore.CHOScore>
0.0000

> <Gold.PLP.Chemscore.Metal>
0.0000

> <Gold.Chemscore.Hbonds>
donor molecule, donor type, donor heavy atom, donor atom, acceptor molecule, acceptor atom, score
      L1  H    10    40       P1  7948  1.00
      P1  H  8011  8017       L1    19  0.46
      P1  H 10752 10763       L1    23  1.00

> <Gold.PLP.Chemscore.Internal.Correction>
0.0314

> <Gold.Rescore>
     Score         DG    S(hbond)    S(metal)    S(lipo)     H(rot)  DE(clash)    DE(int)     intcor
     16.54     -18.45       2.50        0.00      72.93       1.53       1.08       0.84       ----

> <Gold.Chemscore.Fitness>
16.5383

> <Gold.Chemscore.DG>
-18.4520

> <Gold.Chemscore.ZeroCoef>
-5.4800

> <Gold.Chemscore.Hbond>
2.5000

> <Gold.Chemscore.Metal>
0.0000

> <Gold.Chemscore.Lipo>
72.9324

> <Gold.Chemscore.Internal_Hbond>
0.0000

> <Gold.Chemscore.DEClash>
1.0769

> <Gold.Chemscore.DEInternal>
0.8368

> <Gold.Chemscore.Rot>
1.5277

> <Gold.Chemscore.Internal.Correction>
   9.000000E+99

> <Gold.Chemscore.Hbonds>
donor molecule, donor type, donor heavy atom, donor atom, acceptor molecule, acceptor atom, score
      L1  H    10    40       P1  7948  1.00
      P1  H  8011  8017       L1    19  0.45
      P1  H 10752 10763       L1    23  1.00

> <Gold.Chemscore.Hbond.Weighted>
-8.3499

> <Gold.Chemscore.Metal.Weighted>
-0.0000

> <Gold.Chemscore.Lipo.Weighted>
-8.5331

> <Gold.Chemscore.Internal_Hbond.Weighted>
0.0000

> <Gold.Chemscore.DEClash.Weighted>
1.0769

> <Gold.Chemscore.DEInternal.Weighted>
0.8368

> <Gold.Chemscore.Rot.Weighted>
3.9110

> <Gold.Chemscore.Internal.Correction.Weighted>
   9.000000E+99

> <Gold.Protein.RotatedTorsions>
[ 6907 6896 6895 6894 ] final    0.56 input  -60.11 | X-H torsion
[ 7974 7965 7964 7962 ] final  146.63 input  175.53 | X-H torsion
[ 8008 7997 7996 7995 ] final  -21.49 input   59.86 | X-H torsion
[ 10167 10162 10161 10158 ] final    8.76 input  -65.29 | X-H torsion
[ 10718 10713 10712 10709 ] final    3.13 input   66.30 | X-H torsion
[ 10763 10752 10751 10750 ] final   74.35 input  -60.55 | X-H torsion
[ 11005 11000 10999 10996 ] final  -11.61 input  -57.11 | X-H torsion

> <Gold.Protein.ActiveResidues>
 VAL166  LYS551  ARG553  GLY616  TRP617  ASP618  TYR619  PRO620  LYS621  CYS622 
 ASP623  PHE694  ASN695  SER759  ASP760  ASP761  ALA762  ILE779  LEU786  VAL792 
 PHE793  MET794  SER795  GLU796  ALA797  LYS798  CYS799  TRP800  GLU811  SER814 

> <Gold.Protein.RotatedAtoms>
  151.5785  135.1059  160.0011 H   0  0  0  0  0  0  0  0  0  0  0  0  # atno 6907 bound_to 6896
  152.4366  133.7368  159.6629 H   0  0  0  0  0  0  0  0  0  0  0  0  # atno 6908 bound_to 6896
  150.8265  133.8094  159.3140 H   0  0  0  0  0  0  0  0  0  0  0  0  # atno 6909 bound_to 6896
  144.8655  139.5929  143.5911 H   0  0  0  0  0  0  0  0  0  0  0  0  # atno 7974 bound_to 7965
  154.4702  140.2033  156.0013 H   0  0  0  0  0  0  0  0  0  0  0  0  # atno 8008 bound_to 7997
  156.0998  140.3245  155.7897 H   0  0  0  0  0  0  0  0  0  0  0  0  # atno 8009 bound_to 7997
  155.4817  140.0539  157.2957 H   0  0  0  0  0  0  0  0  0  0  0  0  # atno 8010 bound_to 7997
  140.6295  143.8026  150.7276 H   0  0  0  0  0  0  0  0  0  0  0  0  # atno 10167 bound_to 10162
  156.8733  130.5627  149.5656 H   0  0  0  0  0  0  0  0  0  0  0  0  # atno 10718 bound_to 10713
  153.0581  135.5029  154.8029 H   0  0  0  0  0  0  0  0  0  0  0  0  # atno 10763 bound_to 10752
  154.6839  135.2973  154.9577 H   0  0  0  0  0  0  0  0  0  0  0  0  # atno 10764 bound_to 10752
  154.0354  135.6724  153.4837 H   0  0  0  0  0  0  0  0  0  0  0  0  # atno 10765 bound_to 10752
  140.7570  133.8545  155.9093 H   0  0  0  0  0  0  0  0  0  0  0  0  # atno 11005 bound_to 11000
  146.2893  139.7092  142.9173 LP  0  0  0  0  0  0  0  0  0  0  0  0  # atno 17320 bound_to 7965
  145.4229  141.0408  143.2954 LP  0  0  0  0  0  0  0  0  0  0  0  0  # atno 17321 bound_to 7965
  140.1634  143.4256  152.2051 LP  0  0  0  0  0  0  0  0  0  0  0  0  # atno 17342 bound_to 10162
  139.5511  144.7338  151.4433 LP  0  0  0  0  0  0  0  0  0  0  0  0  # atno 17343 bound_to 10162
  156.0715  130.5747  150.9392 LP  0  0  0  0  0  0  0  0  0  0  0  0  # atno 17370 bound_to 10713
  157.6183  131.0931  150.8669 LP  0  0  0  0  0  0  0  0  0  0  0  0  # atno 17371 bound_to 10713
  140.9698  134.1546  157.4586 LP  0  0  0  0  0  0  0  0  0  0  0  0  # atno 17394 bound_to 11000
  139.8777  134.9974  156.5847 LP  0  0  0  0  0  0  0  0  0  0  0  0  # atno 17395 bound_to 11000

$$$$
