#       Name:                AV-unprocessed.smi:2229
#       Creating user name   scv26
#       Creation time:       Fri Mar 27 12:23:39 2020


#       File generated by GOLD software.
#

@<TRIPOS>MOLECULE
AV-unprocessed.smi:2229
    49    50     1
SMALL
NO_CHARGES


@<TRIPOS>ATOM
      1 ****        -3.2168   3.3347   0.0590 C.3            1 S1                 0.0000
      2 ****        -3.6302   2.3404  -1.0393 C.3            1 S1                 0.0000
      3 ****        -5.1617   2.2538  -1.1295 C.3            1 S1                 0.0000
      4 ****        -3.0163   0.9400  -0.8331 C.3            1 S1                 0.0000
      5 ****        -1.4861   0.8909  -1.0017 C.3            1 S1                 0.0000
      6 ****        -0.8982  -0.5236  -0.8398 C.3            1 S1                 0.0000
      7 ****        -1.3214  -1.5130  -1.9320 C.3            1 S1                 0.0000
      8 ****        -0.2447  -2.5917  -1.8965 C.3            1 S1                 0.0000
      9 ****         1.0497  -1.8233  -1.6310 C.3            1 S1                 0.0000
     10 ****         0.6463  -0.5506  -0.8558 C.3            1 S1                 0.0000
     11 ****         1.1785  -0.5536   0.5048 N.am           1 S1                 0.0000
     12 ****         2.4527  -0.2951   0.8352 C.2            1 S1                 0.0000
     13 ****         3.3200  -0.0107   0.0080 O.2            1 S1                 0.0000
     14 ****         2.7885  -0.3446   2.3310 C.3            1 S1                 0.0000
     15 ****         4.1435  -0.8354   2.5880 N.am           1 S1                 0.0000
     16 ****         5.1971  -0.0170   2.9366 C.2            1 S1                 0.0000
     17 ****         6.2892  -0.6827   3.1003 N.2            1 S1                 0.0000
     18 ****         5.9004  -1.9546   2.8424 N.am           1 S1                 0.0000
     19 ****         4.6101  -2.0794   2.5279 C.2            1 S1                 0.0000
     20 ****         3.9983  -3.1092   2.2497 O.2            1 S1                 0.0000
     21 ****         6.5798  -2.6997   2.8989 H              1 S1                 0.0000
     22 ****        -3.5179   2.9823   1.0460 H              1 S1                 0.0000
     23 ****        -3.6819   4.3076  -0.1009 H              1 S1                 0.0000
     24 ****        -2.1395   3.4961   0.0752 H              1 S1                 0.0000
     25 ****        -3.2728   2.7284  -1.9940 H              1 S1                 0.0000
     26 ****        -5.5918   1.8648  -0.2061 H              1 S1                 0.0000
     27 ****        -5.4732   1.5988  -1.9437 H              1 S1                 0.0000
     28 ****        -5.6017   3.2343  -1.3142 H              1 S1                 0.0000
     29 ****        -3.2908   0.5599   0.1518 H              1 S1                 0.0000
     30 ****        -3.4652   0.2569  -1.5547 H              1 S1                 0.0000
     31 ****        -1.2099   1.2937  -1.9770 H              1 S1                 0.0000
     32 ****        -1.0195   1.5402  -0.2612 H              1 S1                 0.0000
     33 ****        -1.2424  -0.9334   0.1121 H              1 S1                 0.0000
     34 ****        -2.3193  -1.9204  -1.7672 H              1 S1                 0.0000
     35 ****        -1.3174  -1.0239  -2.9071 H              1 S1                 0.0000
     36 ****        -0.4405  -3.2778  -1.0715 H              1 S1                 0.0000
     37 ****        -0.2046  -3.1772  -2.8154 H              1 S1                 0.0000
     38 ****         1.7808  -2.4404  -1.1065 H              1 S1                 0.0000
     39 ****         1.5015  -1.5347  -2.5808 H              1 S1                 0.0000
     40 ****         1.0271   0.3223  -1.3901 H              1 S1                 0.0000
     41 ****         0.5298  -0.7724   1.2471 H              1 S1                 0.0000
     42 ****         2.6560   0.6539   2.7509 H              1 S1                 0.0000
     43 ****         2.0776  -0.9923   2.8471 H              1 S1                 0.0000
     44 ****         5.0368   1.0577   3.0377 H              1 S1                 0.0000
     45 ****         3.0881   0.0362  -0.9636 LP             1 S1                 0.0000
     46 ****         4.2560   0.1733   0.3081 LP             1 S1                 0.0000
     47 ****         7.1956  -0.3449   3.3539 LP             1 S1                 0.0000
     48 ****         3.0232  -3.0681   2.0320 LP             1 S1                 0.0000
     49 ****         4.4759  -3.9877   2.2411 LP             1 S1                 0.0000
@<TRIPOS>BOND
    1    1    2 1     
    2    1   22 1     
    3    1   23 1     
    4    1   24 1     
    5    2    3 1     
    6    2    4 1     
    7    2   25 1     
    8    3   26 1     
    9    3   27 1     
   10    3   28 1     
   11    4    5 1     
   12    4   29 1     
   13    4   30 1     
   14    5    6 1     
   15    5   31 1     
   16    5   32 1     
   17    6   10 1     
   18    6    7 1     
   19    6   33 1     
   20    7    8 1     
   21    7   34 1     
   22    7   35 1     
   23    8    9 1     
   24    8   36 1     
   25    8   37 1     
   26    9   10 1     
   27    9   38 1     
   28    9   39 1     
   29   10   11 1     
   30   10   40 1     
   31   11   12 am    
   32   11   41 1     
   33   12   13 2     
   34   12   14 1     
   35   14   15 1     
   36   14   42 1     
   37   14   43 1     
   38   15   19 am    
   39   15   16 1     
   40   16   17 2     
   41   16   44 1     
   42   17   18 1     
   43   18   21 1     
   44   18   19 am    
   45   19   20 2     
   46   13   45 1     
   47   13   46 1     
   48   17   47 1     
   49   20   48 1     
   50   20   49 1     
@<TRIPOS>SUBSTRUCTURE
      1 S1             1
@<TRIPOS>SET
LONE_PAIRS      STATIC     ATOMS    <user>   **** ""
5 45 46 47 48 49
DONOR_HYDROGENS      STATIC     ATOMS    <user>   **** ""
2 41 21
ATOM$BLUE        STATIC     ATOMS    COLORGROUP SYSTEM
5 45 46 47 48 49
ATOM$RED        STATIC     ATOMS    COLORGROUP SYSTEM
2 41 21
