AV-unprocessed.smi:3044|AV-procd|sdf|11608|dock9
  -GOLD-   2272016593D 1   1.00000     0.00000
 Structure written by MMmdl.
 41 42  0  0  0  0  0  0  0  0  1 V2000
  151.0217  141.5357  157.8617 C   0  0  0  0  0  0  0  0  0  0  0  0
  151.2226  142.8040  158.6728 C   0  0  0  0  0  0  0  0  0  0  0  0
  150.2932  143.7664  158.4796 N   0  0  0  0  0  0  0  0  0  0  0  0
  150.4157  144.9206  159.1667 C   0  0  0  0  0  0  0  0  0  0  0  0
  151.4667  145.1725  160.0675 C   0  0  0  0  0  0  0  0  0  0  0  0
  152.4339  144.1698  160.2680 C   0  0  0  0  0  0  0  0  0  0  0  0
  152.3127  142.9442  159.5676 C   0  0  0  0  0  0  0  0  0  0  0  0
  153.2492  141.8781  159.6872 N   0  0  0  0  0  0  0  0  0  0  0  0
  153.9779  141.5112  160.7578 C   0  0  0  0  0  0  0  0  0  0  0  0
  153.9177  142.0437  161.8654 O   0  0  0  0  0  0  0  0  0  0  0  0
  154.9123  140.3213  160.5531 C   0  0  0  0  0  0  0  0  0  0  0  0
  154.6375  139.3594  161.5608 O   0  0  0  0  0  0  0  0  0  0  0  0
  155.7213  138.4882  161.8649 C   0  0  1  0  0  0  0  0  0  0  0  0
  156.8116  139.2069  162.6876 C   0  0  0  0  0  0  0  0  0  0  0  0
  156.2945  139.6205  164.0743 C   0  0  0  0  0  0  0  0  0  0  0  0
  155.7420  138.4109  164.8439 C   0  0  0  0  0  0  0  0  0  0  0  0
  154.6399  137.6882  164.0460 C   0  0  2  0  0  0  0  0  0  0  0  0
  154.0992  136.4728  164.8126 C   0  0  0  0  0  0  0  0  0  0  0  0
  155.1554  137.2884  162.6475 C   0  0  0  0  0  0  0  0  0  0  0  0
  150.8777  140.6818  158.5239 H   0  0  0  0  0  0  0  0  0  0  0  0
  151.8914  141.3435  157.2330 H   0  0  0  0  0  0  0  0  0  0  0  0
  150.1486  141.6085  157.2119 H   0  0  0  0  0  0  0  0  0  0  0  0
  149.6577  145.6686  158.9878 H   0  0  0  0  0  0  0  0  0  0  0  0
  151.5329  146.1159  160.5887 H   0  0  0  0  0  0  0  0  0  0  0  0
  153.2536  144.3680  160.9405 H   0  0  0  0  0  0  0  0  0  0  0  0
  153.3342  141.2848  158.8746 H   0  0  0  0  0  0  0  0  0  0  0  0
  154.7680  139.8859  159.5626 H   0  0  0  0  0  0  0  0  0  0  0  0
  155.9412  140.6756  160.6124 H   0  0  0  0  0  0  0  0  0  0  0  0
  156.1522  138.1127  160.9352 H   0  0  0  0  0  0  0  0  0  0  0  0
  157.6625  138.5361  162.8121 H   0  0  0  0  0  0  0  0  0  0  0  0
  157.1963  140.0771  162.1577 H   0  0  0  0  0  0  0  0  0  0  0  0
  157.0973  140.0876  164.6454 H   0  0  0  0  0  0  0  0  0  0  0  0
  155.5142  140.3748  163.9651 H   0  0  0  0  0  0  0  0  0  0  0  0
  156.5553  137.7175  165.0620 H   0  0  0  0  0  0  0  0  0  0  0  0
  155.3510  138.7397  165.8073 H   0  0  0  0  0  0  0  0  0  0  0  0
  153.8108  138.3850  163.9142 H   0  0  0  0  0  0  0  0  0  0  0  0
  154.8798  135.7296  164.9798 H   0  0  0  0  0  0  0  0  0  0  0  0
  153.2912  135.9891  164.2631 H   0  0  0  0  0  0  0  0  0  0  0  0
  153.7052  136.7664  165.7860 H   0  0  0  0  0  0  0  0  0  0  0  0
  154.3543  136.8220  162.0726 H   0  0  0  0  0  0  0  0  0  0  0  0
  155.9345  136.5322  162.7526 H   0  0  0  0  0  0  0  0  0  0  0  0
  1  2  1  0  0  0  0
  1 20  1  0  0  0  0
  1 21  1  0  0  0  0
  1 22  1  0  0  0  0
  2  7  1  0  0  0  0
  2  3  2  0  0  0  0
  3  4  1  0  0  0  0
  4  5  2  0  0  0  0
  4 23  1  0  0  0  0
  5  6  1  0  0  0  0
  5 24  1  0  0  0  0
  6  7  2  0  0  0  0
  6 25  1  0  0  0  0
  7  8  1  0  0  0  0
  8  9  1  0  0  0  0
  8 26  1  0  0  0  0
  9 10  2  0  0  0  0
  9 11  1  0  0  0  0
 11 12  1  0  0  0  0
 11 27  1  0  0  0  0
 11 28  1  0  0  0  0
 12 13  1  0  0  0  0
 13 19  1  0  0  0  0
 13 14  1  0  0  0  0
 13 29  1  0  0  0  0
 14 15  1  0  0  0  0
 14 30  1  0  0  0  0
 14 31  1  0  0  0  0
 15 16  1  0  0  0  0
 15 32  1  0  0  0  0
 15 33  1  0  0  0  0
 16 17  1  0  0  0  0
 16 34  1  0  0  0  0
 16 35  1  0  0  0  0
 17 18  1  0  0  0  0
 17 19  1  0  0  0  0
 17 36  1  0  0  0  0
 18 37  1  0  0  0  0
 18 38  1  0  0  0  0
 18 39  1  0  0  0  0
 19 40  1  0  0  0  0
 19 41  1  0  0  0  0
M  END
> <s_m_source_file>
AV-unprocessed.smi

> <i_m_source_file_index>
3044

> <i_lp_mmshare_version>
43012

> <i_f3d_flags>
0

> <s_epik_input>
W0NIM11jMW5bY0hdW2NIXVtjSF1jMVtOSF1DKD1PKVtDSDJdT1tDQEBIXTJbQ0gyXVtDSDJdW0NIMl1bQ0BASF0oW0NIM10pW0NIMl0y

> <s_epik_cmdline>
J2VwaWtfcHl0aG9uJywgJy1waCcsICc3LjAnLCAnLXRuJywgJzgnLCAnLW1hJywgJzIwMCcsICctbWV0YWxfYmluZGluZycsICctaW1hZScsICc8aW5maWxlLm1hZT4nLCAnLW9tYWUnLCAnPG91dGZpbGUubWFlPic=

> <r_epik_Ionization_Penalty>
0.0077122

> <r_epik_Ionization_Penalty_Charging>
0

> <r_epik_Ionization_Penalty_Neutral>
0.0077122

> <r_epik_State_Penalty>
0.00577497

> <r_epik_Charging_Adjusted_Penalty>
0.00577497

> <i_epik_Tot_Q>
0

> <i_epik_Tot_abs_Q>
0

> <r_epik_Metal_State_Penalty>
-0

> <b_epik_Metal_Only>
0

> <s_lp_Force_Field>
OPLS_2005

> <r_lp_Energy>
18.191

> <b_lp_Chiralities_Consistent>
1

> <s_lp_Variant>
AV-unprocessed.smi:3044-4

> <Gold.Version>
5.8.1

> <Gold.Id.Protein>
6NUR|6NUR_protein|mol2

> <Gold.PLP.Fitness>
40.8178

> <Gold.PLP.PLP>
-38.8204

> <Gold.PLP.part.hbond>
-0.4334

> <Gold.PLP.part.metal>
0.0000

> <Gold.PLP.part.buried>
-6.8459

> <Gold.PLP.part.nonpolar>
-32.9478

> <Gold.PLP.part.repulsive>
0.2589

> <Gold.PLP.ligand.clash>
0.0000

> <Gold.PLP.ligand.torsion>
0.5027

> <Gold.PLP.Chemscore.Hbond>
0.0000

> <Gold.PLP.Chemscore.CHOScore>
1.0000

> <Gold.PLP.Chemscore.Metal>
0.0000

> <Gold.Chemscore.Hbonds>
donor molecule, donor type, donor heavy atom, donor atom, acceptor molecule, acceptor atom, score
      L1  C     4    23       P1  8029  1.00

> <Gold.PLP.Chemscore.Internal.Correction>
0.0029

> <Gold.Rescore>
     Score         DG    S(hbond)    S(metal)    S(lipo)     H(rot)  DE(clash)    DE(int)     intcor
     14.92     -15.53       0.00        0.00     114.46       1.31       0.04       0.57       ----

> <Gold.Chemscore.Fitness>
14.9198

> <Gold.Chemscore.DG>
-15.5275

> <Gold.Chemscore.ZeroCoef>
-5.4800

> <Gold.Chemscore.Hbond>
0.0000

> <Gold.Chemscore.Metal>
0.0000

> <Gold.Chemscore.Lipo>
114.4596

> <Gold.Chemscore.Internal_Hbond>
0.0000

> <Gold.Chemscore.DEClash>
0.0371

> <Gold.Chemscore.DEInternal>
0.5706

> <Gold.Chemscore.Rot>
1.3064

> <Gold.Chemscore.Internal.Correction>
   9.000000E+99

> <Gold.Chemscore.Hbond.Weighted>
-0.0000

> <Gold.Chemscore.Metal.Weighted>
-0.0000

> <Gold.Chemscore.Lipo.Weighted>
-13.3918

> <Gold.Chemscore.Internal_Hbond.Weighted>
0.0000

> <Gold.Chemscore.DEClash.Weighted>
0.0371

> <Gold.Chemscore.DEInternal.Weighted>
0.5706

> <Gold.Chemscore.Rot.Weighted>
3.3443

> <Gold.Chemscore.Internal.Correction.Weighted>
   9.000000E+99

> <Gold.Protein.RotatedTorsions>
[ 6907 6896 6895 6894 ] final    7.63 input  -60.11 | X-H torsion
[ 7974 7965 7964 7962 ] final  127.07 input  175.53 | X-H torsion
[ 8008 7997 7996 7995 ] final  -20.15 input   59.86 | X-H torsion
[ 10167 10162 10161 10158 ] final  -70.22 input  -65.29 | X-H torsion
[ 10718 10713 10712 10709 ] final  141.53 input   66.30 | X-H torsion
[ 10763 10752 10751 10750 ] final   18.58 input  -60.55 | X-H torsion
[ 11005 11000 10999 10996 ] final  105.55 input  -57.11 | X-H torsion

> <Gold.Protein.ActiveResidues>
 VAL166  LYS551  ARG553  GLY616  TRP617  ASP618  TYR619  PRO620  LYS621  CYS622 
 ASP623  PHE694  ASN695  SER759  ASP760  ASP761  ALA762  ILE779  LEU786  VAL792 
 PHE793  MET794  SER795  GLU796  ALA797  LYS798  CYS799  TRP800  GLU811  SER814 

> <Gold.Protein.RotatedAtoms>
  151.6931  135.0943  160.0236 H   0  0  0  0  0  0  0  0  0  0  0  0  # atno 6907 bound_to 6896
  152.3766  133.6486  159.6137 H   0  0  0  0  0  0  0  0  0  0  0  0  # atno 6908 bound_to 6896
  150.7714  133.9099  159.3407 H   0  0  0  0  0  0  0  0  0  0  0  0  # atno 6909 bound_to 6896
  145.0547  139.3854  143.5036 H   0  0  0  0  0  0  0  0  0  0  0  0  # atno 7974 bound_to 7965
  154.4789  140.2069  155.9812 H   0  0  0  0  0  0  0  0  0  0  0  0  # atno 8008 bound_to 7997
  156.1133  140.3225  155.8073 H   0  0  0  0  0  0  0  0  0  0  0  0  # atno 8009 bound_to 7997
  155.4596  140.0523  157.2983 H   0  0  0  0  0  0  0  0  0  0  0  0  # atno 8010 bound_to 7997
  140.5369  143.2317  151.7160 H   0  0  0  0  0  0  0  0  0  0  0  0  # atno 10167 bound_to 10162
  157.3909  131.1004  151.0647 H   0  0  0  0  0  0  0  0  0  0  0  0  # atno 10718 bound_to 10713
  153.1236  135.6725  153.9294 H   0  0  0  0  0  0  0  0  0  0  0  0  # atno 10763 bound_to 10752
  153.8801  135.3059  155.3446 H   0  0  0  0  0  0  0  0  0  0  0  0  # atno 10764 bound_to 10752
  154.7645  135.4971  153.9607 H   0  0  0  0  0  0  0  0  0  0  0  0  # atno 10765 bound_to 10752
  139.8803  134.9339  156.5531 H   0  0  0  0  0  0  0  0  0  0  0  0  # atno 11005 bound_to 11000
  146.3520  140.0215  142.8658 LP  0  0  0  0  0  0  0  0  0  0  0  0  # atno 17320 bound_to 7965
  145.1483  140.9609  143.4448 LP  0  0  0  0  0  0  0  0  0  0  0  0  # atno 17321 bound_to 7965
  139.4974  144.4028  152.0163 LP  0  0  0  0  0  0  0  0  0  0  0  0  # atno 17342 bound_to 10162
  140.3134  144.3511  150.6028 LP  0  0  0  0  0  0  0  0  0  0  0  0  # atno 17343 bound_to 10162
  157.1681  130.6255  149.5632 LP  0  0  0  0  0  0  0  0  0  0  0  0  # atno 17370 bound_to 10713
  155.9798  130.4794  150.6737 LP  0  0  0  0  0  0  0  0  0  0  0  0  # atno 17371 bound_to 10713
  140.8225  133.8342  155.8909 LP  0  0  0  0  0  0  0  0  0  0  0  0  # atno 17394 bound_to 11000
  140.9405  134.1907  157.4801 LP  0  0  0  0  0  0  0  0  0  0  0  0  # atno 17395 bound_to 11000

$$$$
