#       Name:                AV-unprocessed.smi:34
#       Creating user name   scv26
#       Creation time:       Thu Mar 26 15:57:09 2020


#       File generated by GOLD software.
#

@<TRIPOS>MOLECULE
AV-unprocessed.smi:34
    66    70     1
SMALL
NO_CHARGES


@<TRIPOS>ATOM
      1 ****        -3.9522   2.3007  -2.3580 O.2            1 S1                 0.0000
      2 ****        -4.2728   2.3989  -1.1714 C.2            1 S1                 0.0000
      3 ****        -3.5185   2.8561  -0.1399 N.pl3          1 S1                -1.0000
      4 ****        -2.2379   3.1963  -0.3504 C.ar           1 S1                 0.0000
      5 ****        -1.9001   4.4891  -0.5927 N.ar           1 S1                 0.0000
      6 ****        -0.6223   4.8263  -0.8058 C.ar           1 S1                 0.0000
      7 ****         0.4628   4.0453  -0.8173 N.ar           1 S1                 0.0000
      8 ****         0.1348   2.7457  -0.5618 C.ar           1 S1                 0.0000
      9 ****        -1.1778   2.2493  -0.3180 C.ar           1 S1                 0.0000
     10 ****        -1.1504   0.8801  -0.0953 N.2            1 S1                 0.0000
     11 ****         0.1487   0.6126  -0.2172 C.2            1 S1                 0.0000
     12 ****         0.9709   1.6467  -0.4944 N.pl3          1 S1                 0.0000
     13 ****         2.4551   1.6544  -0.6961 C.3            1 S1                 0.0000
     14 ****         2.9939   0.5244  -0.0715 O.3            1 S1                 0.0000
     15 ****         3.3699  -0.4338  -1.0549 C.3            1 S1                 0.0000
     16 ****         4.4334  -1.3820  -0.4927 C.3            1 S1                 0.0000
     17 ****         3.8167  -2.2851   0.4100 O.3            1 S1                 0.0000
     18 ****         4.5716  -3.1145   1.1558 C.2            1 S1                 0.0000
     19 ****         5.8026  -3.1511   1.1012 O.2            1 S1                 0.0000
     20 ****         3.7615  -3.9845   2.0566 C.ar           1 S1                 0.0000
     21 ****         4.4190  -4.9073   2.9034 C.ar           1 S1                 0.0000
     22 ****         3.6812  -5.7425   3.7646 C.ar           1 S1                 0.0000
     23 ****         2.2767  -5.6650   3.7897 C.ar           1 S1                 0.0000
     24 ****         1.6105  -4.7508   2.9528 C.ar           1 S1                 0.0000
     25 ****         2.3467  -3.9143   2.0909 C.ar           1 S1                 0.0000
     26 ****         3.8819   0.4691  -2.1713 C.3            1 S1                 0.0000
     27 ****         4.0235  -0.1474  -3.3460 F              1 S1                 0.0000
     28 ****         2.8498   1.5851  -2.1911 C.3            1 S1                 0.0000
     29 ****         1.7703   1.2696  -3.0564 O.3            1 S1                 0.0000
     30 ****        -5.6780   2.0402  -0.7684 C.ar           1 S1                 0.0000
     31 ****        -6.7496   2.3067  -1.6511 C.ar           1 S1                 0.0000
     32 ****        -8.0680   1.9515  -1.3053 C.ar           1 S1                 0.0000
     33 ****        -8.3279   1.3167  -0.0763 C.ar           1 S1                 0.0000
     34 ****        -7.2678   1.0344   0.8054 C.ar           1 S1                 0.0000
     35 ****        -5.9492   1.3897   0.4604 C.ar           1 S1                 0.0000
     36 ****        -0.4438   5.8745  -0.9949 H              1 S1                 0.0000
     37 ****         0.5199  -0.3949  -0.1007 H              1 S1                 0.0000
     38 ****         2.8004   2.5577  -0.1917 H              1 S1                 0.0000
     39 ****         2.4925  -0.9874  -1.3941 H              1 S1                 0.0000
     40 ****         4.8913  -1.9522  -1.3020 H              1 S1                 0.0000
     41 ****         5.2240  -0.8153   0.0013 H              1 S1                 0.0000
     42 ****         5.4968  -4.9851   2.9019 H              1 S1                 0.0000
     43 ****         4.1945  -6.4432   4.4065 H              1 S1                 0.0000
     44 ****         1.7112  -6.3058   4.4500 H              1 S1                 0.0000
     45 ****         0.5324  -4.6904   2.9718 H              1 S1                 0.0000
     46 ****         1.8042  -3.2234   1.4622 H              1 S1                 0.0000
     47 ****         4.8585   0.8753  -1.9033 H              1 S1                 0.0000
     48 ****         3.2865   2.5342  -2.5034 H              1 S1                 0.0000
     49 ****         1.1208   1.9528  -2.9878 H              1 S1                 0.0000
     50 ****        -6.5661   2.7895  -2.6002 H              1 S1                 0.0000
     51 ****        -8.8793   2.1641  -1.9855 H              1 S1                 0.0000
     52 ****        -9.3385   1.0427   0.1882 H              1 S1                 0.0000
     53 ****        -7.4638   0.5407   1.7457 H              1 S1                 0.0000
     54 ****        -5.1483   1.1534   1.1460 H              1 S1                 0.0000
     55 ****        -3.0376   2.5768  -2.6533 LP             1 S1                 0.0000
     56 ****        -4.6069   1.9450  -3.0250 LP             1 S1                 0.0000
     57 ****        -3.9159   2.9392   0.7740 LP             1 S1                 0.0000
     58 ****        -2.6100   5.1932  -0.6120 LP             1 S1                 0.0000
     59 ****         1.3923   4.3708  -0.9903 LP             1 S1                 0.0000
     60 ****        -1.9072   0.2577   0.1043 LP             1 S1                 0.0000
     61 ****         2.3101   0.1240   0.5385 LP             1 S1                 0.0000
     62 ****         3.7990   0.7899   0.4589 LP             1 S1                 0.0000
     63 ****         6.2937  -2.5427   0.4778 LP             1 S1                 0.0000
     64 ****         6.3100  -3.7891   1.6804 LP             1 S1                 0.0000
     65 ****         1.3682   0.3941  -2.7885 LP             1 S1                 0.0000
     66 ****         2.0996   1.2109  -3.9987 LP             1 S1                 0.0000
@<TRIPOS>BOND
    1    1    2 2     
    2    2    3 1     
    3    2   30 1     
    4    3    4 1     
    5    4    9 ar    
    6    4    5 ar    
    7    5    6 ar    
    8    6    7 ar    
    9    6   36 1     
   10    7    8 ar    
   11    8   12 1     
   12    8    9 ar    
   13    9   10 1     
   14   10   11 2     
   15   11   12 1     
   16   11   37 1     
   17   12   13 1     
   18   13   28 1     
   19   13   14 1     
   20   13   38 1     
   21   14   15 1     
   22   15   16 1     
   23   15   26 1     
   24   15   39 1     
   25   16   17 1     
   26   16   40 1     
   27   16   41 1     
   28   17   18 1     
   29   18   19 2     
   30   18   20 1     
   31   20   25 ar    
   32   20   21 ar    
   33   21   22 ar    
   34   21   42 1     
   35   22   23 ar    
   36   22   43 1     
   37   23   24 ar    
   38   23   44 1     
   39   24   25 ar    
   40   24   45 1     
   41   25   46 1     
   42   26   27 1     
   43   26   28 1     
   44   26   47 1     
   45   28   29 1     
   46   28   48 1     
   47   29   49 1     
   48   30   35 ar    
   49   30   31 ar    
   50   31   32 ar    
   51   31   50 1     
   52   32   33 ar    
   53   32   51 1     
   54   33   34 ar    
   55   33   52 1     
   56   34   35 ar    
   57   34   53 1     
   58   35   54 1     
   59    1   55 1     
   60    1   56 1     
   61    3   57 1     
   62    5   58 1     
   63    7   59 1     
   64   10   60 1     
   65   14   61 1     
   66   14   62 1     
   67   19   63 1     
   68   19   64 1     
   69   29   65 1     
   70   29   66 1     
@<TRIPOS>SUBSTRUCTURE
      1 S1             1
@<TRIPOS>SET
LONE_PAIRS      STATIC     ATOMS    <user>   **** ""
12 55 56 57 58 59 60 61 62 63 64 65 66
DONOR_HYDROGENS      STATIC     ATOMS    <user>   **** ""
1 49
ATOM$BLUE        STATIC     ATOMS    COLORGROUP SYSTEM
12 55 56 57 58 59 60 61 62 63 64 65 66
ATOM$RED        STATIC     ATOMS    COLORGROUP SYSTEM
1 49
