AV-unprocessed.smi:2955|AV-procd|sdf|11301|dock4
  -GOLD-   2272016193D 1   1.00000     0.00000
 Structure written by MMmdl.
 45 47  0  0  0  0  0  0  0  0  1 V2000
  155.2486  141.3993  170.0850 C   0  0  0  0  0  0  0  0  0  0  0  0
  155.3055  141.8816  168.6503 C   0  0  0  0  0  0  0  0  0  0  0  0
  155.1687  143.2518  168.3523 C   0  0  0  0  0  0  0  0  0  0  0  0
  155.2222  143.6878  167.0157 C   0  0  0  0  0  0  0  0  0  0  0  0
  155.4141  142.7594  165.9743 C   0  0  0  0  0  0  0  0  0  0  0  0
  155.5580  141.3786  166.2615 C   0  0  0  0  0  0  0  0  0  0  0  0
  155.7567  140.4046  165.3066 O   0  0  0  0  0  0  0  0  0  0  0  0
  155.8198  140.8017  163.9433 C   0  0  0  0  0  0  0  0  0  0  0  0
  155.3412  139.6541  163.0430 C   0  0  0  0  0  0  0  0  0  0  0  0
  154.7311  140.1385  161.8115 N   0  0  0  0  0  0  0  0  0  0  0  0
  154.7623  139.6004  160.5625 C   0  0  0  0  0  0  0  0  0  0  0  0
  155.4911  138.3212  160.2323 C   0  0  2  0  0  0  0  0  0  0  0  0
  155.2596  137.8797  158.7801 C   0  0  0  0  0  0  0  0  0  0  0  0
  155.0441  137.2826  161.1545 N   0  0  0  0  0  0  0  0  0  0  0  0
  153.9002  136.5998  161.0223 C   0  0  0  0  0  0  0  0  0  0  0  0
  153.1081  136.7866  160.1025 O   0  0  0  0  0  0  0  0  0  0  0  0
  154.0735  140.2688  159.6332 N   0  0  0  0  0  0  0  0  0  0  0  0
  153.5784  141.3504  160.3321 C   0  0  0  0  0  0  0  0  0  0  0  0
  152.7809  142.4348  159.9018 C   0  0  0  0  0  0  0  0  0  0  0  0
  152.3930  143.4402  160.8114 C   0  0  0  0  0  0  0  0  0  0  0  0
  152.7948  143.3747  162.1611 C   0  0  0  0  0  0  0  0  0  0  0  0
  153.5878  142.3010  162.6100 C   0  0  0  0  0  0  0  0  0  0  0  0
  153.9735  141.3005  161.6976 C   0  0  0  0  0  0  0  0  0  0  0  0
  155.4996  140.9555  167.6056 C   0  0  0  0  0  0  0  0  0  0  0  0
  154.9413  142.1977  170.7609 H   0  0  0  0  0  0  0  0  0  0  0  0
  156.2287  141.0418  170.4012 H   0  0  0  0  0  0  0  0  0  0  0  0
  154.5358  140.5802  170.1816 H   0  0  0  0  0  0  0  0  0  0  0  0
  155.0226  143.9716  169.1444 H   0  0  0  0  0  0  0  0  0  0  0  0
  155.1167  144.7380  166.7878 H   0  0  0  0  0  0  0  0  0  0  0  0
  155.4502  143.1340  164.9628 H   0  0  0  0  0  0  0  0  0  0  0  0
  155.1880  141.6764  163.7825 H   0  0  0  0  0  0  0  0  0  0  0  0
  156.8418  141.0701  163.6709 H   0  0  0  0  0  0  0  0  0  0  0  0
  156.1529  138.9648  162.8152 H   0  0  0  0  0  0  0  0  0  0  0  0
  154.5998  139.0607  163.5788 H   0  0  0  0  0  0  0  0  0  0  0  0
  156.5651  138.4502  160.3542 H   0  0  0  0  0  0  0  0  0  0  0  0
  155.5673  138.6582  158.0825 H   0  0  0  0  0  0  0  0  0  0  0  0
  154.2078  137.6644  158.5891 H   0  0  0  0  0  0  0  0  0  0  0  0
  155.8303  136.9805  158.5468 H   0  0  0  0  0  0  0  0  0  0  0  0
  155.6458  137.0670  161.9360 H   0  0  0  0  0  0  0  0  0  0  0  0
  153.7642  135.8650  161.8313 H   0  0  0  0  0  0  0  0  0  0  0  0
  152.4687  142.4940  158.8697 H   0  0  0  0  0  0  0  0  0  0  0  0
  151.7846  144.2656  160.4721 H   0  0  0  0  0  0  0  0  0  0  0  0
  152.4938  144.1487  162.8519 H   0  0  0  0  0  0  0  0  0  0  0  0
  153.8972  142.2492  163.6432 H   0  0  0  0  0  0  0  0  0  0  0  0
  155.6032  139.9058  167.8377 H   0  0  0  0  0  0  0  0  0  0  0  0
  1  2  1  0  0  0  0
  1 25  1  0  0  0  0
  1 26  1  0  0  0  0
  1 27  1  0  0  0  0
  2 24  1  0  0  0  0
  2  3  2  0  0  0  0
  3  4  1  0  0  0  0
  3 28  1  0  0  0  0
  4  5  2  0  0  0  0
  4 29  1  0  0  0  0
  5  6  1  0  0  0  0
  5 30  1  0  0  0  0
  6  7  1  0  0  0  0
  6 24  2  0  0  0  0
  7  8  1  0  0  0  0
  8  9  1  0  0  0  0
  8 31  1  0  0  0  0
  8 32  1  0  0  0  0
  9 10  1  0  0  0  0
  9 33  1  0  0  0  0
  9 34  1  0  0  0  0
 10 23  1  0  0  0  0
 10 11  1  0  0  0  0
 11 12  1  0  0  0  0
 11 17  2  0  0  0  0
 12 13  1  0  0  0  0
 12 14  1  0  0  0  0
 12 35  1  0  0  0  0
 13 36  1  0  0  0  0
 13 37  1  0  0  0  0
 13 38  1  0  0  0  0
 14 15  1  0  0  0  0
 14 39  1  0  0  0  0
 15 16  2  0  0  0  0
 15 40  1  0  0  0  0
 17 18  1  0  0  0  0
 18 23  2  0  0  0  0
 18 19  1  0  0  0  0
 19 20  2  0  0  0  0
 19 41  1  0  0  0  0
 20 21  1  0  0  0  0
 20 42  1  0  0  0  0
 21 22  2  0  0  0  0
 21 43  1  0  0  0  0
 22 23  1  0  0  0  0
 22 44  1  0  0  0  0
 24 45  1  0  0  0  0
M  END
> <s_m_source_file>
AV-unprocessed.smi

> <i_m_source_file_index>
2955

> <i_lp_mmshare_version>
43012

> <i_f3d_flags>
0

> <s_epik_input>
W0NIM11jMVtjSF1bY0hdW2NIXWMoW2NIXTEpT1tDSDJdW0NIMl1uKGMobjIpW0NASF0oW0NIM10pW05IXVtDSF09TyljKGMyMylbY0hdW2NIXVtjSF1bY0hdMw==

> <s_epik_cmdline>
J2VwaWtfcHl0aG9uJywgJy1waCcsICc3LjAnLCAnLXRuJywgJzgnLCAnLW1hJywgJzIwMCcsICctbWV0YWxfYmluZGluZycsICctaW1hZScsICc8aW5maWxlLm1hZT4nLCAnLW9tYWUnLCAnPG91dGZpbGUubWFlPic=

> <r_lp_tautomer_probability>
1

> <r_epik_Ionization_Penalty>
0.0917757

> <r_epik_Ionization_Penalty_Charging>
0

> <r_epik_Ionization_Penalty_Neutral>
0.0917757

> <r_epik_State_Penalty>
0.0820948

> <r_epik_Charging_Adjusted_Penalty>
0.0820948

> <i_epik_Tot_Q>
0

> <i_epik_Tot_abs_Q>
0

> <r_epik_Metal_State_Penalty>
0.0709956

> <b_epik_Metal_Only>
0

> <s_lp_Force_Field>
OPLS_2005

> <r_lp_Energy>
12.8811

> <b_lp_Chiralities_Consistent>
1

> <s_lp_Variant>
AV-unprocessed.smi:2955-1

> <Gold.Version>
5.8.1

> <Gold.Id.Protein>
6NUR|6NUR_protein|mol2

> <Gold.PLP.Fitness>
53.0213

> <Gold.PLP.PLP>
-51.9220

> <Gold.PLP.part.hbond>
-0.9507

> <Gold.PLP.part.metal>
0.0000

> <Gold.PLP.part.buried>
-5.7450

> <Gold.PLP.part.nonpolar>
-44.0711

> <Gold.PLP.part.repulsive>
0.0066

> <Gold.PLP.ligand.clash>
0.0000

> <Gold.PLP.ligand.torsion>
1.0206

> <Gold.PLP.Chemscore.Hbond>
0.9913

> <Gold.PLP.Chemscore.CHOScore>
0.0000

> <Gold.PLP.Chemscore.Metal>
0.0000

> <Gold.Chemscore.Hbonds>
donor molecule, donor type, donor heavy atom, donor atom, acceptor molecule, acceptor atom, score
      P1  H  6896  6908       L1    16  0.99

> <Gold.PLP.Chemscore.Internal.Correction>
0.1668

> <Gold.Rescore>
     Score         DG    S(hbond)    S(metal)    S(lipo)     H(rot)  DE(clash)    DE(int)     intcor
     14.57     -18.73       0.97        0.00     134.93       2.26       0.82       3.35       ----

> <Gold.Chemscore.Fitness>
14.5681

> <Gold.Chemscore.DG>
-18.7320

> <Gold.Chemscore.ZeroCoef>
-5.4800

> <Gold.Chemscore.Hbond>
0.9749

> <Gold.Chemscore.Metal>
0.0000

> <Gold.Chemscore.Lipo>
134.9274

> <Gold.Chemscore.Internal_Hbond>
0.0000

> <Gold.Chemscore.DEClash>
0.8156

> <Gold.Chemscore.DEInternal>
3.3483

> <Gold.Chemscore.Rot>
2.2619

> <Gold.Chemscore.Internal.Correction>
   9.000000E+99

> <Gold.Chemscore.Hbonds>
donor molecule, donor type, donor heavy atom, donor atom, acceptor molecule, acceptor atom, score
      P1  H  6896  6908       L1    16  0.32

> <Gold.Chemscore.Hbond.Weighted>
-3.2561

> <Gold.Chemscore.Metal.Weighted>
-0.0000

> <Gold.Chemscore.Lipo.Weighted>
-15.7865

> <Gold.Chemscore.Internal_Hbond.Weighted>
0.0000

> <Gold.Chemscore.DEClash.Weighted>
0.8156

> <Gold.Chemscore.DEInternal.Weighted>
3.3483

> <Gold.Chemscore.Rot.Weighted>
5.7906

> <Gold.Chemscore.Internal.Correction.Weighted>
   9.000000E+99

> <Gold.Protein.RotatedTorsions>
[ 6907 6896 6895 6894 ] final  -90.15 input  -60.11 | X-H torsion
[ 7974 7965 7964 7962 ] final   51.55 input  175.53 | X-H torsion
[ 8008 7997 7996 7995 ] final -167.27 input   59.86 | X-H torsion
[ 10167 10162 10161 10158 ] final -140.57 input  -65.29 | X-H torsion
[ 10718 10713 10712 10709 ] final  128.41 input   66.30 | X-H torsion
[ 10763 10752 10751 10750 ] final  159.71 input  -60.55 | X-H torsion
[ 11005 11000 10999 10996 ] final  -90.28 input  -57.11 | X-H torsion

> <Gold.Protein.ActiveResidues>
 VAL166  LYS551  ARG553  GLY616  TRP617  ASP618  TYR619  PRO620  LYS621  CYS622 
 ASP623  PHE694  ASN695  SER759  ASP760  ASP761  ALA762  ILE779  LEU786  VAL792 
 PHE793  MET794  SER795  GLU796  ALA797  LYS798  CYS799  TRP800  GLU811  SER814 

> <Gold.Protein.RotatedAtoms>
  150.6879  134.2477  159.4497 H   0  0  0  0  0  0  0  0  0  0  0  0  # atno 6907 bound_to 6896
  152.0417  134.9705  160.0583 H   0  0  0  0  0  0  0  0  0  0  0  0  # atno 6908 bound_to 6896
  152.1204  133.4315  159.4710 H   0  0  0  0  0  0  0  0  0  0  0  0  # atno 6909 bound_to 6896
  145.9902  139.4331  143.0078 H   0  0  0  0  0  0  0  0  0  0  0  0  # atno 7974 bound_to 7965
  155.8754  140.1000  157.1522 H   0  0  0  0  0  0  0  0  0  0  0  0  # atno 8008 bound_to 7997
  154.4000  140.1339  156.4193 H   0  0  0  0  0  0  0  0  0  0  0  0  # atno 8009 bound_to 7997
  155.7704  140.3461  155.5246 H   0  0  0  0  0  0  0  0  0  0  0  0  # atno 8010 bound_to 7997
  139.8268  143.7500  152.2666 H   0  0  0  0  0  0  0  0  0  0  0  0  # atno 10167 bound_to 10162
  157.5247  131.1098  150.9101 H   0  0  0  0  0  0  0  0  0  0  0  0  # atno 10718 bound_to 10713
  154.2360  135.2776  155.2872 H   0  0  0  0  0  0  0  0  0  0  0  0  # atno 10763 bound_to 10752
  154.5585  135.5654  153.6989 H   0  0  0  0  0  0  0  0  0  0  0  0  # atno 10764 bound_to 10752
  153.0010  135.6292  154.2503 H   0  0  0  0  0  0  0  0  0  0  0  0  # atno 10765 bound_to 10752
  141.1569  133.7682  156.9715 H   0  0  0  0  0  0  0  0  0  0  0  0  # atno 11005 bound_to 11000
  145.7641  140.9923  143.1184 LP  0  0  0  0  0  0  0  0  0  0  0  0  # atno 17320 bound_to 7965
  144.6887  139.9366  143.7473 LP  0  0  0  0  0  0  0  0  0  0  0  0  # atno 17321 bound_to 7965
  139.7695  144.7481  151.0245 LP  0  0  0  0  0  0  0  0  0  0  0  0  # atno 17342 bound_to 10162
  140.7809  143.4661  151.0211 LP  0  0  0  0  0  0  0  0  0  0  0  0  # atno 17343 bound_to 10162
  156.9700  130.5487  149.5290 LP  0  0  0  0  0  0  0  0  0  0  0  0  # atno 17370 bound_to 10713
  156.0378  130.5464  150.8697 LP  0  0  0  0  0  0  0  0  0  0  0  0  # atno 17371 bound_to 10713
  140.1126  134.9467  157.2087 LP  0  0  0  0  0  0  0  0  0  0  0  0  # atno 17394 bound_to 11000
  140.3174  134.2955  155.7253 LP  0  0  0  0  0  0  0  0  0  0  0  0  # atno 17395 bound_to 11000

$$$$
