#       Name:                AV-unprocessed.smi:3044
#       Creating user name   scv26
#       Creation time:       Fri Mar 27 16:58:47 2020


#       File generated by GOLD software.
#

@<TRIPOS>MOLECULE
AV-unprocessed.smi:3044
    46    47     1
SMALL
NO_CHARGES


@<TRIPOS>ATOM
      1 ****        -2.8733  -2.4768  -0.1539 C.3            1 S1                 0.0000
      2 ****        -3.9041  -1.5362  -0.7541 C.ar           1 S1                 0.0000
      3 ****        -5.1683  -2.0131  -0.8000 N.ar           1 S1                 0.0000
      4 ****        -6.1295  -1.2244  -1.3238 C.ar           1 S1                 0.0000
      5 ****        -5.8783   0.0645  -1.8300 C.ar           1 S1                 0.0000
      6 ****        -4.5618   0.5601  -1.7811 C.ar           1 S1                 0.0000
      7 ****        -3.5436  -0.2477  -1.2193 C.ar           1 S1                 0.0000
      8 ****        -2.1821   0.1563  -1.1435 N.am           1 S1                 0.0000
      9 ****        -1.6782   1.4011  -1.0520 C.2            1 S1                 0.0000
     10 ****        -2.3541   2.4292  -1.0431 O.2            1 S1                 0.0000
     11 ****        -0.1556   1.5081  -0.9508 C.3            1 S1                 0.0000
     12 ****         0.3605   0.3482  -0.3081 O.3            1 S1                 0.0000
     13 ****         1.7726   0.3396  -0.1506 C.3            1 S1                 0.0000
     14 ****         2.2071  -1.1284  -0.0059 C.3            1 S1                 0.0000
     15 ****         3.7167  -1.2403   0.2541 C.3            1 S1                 0.0000
     16 ****         4.1268  -0.4280   1.4925 C.3            1 S1                 0.0000
     17 ****         3.6997   1.0474   1.3682 C.3            1 S1                 0.0000
     18 ****         4.1027   1.8533   2.6115 C.3            1 S1                 0.0000
     19 ****         2.1862   1.1523   1.0940 C.3            1 S1                 0.0000
     20 ****        -2.4075  -2.0206   0.7199 H              1 S1                 0.0000
     21 ****        -2.0936  -2.7008  -0.8822 H              1 S1                 0.0000
     22 ****        -3.3230  -3.4201   0.1584 H              1 S1                 0.0000
     23 ****        -7.1280  -1.6355  -1.3457 H              1 S1                 0.0000
     24 ****        -6.6765   0.6579  -2.2509 H              1 S1                 0.0000
     25 ****        -4.3555   1.5389  -2.1857 H              1 S1                 0.0000
     26 ****        -1.5107  -0.5926  -1.0520 H              1 S1                 0.0000
     27 ****         0.2584   1.6014  -1.9557 H              1 S1                 0.0000
     28 ****         0.1034   2.4104  -0.3964 H              1 S1                 0.0000
     29 ****         2.2511   0.7530  -1.0407 H              1 S1                 0.0000
     30 ****         1.6616  -1.5945   0.8159 H              1 S1                 0.0000
     31 ****         1.9442  -1.6844  -0.9063 H              1 S1                 0.0000
     32 ****         3.9944  -2.2862   0.3875 H              1 S1                 0.0000
     33 ****         4.2666  -0.8830  -0.6176 H              1 S1                 0.0000
     34 ****         3.6747  -0.8697   2.3817 H              1 S1                 0.0000
     35 ****         5.2064  -0.4940   1.6309 H              1 S1                 0.0000
     36 ****         4.2251   1.4775   0.5143 H              1 S1                 0.0000
     37 ****         3.6051   1.4776   3.5062 H              1 S1                 0.0000
     38 ****         3.8383   2.9054   2.5007 H              1 S1                 0.0000
     39 ****         5.1783   1.8009   2.7822 H              1 S1                 0.0000
     40 ****         1.9148   2.2003   0.9684 H              1 S1                 0.0000
     41 ****         1.6308   0.7933   1.9616 H              1 S1                 0.0000
     42 ****        -5.3853  -2.9262  -0.4548 LP             1 S1                 0.0000
     43 ****        -3.3505   2.3731  -1.1066 LP             1 S1                 0.0000
     44 ****        -1.9071   3.3209  -0.9723 LP             1 S1                 0.0000
     45 ****         0.1021  -0.4507  -0.8513 LP             1 S1                 0.0000
     46 ****        -0.0552   0.2830   0.5991 LP             1 S1                 0.0000
@<TRIPOS>BOND
    1    1    2 1     
    2    1   20 1     
    3    1   21 1     
    4    1   22 1     
    5    2    7 ar    
    6    2    3 ar    
    7    3    4 ar    
    8    4    5 ar    
    9    4   23 1     
   10    5    6 ar    
   11    5   24 1     
   12    6    7 ar    
   13    6   25 1     
   14    7    8 1     
   15    8    9 am    
   16    8   26 1     
   17    9   10 2     
   18    9   11 1     
   19   11   12 1     
   20   11   27 1     
   21   11   28 1     
   22   12   13 1     
   23   13   19 1     
   24   13   14 1     
   25   13   29 1     
   26   14   15 1     
   27   14   30 1     
   28   14   31 1     
   29   15   16 1     
   30   15   32 1     
   31   15   33 1     
   32   16   17 1     
   33   16   34 1     
   34   16   35 1     
   35   17   18 1     
   36   17   19 1     
   37   17   36 1     
   38   18   37 1     
   39   18   38 1     
   40   18   39 1     
   41   19   40 1     
   42   19   41 1     
   43    3   42 1     
   44   10   43 1     
   45   10   44 1     
   46   12   45 1     
   47   12   46 1     
@<TRIPOS>SUBSTRUCTURE
      1 S1             1
@<TRIPOS>SET
LONE_PAIRS      STATIC     ATOMS    <user>   **** ""
5 42 43 44 45 46
DONOR_HYDROGENS      STATIC     ATOMS    <user>   **** ""
1 26
ATOM$BLUE        STATIC     ATOMS    COLORGROUP SYSTEM
5 42 43 44 45 46
ATOM$RED        STATIC     ATOMS    COLORGROUP SYSTEM
1 26
