AV-unprocessed.smi:34|AV-procd|sdf|217|dock10
  -GOLD-   2262015533D 1   1.00000     0.00000
 Structure written by MMmdl.
 55 59  0  0  0  0  0  0  0  0  1 V2000
  152.9885  139.9525  158.1069 O   0  0  0  0  0  0  0  0  0  0  0  0
  152.1617  140.8439  157.9126 C   0  0  0  0  0  0  0  0  0  0  0  0
  151.1538  140.7489  156.8708 N   0  0  0  0  0  0  0  0  0  0  0  0
  150.9107  139.7119  156.0348 C   0  0  0  0  0  0  0  0  0  0  0  0
  150.8429  139.8625  154.6858 N   0  0  0  0  0  0  0  0  0  0  0  0
  150.5969  138.8084  153.9029 C   0  0  0  0  0  0  0  0  0  0  0  0
  150.3907  137.5384  154.2564 N   0  0  0  0  0  0  0  0  0  0  0  0
  150.4590  137.3764  155.6086 C   0  0  0  0  0  0  0  0  0  0  0  0
  150.7144  138.4065  156.5567 C   0  0  0  0  0  0  0  0  0  0  0  0
  150.7135  137.8754  157.8396 N   0  0  0  0  0  0  0  0  0  0  0  0
  150.4721  136.6052  157.6550 C   0  0  0  0  0  0  0  0  0  0  0  0
  150.2984  136.2195  156.3442 N   0  0  0  0  0  0  0  0  0  0  0  0
  150.0121  134.8433  155.8366 C   0  0  2  0  0  0  0  0  0  0  0  0
  148.7417  134.8447  155.2552 O   0  0  0  0  0  0  0  0  0  0  0  0
  148.0242  133.6622  155.6181 C   0  0  2  0  0  0  0  0  0  0  0  0
  146.8006  134.0487  156.4612 C   0  0  0  0  0  0  0  0  0  0  0  0
  147.2295  134.5458  157.7186 O   0  0  0  0  0  0  0  0  0  0  0  0
  147.2304  133.7381  158.7974 C   0  0  0  0  0  0  0  0  0  0  0  0
  147.1358  132.5108  158.7308 O   0  0  0  0  0  0  0  0  0  0  0  0
  147.3555  134.4851  160.0824 C   0  0  0  0  0  0  0  0  0  0  0  0
  147.1156  133.8104  161.3023 C   0  0  0  0  0  0  0  0  0  0  0  0
  147.2239  134.4899  162.5314 C   0  0  0  0  0  0  0  0  0  0  0  0
  147.5730  135.8527  162.5556 C   0  0  0  0  0  0  0  0  0  0  0  0
  147.8138  136.5353  161.3490 C   0  0  0  0  0  0  0  0  0  0  0  0
  147.7063  135.8574  160.1188 C   0  0  0  0  0  0  0  0  0  0  0  0
  149.0302  132.7914  156.3769 C   0  0  1  0  0  0  0  0  0  0  0  0
  149.6612  132.0270  155.4807 F   0  0  0  0  0  0  0  0  0  0  0  0
  149.9759  133.8211  156.9719 C   0  0  1  0  0  0  0  0  0  0  0  0
  151.2321  133.2393  157.2571 O   0  0  0  0  0  0  0  0  0  0  0  0
  152.1913  142.1292  158.6882 C   0  0  0  0  0  0  0  0  0  0  0  0
  151.6736  143.3124  158.1145 C   0  0  0  0  0  0  0  0  0  0  0  0
  151.7138  144.5271  158.8261 C   0  0  0  0  0  0  0  0  0  0  0  0
  152.2774  144.5708  160.1152 C   0  0  0  0  0  0  0  0  0  0  0  0
  152.8050  143.3994  160.6904 C   0  0  0  0  0  0  0  0  0  0  0  0
  152.7664  142.1841  159.9793 C   0  0  0  0  0  0  0  0  0  0  0  0
  150.5493  141.5509  156.7674 H   0  0  0  0  0  0  0  0  0  0  0  0
  150.5588  139.0114  152.8428 H   0  0  0  0  0  0  0  0  0  0  0  0
  150.4098  135.9091  158.4788 H   0  0  0  0  0  0  0  0  0  0  0  0
  150.7709  134.6355  155.0804 H   0  0  0  0  0  0  0  0  0  0  0  0
  147.6859  133.1667  154.7067 H   0  0  0  0  0  0  0  0  0  0  0  0
  146.1994  134.7993  155.9479 H   0  0  0  0  0  0  0  0  0  0  0  0
  146.1698  133.1734  156.6222 H   0  0  0  0  0  0  0  0  0  0  0  0
  146.8458  132.7642  161.3088 H   0  0  0  0  0  0  0  0  0  0  0  0
  147.0383  133.9642  163.4565 H   0  0  0  0  0  0  0  0  0  0  0  0
  147.6561  136.3736  163.4982 H   0  0  0  0  0  0  0  0  0  0  0  0
  148.0814  137.5816  161.3660 H   0  0  0  0  0  0  0  0  0  0  0  0
  147.8973  136.4117  159.2115 H   0  0  0  0  0  0  0  0  0  0  0  0
  148.5778  132.1292  157.1160 H   0  0  0  0  0  0  0  0  0  0  0  0
  149.5412  134.2637  157.8688 H   0  0  0  0  0  0  0  0  0  0  0  0
  151.8654  133.5791  156.6433 H   0  0  0  0  0  0  0  0  0  0  0  0
  151.2383  143.2962  157.1254 H   0  0  0  0  0  0  0  0  0  0  0  0
  151.3124  145.4260  158.3818 H   0  0  0  0  0  0  0  0  0  0  0  0
  152.3082  145.5024  160.6608 H   0  0  0  0  0  0  0  0  0  0  0  0
  153.2435  143.4338  161.6769 H   0  0  0  0  0  0  0  0  0  0  0  0
  153.1864  141.2997  160.4358 H   0  0  0  0  0  0  0  0  0  0  0  0
  1  2  2  0  0  0  0
  2  3  1  0  0  0  0
  2 30  1  0  0  0  0
  3  4  1  0  0  0  0
  3 36  1  0  0  0  0
  4  9  1  0  0  0  0
  4  5  2  0  0  0  0
  5  6  1  0  0  0  0
  6  7  2  0  0  0  0
  6 37  1  0  0  0  0
  7  8  1  0  0  0  0
  8 12  1  0  0  0  0
  8  9  2  0  0  0  0
  9 10  1  0  0  0  0
 10 11  2  0  0  0  0
 11 12  1  0  0  0  0
 11 38  1  0  0  0  0
 12 13  1  0  0  0  0
 13 28  1  0  0  0  0
 13 14  1  0  0  0  0
 13 39  1  0  0  0  0
 14 15  1  0  0  0  0
 15 16  1  0  0  0  0
 15 26  1  0  0  0  0
 15 40  1  0  0  0  0
 16 17  1  0  0  0  0
 16 41  1  0  0  0  0
 16 42  1  0  0  0  0
 17 18  1  0  0  0  0
 18 19  2  0  0  0  0
 18 20  1  0  0  0  0
 20 25  1  0  0  0  0
 20 21  2  0  0  0  0
 21 22  1  0  0  0  0
 21 43  1  0  0  0  0
 22 23  2  0  0  0  0
 22 44  1  0  0  0  0
 23 24  1  0  0  0  0
 23 45  1  0  0  0  0
 24 25  2  0  0  0  0
 24 46  1  0  0  0  0
 25 47  1  0  0  0  0
 26 27  1  0  0  0  0
 26 28  1  0  0  0  0
 26 48  1  0  0  0  0
 28 29  1  0  0  0  0
 28 49  1  0  0  0  0
 29 50  1  0  0  0  0
 30 35  1  0  0  0  0
 30 31  2  0  0  0  0
 31 32  1  0  0  0  0
 31 51  1  0  0  0  0
 32 33  2  0  0  0  0
 32 52  1  0  0  0  0
 33 34  1  0  0  0  0
 33 53  1  0  0  0  0
 34 35  2  0  0  0  0
 34 54  1  0  0  0  0
 35 55  1  0  0  0  0
M  END
> <s_m_source_file>
AV-unprocessed.smi

> <i_m_source_file_index>
34

> <i_lp_mmshare_version>
43012

> <i_f3d_flags>
0

> <s_epik_input>
W2NIXTFbY0hdW2NIXVtjSF1bY0hdYzFDKD1PKVtOSF1jKG5bY0hdbjIpYyhjMjMpbltjSF1uM1tDQEBIXTRPW0NASF0oW0NAQEhdKEYpW0NASF00W09IXSlbQ0gyXU9DKD1PKWM1W2NIXVtjSF1bY0hdW2NIXVtjSF01

> <s_epik_cmdline>
J2VwaWtfcHl0aG9uJywgJy1waCcsICc3LjAnLCAnLXRuJywgJzgnLCAnLW1hJywgJzIwMCcsICctbWV0YWxfYmluZGluZycsICctaW1hZScsICc8aW5maWxlLm1hZT4nLCAnLW9tYWUnLCAnPG91dGZpbGUubWFlPic=

> <r_lp_tautomer_probability>
1

> <r_epik_Ionization_Penalty>
0.00257489

> <r_epik_Ionization_Penalty_Charging>
0

> <r_epik_Ionization_Penalty_Neutral>
0.00257489

> <r_epik_State_Penalty>
0.00519398

> <r_epik_Charging_Adjusted_Penalty>
0.00519398

> <i_epik_Tot_Q>
0

> <i_epik_Tot_abs_Q>
0

> <r_epik_Metal_State_Penalty>
0.335891

> <b_epik_Metal_Only>
0

> <s_epik_Chemistry_Notes>
This compound has an ester and may undergo hydrolysis at high or low pH. This compound contains an acetal/aminal-like group ( X-CH(R)-Y where X, Y are N, S, or O) that may be acid/base labile, releasing an aldehyde.

> <s_lp_Force_Field>
OPLS_2005

> <r_lp_Energy>
51.1648

> <b_lp_Chiralities_Consistent>
1

> <s_lp_Variant>
AV-unprocessed.smi:34-3

> <Gold.Version>
5.8.1

> <Gold.Id.Protein>
6NUR|6NUR_protein|mol2

> <Gold.PLP.Fitness>
63.0309

> <Gold.PLP.PLP>
-54.5663

> <Gold.PLP.part.hbond>
-3.0000

> <Gold.PLP.part.metal>
0.0000

> <Gold.PLP.part.buried>
-8.0405

> <Gold.PLP.part.nonpolar>
-45.1817

> <Gold.PLP.part.repulsive>
0.6993

> <Gold.PLP.ligand.clash>
0.0000

> <Gold.PLP.ligand.torsion>
1.3409

> <Gold.PLP.Chemscore.Hbond>
2.6680

> <Gold.PLP.Chemscore.CHOScore>
0.9987

> <Gold.PLP.Chemscore.Metal>
0.0000

> <Gold.Chemscore.Hbonds>
donor molecule, donor type, donor heavy atom, donor atom, acceptor molecule, acceptor atom, score
      P1  H  6896  6909       L1    29  0.72
      P1  H  7989  7998       L1     5  0.90
      P1  H  7997  8009       L1     1  1.00
      L1  C     6    37       P1  7957  1.00

> <Gold.PLP.Chemscore.Internal.Correction>
0.1463

> <Gold.Rescore>
     Score         DG    S(hbond)    S(metal)    S(lipo)     H(rot)  DE(clash)    DE(int)     intcor
     17.80     -20.49       2.19        0.00     125.48       2.72       0.17       2.52       ----

> <Gold.Chemscore.Fitness>
17.8043

> <Gold.Chemscore.DG>
-20.4947

> <Gold.Chemscore.ZeroCoef>
-5.4800

> <Gold.Chemscore.Hbond>
2.1856

> <Gold.Chemscore.Metal>
0.0000

> <Gold.Chemscore.Lipo>
125.4850

> <Gold.Chemscore.Internal_Hbond>
0.0000

> <Gold.Chemscore.DEClash>
0.1743

> <Gold.Chemscore.DEInternal>
2.5161

> <Gold.Chemscore.Rot>
2.7215

> <Gold.Chemscore.Internal.Correction>
   9.000000E+99

> <Gold.Chemscore.Hbonds>
donor molecule, donor type, donor heavy atom, donor atom, acceptor molecule, acceptor atom, score
      P1  H  6896  6909       L1    29  0.39
      P1  H  7989  7998       L1     5  0.18
      P1  H  7997  8009       L1     1  0.90

> <Gold.Chemscore.Hbond.Weighted>
-7.3000

> <Gold.Chemscore.Metal.Weighted>
-0.0000

> <Gold.Chemscore.Lipo.Weighted>
-14.6817

> <Gold.Chemscore.Internal_Hbond.Weighted>
0.0000

> <Gold.Chemscore.DEClash.Weighted>
0.1743

> <Gold.Chemscore.DEInternal.Weighted>
2.5161

> <Gold.Chemscore.Rot.Weighted>
6.9670

> <Gold.Chemscore.Internal.Correction.Weighted>
   9.000000E+99

> <Gold.Protein.RotatedTorsions>
[ 6907 6896 6895 6894 ] final  -48.37 input  -60.11 | X-H torsion
[ 7974 7965 7964 7962 ] final -110.47 input  175.53 | X-H torsion
[ 8008 7997 7996 7995 ] final  149.18 input   59.86 | X-H torsion
[ 10167 10162 10161 10158 ] final -146.44 input  -65.29 | X-H torsion
[ 10718 10713 10712 10709 ] final    1.31 input   66.30 | X-H torsion
[ 10763 10752 10751 10750 ] final  -16.51 input  -60.55 | X-H torsion
[ 11005 11000 10999 10996 ] final -124.27 input  -57.11 | X-H torsion

> <Gold.Protein.ActiveResidues>
 VAL166  LYS551  ARG553  GLY616  TRP617  ASP618  TYR619  PRO620  LYS621  CYS622 
 ASP623  PHE694  ASN695  SER759  ASP760  ASP761  ALA762  ILE779  LEU786  VAL792 
 PHE793  MET794  SER795  GLU796  ALA797  LYS798  CYS799  TRP800  GLU811  SER814 

> <Gold.Protein.RotatedAtoms>
  150.8912  134.8316  159.7294 H   0  0  0  0  0  0  0  0  0  0  0  0  # atno 6907 bound_to 6896
  152.4838  134.4645  159.9626 H   0  0  0  0  0  0  0  0  0  0  0  0  # atno 6908 bound_to 6896
  151.4708  133.3531  159.2858 H   0  0  0  0  0  0  0  0  0  0  0  0  # atno 6909 bound_to 6896
  145.1679  140.8911  143.3552 H   0  0  0  0  0  0  0  0  0  0  0  0  # atno 7974 bound_to 7965
  156.2764  140.2109  156.5816 H   0  0  0  0  0  0  0  0  0  0  0  0  # atno 8008 bound_to 7997
  154.7054  140.0517  157.0522 H   0  0  0  0  0  0  0  0  0  0  0  0  # atno 8009 bound_to 7997
  155.0678  140.3173  155.4643 H   0  0  0  0  0  0  0  0  0  0  0  0  # atno 8010 bound_to 7997
  139.7713  143.8233  152.2625 H   0  0  0  0  0  0  0  0  0  0  0  0  # atno 10167 bound_to 10162
  156.8463  130.5538  149.5673 H   0  0  0  0  0  0  0  0  0  0  0  0  # atno 10718 bound_to 10713
  153.5596  135.7010  153.5553 H   0  0  0  0  0  0  0  0  0  0  0  0  # atno 10763 bound_to 10752
  153.3441  135.4013  155.1595 H   0  0  0  0  0  0  0  0  0  0  0  0  # atno 10764 bound_to 10752
  154.8650  135.3749  154.5112 H   0  0  0  0  0  0  0  0  0  0  0  0  # atno 10765 bound_to 10752
  140.9854  134.0614  157.3717 H   0  0  0  0  0  0  0  0  0  0  0  0  # atno 11005 bound_to 11000
  145.0263  139.3380  143.6047 LP  0  0  0  0  0  0  0  0  0  0  0  0  # atno 17320 bound_to 7965
  146.3473  139.9583  142.8720 LP  0  0  0  0  0  0  0  0  0  0  0  0  # atno 17321 bound_to 7965
  139.8268  144.7271  150.9501 LP  0  0  0  0  0  0  0  0  0  0  0  0  # atno 17342 bound_to 10162
  140.7814  143.4107  151.0998 LP  0  0  0  0  0  0  0  0  0  0  0  0  # atno 17343 bound_to 10162
  156.0853  130.5853  150.9636 LP  0  0  0  0  0  0  0  0  0  0  0  0  # atno 17370 bound_to 10713
  157.6328  131.0919  150.8408 LP  0  0  0  0  0  0  0  0  0  0  0  0  # atno 17371 bound_to 10713
  139.8968  135.0147  156.7070 LP  0  0  0  0  0  0  0  0  0  0  0  0  # atno 17394 bound_to 11000
  140.7122  133.9213  155.8092 LP  0  0  0  0  0  0  0  0  0  0  0  0  # atno 17395 bound_to 11000

$$$$
