AV-unprocessed.smi:56|AV-procd|sdf|578|dock3
  -GOLD-   2262016483D 1   1.00000     0.00000
 Structure written by MMmdl.
 23 24  0  0  0  0  0  0  0  0  2 V2000
  144.9291  134.4991  150.1612 O   0  0  0  0  0  0  0  0  0  0  0  0
  144.9582  133.0958  150.3681 C   0  0  2  0  0  0  0  0  0  0  0  0
  146.0895  132.7153  151.2994 C   0  0  0  0  0  0  0  0  0  0  0  0
  147.0621  133.5545  151.9259 C   0  0  0  0  0  0  0  0  0  0  0  0
  147.8380  132.6939  152.6484 C   0  0  0  0  0  0  0  0  0  0  0  0
  147.3277  131.4363  152.4370 N   0  0  0  0  0  0  0  0  0  0  0  0
  146.2627  131.4367  151.6150 N   0  0  0  0  0  0  0  0  0  0  0  0
  145.0217  132.3933  149.0076 C   0  0  0  0  0  0  0  0  0  0  0  0
  143.5733  132.4027  148.4957 C   0  0  0  0  0  0  0  0  0  0  0  0
  142.7103  132.6413  149.6712 N   0  3  0  0  0  0  0  0  0  0  0  0
  143.5708  132.6672  150.8680 C   0  0  0  0  0  0  0  0  0  0  0  0
  147.6902  130.5826  152.8379 H   0  0  0  0  0  0  0  0  0  0  0  0
  145.2171  134.6873  149.2819 H   0  0  0  0  0  0  0  0  0  0  0  0
  147.1791  134.6257  151.8566 H   0  0  0  0  0  0  0  0  0  0  0  0
  148.6953  132.8680  153.2822 H   0  0  0  0  0  0  0  0  0  0  0  0
  145.7307  132.8492  148.3151 H   0  0  0  0  0  0  0  0  0  0  0  0
  145.3310  131.3564  149.1498 H   0  0  0  0  0  0  0  0  0  0  0  0
  143.4189  133.2095  147.7786 H   0  0  0  0  0  0  0  0  0  0  0  0
  143.3146  131.4633  148.0063 H   0  0  0  0  0  0  0  0  0  0  0  0
  142.2725  133.5453  149.5664 H   0  0  0  0  0  0  0  0  0  0  0  0
  143.6006  131.6461  151.2504 H   0  0  0  0  0  0  0  0  0  0  0  0
  143.1717  133.3070  151.6563 H   0  0  0  0  0  0  0  0  0  0  0  0
  142.0002  131.9276  149.7557 H   0  0  0  0  0  0  0  0  0  0  0  0
  1  2  1  0  0  0  0
  1 13  1  0  0  0  0
  2 11  1  0  0  0  0
  2  8  1  0  0  0  0
  2  3  1  0  0  0  0
  3  7  2  0  0  0  0
  3  4  1  0  0  0  0
  4  5  2  0  0  0  0
  4 14  1  0  0  0  0
  5  6  1  0  0  0  0
  5 15  1  0  0  0  0
  6  7  1  0  0  0  0
  6 12  1  0  0  0  0
  8  9  1  0  0  0  0
  8 16  1  0  0  0  0
  8 17  1  0  0  0  0
  9 10  1  0  0  0  0
  9 18  1  0  0  0  0
  9 19  1  0  0  0  0
 10 11  1  0  0  0  0
 10 20  1  0  0  0  0
 10 23  1  0  0  0  0
 11 21  1  0  0  0  0
 11 22  1  0  0  0  0
M  CHG  1  10   1
M  END
> <s_m_source_file>
AV-unprocessed.smi

> <i_m_source_file_index>
56

> <i_lp_mmshare_version>
43012

> <i_f3d_flags>
0

> <s_epik_input>
W0NIMl0xW05IXVtDSDJdW0NIMl1bQ0BAXTEoW09IXSljMltjSF1bY0hdbltuSF0y

> <s_epik_cmdline>
J2VwaWtfcHl0aG9uJywgJy1waCcsICc3LjAnLCAnLXRuJywgJzgnLCAnLW1hJywgJzIwMCcsICctbWV0YWxfYmluZGluZycsICctaW1hZScsICc8aW5maWxlLm1hZT4nLCAnLW9tYWUnLCAnPG91dGZpbGUubWFlPic=

> <r_lp_tautomer_probability>
0.5

> <r_epik_Ionization_Penalty>
0.000592189

> <r_epik_Ionization_Penalty_Charging>
0.00059155

> <r_epik_Ionization_Penalty_Neutral>
6.39784e-07

> <r_epik_State_Penalty>
0.41068

> <r_epik_Charging_Adjusted_Penalty>
0.411271

> <i_epik_Tot_Q>
1

> <i_epik_Tot_abs_Q>
1

> <r_epik_Metal_State_Penalty>
0.410682

> <b_epik_Metal_Only>
0

> <s_lp_Force_Field>
OPLS_2005

> <r_lp_Energy>
24.7565

> <b_lp_Chiralities_Consistent>
1

> <s_lp_Variant>
AV-unprocessed.smi:56-2

> <Gold.Version>
5.8.1

> <Gold.Id.Protein>
6NUR|6NUR_protein|mol2

> <Gold.PLP.Fitness>
36.3145

> <Gold.PLP.PLP>
-24.3150

> <Gold.PLP.part.hbond>
-3.7623

> <Gold.PLP.part.metal>
0.0000

> <Gold.PLP.part.buried>
-2.1670

> <Gold.PLP.part.nonpolar>
-18.5405

> <Gold.PLP.part.repulsive>
0.2454

> <Gold.PLP.ligand.clash>
0.0000

> <Gold.PLP.ligand.torsion>
0.0112

> <Gold.PLP.Chemscore.Hbond>
4.0000

> <Gold.PLP.Chemscore.CHOScore>
0.0000

> <Gold.PLP.Chemscore.Metal>
0.0000

> <Gold.Chemscore.Hbonds>
donor molecule, donor type, donor heavy atom, donor atom, acceptor molecule, acceptor atom, score
      L1  H     1    13       P1  7921  1.00
      L1  H    10    20       P1 10186  1.98
      L1  H    10    23       P1 10952  1.00

> <Gold.PLP.Chemscore.Internal.Correction>
0.0218

> <Gold.Rescore>
     Score         DG    S(hbond)    S(metal)    S(lipo)     H(rot)  DE(clash)    DE(int)     intcor
     18.15     -18.67       2.93        0.00      61.94       1.50       0.39       0.12       ----

> <Gold.Chemscore.Fitness>
18.1544

> <Gold.Chemscore.DG>
-18.6661

> <Gold.Chemscore.ZeroCoef>
-5.4800

> <Gold.Chemscore.Hbond>
2.9267

> <Gold.Chemscore.Metal>
0.0000

> <Gold.Chemscore.Lipo>
61.9418

> <Gold.Chemscore.Internal_Hbond>
0.0000

> <Gold.Chemscore.DEClash>
0.3925

> <Gold.Chemscore.DEInternal>
0.1191

> <Gold.Chemscore.Rot>
1.4985

> <Gold.Chemscore.Internal.Correction>
   9.000000E+99

> <Gold.Chemscore.Hbonds>
donor molecule, donor type, donor heavy atom, donor atom, acceptor molecule, acceptor atom, score
      L1  H     1    13       P1  7921  1.00
      L1  H    10    20       P1 10186  0.88
      L1  H    10    23       P1 10952  0.97

> <Gold.Chemscore.Hbond.Weighted>
-9.7750

> <Gold.Chemscore.Metal.Weighted>
-0.0000

> <Gold.Chemscore.Lipo.Weighted>
-7.2472

> <Gold.Chemscore.Internal_Hbond.Weighted>
0.0000

> <Gold.Chemscore.DEClash.Weighted>
0.3925

> <Gold.Chemscore.DEInternal.Weighted>
0.1191

> <Gold.Chemscore.Rot.Weighted>
3.8362

> <Gold.Chemscore.Internal.Correction.Weighted>
   9.000000E+99

> <Gold.Protein.RotatedTorsions>
[ 6907 6896 6895 6894 ] final -143.06 input  -60.11 | X-H torsion
[ 7974 7965 7964 7962 ] final -134.32 input  175.53 | X-H torsion
[ 8008 7997 7996 7995 ] final -174.84 input   59.86 | X-H torsion
[ 10167 10162 10161 10158 ] final  -74.66 input  -65.29 | X-H torsion
[ 10718 10713 10712 10709 ] final   95.30 input   66.30 | X-H torsion
[ 10763 10752 10751 10750 ] final -112.22 input  -60.55 | X-H torsion
[ 11005 11000 10999 10996 ] final  119.46 input  -57.11 | X-H torsion

> <Gold.Protein.ActiveResidues>
 VAL166  LYS551  ARG553  GLY616  TRP617  ASP618  TYR619  PRO620  LYS621  CYS622 
 ASP623  PHE694  ASN695  SER759  ASP760  ASP761  ALA762  ILE779  LEU786  VAL792 
 PHE793  MET794  SER795  GLU796  ALA797  LYS798  CYS799  TRP800  GLU811  SER814 

> <Gold.Protein.RotatedAtoms>
  151.0953  133.5284  159.2612 H   0  0  0  0  0  0  0  0  0  0  0  0  # atno 6907 bound_to 6896
  151.2136  135.0490  159.8931 H   0  0  0  0  0  0  0  0  0  0  0  0  # atno 6908 bound_to 6896
  152.5438  134.0766  159.8270 H   0  0  0  0  0  0  0  0  0  0  0  0  # atno 6909 bound_to 6896
  144.9113  140.6899  143.5023 H   0  0  0  0  0  0  0  0  0  0  0  0  # atno 7974 bound_to 7965
  155.9751  140.1170  157.0777 H   0  0  0  0  0  0  0  0  0  0  0  0  # atno 8008 bound_to 7997
  154.4167  140.1155  156.5426 H   0  0  0  0  0  0  0  0  0  0  0  0  # atno 8009 bound_to 7997
  155.6546  140.3473  155.4762 H   0  0  0  0  0  0  0  0  0  0  0  0  # atno 8010 bound_to 7997
  140.5008  143.2361  151.7755 H   0  0  0  0  0  0  0  0  0  0  0  0  # atno 10167 bound_to 10162
  157.6940  131.0541  150.4318 H   0  0  0  0  0  0  0  0  0  0  0  0  # atno 10718 bound_to 10713
  154.8339  135.4499  154.1160 H   0  0  0  0  0  0  0  0  0  0  0  0  # atno 10763 bound_to 10752
  153.2409  135.6916  153.7790 H   0  0  0  0  0  0  0  0  0  0  0  0  # atno 10764 bound_to 10752
  153.7138  135.3352  155.3228 H   0  0  0  0  0  0  0  0  0  0  0  0  # atno 10765 bound_to 10752
  139.9147  134.9628  156.7659 H   0  0  0  0  0  0  0  0  0  0  0  0  # atno 11005 bound_to 11000
  145.3449  139.1722  143.4466 LP  0  0  0  0  0  0  0  0  0  0  0  0  # atno 17320 bound_to 7965
  146.3160  140.3494  142.8655 LP  0  0  0  0  0  0  0  0  0  0  0  0  # atno 17321 bound_to 7965
  139.4872  144.4524  151.9638 LP  0  0  0  0  0  0  0  0  0  0  0  0  # atno 17342 bound_to 10162
  140.3613  144.2969  150.5933 LP  0  0  0  0  0  0  0  0  0  0  0  0  # atno 17343 bound_to 10162
  156.4684  130.4047  149.6533 LP  0  0  0  0  0  0  0  0  0  0  0  0  # atno 17370 bound_to 10713
  156.3623  130.7487  151.2461 LP  0  0  0  0  0  0  0  0  0  0  0  0  # atno 17371 bound_to 10713
  140.6660  133.9602  155.7830 LP  0  0  0  0  0  0  0  0  0  0  0  0  # atno 17394 bound_to 11000
  141.0610  134.0345  157.3658 LP  0  0  0  0  0  0  0  0  0  0  0  0  # atno 17395 bound_to 11000

$$$$
