AV-unprocessed.smi:2725|AV-procd|sdf|10518|dock9
  -GOLD-   2272014563D 1   1.00000     0.00000
 Structure written by MMmdl.
 45 46  0  0  0  0  0  0  0  0  2 V2000
  150.7500  137.5126  158.2813 O   0  0  0  0  0  0  0  0  0  0  0  0
  149.5826  137.9030  158.3013 C   0  0  0  0  0  0  0  0  0  0  0  0
  148.4919  137.0611  158.9702 C   0  0  0  0  0  0  0  0  0  0  0  0
  148.8095  136.7276  160.4403 C   0  0  0  0  0  0  0  0  0  0  0  0
  147.7173  135.8817  161.1184 C   0  0  0  0  0  0  0  0  0  0  0  0
  147.7429  135.9212  162.6504 C   0  0  0  0  0  0  0  0  0  0  0  0
  147.0132  134.6514  163.1070 C   0  0  0  0  0  0  0  0  0  0  0  0
  146.9924  133.7040  161.8979 C   0  0  0  0  0  0  0  0  0  0  0  0
  147.8257  134.3871  160.8104 C   0  0  0  0  0  0  0  0  0  0  0  0
  149.1875  139.0651  157.7572 N   0  0  0  0  0  0  0  0  0  0  0  0
  150.0587  140.0257  157.0822 C   0  0  1  0  0  0  0  0  0  0  0  0
  150.0957  139.7218  155.5667 C   0  0  0  0  0  0  0  0  0  0  0  0
  151.3163  140.1400  154.9930 O   0  0  0  0  0  0  0  0  0  0  0  0
  149.5793  141.4526  157.4267 C   0  0  0  0  0  0  0  0  0  0  0  0
  150.6958  142.3985  157.8327 C   0  0  0  0  0  0  0  0  0  0  0  0
  151.5689  142.1050  158.9026 C   0  0  0  0  0  0  0  0  0  0  0  0
  152.5967  143.0160  159.2241 C   0  0  0  0  0  0  0  0  0  0  0  0
  152.7305  144.1999  158.4697 C   0  0  0  0  0  0  0  0  0  0  0  0
  151.8321  144.4427  157.4108 C   0  0  0  0  0  0  0  0  0  0  0  0
  150.8602  143.5457  157.1340 N   0  3  0  0  0  0  0  0  0  0  0  0
  147.5524  137.6100  158.9030 H   0  0  0  0  0  0  0  0  0  0  0  0
  148.3547  136.1357  158.4088 H   0  0  0  0  0  0  0  0  0  0  0  0
  149.7538  136.1830  160.4861 H   0  0  0  0  0  0  0  0  0  0  0  0
  148.9610  137.6466  161.0085 H   0  0  0  0  0  0  0  0  0  0  0  0
  146.7381  136.2242  160.7799 H   0  0  0  0  0  0  0  0  0  0  0  0
  148.7741  135.8910  163.0052 H   0  0  0  0  0  0  0  0  0  0  0  0
  147.2856  136.8265  163.0510 H   0  0  0  0  0  0  0  0  0  0  0  0
  147.5161  134.2006  163.9632 H   0  0  0  0  0  0  0  0  0  0  0  0
  145.9932  134.8848  163.4144 H   0  0  0  0  0  0  0  0  0  0  0  0
  147.3787  132.7136  162.1414 H   0  0  0  0  0  0  0  0  0  0  0  0
  145.9660  133.5775  161.5513 H   0  0  0  0  0  0  0  0  0  0  0  0
  147.4806  134.1404  159.8058 H   0  0  0  0  0  0  0  0  0  0  0  0
  148.8647  134.0638  160.8914 H   0  0  0  0  0  0  0  0  0  0  0  0
  148.2085  139.3043  157.8205 H   0  0  0  0  0  0  0  0  0  0  0  0
  151.0626  139.9006  157.4941 H   0  0  0  0  0  0  0  0  0  0  0  0
  150.0198  138.6487  155.3869 H   0  0  0  0  0  0  0  0  0  0  0  0
  149.2582  140.1879  155.0471 H   0  0  0  0  0  0  0  0  0  0  0  0
  151.9200  140.3486  155.6899 H   0  0  0  0  0  0  0  0  0  0  0  0
  149.0373  141.8800  156.5816 H   0  0  0  0  0  0  0  0  0  0  0  0
  148.8645  141.4102  158.2500 H   0  0  0  0  0  0  0  0  0  0  0  0
  151.4567  141.1912  159.4679 H   0  0  0  0  0  0  0  0  0  0  0  0
  153.2750  142.8081  160.0387 H   0  0  0  0  0  0  0  0  0  0  0  0
  153.5118  144.9098  158.6990 H   0  0  0  0  0  0  0  0  0  0  0  0
  151.8623  145.3193  156.7804 H   0  0  0  0  0  0  0  0  0  0  0  0
  150.2250  143.7399  156.3598 H   0  0  0  0  0  0  0  0  0  0  0  0
  1  2  2  0  0  0  0
  2  3  1  0  0  0  0
  2 10  1  0  0  0  0
  3  4  1  0  0  0  0
  3 21  1  0  0  0  0
  3 22  1  0  0  0  0
  4  5  1  0  0  0  0
  4 23  1  0  0  0  0
  4 24  1  0  0  0  0
  5  9  1  0  0  0  0
  5  6  1  0  0  0  0
  5 25  1  0  0  0  0
  6  7  1  0  0  0  0
  6 26  1  0  0  0  0
  6 27  1  0  0  0  0
  7  8  1  0  0  0  0
  7 28  1  0  0  0  0
  7 29  1  0  0  0  0
  8  9  1  0  0  0  0
  8 30  1  0  0  0  0
  8 31  1  0  0  0  0
  9 32  1  0  0  0  0
  9 33  1  0  0  0  0
 10 11  1  0  0  0  0
 10 34  1  0  0  0  0
 11 12  1  0  0  0  0
 11 14  1  0  0  0  0
 11 35  1  0  0  0  0
 12 13  1  0  0  0  0
 12 36  1  0  0  0  0
 12 37  1  0  0  0  0
 13 38  1  0  0  0  0
 14 15  1  0  0  0  0
 14 39  1  0  0  0  0
 14 40  1  0  0  0  0
 15 20  1  0  0  0  0
 15 16  2  0  0  0  0
 16 17  1  0  0  0  0
 16 41  1  0  0  0  0
 17 18  2  0  0  0  0
 17 42  1  0  0  0  0
 18 19  1  0  0  0  0
 18 43  1  0  0  0  0
 19 20  2  0  0  0  0
 19 44  1  0  0  0  0
 20 45  1  0  0  0  0
M  CHG  1  20   1
M  END
> <s_m_source_file>
AV-unprocessed.smi

> <i_m_source_file_index>
2725

> <i_lp_mmshare_version>
43012

> <i_f3d_flags>
0

> <s_epik_input>
W0NIMl0xW0NIMl1bQ0gyXVtDSDJdW0NIXTFbQ0gyXVtDSDJdQyg9TylbTkhdW0NASF0oW0NIMl1bT0hdKVtDSDJdYzJbY0hdW2NIXVtjSF1bY0hdbjI=

> <s_epik_cmdline>
J2VwaWtfcHl0aG9uJywgJy1waCcsICc3LjAnLCAnLXRuJywgJzgnLCAnLW1hJywgJzIwMCcsICctbWV0YWxfYmluZGluZycsICctaW1hZScsICc8aW5maWxlLm1hZT4nLCAnLW9tYWUnLCAnPG91dGZpbGUubWFlPic=

> <r_epik_Ionization_Penalty>
1.87189

> <r_epik_Ionization_Penalty_Charging>
1.87189

> <r_epik_Ionization_Penalty_Neutral>
6.79411e-08

> <r_epik_State_Penalty>
1.99097

> <r_epik_Charging_Adjusted_Penalty>
3.86287

> <i_epik_Tot_Q>
1

> <i_epik_Tot_abs_Q>
1

> <r_epik_Metal_State_Penalty>
2.01578

> <b_epik_Metal_Only>
0

> <s_lp_Force_Field>
OPLS_2005

> <r_lp_Energy>
28.0453

> <b_lp_Chiralities_Consistent>
1

> <s_lp_Variant>
AV-unprocessed.smi:2725-4

> <Gold.Version>
5.8.1

> <Gold.Id.Protein>
6NUR|6NUR_protein|mol2

> <Gold.PLP.Fitness>
48.8109

> <Gold.PLP.PLP>
-42.7599

> <Gold.PLP.part.hbond>
-2.0000

> <Gold.PLP.part.metal>
0.0000

> <Gold.PLP.part.buried>
-4.7972

> <Gold.PLP.part.nonpolar>
-36.3471

> <Gold.PLP.part.repulsive>
0.1157

> <Gold.PLP.ligand.clash>
0.0000

> <Gold.PLP.ligand.torsion>
1.5315

> <Gold.PLP.Chemscore.Hbond>
3.0000

> <Gold.PLP.Chemscore.CHOScore>
0.0000

> <Gold.PLP.Chemscore.Metal>
0.0000

> <Gold.Chemscore.Hbonds>
donor molecule, donor type, donor heavy atom, donor atom, acceptor molecule, acceptor atom, score
      L1  H    20    45       P1  8028  1.95
      P1  H  7989  7998       L1    13  1.00

> <Gold.PLP.Chemscore.Internal.Correction>
0.1141

> <Gold.Rescore>
     Score         DG    S(hbond)    S(metal)    S(lipo)     H(rot)  DE(clash)    DE(int)     intcor
     17.62     -19.27       1.94        0.00     118.73       2.58       0.04       1.61       ----

> <Gold.Chemscore.Fitness>
17.6199

> <Gold.Chemscore.DG>
-19.2686

> <Gold.Chemscore.ZeroCoef>
-5.4800

> <Gold.Chemscore.Hbond>
1.9446

> <Gold.Chemscore.Metal>
0.0000

> <Gold.Chemscore.Lipo>
118.7307

> <Gold.Chemscore.Internal_Hbond>
0.0000

> <Gold.Chemscore.DEClash>
0.0414

> <Gold.Chemscore.DEInternal>
1.6073

> <Gold.Chemscore.Rot>
2.5773

> <Gold.Chemscore.Internal.Correction>
   9.000000E+99

> <Gold.Chemscore.Hbonds>
donor molecule, donor type, donor heavy atom, donor atom, acceptor molecule, acceptor atom, score
      L1  H    20    45       P1  8028  0.93
      P1  H  7989  7998       L1    13  0.90

> <Gold.Chemscore.Hbond.Weighted>
-6.4949

> <Gold.Chemscore.Metal.Weighted>
-0.0000

> <Gold.Chemscore.Lipo.Weighted>
-13.8915

> <Gold.Chemscore.Internal_Hbond.Weighted>
0.0000

> <Gold.Chemscore.DEClash.Weighted>
0.0414

> <Gold.Chemscore.DEInternal.Weighted>
1.6073

> <Gold.Chemscore.Rot.Weighted>
6.5978

> <Gold.Chemscore.Internal.Correction.Weighted>
   9.000000E+99

> <Gold.Protein.RotatedTorsions>
[ 6907 6896 6895 6894 ] final -130.87 input  -60.11 | X-H torsion
[ 7974 7965 7964 7962 ] final  -41.33 input  175.53 | X-H torsion
[ 8008 7997 7996 7995 ] final   -9.42 input   59.86 | X-H torsion
[ 10167 10162 10161 10158 ] final -125.28 input  -65.29 | X-H torsion
[ 10718 10713 10712 10709 ] final    0.42 input   66.30 | X-H torsion
[ 10763 10752 10751 10750 ] final  -90.83 input  -60.55 | X-H torsion
[ 11005 11000 10999 10996 ] final   36.95 input  -57.11 | X-H torsion

> <Gold.Protein.ActiveResidues>
 VAL166  LYS551  ARG553  GLY616  TRP617  ASP618  TYR619  PRO620  LYS621  CYS622 
 ASP623  PHE694  ASN695  SER759  ASP760  ASP761  ALA762  ILE779  LEU786  VAL792 
 PHE793  MET794  SER795  GLU796  ALA797  LYS798  CYS799  TRP800  GLU811  SER814 

> <Gold.Protein.RotatedAtoms>
  150.9446  133.6618  159.2783 H   0  0  0  0  0  0  0  0  0  0  0  0  # atno 6907 bound_to 6896
  151.3995  135.0967  159.9561 H   0  0  0  0  0  0  0  0  0  0  0  0  # atno 6908 bound_to 6896
  152.5084  133.8943  159.7464 H   0  0  0  0  0  0  0  0  0  0  0  0  # atno 6909 bound_to 6896
  146.0221  140.6837  142.9173 H   0  0  0  0  0  0  0  0  0  0  0  0  # atno 7974 bound_to 7965
  154.5649  140.2355  155.8279 H   0  0  0  0  0  0  0  0  0  0  0  0  # atno 8008 bound_to 7997
  156.2060  140.3039  155.9586 H   0  0  0  0  0  0  0  0  0  0  0  0  # atno 8009 bound_to 7997
  155.2820  140.0423  157.3007 H   0  0  0  0  0  0  0  0  0  0  0  0  # atno 8010 bound_to 7997
  139.9837  143.5714  152.2368 H   0  0  0  0  0  0  0  0  0  0  0  0  # atno 10167 bound_to 10162
  156.8332  130.5495  149.5685 H   0  0  0  0  0  0  0  0  0  0  0  0  # atno 10718 bound_to 10713
  154.6699  135.5290  153.8124 H   0  0  0  0  0  0  0  0  0  0  0  0  # atno 10763 bound_to 10752
  153.0494  135.6526  154.0741 H   0  0  0  0  0  0  0  0  0  0  0  0  # atno 10764 bound_to 10752
  154.0641  135.2959  155.3299 H   0  0  0  0  0  0  0  0  0  0  0  0  # atno 10765 bound_to 10752
  140.2274  134.3568  155.7978 H   0  0  0  0  0  0  0  0  0  0  0  0  # atno 11005 bound_to 11000
  144.6994  140.3584  143.7168 LP  0  0  0  0  0  0  0  0  0  0  0  0  # atno 17320 bound_to 7965
  145.7176  139.1701  143.2503 LP  0  0  0  0  0  0  0  0  0  0  0  0  # atno 17321 bound_to 7965
  139.6390  144.7653  151.2377 LP  0  0  0  0  0  0  0  0  0  0  0  0  # atno 17342 bound_to 10162
  140.7480  143.6348  150.8389 LP  0  0  0  0  0  0  0  0  0  0  0  0  # atno 17343 bound_to 10162
  156.0922  130.5905  150.9753 LP  0  0  0  0  0  0  0  0  0  0  0  0  # atno 17370 bound_to 10713
  157.6396  131.0912  150.8279 LP  0  0  0  0  0  0  0  0  0  0  0  0  # atno 17371 bound_to 10713
  141.2220  133.7226  156.8675 LP  0  0  0  0  0  0  0  0  0  0  0  0  # atno 17394 bound_to 11000
  140.1786  134.9049  157.2921 LP  0  0  0  0  0  0  0  0  0  0  0  0  # atno 17395 bound_to 11000

$$$$
