AV-unprocessed.smi:1804|AV-procd|sdf|7295|dock4
  -GOLD-   22720 8553D 1   1.00000     0.00000
 Structure written by MMmdl.
 44 45  0  0  0  0  0  0  0  0  2 V2000
  144.7000  134.5253  154.4475 C   0  0  0  0  0  0  0  0  0  0  0  0
  145.3177  133.9472  153.2243 N   0  3  0  0  0  0  0  0  0  0  0  0
  146.7520  133.6510  153.4807 C   0  0  0  0  0  0  0  0  0  0  0  0
  145.0143  134.6753  151.9382 C   0  0  0  0  0  0  0  0  0  0  0  0
  144.9692  136.2172  152.2056 C   0  0  0  0  0  0  0  0  0  0  0  0
  146.2877  136.8352  152.3575 N   0  0  0  0  0  0  0  0  0  0  0  0
  146.5501  137.9667  153.0285 C   0  0  0  0  0  0  0  0  0  0  0  0
  145.6869  138.6296  153.6040 O   0  0  0  0  0  0  0  0  0  0  0  0
  147.8591  138.2696  152.9781 N   0  0  0  0  0  0  0  0  0  0  0  0
  148.5250  139.3905  153.5408 C   0  0  0  0  0  0  0  0  0  0  0  0
  149.7759  139.3472  154.0252 N   0  0  0  0  0  0  0  0  0  0  0  0
  150.1852  140.5798  154.5173 N   0  0  0  0  0  0  0  0  0  0  0  0
  149.2282  141.5026  154.3852 C   0  0  0  0  0  0  0  0  0  0  0  0
  147.7325  140.9558  153.6480 S   0  0  0  0  0  0  0  0  0  0  0  0
  146.1098  134.4227  150.8497 C   0  0  0  0  0  0  0  0  0  0  0  0
  146.4725  132.9658  150.5060 C   0  0  0  0  0  0  0  0  0  0  0  0
  145.3175  132.1195  149.9566 C   0  0  0  0  0  0  0  0  0  0  0  0
  144.3344  131.7002  151.0539 C   0  0  0  0  0  0  0  0  0  0  0  0
  143.2459  132.7328  151.3818 C   0  0  0  0  0  0  0  0  0  0  0  0
  143.6341  134.2297  151.3571 C   0  0  0  0  0  0  0  0  0  0  0  0
  145.2084  135.4378  154.7597 H   0  0  0  0  0  0  0  0  0  0  0  0
  144.7771  133.8151  155.2713 H   0  0  0  0  0  0  0  0  0  0  0  0
  143.6432  134.7547  154.3299 H   0  0  0  0  0  0  0  0  0  0  0  0
  147.3273  134.5614  153.6481 H   0  0  0  0  0  0  0  0  0  0  0  0
  147.2252  133.0923  152.6760 H   0  0  0  0  0  0  0  0  0  0  0  0
  146.8498  133.0371  154.3764 H   0  0  0  0  0  0  0  0  0  0  0  0
  144.4164  136.7371  151.4230 H   0  0  0  0  0  0  0  0  0  0  0  0
  144.4311  136.4271  153.1293 H   0  0  0  0  0  0  0  0  0  0  0  0
  147.0617  136.3595  151.9168 H   0  0  0  0  0  0  0  0  0  0  0  0
  148.4501  137.6262  152.4729 H   0  0  0  0  0  0  0  0  0  0  0  0
  149.4039  142.5126  154.7246 H   0  0  0  0  0  0  0  0  0  0  0  0
  145.8118  134.9025  149.9168 H   0  0  0  0  0  0  0  0  0  0  0  0
  147.0286  134.9387  151.1302 H   0  0  0  0  0  0  0  0  0  0  0  0
  147.2576  132.9927  149.7495 H   0  0  0  0  0  0  0  0  0  0  0  0
  146.9209  132.4634  151.3623 H   0  0  0  0  0  0  0  0  0  0  0  0
  144.8057  132.6275  149.1382 H   0  0  0  0  0  0  0  0  0  0  0  0
  145.7462  131.2138  149.5255 H   0  0  0  0  0  0  0  0  0  0  0  0
  143.8389  130.7777  150.7490 H   0  0  0  0  0  0  0  0  0  0  0  0
  144.8839  131.4396  151.9588 H   0  0  0  0  0  0  0  0  0  0  0  0
  142.4242  132.6003  150.6769 H   0  0  0  0  0  0  0  0  0  0  0  0
  142.8212  132.4760  152.3518 H   0  0  0  0  0  0  0  0  0  0  0  0
  142.8347  134.7676  151.8680 H   0  0  0  0  0  0  0  0  0  0  0  0
  143.5616  134.5708  150.3238 H   0  0  0  0  0  0  0  0  0  0  0  0
  144.8785  133.0449  153.1085 H   0  0  0  0  0  0  0  0  0  0  0  0
  1  2  1  0  0  0  0
  1 21  1  0  0  0  0
  1 22  1  0  0  0  0
  1 23  1  0  0  0  0
  2  3  1  0  0  0  0
  2  4  1  0  0  0  0
  2 44  1  0  0  0  0
  3 24  1  0  0  0  0
  3 25  1  0  0  0  0
  3 26  1  0  0  0  0
  4 20  1  0  0  0  0
  4  5  1  0  0  0  0
  4 15  1  0  0  0  0
  5  6  1  0  0  0  0
  5 27  1  0  0  0  0
  5 28  1  0  0  0  0
  6  7  1  0  0  0  0
  6 29  1  0  0  0  0
  7  8  2  0  0  0  0
  7  9  1  0  0  0  0
  9 10  1  0  0  0  0
  9 30  1  0  0  0  0
 10 14  1  0  0  0  0
 10 11  2  0  0  0  0
 11 12  1  0  0  0  0
 12 13  2  0  0  0  0
 13 14  1  0  0  0  0
 13 31  1  0  0  0  0
 15 16  1  0  0  0  0
 15 32  1  0  0  0  0
 15 33  1  0  0  0  0
 16 17  1  0  0  0  0
 16 34  1  0  0  0  0
 16 35  1  0  0  0  0
 17 18  1  0  0  0  0
 17 36  1  0  0  0  0
 17 37  1  0  0  0  0
 18 19  1  0  0  0  0
 18 38  1  0  0  0  0
 18 39  1  0  0  0  0
 19 20  1  0  0  0  0
 19 40  1  0  0  0  0
 19 41  1  0  0  0  0
 20 42  1  0  0  0  0
 20 43  1  0  0  0  0
M  CHG  1   2   1
M  END
> <s_m_source_file>
AV-unprocessed.smi

> <i_m_source_file_index>
1804

> <i_lp_mmshare_version>
43012

> <i_f3d_flags>
0

> <s_epik_input>
W0NIMl0xW0NIMl1bQ0gyXVtDSDJdW0NIMl1bQ0gyXUMxKE4oW0NIM10pW0NIM10pW0NIMl1bTkhdQyg9TylbTkhdYzJubltjSF1zMg==

> <s_epik_cmdline>
J2VwaWtfcHl0aG9uJywgJy1waCcsICc3LjAnLCAnLXRuJywgJzgnLCAnLW1hJywgJzIwMCcsICctbWV0YWxfYmluZGluZycsICctaW1hZScsICc8aW5maWxlLm1hZT4nLCAnLW9tYWUnLCAnPG91dGZpbGUubWFlPic=

> <r_lp_tautomer_probability>
1

> <r_epik_Ionization_Penalty>
0.00320238

> <r_epik_Ionization_Penalty_Charging>
0.00244219

> <r_epik_Ionization_Penalty_Neutral>
0.000760187

> <r_epik_State_Penalty>
-0

> <r_epik_Charging_Adjusted_Penalty>
0.00244219

> <i_epik_Tot_Q>
1

> <i_epik_Tot_abs_Q>
1

> <r_epik_Metal_State_Penalty>
0.262153

> <b_epik_Metal_Only>
0

> <s_lp_Force_Field>
OPLS_2005

> <r_lp_Energy>
34.4391

> <b_lp_Chiralities_Consistent>
1

> <s_lp_Variant>
AV-unprocessed.smi:1804-1

> <Gold.Version>
5.8.1

> <Gold.Id.Protein>
6NUR|6NUR_protein|mol2

> <Gold.PLP.Fitness>
39.4488

> <Gold.PLP.PLP>
-31.0000

> <Gold.PLP.part.hbond>
-3.5630

> <Gold.PLP.part.metal>
0.0000

> <Gold.PLP.part.buried>
-2.8707

> <Gold.PLP.part.nonpolar>
-27.2166

> <Gold.PLP.part.repulsive>
1.3147

> <Gold.PLP.ligand.clash>
0.0000

> <Gold.PLP.ligand.torsion>
1.6295

> <Gold.PLP.Chemscore.Hbond>
2.8720

> <Gold.PLP.Chemscore.CHOScore>
1.0000

> <Gold.PLP.Chemscore.Metal>
0.0000

> <Gold.Chemscore.Hbonds>
donor molecule, donor type, donor heavy atom, donor atom, acceptor molecule, acceptor atom, score
      L1  H     6    29       P1  7948  0.91
      L1  H     9    30       P1  7948  1.00
      P1  H  7989  7998       L1    12  0.88
      L1  C    13    31       P1  8028  1.00

> <Gold.PLP.Chemscore.Internal.Correction>
0.0918

> <Gold.Rescore>
     Score         DG    S(hbond)    S(metal)    S(lipo)     H(rot)  DE(clash)    DE(int)     intcor
     15.54     -17.04       1.96        0.00      79.02       1.65       0.19       1.31       ----

> <Gold.Chemscore.Fitness>
15.5414

> <Gold.Chemscore.DG>
-17.0416

> <Gold.Chemscore.ZeroCoef>
-5.4800

> <Gold.Chemscore.Hbond>
1.9570

> <Gold.Chemscore.Metal>
0.0000

> <Gold.Chemscore.Lipo>
79.0239

> <Gold.Chemscore.Internal_Hbond>
0.0000

> <Gold.Chemscore.DEClash>
0.1943

> <Gold.Chemscore.DEInternal>
1.3058

> <Gold.Chemscore.Rot>
1.6487

> <Gold.Chemscore.Internal.Correction>
   9.000000E+99

> <Gold.Chemscore.Hbonds>
donor molecule, donor type, donor heavy atom, donor atom, acceptor molecule, acceptor atom, score
      L1  H     6    29       P1  7948  0.88
      L1  H     9    30       P1  7948  0.97
      P1  H  7989  7998       L1    12  0.22

> <Gold.Chemscore.Hbond.Weighted>
-6.5365

> <Gold.Chemscore.Metal.Weighted>
-0.0000

> <Gold.Chemscore.Lipo.Weighted>
-9.2458

> <Gold.Chemscore.Internal_Hbond.Weighted>
0.0000

> <Gold.Chemscore.DEClash.Weighted>
0.1943

> <Gold.Chemscore.DEInternal.Weighted>
1.3058

> <Gold.Chemscore.Rot.Weighted>
4.2207

> <Gold.Chemscore.Internal.Correction.Weighted>
   9.000000E+99

> <Gold.Protein.RotatedTorsions>
[ 6907 6896 6895 6894 ] final  -87.06 input  -60.11 | X-H torsion
[ 7974 7965 7964 7962 ] final  176.23 input  175.53 | X-H torsion
[ 8008 7997 7996 7995 ] final  -16.58 input   59.86 | X-H torsion
[ 10167 10162 10161 10158 ] final  -42.09 input  -65.29 | X-H torsion
[ 10718 10713 10712 10709 ] final  -38.95 input   66.30 | X-H torsion
[ 10763 10752 10751 10750 ] final -142.36 input  -60.55 | X-H torsion
[ 11005 11000 10999 10996 ] final  -17.81 input  -57.11 | X-H torsion

> <Gold.Protein.ActiveResidues>
 VAL166  LYS551  ARG553  GLY616  TRP617  ASP618  TYR619  PRO620  LYS621  CYS622 
 ASP623  PHE694  ASN695  SER759  ASP760  ASP761  ALA762  ILE779  LEU786  VAL792 
 PHE793  MET794  SER795  GLU796  ALA797  LYS798  CYS799  TRP800  GLU811  SER814 

> <Gold.Protein.RotatedAtoms>
  150.6866  134.2954  159.4683 H   0  0  0  0  0  0  0  0  0  0  0  0  # atno 6907 bound_to 6896
  152.0855  134.9440  160.0582 H   0  0  0  0  0  0  0  0  0  0  0  0  # atno 6908 bound_to 6896
  152.0776  133.4102  159.4524 H   0  0  0  0  0  0  0  0  0  0  0  0  # atno 6909 bound_to 6896
  144.7188  140.0066  143.6440 H   0  0  0  0  0  0  0  0  0  0  0  0  # atno 7974 bound_to 7965
  154.5042  140.2165  155.9285 H   0  0  0  0  0  0  0  0  0  0  0  0  # atno 8008 bound_to 7997
  156.1473  140.3168  155.8557 H   0  0  0  0  0  0  0  0  0  0  0  0  # atno 8009 bound_to 7997
  155.4007  140.0484  157.3027 H   0  0  0  0  0  0  0  0  0  0  0  0  # atno 8010 bound_to 7997
  140.6981  143.3057  151.3159 H   0  0  0  0  0  0  0  0  0  0  0  0  # atno 10167 bound_to 10162
  156.2979  130.4236  149.8172 H   0  0  0  0  0  0  0  0  0  0  0  0  # atno 10718 bound_to 10713
  154.8512  135.3498  154.6016 H   0  0  0  0  0  0  0  0  0  0  0  0  # atno 10763 bound_to 10752
  153.6625  135.6989  153.5177 H   0  0  0  0  0  0  0  0  0  0  0  0  # atno 10764 bound_to 10752
  153.2807  135.4264  155.1033 H   0  0  0  0  0  0  0  0  0  0  0  0  # atno 10765 bound_to 10752
  140.8205  133.8072  155.9655 H   0  0  0  0  0  0  0  0  0  0  0  0  # atno 11005 bound_to 11000
  146.0292  139.3320  143.0765 LP  0  0  0  0  0  0  0  0  0  0  0  0  # atno 17320 bound_to 7965
  145.8473  140.9548  143.0768 LP  0  0  0  0  0  0  0  0  0  0  0  0  # atno 17321 bound_to 7965
  139.6462  144.0447  152.2592 LP  0  0  0  0  0  0  0  0  0  0  0  0  # atno 17342 bound_to 10162
  139.9968  144.6322  150.7765 LP  0  0  0  0  0  0  0  0  0  0  0  0  # atno 17343 bound_to 10162
  156.5561  130.8363  151.3314 LP  0  0  0  0  0  0  0  0  0  0  0  0  # atno 17370 bound_to 10713
  157.7360  130.9772  150.2114 LP  0  0  0  0  0  0  0  0  0  0  0  0  # atno 17371 bound_to 10713
  140.9103  134.2268  157.4989 LP  0  0  0  0  0  0  0  0  0  0  0  0  # atno 17394 bound_to 11000
  139.8709  134.9747  156.4856 LP  0  0  0  0  0  0  0  0  0  0  0  0  # atno 17395 bound_to 11000

$$$$
