AV-unprocessed.smi:265|AV-procd|sdf|2015|dock4
  -GOLD-   2262021213D 1   1.00000     0.00000
 Structure written by MMmdl.
 52 56  0  0  0  0  0  0  0  0  1 V2000
  152.2524  139.3508  158.6754 C   0  0  0  0  0  0  0  0  0  0  0  0
  152.6547  138.6704  157.3583 C   0  0  2  0  0  0  0  0  0  0  0  0
  152.7780  139.6298  156.3111 O   0  0  0  0  0  0  0  0  0  0  0  0
  152.3453  139.0683  155.0750 C   0  0  0  0  0  0  0  0  0  0  0  0
  152.1184  137.5858  155.3534 C   0  0  0  0  0  0  0  0  0  0  0  0
  151.7012  137.5865  156.8191 C   0  0  1  0  0  0  0  0  0  0  0  0
  152.0158  136.3296  157.3891 O   0  0  0  0  0  0  0  0  0  0  0  0
  150.1962  137.8947  157.0452 C   0  0  0  0  0  0  0  0  0  0  0  0
  149.3051  137.1571  156.1628 N   0  0  0  0  0  0  0  0  0  0  0  0
  148.2876  137.6737  155.3930 C   0  0  0  0  0  0  0  0  0  0  0  0
  147.6318  136.8004  154.6782 N   0  0  0  0  0  0  0  0  0  0  0  0
  148.2446  135.5886  154.9752 C   0  0  0  0  0  0  0  0  0  0  0  0
  148.0441  134.2447  154.5497 C   0  0  0  0  0  0  0  0  0  0  0  0
  147.0679  133.8886  153.6766 N   0  0  0  0  0  0  0  0  0  0  0  0
  145.9467  134.8182  153.4987 C   0  0  0  0  0  0  0  0  0  0  0  0
  144.7734  134.1468  152.7604 C   0  0  0  0  0  0  0  0  0  0  0  0
  145.2675  133.5356  151.4434 C   0  0  2  0  0  0  0  0  0  0  0  0
  144.2427  132.8194  150.7709 O   0  0  0  0  0  0  0  0  0  0  0  0
  144.6261  132.3715  149.4661 C   0  0  0  0  0  0  0  0  0  0  0  0
  146.0141  131.6960  149.4490 C   0  0  0  0  0  0  0  0  0  0  0  0
  146.3683  131.0502  148.4655 O   0  0  0  0  0  0  0  0  0  0  0  0
  146.8191  131.8736  150.5094 N   0  0  0  0  0  0  0  0  0  0  0  0
  146.3888  132.5271  151.7382 C   0  0  1  0  0  0  0  0  0  0  0  0
  147.5499  133.2290  152.4605 C   0  0  0  0  0  0  0  0  0  0  0  0
  148.8798  133.2980  155.0553 N   0  0  0  0  0  0  0  0  0  0  0  0
  149.8383  133.6363  155.9228 C   0  0  0  0  0  0  0  0  0  0  0  0
  150.1345  134.8424  156.4099 N   0  0  0  0  0  0  0  0  0  0  0  0
  149.3058  135.7982  155.9009 C   0  0  0  0  0  0  0  0  0  0  0  0
  145.6303  134.3390  150.7982 H   0  0  0  0  0  0  0  0  0  0  0  0
  145.9997  131.7426  152.3898 H   0  0  0  0  0  0  0  0  0  0  0  0
  152.1260  138.6182  159.4726 H   0  0  0  0  0  0  0  0  0  0  0  0
  151.3211  139.9083  158.5755 H   0  0  0  0  0  0  0  0  0  0  0  0
  153.0200  140.0567  158.9929 H   0  0  0  0  0  0  0  0  0  0  0  0
  153.6473  138.2335  157.4848 H   0  0  0  0  0  0  0  0  0  0  0  0
  151.4134  139.5514  154.7792 H   0  0  0  0  0  0  0  0  0  0  0  0
  153.0769  139.2338  154.2841 H   0  0  0  0  0  0  0  0  0  0  0  0
  151.4032  137.1253  154.6725 H   0  0  0  0  0  0  0  0  0  0  0  0
  153.0652  137.0563  155.2312 H   0  0  0  0  0  0  0  0  0  0  0  0
  152.8757  136.3838  157.7772 H   0  0  0  0  0  0  0  0  0  0  0  0
  149.9110  137.6694  158.0736 H   0  0  0  0  0  0  0  0  0  0  0  0
  150.0036  138.9589  156.9057 H   0  0  0  0  0  0  0  0  0  0  0  0
  148.0443  138.7262  155.3790 H   0  0  0  0  0  0  0  0  0  0  0  0
  145.6041  135.1785  154.4697 H   0  0  0  0  0  0  0  0  0  0  0  0
  146.2881  135.6874  152.9347 H   0  0  0  0  0  0  0  0  0  0  0  0
  144.3375  133.3702  153.3904 H   0  0  0  0  0  0  0  0  0  0  0  0
  143.9842  134.8740  152.5682 H   0  0  0  0  0  0  0  0  0  0  0  0
  143.8728  131.6771  149.0932 H   0  0  0  0  0  0  0  0  0  0  0  0
  144.6440  133.2233  148.7852 H   0  0  0  0  0  0  0  0  0  0  0  0
  147.7421  131.4646  150.4927 H   0  0  0  0  0  0  0  0  0  0  0  0
  148.0000  133.9794  151.8089 H   0  0  0  0  0  0  0  0  0  0  0  0
  148.3288  132.5015  152.6863 H   0  0  0  0  0  0  0  0  0  0  0  0
  150.4569  132.8246  156.2765 H   0  0  0  0  0  0  0  0  0  0  0  0
  1  2  1  0  0  0  0
  1 31  1  0  0  0  0
  1 32  1  0  0  0  0
  1 33  1  0  0  0  0
  2  6  1  0  0  0  0
  2  3  1  0  0  0  0
  2 34  1  0  0  0  0
  3  4  1  0  0  0  0
  4  5  1  0  0  0  0
  4 35  1  0  0  0  0
  4 36  1  0  0  0  0
  5  6  1  0  0  0  0
  5 37  1  0  0  0  0
  5 38  1  0  0  0  0
  6  7  1  0  0  0  0
  6  8  1  0  0  0  0
  7 39  1  0  0  0  0
  8  9  1  0  0  0  0
  8 40  1  0  0  0  0
  8 41  1  0  0  0  0
  9 28  1  0  0  0  0
  9 10  1  0  0  0  0
 10 11  2  0  0  0  0
 10 42  1  0  0  0  0
 11 12  1  0  0  0  0
 12 28  2  0  0  0  0
 12 13  1  0  0  0  0
 13 14  1  0  0  0  0
 13 25  2  0  0  0  0
 14 24  1  0  0  0  0
 14 15  1  0  0  0  0
 15 16  1  0  0  0  0
 15 43  1  0  0  0  0
 15 44  1  0  0  0  0
 16 17  1  0  0  0  0
 16 45  1  0  0  0  0
 16 46  1  0  0  0  0
 17 29  1  0  0  0  0
 17 23  1  0  0  0  0
 17 18  1  0  0  0  0
 18 19  1  0  0  0  0
 19 20  1  0  0  0  0
 19 47  1  0  0  0  0
 19 48  1  0  0  0  0
 20 21  2  0  0  0  0
 20 22  1  0  0  0  0
 22 23  1  0  0  0  0
 22 49  1  0  0  0  0
 23 30  1  0  0  0  0
 23 24  1  0  0  0  0
 24 50  1  0  0  0  0
 24 51  1  0  0  0  0
 25 26  1  0  0  0  0
 26 27  2  0  0  0  0
 26 52  1  0  0  0  0
 27 28  1  0  0  0  0
M  END
> <s_m_source_file>
AV-unprocessed.smi

> <i_m_source_file_index>
265

> <i_lp_mmshare_version>
43012

> <i_f3d_flags>
0

> <s_epik_input>
W0NIMl0xW0NIMl1PW0NAQEhdKFtDSDNdKVtDQEBdMShbT0hdKVtDSDJdbihbY0hdbjIpYyhjMjMpbltjSF1uYzNOKFtDSDJdW0NIMl00KVtDSDJdW0NAQEhdKFtDQEhdNDUpW05IXUMoPU8pW0NIMl1PNQ==

> <s_epik_cmdline>
J2VwaWtfcHl0aG9uJywgJy1waCcsICc3LjAnLCAnLXRuJywgJzgnLCAnLW1hJywgJzIwMCcsICctbWV0YWxfYmluZGluZycsICctaW1hZScsICc8aW5maWxlLm1hZT4nLCAnLW9tYWUnLCAnPG91dGZpbGUubWFlPic=

> <r_lp_tautomer_probability>
1

> <r_epik_Ionization_Penalty>
0.00221504

> <r_epik_Ionization_Penalty_Charging>
0

> <r_epik_Ionization_Penalty_Neutral>
0.00221504

> <r_epik_State_Penalty>
-0

> <r_epik_Charging_Adjusted_Penalty>
0

> <i_epik_Tot_Q>
0

> <i_epik_Tot_abs_Q>
0

> <r_epik_Metal_State_Penalty>
-0

> <b_epik_Metal_Only>
0

> <s_lp_Force_Field>
OPLS_2005

> <r_lp_Energy>
45.3858

> <b_lp_Chiralities_Consistent>
1

> <s_lp_Variant>
AV-unprocessed.smi:265-1

> <Gold.Version>
5.8.1

> <Gold.Id.Protein>
6NUR|6NUR_protein|mol2

> <Gold.PLP.Fitness>
35.3079

> <Gold.PLP.PLP>
-30.0371

> <Gold.PLP.part.hbond>
-3.4494

> <Gold.PLP.part.metal>
0.0000

> <Gold.PLP.part.buried>
-4.7182

> <Gold.PLP.part.nonpolar>
-23.5742

> <Gold.PLP.part.repulsive>
0.7338

> <Gold.PLP.ligand.clash>
0.0000

> <Gold.PLP.ligand.torsion>
0.5762

> <Gold.PLP.Chemscore.Hbond>
2.0000

> <Gold.PLP.Chemscore.CHOScore>
0.0000

> <Gold.PLP.Chemscore.Metal>
0.0000

> <Gold.Chemscore.Hbonds>
donor molecule, donor type, donor heavy atom, donor atom, acceptor molecule, acceptor atom, score
      L1  H    22    49       P1 10747  0.65
      P1  H  7997  8008       L1     3  0.85

> <Gold.PLP.Chemscore.Internal.Correction>
0.4232

> <Gold.Rescore>
     Score         DG    S(hbond)    S(metal)    S(lipo)     H(rot)  DE(clash)    DE(int)     intcor
      9.34     -13.15       1.92        0.00      59.81       2.25       0.09       3.72       ----

> <Gold.Chemscore.Fitness>
9.3374

> <Gold.Chemscore.DG>
-13.1467

> <Gold.Chemscore.ZeroCoef>
-5.4800

> <Gold.Chemscore.Hbond>
1.9212

> <Gold.Chemscore.Metal>
0.0000

> <Gold.Chemscore.Lipo>
59.8107

> <Gold.Chemscore.Internal_Hbond>
0.0000

> <Gold.Chemscore.DEClash>
0.0867

> <Gold.Chemscore.DEInternal>
3.7227

> <Gold.Chemscore.Rot>
2.2453

> <Gold.Chemscore.Internal.Correction>
   9.000000E+99

> <Gold.Chemscore.Hbonds>
donor molecule, donor type, donor heavy atom, donor atom, acceptor molecule, acceptor atom, score
      L1  H    22    49       P1 10747  0.65
      P1  H  7997  8008       L1     3  0.14
      P1  H 10777 10791       L1    21  0.01

> <Gold.Chemscore.Hbond.Weighted>
-6.4168

> <Gold.Chemscore.Metal.Weighted>
-0.0000

> <Gold.Chemscore.Lipo.Weighted>
-6.9979

> <Gold.Chemscore.Internal_Hbond.Weighted>
0.0000

> <Gold.Chemscore.DEClash.Weighted>
0.0867

> <Gold.Chemscore.DEInternal.Weighted>
3.7227

> <Gold.Chemscore.Rot.Weighted>
5.7479

> <Gold.Chemscore.Internal.Correction.Weighted>
   9.000000E+99

> <Gold.Protein.RotatedTorsions>
[ 6907 6896 6895 6894 ] final  -45.17 input  -60.11 | X-H torsion
[ 7974 7965 7964 7962 ] final   67.25 input  175.53 | X-H torsion
[ 8008 7997 7996 7995 ] final  -61.17 input   59.86 | X-H torsion
[ 10167 10162 10161 10158 ] final -109.50 input  -65.29 | X-H torsion
[ 10718 10713 10712 10709 ] final  -69.32 input   66.30 | X-H torsion
[ 10763 10752 10751 10750 ] final -148.56 input  -60.55 | X-H torsion
[ 11005 11000 10999 10996 ] final -140.34 input  -57.11 | X-H torsion

> <Gold.Protein.ActiveResidues>
 VAL166  LYS551  ARG553  GLY616  TRP617  ASP618  TYR619  PRO620  LYS621  CYS622 
 ASP623  PHE694  ASN695  SER759  ASP760  ASP761  ALA762  ILE779  LEU786  VAL792 
 PHE793  MET794  SER795  GLU796  ALA797  LYS798  CYS799  TRP800  GLU811  SER814 

> <Gold.Protein.RotatedAtoms>
  150.9248  134.8665  159.7512 H   0  0  0  0  0  0  0  0  0  0  0  0  # atno 6907 bound_to 6896
  152.5010  134.4165  159.9476 H   0  0  0  0  0  0  0  0  0  0  0  0  # atno 6908 bound_to 6896
  151.4196  133.3662  159.2789 H   0  0  0  0  0  0  0  0  0  0  0  0  # atno 6909 bound_to 6896
  145.8169  139.3063  143.1066 H   0  0  0  0  0  0  0  0  0  0  0  0  # atno 7974 bound_to 7965
  154.4435  140.1023  156.6389 H   0  0  0  0  0  0  0  0  0  0  0  0  # atno 8008 bound_to 7997
  155.5523  140.3486  155.4453 H   0  0  0  0  0  0  0  0  0  0  0  0  # atno 8009 bound_to 7997
  156.0520  140.1306  157.0028 H   0  0  0  0  0  0  0  0  0  0  0  0  # atno 8010 bound_to 7997
  140.1546  143.4170  152.1470 H   0  0  0  0  0  0  0  0  0  0  0  0  # atno 10167 bound_to 10162
  156.0461  130.4310  150.2131 H   0  0  0  0  0  0  0  0  0  0  0  0  # atno 10718 bound_to 10713
  154.8226  135.3331  154.6993 H   0  0  0  0  0  0  0  0  0  0  0  0  # atno 10763 bound_to 10752
  153.7624  135.6931  153.4927 H   0  0  0  0  0  0  0  0  0  0  0  0  # atno 10764 bound_to 10752
  153.2101  135.4485  155.0319 H   0  0  0  0  0  0  0  0  0  0  0  0  # atno 10765 bound_to 10752
  140.8432  134.2376  157.4799 H   0  0  0  0  0  0  0  0  0  0  0  0  # atno 11005 bound_to 11000
  145.9716  140.8755  143.0159 LP  0  0  0  0  0  0  0  0  0  0  0  0  # atno 17320 bound_to 7965
  144.6751  140.1954  143.7392 LP  0  0  0  0  0  0  0  0  0  0  0  0  # atno 17321 bound_to 7965
  139.5409  144.7256  151.4736 LP  0  0  0  0  0  0  0  0  0  0  0  0  # atno 17342 bound_to 10162
  140.6681  143.8354  150.6966 LP  0  0  0  0  0  0  0  0  0  0  0  0  # atno 17343 bound_to 10162
  157.0220  130.9982  151.3337 LP  0  0  0  0  0  0  0  0  0  0  0  0  # atno 17370 bound_to 10713
  157.5337  130.8075  149.7947 LP  0  0  0  0  0  0  0  0  0  0  0  0  # atno 17371 bound_to 10713
  139.8703  134.9646  156.4500 LP  0  0  0  0  0  0  0  0  0  0  0  0  # atno 17394 bound_to 11000
  140.8872  133.7874  155.9531 LP  0  0  0  0  0  0  0  0  0  0  0  0  # atno 17395 bound_to 11000

$$$$
