AV-unprocessed.smi:250|AV-procd|sdf|1933|dock4
  -GOLD-   2262021 53D 1   1.00000     0.00000
 Structure written by MMmdl.
 56 60  0  0  0  0  0  0  0  0  1 V2000
  151.6267  125.7881  157.1060 C   0  0  0  0  0  0  0  0  0  0  0  0
  151.7048  126.8042  156.0641 N   0  0  0  0  0  0  0  0  0  0  0  0
  151.5189  126.5932  154.7504 C   0  0  0  0  0  0  0  0  0  0  0  0
  151.2247  125.5242  154.2191 O   0  0  0  0  0  0  0  0  0  0  0  0
  151.7216  127.7466  154.1068 N   0  0  0  0  0  0  0  0  0  0  0  0
  152.1712  128.8006  154.9909 C   0  0  1  0  0  0  0  0  0  0  0  0
  151.6182  130.2074  154.6574 C   0  0  0  0  0  0  0  0  0  0  0  0
  150.5157  130.6410  155.5162 N   0  0  0  0  0  0  0  0  0  0  0  0
  149.9321  131.8142  155.1600 C   0  0  0  0  0  0  0  0  0  0  0  0
  150.3954  132.9446  155.7542 N   0  0  0  0  0  0  0  0  0  0  0  0
  149.8726  134.1351  155.4493 C   0  0  0  0  0  0  0  0  0  0  0  0
  148.8925  134.4197  154.5913 N   0  0  0  0  0  0  0  0  0  0  0  0
  148.4153  133.2909  153.9934 C   0  0  0  0  0  0  0  0  0  0  0  0
  148.8689  131.9589  154.2180 C   0  0  0  0  0  0  0  0  0  0  0  0
  148.1212  131.0781  153.4430 N   0  0  0  0  0  0  0  0  0  0  0  0
  147.2872  131.8430  152.7945 C   0  0  0  0  0  0  0  0  0  0  0  0
  147.4055  133.1894  153.0515 N   0  0  0  0  0  0  0  0  0  0  0  0
  146.6028  134.2613  152.4787 C   0  0  0  0  0  0  0  0  0  0  0  0
  145.5336  133.8214  151.4307 C   0  0  0  0  0  0  0  0  0  0  0  0
  144.8684  135.1114  150.8717 C   0  0  0  0  0  0  0  0  0  0  0  0
  145.7768  135.9175  150.1477 O   0  0  0  0  0  0  0  0  0  0  0  0
  146.1941  133.0350  150.2677 C   0  0  0  0  0  0  0  0  0  0  0  0
  145.1667  132.4089  149.3051 C   0  0  0  0  0  0  0  0  0  0  0  0
  144.2708  131.5707  150.0246 O   0  0  0  0  0  0  0  0  0  0  0  0
  143.5253  132.2703  151.0135 C   0  0  0  0  0  0  0  0  0  0  0  0
  144.4814  132.8710  152.0600 C   0  0  0  0  0  0  0  0  0  0  0  0
  150.5951  130.3018  156.9311 C   0  0  0  0  0  0  0  0  0  0  0  0
  150.6609  128.7838  157.0775 C   0  0  0  0  0  0  0  0  0  0  0  0
  151.9125  128.2100  156.3868 C   0  0  1  0  0  0  0  0  0  0  0  0
  153.2508  128.8402  154.8340 H   0  0  0  0  0  0  0  0  0  0  0  0
  152.7902  128.3424  157.0214 H   0  0  0  0  0  0  0  0  0  0  0  0
  152.2683  124.9395  156.8653 H   0  0  0  0  0  0  0  0  0  0  0  0
  150.6027  125.4280  157.2091 H   0  0  0  0  0  0  0  0  0  0  0  0
  151.9451  126.1880  158.0691 H   0  0  0  0  0  0  0  0  0  0  0  0
  151.6527  127.8610  153.1060 H   0  0  0  0  0  0  0  0  0  0  0  0
  152.4208  130.9352  154.7824 H   0  0  0  0  0  0  0  0  0  0  0  0
  151.3374  130.2470  153.6042 H   0  0  0  0  0  0  0  0  0  0  0  0
  150.3018  134.9805  155.9664 H   0  0  0  0  0  0  0  0  0  0  0  0
  146.5603  131.4434  152.1023 H   0  0  0  0  0  0  0  0  0  0  0  0
  146.1254  134.7849  153.3078 H   0  0  0  0  0  0  0  0  0  0  0  0
  147.2865  134.9827  152.0291 H   0  0  0  0  0  0  0  0  0  0  0  0
  144.0412  134.8532  150.2098 H   0  0  0  0  0  0  0  0  0  0  0  0
  144.4426  135.7305  151.6592 H   0  0  0  0  0  0  0  0  0  0  0  0
  145.7698  135.6404  149.2440 H   0  0  0  0  0  0  0  0  0  0  0  0
  146.8807  133.6776  149.7153 H   0  0  0  0  0  0  0  0  0  0  0  0
  146.7955  132.2160  150.6604 H   0  0  0  0  0  0  0  0  0  0  0  0
  144.6126  133.1667  148.7512 H   0  0  0  0  0  0  0  0  0  0  0  0
  145.6828  131.8020  148.5611 H   0  0  0  0  0  0  0  0  0  0  0  0
  142.9011  133.0345  150.5498 H   0  0  0  0  0  0  0  0  0  0  0  0
  142.8463  131.5667  151.4950 H   0  0  0  0  0  0  0  0  0  0  0  0
  144.9791  132.0366  152.5520 H   0  0  0  0  0  0  0  0  0  0  0  0
  143.9127  133.3811  152.8379 H   0  0  0  0  0  0  0  0  0  0  0  0
  151.4726  130.7701  157.3783 H   0  0  0  0  0  0  0  0  0  0  0  0
  149.7154  130.6703  157.4600 H   0  0  0  0  0  0  0  0  0  0  0  0
  150.6579  128.5077  158.1322 H   0  0  0  0  0  0  0  0  0  0  0  0
  149.7557  128.3532  156.6449 H   0  0  0  0  0  0  0  0  0  0  0  0
  1  2  1  0  0  0  0
  1 32  1  0  0  0  0
  1 33  1  0  0  0  0
  1 34  1  0  0  0  0
  2 29  1  0  0  0  0
  2  3  1  0  0  0  0
  3  4  2  0  0  0  0
  3  5  1  0  0  0  0
  5  6  1  0  0  0  0
  5 35  1  0  0  0  0
  6 30  1  0  0  0  0
  6 29  1  0  0  0  0
  6  7  1  0  0  0  0
  7  8  1  0  0  0  0
  7 36  1  0  0  0  0
  7 37  1  0  0  0  0
  8  9  1  0  0  0  0
  8 27  1  0  0  0  0
  9 14  1  0  0  0  0
  9 10  2  0  0  0  0
 10 11  1  0  0  0  0
 11 12  2  0  0  0  0
 11 38  1  0  0  0  0
 12 13  1  0  0  0  0
 13 17  1  0  0  0  0
 13 14  2  0  0  0  0
 14 15  1  0  0  0  0
 15 16  2  0  0  0  0
 16 17  1  0  0  0  0
 16 39  1  0  0  0  0
 17 18  1  0  0  0  0
 18 19  1  0  0  0  0
 18 40  1  0  0  0  0
 18 41  1  0  0  0  0
 19 26  1  0  0  0  0
 19 20  1  0  0  0  0
 19 22  1  0  0  0  0
 20 21  1  0  0  0  0
 20 42  1  0  0  0  0
 20 43  1  0  0  0  0
 21 44  1  0  0  0  0
 22 23  1  0  0  0  0
 22 45  1  0  0  0  0
 22 46  1  0  0  0  0
 23 24  1  0  0  0  0
 23 47  1  0  0  0  0
 23 48  1  0  0  0  0
 24 25  1  0  0  0  0
 25 26  1  0  0  0  0
 25 49  1  0  0  0  0
 25 50  1  0  0  0  0
 26 51  1  0  0  0  0
 26 52  1  0  0  0  0
 27 28  1  0  0  0  0
 27 53  1  0  0  0  0
 27 54  1  0  0  0  0
 28 29  1  0  0  0  0
 28 55  1  0  0  0  0
 28 56  1  0  0  0  0
 29 31  1  0  0  0  0
M  END
> <s_m_source_file>
AV-unprocessed.smi

> <i_m_source_file_index>
250

> <i_lp_mmshare_version>
43012

> <i_f3d_flags>
0

> <s_epik_input>
Tz1DKFtOSF0xKU4oW0NIM10pW0NASF0oW0NASF0xMilbQ0gyXVtDSDJdTihbQ0gyXTIpYyhuW2NIXW4zKWMoYzM0KW5bY0hdbjRbQ0gyXUM1KFtDSDJdW09IXSlbQ0gyXVtDSDJdT1tDSDJdW0NIMl01

> <s_epik_cmdline>
J2VwaWtfcHl0aG9uJywgJy1waCcsICc3LjAnLCAnLXRuJywgJzgnLCAnLW1hJywgJzIwMCcsICctbWV0YWxfYmluZGluZycsICctaW1hZScsICc8aW5maWxlLm1hZT4nLCAnLW9tYWUnLCAnPG91dGZpbGUubWFlPic=

> <r_lp_tautomer_probability>
1

> <r_epik_Ionization_Penalty>
0.00229024

> <r_epik_Ionization_Penalty_Charging>
0

> <r_epik_Ionization_Penalty_Neutral>
0.00229024

> <r_epik_State_Penalty>
0.0013961

> <r_epik_Charging_Adjusted_Penalty>
0.0013961

> <i_epik_Tot_Q>
0

> <i_epik_Tot_abs_Q>
0

> <r_epik_Metal_State_Penalty>
-0

> <b_epik_Metal_Only>
0

> <s_lp_Force_Field>
OPLS_2005

> <r_lp_Energy>
68.1887

> <b_lp_Chiralities_Consistent>
1

> <s_lp_Variant>
AV-unprocessed.smi:250-4

> <Gold.Version>
5.8.1

> <Gold.Id.Protein>
6NUR|6NUR_protein|mol2

> <Gold.PLP.Fitness>
42.5676

> <Gold.PLP.PLP>
-37.1525

> <Gold.PLP.part.hbond>
-2.9189

> <Gold.PLP.part.metal>
0.0000

> <Gold.PLP.part.buried>
-2.2293

> <Gold.PLP.part.nonpolar>
-31.3371

> <Gold.PLP.part.repulsive>
0.4866

> <Gold.PLP.ligand.clash>
0.0000

> <Gold.PLP.ligand.torsion>
1.2654

> <Gold.PLP.Chemscore.Hbond>
2.5570

> <Gold.PLP.Chemscore.CHOScore>
0.0000

> <Gold.PLP.Chemscore.Metal>
0.0000

> <Gold.Chemscore.Hbonds>
donor molecule, donor type, donor heavy atom, donor atom, acceptor molecule, acceptor atom, score
      L1  H     5    35       P1 10737  0.76
      L1  H    21    44       P1  7921  1.00
      P1  H 10785 10796       L1    24  0.36

> <Gold.PLP.Chemscore.Internal.Correction>
0.2748

> <Gold.Rescore>
     Score         DG    S(hbond)    S(metal)    S(lipo)     H(rot)  DE(clash)    DE(int)     intcor
     12.92     -15.97       2.28        0.00      73.08       2.22       0.09       2.96       ----

> <Gold.Chemscore.Fitness>
12.9217

> <Gold.Chemscore.DG>
-15.9712

> <Gold.Chemscore.ZeroCoef>
-5.4800

> <Gold.Chemscore.Hbond>
2.2804

> <Gold.Chemscore.Metal>
0.0000

> <Gold.Chemscore.Lipo>
73.0791

> <Gold.Chemscore.Internal_Hbond>
0.0000

> <Gold.Chemscore.DEClash>
0.0887

> <Gold.Chemscore.DEInternal>
2.9608

> <Gold.Chemscore.Rot>
2.2170

> <Gold.Chemscore.Internal.Correction>
   9.000000E+99

> <Gold.Chemscore.Hbonds>
donor molecule, donor type, donor heavy atom, donor atom, acceptor molecule, acceptor atom, score
      L1  H     5    35       P1 10737  0.76
      L1  H    21    44       P1  7921  1.00
      P1  H 10785 10796       L1    24  0.30

> <Gold.Chemscore.Hbond.Weighted>
-7.6165

> <Gold.Chemscore.Metal.Weighted>
-0.0000

> <Gold.Chemscore.Lipo.Weighted>
-8.5503

> <Gold.Chemscore.Internal_Hbond.Weighted>
0.0000

> <Gold.Chemscore.DEClash.Weighted>
0.0887

> <Gold.Chemscore.DEInternal.Weighted>
2.9608

> <Gold.Chemscore.Rot.Weighted>
5.6756

> <Gold.Chemscore.Internal.Correction.Weighted>
   9.000000E+99

> <Gold.Protein.RotatedTorsions>
[ 6907 6896 6895 6894 ] final  -96.40 input  -60.11 | X-H torsion
[ 7974 7965 7964 7962 ] final  116.15 input  175.53 | X-H torsion
[ 8008 7997 7996 7995 ] final  170.20 input   59.86 | X-H torsion
[ 10167 10162 10161 10158 ] final -159.17 input  -65.29 | X-H torsion
[ 10718 10713 10712 10709 ] final  -75.07 input   66.30 | X-H torsion
[ 10763 10752 10751 10750 ] final   80.50 input  -60.55 | X-H torsion
[ 11005 11000 10999 10996 ] final  126.00 input  -57.11 | X-H torsion

> <Gold.Protein.ActiveResidues>
 VAL166  LYS551  ARG553  GLY616  TRP617  ASP618  TYR619  PRO620  LYS621  CYS622 
 ASP623  PHE694  ASN695  SER759  ASP760  ASP761  ALA762  ILE779  LEU786  VAL792 
 PHE793  MET794  SER795  GLU796  ALA797  LYS798  CYS799  TRP800  GLU811  SER814 

> <Gold.Protein.RotatedAtoms>
  150.6988  134.1509  159.4139 H   0  0  0  0  0  0  0  0  0  0  0  0  # atno 6907 bound_to 6896
  151.9492  135.0175  160.0550 H   0  0  0  0  0  0  0  0  0  0  0  0  # atno 6908 bound_to 6896
  152.2026  133.4817  159.5103 H   0  0  0  0  0  0  0  0  0  0  0  0  # atno 6909 bound_to 6896
  145.1832  139.3039  143.4407 H   0  0  0  0  0  0  0  0  0  0  0  0  # atno 7974 bound_to 7965
  156.1387  140.1544  156.8954 H   0  0  0  0  0  0  0  0  0  0  0  0  # atno 8008 bound_to 7997
  154.4969  140.0836  156.7755 H   0  0  0  0  0  0  0  0  0  0  0  0  # atno 8009 bound_to 7997
  155.4119  140.3419  155.4266 H   0  0  0  0  0  0  0  0  0  0  0  0  # atno 8010 bound_to 7997
  139.6636  143.9869  152.2241 H   0  0  0  0  0  0  0  0  0  0  0  0  # atno 10167 bound_to 10162
  156.0220  130.4432  150.2987 H   0  0  0  0  0  0  0  0  0  0  0  0  # atno 10718 bound_to 10713
  153.1039  135.4800  154.8916 H   0  0  0  0  0  0  0  0  0  0  0  0  # atno 10763 bound_to 10752
  154.7408  135.3082  154.8733 H   0  0  0  0  0  0  0  0  0  0  0  0  # atno 10764 bound_to 10752
  153.9341  135.6841  153.4798 H   0  0  0  0  0  0  0  0  0  0  0  0  # atno 10765 bound_to 10752
  139.9434  134.9633  156.8642 H   0  0  0  0  0  0  0  0  0  0  0  0  # atno 11005 bound_to 11000
  146.3449  140.2019  142.8589 LP  0  0  0  0  0  0  0  0  0  0  0  0  # atno 17320 bound_to 7965
  145.0115  140.8718  143.5221 LP  0  0  0  0  0  0  0  0  0  0  0  0  # atno 17321 bound_to 7965
  139.9615  144.6555  150.8075 LP  0  0  0  0  0  0  0  0  0  0  0  0  # atno 17342 bound_to 10162
  140.7590  143.3119  151.2824 LP  0  0  0  0  0  0  0  0  0  0  0  0  # atno 17343 bound_to 10162
  157.1090  131.0216  151.3055 LP  0  0  0  0  0  0  0  0  0  0  0  0  # atno 17370 bound_to 10713
  157.4719  130.7714  149.7332 LP  0  0  0  0  0  0  0  0  0  0  0  0  # atno 17371 bound_to 10713
  140.5894  134.0276  155.7494 LP  0  0  0  0  0  0  0  0  0  0  0  0  # atno 17394 bound_to 11000
  141.1077  133.9667  157.2967 LP  0  0  0  0  0  0  0  0  0  0  0  0  # atno 17395 bound_to 11000

$$$$
