AV-unprocessed.smi:2061|AV-procd|sdf|8386|dock6
  -GOLD-   2272011 63D 1   1.00000     0.00000
 Structure written by MMmdl.
 45 46  0  0  0  0  0  0  0  0  3 V2000
  149.6596  140.6632  155.3470 C   0  0  0  0  0  0  0  0  0  0  0  0
  150.4260  139.4080  155.1042 C   0  0  0  0  0  0  0  0  0  0  0  0
  150.0454  138.1056  154.9464 C   0  0  0  0  0  0  0  0  0  0  0  0
  151.2791  137.4292  154.7431 C   0  0  0  0  0  0  0  0  0  0  0  0
  151.4308  136.1099  154.5493 N   0  5  0  0  0  0  0  0  0  0  0  0
  150.5004  135.2432  155.0091 C   0  0  0  0  0  0  0  0  0  0  0  0
  150.5956  134.5286  156.0100 O   0  0  0  0  0  0  0  0  0  0  0  0
  149.3899  135.1958  154.2594 N   0  0  0  0  0  0  0  0  0  0  0  0
  148.2301  134.3482  154.5175 C   0  0  0  0  0  0  0  0  0  0  0  0
  147.8485  133.4609  153.3035 C   0  0  2  0  0  0  0  0  0  0  0  0
  149.1025  132.7226  152.7763 C   0  0  0  0  0  0  0  0  0  0  0  0
  147.1565  134.2894  152.2606 N   0  3  1  0  0  0  0  0  0  0  0  0
  146.7985  133.6146  150.9835 C   0  0  0  0  0  0  0  0  0  0  0  0
  145.5765  132.6917  151.1644 C   0  0  2  0  0  0  0  0  0  0  0  0
  145.1635  132.0204  149.8502 C   0  0  0  0  0  0  0  0  0  0  0  0
  144.4814  133.4779  151.6212 O   0  0  0  0  0  0  0  0  0  0  0  0
  144.7295  134.0948  152.8802 C   0  0  2  0  0  0  0  0  0  0  0  0
  143.4685  134.8657  153.2856 C   0  0  0  0  0  0  0  0  0  0  0  0
  145.9613  135.0212  152.7638 C   0  0  0  0  0  0  0  0  0  0  0  0
  152.3180  138.2464  154.7893 N   0  0  0  0  0  0  0  0  0  0  0  0
  151.7789  139.5188  155.0138 O   0  0  0  0  0  0  0  0  0  0  0  0
  149.0577  140.5780  156.2519 H   0  0  0  0  0  0  0  0  0  0  0  0
  148.9894  140.8718  154.5131 H   0  0  0  0  0  0  0  0  0  0  0  0
  150.3280  141.5163  155.4651 H   0  0  0  0  0  0  0  0  0  0  0  0
  149.0446  137.7011  154.9690 H   0  0  0  0  0  0  0  0  0  0  0  0
  149.3494  135.7985  153.4503 H   0  0  0  0  0  0  0  0  0  0  0  0
  148.4368  133.7611  155.4113 H   0  0  0  0  0  0  0  0  0  0  0  0
  147.3933  134.9977  154.7753 H   0  0  0  0  0  0  0  0  0  0  0  0
  147.1562  132.6895  153.6381 H   0  0  0  0  0  0  0  0  0  0  0  0
  149.6034  132.1655  153.5680 H   0  0  0  0  0  0  0  0  0  0  0  0
  149.8301  133.4188  152.3583 H   0  0  0  0  0  0  0  0  0  0  0  0
  148.8541  131.9859  152.0126 H   0  0  0  0  0  0  0  0  0  0  0  0
  146.5491  134.3899  150.2577 H   0  0  0  0  0  0  0  0  0  0  0  0
  147.6427  133.0865  150.5428 H   0  0  0  0  0  0  0  0  0  0  0  0
  145.7929  131.9128  151.8971 H   0  0  0  0  0  0  0  0  0  0  0  0
  145.9668  131.3946  149.4607 H   0  0  0  0  0  0  0  0  0  0  0  0
  144.9156  132.7604  149.0887 H   0  0  0  0  0  0  0  0  0  0  0  0
  144.2889  131.3858  149.9947 H   0  0  0  0  0  0  0  0  0  0  0  0
  144.9034  133.3197  153.6274 H   0  0  0  0  0  0  0  0  0  0  0  0
  143.6001  135.3502  154.2534 H   0  0  0  0  0  0  0  0  0  0  0  0
  142.6111  134.1968  153.3639 H   0  0  0  0  0  0  0  0  0  0  0  0
  143.2240  135.6369  152.5546 H   0  0  0  0  0  0  0  0  0  0  0  0
  146.1550  135.5088  153.7174 H   0  0  0  0  0  0  0  0  0  0  0  0
  145.7403  135.8259  152.0611 H   0  0  0  0  0  0  0  0  0  0  0  0
  147.8357  134.9928  152.0075 H   0  0  0  0  0  0  0  0  0  0  0  0
  1  2  1  0  0  0  0
  1 22  1  0  0  0  0
  1 23  1  0  0  0  0
  1 24  1  0  0  0  0
  2 21  1  0  0  0  0
  2  3  2  0  0  0  0
  3  4  1  0  0  0  0
  3 25  1  0  0  0  0
  4  5  1  0  0  0  0
  4 20  2  0  0  0  0
  5  6  1  0  0  0  0
  6  7  2  0  0  0  0
  6  8  1  0  0  0  0
  8  9  1  0  0  0  0
  8 26  1  0  0  0  0
  9 10  1  0  0  0  0
  9 27  1  0  0  0  0
  9 28  1  0  0  0  0
 10 11  1  0  0  0  0
 10 12  1  0  0  0  0
 10 29  1  0  0  0  0
 11 30  1  0  0  0  0
 11 31  1  0  0  0  0
 11 32  1  0  0  0  0
 12 19  1  0  0  0  0
 12 13  1  0  0  0  0
 12 45  1  0  0  0  0
 13 14  1  0  0  0  0
 13 33  1  0  0  0  0
 13 34  1  0  0  0  0
 14 15  1  0  0  0  0
 14 16  1  0  0  0  0
 14 35  1  0  0  0  0
 15 36  1  0  0  0  0
 15 37  1  0  0  0  0
 15 38  1  0  0  0  0
 16 17  1  0  0  0  0
 17 18  1  0  0  0  0
 17 19  1  0  0  0  0
 17 39  1  0  0  0  0
 18 40  1  0  0  0  0
 18 41  1  0  0  0  0
 18 42  1  0  0  0  0
 19 43  1  0  0  0  0
 19 44  1  0  0  0  0
 20 21  1  0  0  0  0
M  CHG  1   5  -1
M  CHG  1  12   1
M  END
> <s_m_source_file>
AV-unprocessed.smi

> <i_m_source_file_index>
2061

> <i_lp_mmshare_version>
43012

> <i_f3d_flags>
0

> <s_epik_input>
W0NIM11jMVtjSF1jKG5vMSlbTkhdQyg9TylbTkhdW0NIMl1bQ0BIXShbQ0gzXSlOMltDSDJdW0NAQEhdKFtDSDNdKU9bQ0BASF0oW0NIM10pW0NIMl0y

> <s_epik_cmdline>
J2VwaWtfcHl0aG9uJywgJy1waCcsICc3LjAnLCAnLXRuJywgJzgnLCAnLW1hJywgJzIwMCcsICctbWV0YWxfYmluZGluZycsICctaW1hZScsICc8aW5maWxlLm1hZT4nLCAnLW9tYWUnLCAnPG91dGZpbGUubWFlPic=

> <r_epik_Ionization_Penalty>
6.73511

> <r_epik_Ionization_Penalty_Charging>
6.73502

> <r_epik_Ionization_Penalty_Neutral>
9.50841e-05

> <r_epik_State_Penalty>
6.93549

> <r_epik_Charging_Adjusted_Penalty>
13.6705

> <i_epik_Tot_Q>
0

> <i_epik_Tot_abs_Q>
2

> <r_epik_Metal_State_Penalty>
2.87211

> <b_epik_Metal_Only>
1

> <s_lp_Force_Field>
OPLS_2005

> <r_lp_Energy>
9.64983

> <b_lp_Chiralities_Consistent>
1

> <s_lp_Variant>
AV-unprocessed.smi:2061-27

> <Gold.Version>
5.8.1

> <Gold.Id.Protein>
6NUR|6NUR_protein|mol2

> <Gold.PLP.Fitness>
51.5309

> <Gold.PLP.PLP>
-35.4134

> <Gold.PLP.part.hbond>
-3.9585

> <Gold.PLP.part.metal>
0.0000

> <Gold.PLP.part.buried>
-6.7645

> <Gold.PLP.part.nonpolar>
-26.1242

> <Gold.PLP.part.repulsive>
0.4705

> <Gold.PLP.ligand.clash>
0.0000

> <Gold.PLP.ligand.torsion>
0.9739

> <Gold.PLP.Chemscore.Hbond>
6.0000

> <Gold.PLP.Chemscore.CHOScore>
0.0000

> <Gold.PLP.Chemscore.Metal>
0.0000

> <Gold.Chemscore.Hbonds>
donor molecule, donor type, donor heavy atom, donor atom, acceptor molecule, acceptor atom, score
      L1  H     8    26       P1  7948  1.00
      L1  H    12    45       P1  7948  2.00
      P1  H  7989  7998       L1    21  0.65
      P1  H 10752 10763       L1     5  1.92

> <Gold.PLP.Chemscore.Internal.Correction>
0.0654

> <Gold.Rescore>
     Score         DG    S(hbond)    S(metal)    S(lipo)     H(rot)  DE(clash)    DE(int)     intcor
     17.41     -18.62       2.61        0.00      71.74       1.56       0.00       1.21       ----

> <Gold.Chemscore.Fitness>
17.4125

> <Gold.Chemscore.DG>
-18.6238

> <Gold.Chemscore.ZeroCoef>
-5.4800

> <Gold.Chemscore.Hbond>
2.6142

> <Gold.Chemscore.Metal>
0.0000

> <Gold.Chemscore.Lipo>
71.7386

> <Gold.Chemscore.Internal_Hbond>
0.0000

> <Gold.Chemscore.DEClash>
0.0038

> <Gold.Chemscore.DEInternal>
1.2075

> <Gold.Chemscore.Rot>
1.5550

> <Gold.Chemscore.Internal.Correction>
   9.000000E+99

> <Gold.Chemscore.Hbonds>
donor molecule, donor type, donor heavy atom, donor atom, acceptor molecule, acceptor atom, score
      L1  H     8    26       P1  7948  0.44
      L1  H    12    45       P1  7948  0.70
      P1  H  7989  7998       L1    21  0.05
      P1  H 10752 10763       L1     5  0.68

> <Gold.Chemscore.Hbond.Weighted>
-8.7313

> <Gold.Chemscore.Metal.Weighted>
-0.0000

> <Gold.Chemscore.Lipo.Weighted>
-8.3934

> <Gold.Chemscore.Internal_Hbond.Weighted>
0.0000

> <Gold.Chemscore.DEClash.Weighted>
0.0038

> <Gold.Chemscore.DEInternal.Weighted>
1.2075

> <Gold.Chemscore.Rot.Weighted>
3.9809

> <Gold.Chemscore.Internal.Correction.Weighted>
   9.000000E+99

> <Gold.Protein.RotatedTorsions>
[ 6907 6896 6895 6894 ] final -156.49 input  -60.11 | X-H torsion
[ 7974 7965 7964 7962 ] final   77.75 input  175.53 | X-H torsion
[ 8008 7997 7996 7995 ] final   98.08 input   59.86 | X-H torsion
[ 10167 10162 10161 10158 ] final  -17.65 input  -65.29 | X-H torsion
[ 10718 10713 10712 10709 ] final  120.17 input   66.30 | X-H torsion
[ 10763 10752 10751 10750 ] final   72.02 input  -60.55 | X-H torsion
[ 11005 11000 10999 10996 ] final   43.92 input  -57.11 | X-H torsion

> <Gold.Protein.ActiveResidues>
 VAL166  LYS551  ARG553  GLY616  TRP617  ASP618  TYR619  PRO620  LYS621  CYS622 
 ASP623  PHE694  ASN695  SER759  ASP760  ASP761  ALA762  ILE779  LEU786  VAL792 
 PHE793  MET794  SER795  GLU796  ALA797  LYS798  CYS799  TRP800  GLU811  SER814 

> <Gold.Protein.RotatedAtoms>
  151.2885  133.4176  159.2631 H   0  0  0  0  0  0  0  0  0  0  0  0  # atno 6907 bound_to 6896
  151.0298  134.9531  159.8115 H   0  0  0  0  0  0  0  0  0  0  0  0  # atno 6908 bound_to 6896
  152.5343  134.2846  159.9072 H   0  0  0  0  0  0  0  0  0  0  0  0  # atno 6909 bound_to 6896
  145.6861  139.2538  143.1786 H   0  0  0  0  0  0  0  0  0  0  0  0  # atno 7974 bound_to 7965
  156.0968  140.3249  155.7888 H   0  0  0  0  0  0  0  0  0  0  0  0  # atno 8008 bound_to 7997
  155.4904  140.0561  157.2971 H   0  0  0  0  0  0  0  0  0  0  0  0  # atno 8009 bound_to 7997
  154.4671  140.1994  156.0104 H   0  0  0  0  0  0  0  0  0  0  0  0  # atno 8010 bound_to 7997
  140.7249  143.4995  150.9888 H   0  0  0  0  0  0  0  0  0  0  0  0  # atno 10167 bound_to 10162
  157.5910  131.1064  150.7998 H   0  0  0  0  0  0  0  0  0  0  0  0  # atno 10718 bound_to 10713
  153.0433  135.5115  154.7681 H   0  0  0  0  0  0  0  0  0  0  0  0  # atno 10763 bound_to 10752
  154.6600  135.2937  154.9880 H   0  0  0  0  0  0  0  0  0  0  0  0  # atno 10764 bound_to 10752
  154.0735  135.6674  153.4880 H   0  0  0  0  0  0  0  0  0  0  0  0  # atno 10765 bound_to 10752
  140.1599  134.4354  155.8324 H   0  0  0  0  0  0  0  0  0  0  0  0  # atno 11005 bound_to 11000
  146.0923  140.7642  142.9589 LP  0  0  0  0  0  0  0  0  0  0  0  0  # atno 17320 bound_to 7965
  144.7011  140.3656  143.7155 LP  0  0  0  0  0  0  0  0  0  0  0  0  # atno 17321 bound_to 7965
  139.8703  143.7201  152.3167 LP  0  0  0  0  0  0  0  0  0  0  0  0  # atno 17342 bound_to 10162
  139.7447  144.7550  151.0598 LP  0  0  0  0  0  0  0  0  0  0  0  0  # atno 17343 bound_to 10162
  156.8421  130.5051  149.5320 LP  0  0  0  0  0  0  0  0  0  0  0  0  # atno 17370 bound_to 10713
  156.0964  130.5936  150.9821 LP  0  0  0  0  0  0  0  0  0  0  0  0  # atno 17371 bound_to 10713
  141.2208  133.6909  156.7576 LP  0  0  0  0  0  0  0  0  0  0  0  0  # atno 17394 bound_to 11000
  140.2502  134.8546  157.3660 LP  0  0  0  0  0  0  0  0  0  0  0  0  # atno 17395 bound_to 11000

$$$$
