#       Name:                AV-unprocessed.smi:2740
#       Creating user name   scv26
#       Creation time:       Fri Mar 27 15:00:59 2020


#       File generated by GOLD software.
#

@<TRIPOS>MOLECULE
AV-unprocessed.smi:2740
    36    37     1
SMALL
NO_CHARGES


@<TRIPOS>ATOM
      1 ****        -5.7722   2.2886  -0.0387 C.3            1 S1                 0.0000
      2 ****        -4.5176   1.9132  -0.7520 C.2            1 S1                 0.0000
      3 ****        -4.3895   1.4839  -2.0474 C.2            1 S1                 0.0000
      4 ****        -3.0733   1.2070  -2.4200 N.2            1 S1                 0.0000
      5 ****        -2.1899   1.4053  -1.4359 C.2            1 S1                 0.0000
      6 ****        -0.8710   1.1984  -1.5826 N.pl3          1 S1                -1.0000
      7 ****        -0.3124   0.0533  -1.1284 C.2            1 S1                 0.0000
      8 ****        -0.9002  -0.8704  -0.5603 O.2            1 S1                 0.0000
      9 ****         1.0084  -0.0278  -1.3446 N.am           1 S1                 0.0000
     10 ****         1.8666  -1.1449  -0.9645 C.3            1 S1                 0.0000
     11 ****         2.2688  -1.0733   0.5179 C.3            1 S1                 0.0000
     12 ****         3.0859  -2.2740   0.9932 C.3            1 S1                 0.0000
     13 ****         3.9175  -1.7174   2.1400 C.3            1 S1                 0.0000
     14 ****         3.7404  -0.2007   2.0303 C.3            1 S1                 0.0000
     15 ****         3.1584   0.0074   0.7520 O.3            1 S1                 0.0000
     16 ****        -2.9662   1.9835   0.0402 S.3            1 S1                 0.0000
     17 ****        -6.4371   1.4293   0.0484 H              1 S1                 0.0000
     18 ****        -6.3031   3.0739  -0.5770 H              1 S1                 0.0000
     19 ****        -5.5611   2.6537   0.9667 H              1 S1                 0.0000
     20 ****        -5.1778   1.3468  -2.7726 H              1 S1                 0.0000
     21 ****         1.4518   0.7513  -1.8085 H              1 S1                 0.0000
     22 ****         1.3565  -2.0871  -1.1716 H              1 S1                 0.0000
     23 ****         2.7544  -1.1302  -1.5971 H              1 S1                 0.0000
     24 ****         1.3890  -0.9561   1.1540 H              1 S1                 0.0000
     25 ****         2.4561  -3.1118   1.2933 H              1 S1                 0.0000
     26 ****         3.7478  -2.6201   0.1982 H              1 S1                 0.0000
     27 ****         3.5684  -2.0797   3.1076 H              1 S1                 0.0000
     28 ****         4.9633  -2.0063   2.0303 H              1 S1                 0.0000
     29 ****         3.0557   0.1621   2.7983 H              1 S1                 0.0000
     30 ****         4.6815   0.3407   2.1298 H              1 S1                 0.0000
     31 ****        -2.8161   0.8913  -3.3333 LP             1 S1                 0.0000
     32 ****        -0.3023   1.8905  -2.0273 LP             1 S1                 0.0000
     33 ****        -1.8851  -0.8114  -0.3979 LP             1 S1                 0.0000
     34 ****        -0.3917  -1.6782  -0.2621 LP             1 S1                 0.0000
     35 ****         2.6576   0.8729   0.7399 LP             1 S1                 0.0000
     36 ****         3.8701   0.0243   0.0497 LP             1 S1                 0.0000
@<TRIPOS>BOND
    1    1    2 1     
    2    1   17 1     
    3    1   18 1     
    4    1   19 1     
    5    2   16 1     
    6    2    3 2     
    7    3    4 1     
    8    3   20 1     
    9    4    5 2     
   10    5    6 1     
   11    5   16 1     
   12    6    7 1     
   13    7    8 2     
   14    7    9 am    
   15    9   10 1     
   16    9   21 1     
   17   10   11 1     
   18   10   22 1     
   19   10   23 1     
   20   11   15 1     
   21   11   12 1     
   22   11   24 1     
   23   12   13 1     
   24   12   25 1     
   25   12   26 1     
   26   13   14 1     
   27   13   27 1     
   28   13   28 1     
   29   14   15 1     
   30   14   29 1     
   31   14   30 1     
   32    4   31 1     
   33    6   32 1     
   34    8   33 1     
   35    8   34 1     
   36   15   35 1     
   37   15   36 1     
@<TRIPOS>SUBSTRUCTURE
      1 S1             1
@<TRIPOS>SET
LONE_PAIRS      STATIC     ATOMS    <user>   **** ""
6 31 32 33 34 35 36
DONOR_HYDROGENS      STATIC     ATOMS    <user>   **** ""
1 21
ATOM$BLUE        STATIC     ATOMS    COLORGROUP SYSTEM
6 31 32 33 34 35 36
ATOM$RED        STATIC     ATOMS    COLORGROUP SYSTEM
1 21
