AV-unprocessed.smi:34|AV-procd|sdf|238|dock3
  -GOLD-   2262015583D 1   1.00000     0.00000
 Structure written by MMmdl.
 54 58  0  0  0  0  0  0  0  0  2 V2000
  153.5047  142.1695  162.2542 O   0  0  0  0  0  0  0  0  0  0  0  0
  153.2814  142.3611  161.0569 C   0  0  0  0  0  0  0  0  0  0  0  0
  153.8112  141.7031  159.9949 N   0  5  0  0  0  0  0  0  0  0  0  0
  153.4672  140.4287  159.7552 C   0  0  0  0  0  0  0  0  0  0  0  0
  154.2238  139.4118  160.2403 N   0  0  0  0  0  0  0  0  0  0  0  0
  153.8873  138.1414  159.9911 C   0  0  0  0  0  0  0  0  0  0  0  0
  152.8553  137.6692  159.2859 N   0  0  0  0  0  0  0  0  0  0  0  0
  152.0880  138.6809  158.7854 C   0  0  0  0  0  0  0  0  0  0  0  0
  152.3321  140.0729  158.9762 C   0  0  0  0  0  0  0  0  0  0  0  0
  151.3667  140.8354  158.3362 N   0  0  0  0  0  0  0  0  0  0  0  0
  150.5946  139.8942  157.7994 C   0  0  0  0  0  0  0  0  0  0  0  0
  150.9384  138.6081  158.0115 N   0  0  0  0  0  0  0  0  0  0  0  0
  150.2183  137.3956  157.5014 C   0  0  1  0  0  0  0  0  0  0  0  0
  148.9189  137.7475  157.1236 O   0  0  0  0  0  0  0  0  0  0  0  0
  148.7354  137.5147  155.7303 C   0  0  2  0  0  0  0  0  0  0  0  0
  147.2662  137.2032  155.4207 C   0  0  0  0  0  0  0  0  0  0  0  0
  147.1906  136.3748  154.2715 O   0  0  0  0  0  0  0  0  0  0  0  0
  146.0743  136.3688  153.5168 C   0  0  0  0  0  0  0  0  0  0  0  0
  145.1200  137.1264  153.7039 O   0  0  0  0  0  0  0  0  0  0  0  0
  146.1110  135.3435  152.4345 C   0  0  0  0  0  0  0  0  0  0  0  0
  147.1579  134.3924  152.4165 C   0  0  0  0  0  0  0  0  0  0  0  0
  147.2209  133.4134  151.4059 C   0  0  0  0  0  0  0  0  0  0  0  0
  146.2362  133.3722  150.4015 C   0  0  0  0  0  0  0  0  0  0  0  0
  145.1887  134.3116  150.4089 C   0  0  0  0  0  0  0  0  0  0  0  0
  145.1250  135.2925  151.4181 C   0  0  0  0  0  0  0  0  0  0  0  0
  149.7228  136.3935  155.4029 C   0  0  2  0  0  0  0  0  0  0  0  0
  149.2300  135.2073  155.7659 F   0  0  0  0  0  0  0  0  0  0  0  0
  150.9075  136.7365  156.2877 C   0  0  1  0  0  0  0  0  0  0  0  0
  151.8272  137.5689  155.6037 O   0  0  0  0  0  0  0  0  0  0  0  0
  152.3653  143.4882  160.6605 C   0  0  0  0  0  0  0  0  0  0  0  0
  152.3478  143.9391  159.3207 C   0  0  0  0  0  0  0  0  0  0  0  0
  151.5164  145.0090  158.9356 C   0  0  0  0  0  0  0  0  0  0  0  0
  150.6996  145.6461  159.8885 C   0  0  0  0  0  0  0  0  0  0  0  0
  150.7186  145.2154  161.2282 C   0  0  0  0  0  0  0  0  0  0  0  0
  151.5497  144.1456  161.6141 C   0  0  0  0  0  0  0  0  0  0  0  0
  154.5404  137.3948  160.4181 H   0  0  0  0  0  0  0  0  0  0  0  0
  149.7242  140.1565  157.2162 H   0  0  0  0  0  0  0  0  0  0  0  0
  150.1593  136.7291  158.3628 H   0  0  0  0  0  0  0  0  0  0  0  0
  149.0319  138.4150  155.1923 H   0  0  0  0  0  0  0  0  0  0  0  0
  146.7923  136.7207  156.2767 H   0  0  0  0  0  0  0  0  0  0  0  0
  146.7228  138.1288  155.2270 H   0  0  0  0  0  0  0  0  0  0  0  0
  147.9263  134.4054  153.1764 H   0  0  0  0  0  0  0  0  0  0  0  0
  148.0265  132.6938  151.4020 H   0  0  0  0  0  0  0  0  0  0  0  0
  146.2842  132.6210  149.6269 H   0  0  0  0  0  0  0  0  0  0  0  0
  144.4316  134.2805  149.6392 H   0  0  0  0  0  0  0  0  0  0  0  0
  144.3068  135.9977  151.3951 H   0  0  0  0  0  0  0  0  0  0  0  0
  149.9682  136.3302  154.3420 H   0  0  0  0  0  0  0  0  0  0  0  0
  151.4419  135.8434  156.6140 H   0  0  0  0  0  0  0  0  0  0  0  0
  151.8947  138.3889  156.0690 H   0  0  0  0  0  0  0  0  0  0  0  0
  152.9700  143.4618  158.5770 H   0  0  0  0  0  0  0  0  0  0  0  0
  151.5070  145.3417  157.9081 H   0  0  0  0  0  0  0  0  0  0  0  0
  150.0627  146.4665  159.5933 H   0  0  0  0  0  0  0  0  0  0  0  0
  150.0976  145.7072  161.9621 H   0  0  0  0  0  0  0  0  0  0  0  0
  151.5571  143.8380  162.6499 H   0  0  0  0  0  0  0  0  0  0  0  0
  1  2  2  0  0  0  0
  2  3  1  0  0  0  0
  2 30  1  0  0  0  0
  3  4  1  0  0  0  0
  4  9  1  0  0  0  0
  4  5  2  0  0  0  0
  5  6  1  0  0  0  0
  6  7  2  0  0  0  0
  6 36  1  0  0  0  0
  7  8  1  0  0  0  0
  8 12  1  0  0  0  0
  8  9  2  0  0  0  0
  9 10  1  0  0  0  0
 10 11  2  0  0  0  0
 11 12  1  0  0  0  0
 11 37  1  0  0  0  0
 12 13  1  0  0  0  0
 13 28  1  0  0  0  0
 13 14  1  0  0  0  0
 13 38  1  0  0  0  0
 14 15  1  0  0  0  0
 15 16  1  0  0  0  0
 15 26  1  0  0  0  0
 15 39  1  0  0  0  0
 16 17  1  0  0  0  0
 16 40  1  0  0  0  0
 16 41  1  0  0  0  0
 17 18  1  0  0  0  0
 18 19  2  0  0  0  0
 18 20  1  0  0  0  0
 20 25  1  0  0  0  0
 20 21  2  0  0  0  0
 21 22  1  0  0  0  0
 21 42  1  0  0  0  0
 22 23  2  0  0  0  0
 22 43  1  0  0  0  0
 23 24  1  0  0  0  0
 23 44  1  0  0  0  0
 24 25  2  0  0  0  0
 24 45  1  0  0  0  0
 25 46  1  0  0  0  0
 26 27  1  0  0  0  0
 26 28  1  0  0  0  0
 26 47  1  0  0  0  0
 28 29  1  0  0  0  0
 28 48  1  0  0  0  0
 29 49  1  0  0  0  0
 30 35  1  0  0  0  0
 30 31  2  0  0  0  0
 31 32  1  0  0  0  0
 31 50  1  0  0  0  0
 32 33  2  0  0  0  0
 32 51  1  0  0  0  0
 33 34  1  0  0  0  0
 33 52  1  0  0  0  0
 34 35  2  0  0  0  0
 34 53  1  0  0  0  0
 35 54  1  0  0  0  0
M  CHG  1   3  -1
M  END
> <s_m_source_file>
AV-unprocessed.smi

> <i_m_source_file_index>
34

> <i_lp_mmshare_version>
43012

> <i_f3d_flags>
0

> <s_epik_input>
W2NIXTFbY0hdW2NIXVtjSF1bY0hdYzFDKD1PKVtOSF1jKG5bY0hdbjIpYyhjMjMpbltjSF1uM1tDQEBIXTRPW0NASF0oW0NAQEhdKEYpW0NASF00W09IXSlbQ0gyXU9DKD1PKWM1W2NIXVtjSF1bY0hdW2NIXVtjSF01

> <s_epik_cmdline>
J2VwaWtfcHl0aG9uJywgJy1waCcsICc3LjAnLCAnLXRuJywgJzgnLCAnLW1hJywgJzIwMCcsICctbWV0YWxfYmluZGluZycsICctaW1hZScsICc8aW5maWxlLm1hZT4nLCAnLW9tYWUnLCAnPG91dGZpbGUubWFlPic=

> <r_lp_tautomer_probability>
1

> <r_epik_Ionization_Penalty>
4.33227

> <r_epik_Ionization_Penalty_Charging>
3.41027

> <r_epik_Ionization_Penalty_Neutral>
0.922001

> <r_epik_State_Penalty>
3.41358

> <r_epik_Charging_Adjusted_Penalty>
6.82385

> <i_epik_Tot_Q>
-1

> <i_epik_Tot_abs_Q>
1

> <r_epik_Metal_State_Penalty>
0.496292

> <b_epik_Metal_Only>
1

> <s_epik_Chemistry_Notes>
This compound has an ester and may undergo hydrolysis at high or low pH. This compound contains an acetal/aminal-like group ( X-CH(R)-Y where X, Y are N, S, or O) that may be acid/base labile, releasing an aldehyde.

> <s_lp_Force_Field>
OPLS_2005

> <r_lp_Energy>
49.908

> <b_lp_Chiralities_Consistent>
1

> <s_lp_Variant>
AV-unprocessed.smi:34-24

> <Gold.Version>
5.8.1

> <Gold.Id.Protein>
6NUR|6NUR_protein|mol2

> <Gold.PLP.Fitness>
59.6035

> <Gold.PLP.PLP>
-58.0742

> <Gold.PLP.part.hbond>
-2.0000

> <Gold.PLP.part.metal>
0.0000

> <Gold.PLP.part.buried>
-10.0441

> <Gold.PLP.part.nonpolar>
-47.6893

> <Gold.PLP.part.repulsive>
0.3555

> <Gold.PLP.ligand.clash>
0.0000

> <Gold.PLP.ligand.torsion>
2.4755

> <Gold.PLP.Chemscore.Hbond>
2.0000

> <Gold.PLP.Chemscore.CHOScore>
0.0000

> <Gold.PLP.Chemscore.Metal>
0.0000

> <Gold.PLP.Chemscore.Internal.Correction>
0.4803

> <Gold.Rescore>
     Score         DG    S(hbond)    S(metal)    S(lipo)     H(rot)  DE(clash)    DE(int)     intcor
     15.14     -18.61       1.66        0.00     123.71       2.69       0.05       3.42       ----

> <Gold.Chemscore.Fitness>
15.1401

> <Gold.Chemscore.DG>
-18.6112

> <Gold.Chemscore.ZeroCoef>
-5.4800

> <Gold.Chemscore.Hbond>
1.6631

> <Gold.Chemscore.Metal>
0.0000

> <Gold.Chemscore.Lipo>
123.7097

> <Gold.Chemscore.Internal_Hbond>
0.0000

> <Gold.Chemscore.DEClash>
0.0529

> <Gold.Chemscore.DEInternal>
3.4183

> <Gold.Chemscore.Rot>
2.6944

> <Gold.Chemscore.Internal.Correction>
   9.000000E+99

> <Gold.Chemscore.Hbond.Weighted>
-5.5547

> <Gold.Chemscore.Metal.Weighted>
-0.0000

> <Gold.Chemscore.Lipo.Weighted>
-14.4740

> <Gold.Chemscore.Internal_Hbond.Weighted>
0.0000

> <Gold.Chemscore.DEClash.Weighted>
0.0529

> <Gold.Chemscore.DEInternal.Weighted>
3.4183

> <Gold.Chemscore.Rot.Weighted>
6.8975

> <Gold.Chemscore.Internal.Correction.Weighted>
   9.000000E+99

> <Gold.Protein.RotatedTorsions>
[ 6907 6896 6895 6894 ] final  129.28 input  -60.11 | X-H torsion
[ 7974 7965 7964 7962 ] final   11.52 input  175.53 | X-H torsion
[ 8008 7997 7996 7995 ] final -166.25 input   59.86 | X-H torsion
[ 10167 10162 10161 10158 ] final  -70.72 input  -65.29 | X-H torsion
[ 10718 10713 10712 10709 ] final  127.35 input   66.30 | X-H torsion
[ 10763 10752 10751 10750 ] final  -45.34 input  -60.55 | X-H torsion
[ 11005 11000 10999 10996 ] final -173.60 input  -57.11 | X-H torsion

> <Gold.Protein.ActiveResidues>
 VAL166  LYS551  ARG553  GLY616  TRP617  ASP618  TYR619  PRO620  LYS621  CYS622 
 ASP623  PHE694  ASN695  SER759  ASP760  ASP761  ALA762  ILE779  LEU786  VAL792 
 PHE793  MET794  SER795  GLU796  ALA797  LYS798  CYS799  TRP800  GLU811  SER814 

> <Gold.Protein.RotatedAtoms>
  152.3639  133.6332  159.6035 H   0  0  0  0  0  0  0  0  0  0  0  0  # atno 6907 bound_to 6896
  150.7620  133.9379  159.3456 H   0  0  0  0  0  0  0  0  0  0  0  0  # atno 6908 bound_to 6896
  151.7213  135.0895  160.0335 H   0  0  0  0  0  0  0  0  0  0  0  0  # atno 6909 bound_to 6896
  146.2369  139.9474  142.8475 H   0  0  0  0  0  0  0  0  0  0  0  0  # atno 7974 bound_to 7965
  155.8611  140.0978  157.1612 H   0  0  0  0  0  0  0  0  0  0  0  0  # atno 8008 bound_to 7997
  154.3990  140.1365  156.4025 H   0  0  0  0  0  0  0  0  0  0  0  0  # atno 8009 bound_to 7997
  155.7855  140.3457  155.5323 H   0  0  0  0  0  0  0  0  0  0  0  0  # atno 8010 bound_to 7997
  140.5330  143.2320  151.7228 H   0  0  0  0  0  0  0  0  0  0  0  0  # atno 10167 bound_to 10162
  157.5340  131.1098  150.8964 H   0  0  0  0  0  0  0  0  0  0  0  0  # atno 10718 bound_to 10713
  154.0269  135.6662  153.4777 H   0  0  0  0  0  0  0  0  0  0  0  0  # atno 10763 bound_to 10752
  153.0557  135.5058  154.7970 H   0  0  0  0  0  0  0  0  0  0  0  0  # atno 10764 bound_to 10752
  154.6903  135.3060  154.9454 H   0  0  0  0  0  0  0  0  0  0  0  0  # atno 10765 bound_to 10752
  140.4839  134.6049  157.4930 H   0  0  0  0  0  0  0  0  0  0  0  0  # atno 11005 bound_to 11000
  145.1894  140.9805  143.4219 LP  0  0  0  0  0  0  0  0  0  0  0  0  # atno 17320 bound_to 7965
  144.9870  139.3726  143.6233 LP  0  0  0  0  0  0  0  0  0  0  0  0  # atno 17321 bound_to 7965
  139.4961  144.4085  152.0106 LP  0  0  0  0  0  0  0  0  0  0  0  0  # atno 17342 bound_to 10162
  140.3189  144.3451  150.6014 LP  0  0  0  0  0  0  0  0  0  0  0  0  # atno 17343 bound_to 10162
  156.9537  130.5429  149.5283 LP  0  0  0  0  0  0  0  0  0  0  0  0  # atno 17370 bound_to 10713
  156.0444  130.5522  150.8847 LP  0  0  0  0  0  0  0  0  0  0  0  0  # atno 17371 bound_to 10713
  139.9809  134.7138  155.9861 LP  0  0  0  0  0  0  0  0  0  0  0  0  # atno 17394 bound_to 11000
  141.1517  133.6547  156.4035 LP  0  0  0  0  0  0  0  0  0  0  0  0  # atno 17395 bound_to 11000

$$$$
