AV-unprocessed.smi:898|AV-procd|sdf|4086|dock7
  -GOLD-   22720 1573D 1   1.00000     0.00000
 Structure written by MMmdl.
 33 35  0  0  0  0  0  0  0  0  2 V2000
  152.4670  139.9266  155.7434 O   0  0  0  0  0  0  0  0  0  0  0  0
  151.2826  140.0060  156.0777 C   0  0  0  0  0  0  0  0  0  0  0  0
  150.2638  139.2537  155.6028 N   0  5  0  0  0  0  0  0  0  0  0  0
  150.4199  137.9278  155.4554 C   0  0  0  0  0  0  0  0  0  0  0  0
  151.6258  137.3427  155.4438 N   0  0  0  0  0  0  0  0  0  0  0  0
  151.5617  135.9671  155.2753 N   0  0  0  0  0  0  0  0  0  0  0  0
  150.3052  135.5322  155.1550 C   0  0  0  0  0  0  0  0  0  0  0  0
  149.9734  134.0896  154.9668 C   0  0  0  0  0  0  0  0  0  0  0  0
  149.3931  133.5717  153.6685 C   0  0  0  0  0  0  0  0  0  0  0  0
  148.5347  133.6304  154.9063 C   0  0  0  0  0  0  0  0  0  0  0  0
  149.0871  136.7953  155.2321 S   0  0  0  0  0  0  0  0  0  0  0  0
  150.9055  140.9001  157.0032 N   0  0  0  0  0  0  0  0  0  0  0  0
  151.7797  141.8347  157.7074 C   0  0  1  0  0  0  0  0  0  0  0  0
  151.2947  143.2733  157.4438 C   0  0  0  0  0  0  0  0  0  0  0  0
  152.1951  144.3337  158.0980 C   0  0  0  0  0  0  0  0  0  0  0  0
  152.2508  144.1903  159.6253 C   0  0  0  0  0  0  0  0  0  0  0  0
  152.9560  142.5917  160.1084 S   0  0  0  0  0  0  0  0  0  0  0  0
  151.8074  141.5089  159.2138 C   0  0  0  0  0  0  0  0  0  0  0  0
  150.6892  133.4591  155.4906 H   0  0  0  0  0  0  0  0  0  0  0  0
  149.1753  134.2880  152.8788 H   0  0  0  0  0  0  0  0  0  0  0  0
  149.7193  132.5906  153.3297 H   0  0  0  0  0  0  0  0  0  0  0  0
  148.2879  132.6894  155.3935 H   0  0  0  0  0  0  0  0  0  0  0  0
  147.7594  134.3933  154.9436 H   0  0  0  0  0  0  0  0  0  0  0  0
  149.9254  140.9275  157.2425 H   0  0  0  0  0  0  0  0  0  0  0  0
  152.7898  141.7375  157.3050 H   0  0  0  0  0  0  0  0  0  0  0  0
  151.2625  143.4535  156.3685 H   0  0  0  0  0  0  0  0  0  0  0  0
  150.2713  143.3924  157.8030 H   0  0  0  0  0  0  0  0  0  0  0  0
  153.2022  144.2707  157.6842 H   0  0  0  0  0  0  0  0  0  0  0  0
  151.8224  145.3266  157.8446 H   0  0  0  0  0  0  0  0  0  0  0  0
  152.8590  144.9850  160.0575 H   0  0  0  0  0  0  0  0  0  0  0  0
  151.2520  144.2826  160.0531 H   0  0  0  0  0  0  0  0  0  0  0  0
  150.8119  141.6149  159.6463 H   0  0  0  0  0  0  0  0  0  0  0  0
  152.1181  140.4769  159.3797 H   0  0  0  0  0  0  0  0  0  0  0  0
  1  2  2  0  0  0  0
  2  3  1  0  0  0  0
  2 12  1  0  0  0  0
  3  4  1  0  0  0  0
  4 11  1  0  0  0  0
  4  5  2  0  0  0  0
  5  6  1  0  0  0  0
  6  7  2  0  0  0  0
  7  8  1  0  0  0  0
  7 11  1  0  0  0  0
  8 10  1  0  0  0  0
  8  9  1  0  0  0  0
  8 19  1  0  0  0  0
  9 10  1  0  0  0  0
  9 20  1  0  0  0  0
  9 21  1  0  0  0  0
 10 22  1  0  0  0  0
 10 23  1  0  0  0  0
 12 13  1  0  0  0  0
 12 24  1  0  0  0  0
 13 18  1  0  0  0  0
 13 14  1  0  0  0  0
 13 25  1  0  0  0  0
 14 15  1  0  0  0  0
 14 26  1  0  0  0  0
 14 27  1  0  0  0  0
 15 16  1  0  0  0  0
 15 28  1  0  0  0  0
 15 29  1  0  0  0  0
 16 17  1  0  0  0  0
 16 30  1  0  0  0  0
 16 31  1  0  0  0  0
 17 18  1  0  0  0  0
 18 32  1  0  0  0  0
 18 33  1  0  0  0  0
M  CHG  1   3  -1
M  END
> <s_m_source_file>
AV-unprocessed.smi

> <i_m_source_file_index>
898

> <i_lp_mmshare_version>
43012

> <i_f3d_flags>
0

> <s_epik_input>
W0NIMl0xU1tDSDJdW0NIMl1bQ0gyXVtDQEhdMVtOSF1DKD1PKVtOSF1jMm5uYyhzMilbQ0hdM1tDSDJdW0NIMl0z

> <s_epik_cmdline>
J2VwaWtfcHl0aG9uJywgJy1waCcsICc3LjAnLCAnLXRuJywgJzgnLCAnLW1hJywgJzIwMCcsICctbWV0YWxfYmluZGluZycsICctaW1hZScsICc8aW5maWxlLm1hZT4nLCAnLW9tYWUnLCAnPG91dGZpbGUubWFlPic=

> <r_lp_tautomer_probability>
1

> <r_epik_Ionization_Penalty>
4.71411

> <r_epik_Ionization_Penalty_Charging>
4.5615

> <r_epik_Ionization_Penalty_Neutral>
0.152604

> <r_epik_State_Penalty>
4.56123

> <r_epik_Charging_Adjusted_Penalty>
9.12273

> <i_epik_Tot_Q>
-1

> <i_epik_Tot_abs_Q>
1

> <r_epik_Metal_State_Penalty>
0.850765

> <b_epik_Metal_Only>
1

> <s_lp_Force_Field>
OPLS_2005

> <r_lp_Energy>
0.516701

> <b_lp_Chiralities_Consistent>
1

> <s_lp_Variant>
AV-unprocessed.smi:898-4

> <Gold.Version>
5.8.1

> <Gold.Id.Protein>
6NUR|6NUR_protein|mol2

> <Gold.PLP.Fitness>
40.2388

> <Gold.PLP.PLP>
-35.1047

> <Gold.PLP.part.hbond>
-2.2936

> <Gold.PLP.part.metal>
0.0000

> <Gold.PLP.part.buried>
-4.2225

> <Gold.PLP.part.nonpolar>
-28.0964

> <Gold.PLP.part.repulsive>
0.2214

> <Gold.PLP.ligand.clash>
0.0000

> <Gold.PLP.ligand.torsion>
0.5078

> <Gold.PLP.Chemscore.Hbond>
2.0000

> <Gold.PLP.Chemscore.CHOScore>
0.0000

> <Gold.PLP.Chemscore.Metal>
0.0000

> <Gold.Chemscore.Hbonds>
donor molecule, donor type, donor heavy atom, donor atom, acceptor molecule, acceptor atom, score
      P1  H  7997  8010       L1     1  1.00
      P1  H 10752 10765       L1     6  1.00

> <Gold.PLP.Chemscore.Internal.Correction>
0.1498

> <Gold.Rescore>
     Score         DG    S(hbond)    S(metal)    S(lipo)     H(rot)  DE(clash)    DE(int)     intcor
     16.78     -18.89       1.81        0.00      89.13       1.19       0.13       1.98       ----

> <Gold.Chemscore.Fitness>
16.7787

> <Gold.Chemscore.DG>
-18.8882

> <Gold.Chemscore.ZeroCoef>
-5.4800

> <Gold.Chemscore.Hbond>
1.8052

> <Gold.Chemscore.Metal>
0.0000

> <Gold.Chemscore.Lipo>
89.1276

> <Gold.Chemscore.Internal_Hbond>
0.0000

> <Gold.Chemscore.DEClash>
0.1284

> <Gold.Chemscore.DEInternal>
1.9811

> <Gold.Chemscore.Rot>
1.1911

> <Gold.Chemscore.Internal.Correction>
   9.000000E+99

> <Gold.Chemscore.Hbonds>
donor molecule, donor type, donor heavy atom, donor atom, acceptor molecule, acceptor atom, score
      P1  H  7997  8010       L1     1  0.99
      P1  H 10752 10765       L1     6  0.48

> <Gold.Chemscore.Hbond.Weighted>
-6.0295

> <Gold.Chemscore.Metal.Weighted>
-0.0000

> <Gold.Chemscore.Lipo.Weighted>
-10.4279

> <Gold.Chemscore.Internal_Hbond.Weighted>
0.0000

> <Gold.Chemscore.DEClash.Weighted>
0.1284

> <Gold.Chemscore.DEInternal.Weighted>
1.9811

> <Gold.Chemscore.Rot.Weighted>
3.0492

> <Gold.Chemscore.Internal.Correction.Weighted>
   9.000000E+99

> <Gold.Protein.RotatedTorsions>
[ 6907 6896 6895 6894 ] final   82.21 input  -60.11 | X-H torsion
[ 7974 7965 7964 7962 ] final  132.32 input  175.53 | X-H torsion
[ 8008 7997 7996 7995 ] final   87.42 input   59.86 | X-H torsion
[ 10167 10162 10161 10158 ] final  164.10 input  -65.29 | X-H torsion
[ 10718 10713 10712 10709 ] final -161.68 input   66.30 | X-H torsion
[ 10763 10752 10751 10750 ] final -172.16 input  -60.55 | X-H torsion
[ 11005 11000 10999 10996 ] final -114.44 input  -57.11 | X-H torsion

> <Gold.Protein.ActiveResidues>
 VAL166  LYS551  ARG553  GLY616  TRP617  ASP618  TYR619  PRO620  LYS621  CYS622 
 ASP623  PHE694  ASN695  SER759  ASP760  ASP761  ALA762  ILE779  LEU786  VAL792 
 PHE793  MET794  SER795  GLU796  ALA797  LYS798  CYS799  TRP800  GLU811  SER814 

> <Gold.Protein.RotatedAtoms>
  152.5292  134.3085  159.9104 H   0  0  0  0  0  0  0  0  0  0  0  0  # atno 6907 bound_to 6896
  151.3035  133.4105  159.2649 H   0  0  0  0  0  0  0  0  0  0  0  0  # atno 6908 bound_to 6896
  151.0099  134.9404  159.8058 H   0  0  0  0  0  0  0  0  0  0  0  0  # atno 6909 bound_to 6896
  144.9980  139.4340  143.5306 H   0  0  0  0  0  0  0  0  0  0  0  0  # atno 7974 bound_to 7965
  155.9751  140.3382  155.6611 H   0  0  0  0  0  0  0  0  0  0  0  0  # atno 8008 bound_to 7997
  155.6623  140.0717  157.2568 H   0  0  0  0  0  0  0  0  0  0  0  0  # atno 8009 bound_to 7997
  154.4177  140.1706  156.1777 H   0  0  0  0  0  0  0  0  0  0  0  0  # atno 8010 bound_to 7997
  139.4883  144.4270  151.9117 H   0  0  0  0  0  0  0  0  0  0  0  0  # atno 10167 bound_to 10162
  156.5997  130.8805  151.2910 H   0  0  0  0  0  0  0  0  0  0  0  0  # atno 10718 bound_to 10713
  154.6225  135.2877  155.0310 H   0  0  0  0  0  0  0  0  0  0  0  0  # atno 10763 bound_to 10752
  154.1500  135.6505  153.4965 H   0  0  0  0  0  0  0  0  0  0  0  0  # atno 10764 bound_to 10752
  153.0242  135.5353  154.7020 H   0  0  0  0  0  0  0  0  0  0  0  0  # atno 10765 bound_to 10752
  141.0552  133.9624  157.2767 H   0  0  0  0  0  0  0  0  0  0  0  0  # atno 11005 bound_to 11000
  146.3446  139.9352  142.8748 LP  0  0  0  0  0  0  0  0  0  0  0  0  # atno 17320 bound_to 7965
  145.2192  140.9928  143.4055 LP  0  0  0  0  0  0  0  0  0  0  0  0  # atno 17321 bound_to 7965
  140.3716  144.2848  150.5919 LP  0  0  0  0  0  0  0  0  0  0  0  0  # atno 17342 bound_to 10162
  140.5314  143.2242  151.8233 LP  0  0  0  0  0  0  0  0  0  0  0  0  # atno 17343 bound_to 10162
  157.7283  130.9654  150.1735 LP  0  0  0  0  0  0  0  0  0  0  0  0  # atno 17370 bound_to 10713
  156.2480  130.3697  149.8264 LP  0  0  0  0  0  0  0  0  0  0  0  0  # atno 17371 bound_to 10713
  139.9384  135.0194  156.8629 LP  0  0  0  0  0  0  0  0  0  0  0  0  # atno 17394 bound_to 11000
  140.5978  134.0200  155.7525 LP  0  0  0  0  0  0  0  0  0  0  0  0  # atno 17395 bound_to 11000

$$$$
