AV-unprocessed.smi:2837|AV-procd|sdf|10927|dock5
  -GOLD-   2272015373D 1   1.00000     0.00000
 Structure written by MMmdl.
 33 35  0  0  0  0  0  0  0  0  2 V2000
  153.2218  142.3696  162.3512 F   0  0  0  0  0  0  0  0  0  0  0  0
  152.3854  142.7012  161.3373 C   0  0  0  0  0  0  0  0  0  0  0  0
  152.0924  144.0176  161.4644 F   0  0  0  0  0  0  0  0  0  0  0  0
  152.9831  142.4785  160.1365 O   0  0  0  0  0  0  0  0  0  0  0  0
  152.2179  142.4599  158.9922 C   0  0  0  0  0  0  0  0  0  0  0  0
  151.9202  141.2109  158.4081 C   0  0  0  0  0  0  0  0  0  0  0  0
  151.1258  141.1492  157.2447 C   0  0  0  0  0  0  0  0  0  0  0  0
  150.6281  142.3469  156.6789 C   0  0  0  0  0  0  0  0  0  0  0  0
  149.8283  142.4099  155.5294 N   0  0  0  0  0  0  0  0  0  0  0  0
  149.4380  141.2046  154.8089 C   0  0  1  0  0  0  0  0  0  0  0  0
  148.7378  140.1684  155.6989 C   0  0  0  0  0  0  0  0  0  0  0  0
  147.4088  139.9625  154.9615 C   0  0  2  0  0  0  0  0  0  0  0  0
  147.5930  139.2406  153.6198 C   0  0  0  0  0  0  0  0  0  0  0  0
  148.2273  140.3342  152.7611 C   0  0  0  0  0  0  0  0  0  0  0  0
  148.3485  141.4916  153.7618 C   0  0  1  0  0  0  0  0  0  0  0  0
  147.1664  141.2855  154.5184 O   0  0  0  0  0  0  0  0  0  0  0  0
  150.9281  143.5229  157.2726 N   0  3  0  0  0  0  0  0  0  0  0  0
  151.6855  143.6238  158.3867 C   0  0  0  0  0  0  0  0  0  0  0  0
  151.4544  142.1420  161.4338 H   0  0  0  0  0  0  0  0  0  0  0  0
  152.3016  140.3023  158.8502 H   0  0  0  0  0  0  0  0  0  0  0  0
  150.9099  140.1860  156.8078 H   0  0  0  0  0  0  0  0  0  0  0  0
  149.4093  143.2879  155.2576 H   0  0  0  0  0  0  0  0  0  0  0  0
  150.3160  140.7853  154.3161 H   0  0  0  0  0  0  0  0  0  0  0  0
  149.3065  139.2430  155.7952 H   0  0  0  0  0  0  0  0  0  0  0  0
  148.5519  140.5565  156.7016 H   0  0  0  0  0  0  0  0  0  0  0  0
  146.6170  139.5457  155.5845 H   0  0  0  0  0  0  0  0  0  0  0  0
  148.2207  138.3534  153.7098 H   0  0  0  0  0  0  0  0  0  0  0  0
  146.6310  138.9387  153.2040 H   0  0  0  0  0  0  0  0  0  0  0  0
  149.1897  140.0404  152.3411 H   0  0  0  0  0  0  0  0  0  0  0  0
  147.5646  140.6041  151.9379 H   0  0  0  0  0  0  0  0  0  0  0  0
  148.4204  142.4712  153.2877 H   0  0  0  0  0  0  0  0  0  0  0  0
  151.8306  144.6293  158.7543 H   0  0  0  0  0  0  0  0  0  0  0  0
  150.5608  144.3814  156.8613 H   0  0  0  0  0  0  0  0  0  0  0  0
  1  2  1  0  0  0  0
  2  3  1  0  0  0  0
  2  4  1  0  0  0  0
  2 19  1  0  0  0  0
  4  5  1  0  0  0  0
  5 18  1  0  0  0  0
  5  6  2  0  0  0  0
  6  7  1  0  0  0  0
  6 20  1  0  0  0  0
  7  8  2  0  0  0  0
  7 21  1  0  0  0  0
  8  9  1  0  0  0  0
  8 17  1  0  0  0  0
  9 10  1  0  0  0  0
  9 22  1  0  0  0  0
 10 15  1  0  0  0  0
 10 11  1  0  0  0  0
 10 23  1  0  0  0  0
 11 12  1  0  0  0  0
 11 24  1  0  0  0  0
 11 25  1  0  0  0  0
 12 16  1  0  0  0  0
 12 13  1  0  0  0  0
 12 26  1  0  0  0  0
 13 14  1  0  0  0  0
 13 27  1  0  0  0  0
 13 28  1  0  0  0  0
 14 15  1  0  0  0  0
 14 29  1  0  0  0  0
 14 30  1  0  0  0  0
 15 16  1  0  0  0  0
 15 31  1  0  0  0  0
 17 18  2  0  0  0  0
 17 33  1  0  0  0  0
 18 32  1  0  0  0  0
M  CHG  1  17   1
M  END
> <s_m_source_file>
AV-unprocessed.smi

> <i_m_source_file_index>
2837

> <i_lp_mmshare_version>
43012

> <i_f3d_flags>
0

> <s_epik_input>
RltDSF0oRilPYzFbY0hdW2NIXWMobltjSF0xKVtOSF1bQ0BIXShbQ0gyXVtDQEBIXTIzKVtDQEBIXShPMylbQ0gyXVtDSDJdMg==

> <s_epik_cmdline>
J2VwaWtfcHl0aG9uJywgJy1waCcsICc3LjAnLCAnLXRuJywgJzgnLCAnLW1hJywgJzIwMCcsICctbWV0YWxfYmluZGluZycsICctaW1hZScsICc8aW5maWxlLm1hZT4nLCAnLW9tYWUnLCAnPG91dGZpbGUubWFlPic=

> <r_lp_tautomer_probability>
0.999429

> <r_epik_Ionization_Penalty>
2.29716

> <r_epik_Ionization_Penalty_Charging>
2.29716

> <r_epik_Ionization_Penalty_Neutral>
1.42285e-06

> <r_epik_State_Penalty>
2.44762

> <r_epik_Charging_Adjusted_Penalty>
4.74478

> <i_epik_Tot_Q>
1

> <i_epik_Tot_abs_Q>
1

> <r_epik_Metal_State_Penalty>
6.53078

> <b_epik_Metal_Only>
0

> <s_lp_Force_Field>
OPLS_2005

> <r_lp_Energy>
46.2914

> <b_lp_Chiralities_Consistent>
1

> <s_lp_Variant>
AV-unprocessed.smi:2837-8

> <Gold.Version>
5.8.1

> <Gold.Id.Protein>
6NUR|6NUR_protein|mol2

> <Gold.PLP.Fitness>
45.2791

> <Gold.PLP.PLP>
-35.5983

> <Gold.PLP.part.hbond>
-2.0000

> <Gold.PLP.part.metal>
0.0000

> <Gold.PLP.part.buried>
-0.9025

> <Gold.PLP.part.nonpolar>
-32.7910

> <Gold.PLP.part.repulsive>
0.2834

> <Gold.PLP.ligand.clash>
0.0000

> <Gold.PLP.ligand.torsion>
0.3796

> <Gold.PLP.Chemscore.Hbond>
3.4720

> <Gold.PLP.Chemscore.CHOScore>
0.0000

> <Gold.PLP.Chemscore.Metal>
0.0000

> <Gold.Chemscore.Hbonds>
donor molecule, donor type, donor heavy atom, donor atom, acceptor molecule, acceptor atom, score
      L1  H     9    22       P1  8028  2.00
      L1  H    17    33       P1  8028  1.22

> <Gold.PLP.Chemscore.Internal.Correction>
0.0240

> <Gold.Rescore>
     Score         DG    S(hbond)    S(metal)    S(lipo)     H(rot)  DE(clash)    DE(int)     intcor
     14.87     -17.02       1.68        0.00      79.84       1.34       1.84       0.31       ----

> <Gold.Chemscore.Fitness>
14.8661

> <Gold.Chemscore.DG>
-17.0189

> <Gold.Chemscore.ZeroCoef>
-5.4800

> <Gold.Chemscore.Hbond>
1.6827

> <Gold.Chemscore.Metal>
0.0000

> <Gold.Chemscore.Lipo>
79.8369

> <Gold.Chemscore.Internal_Hbond>
0.0000

> <Gold.Chemscore.DEClash>
1.8400

> <Gold.Chemscore.DEInternal>
0.3127

> <Gold.Chemscore.Rot>
1.3368

> <Gold.Chemscore.Internal.Correction>
   9.000000E+99

> <Gold.Chemscore.Hbonds>
donor molecule, donor type, donor heavy atom, donor atom, acceptor molecule, acceptor atom, score
      L1  H     9    22       P1  8028  0.91
      L1  H    17    33       P1  8028  0.56

> <Gold.Chemscore.Hbond.Weighted>
-5.6203

> <Gold.Chemscore.Metal.Weighted>
-0.0000

> <Gold.Chemscore.Lipo.Weighted>
-9.3409

> <Gold.Chemscore.Internal_Hbond.Weighted>
0.0000

> <Gold.Chemscore.DEClash.Weighted>
1.8400

> <Gold.Chemscore.DEInternal.Weighted>
0.3127

> <Gold.Chemscore.Rot.Weighted>
3.4223

> <Gold.Chemscore.Internal.Correction.Weighted>
   9.000000E+99

> <Gold.Protein.RotatedTorsions>
[ 6907 6896 6895 6894 ] final  -15.31 input  -60.11 | X-H torsion
[ 7974 7965 7964 7962 ] final  -72.64 input  175.53 | X-H torsion
[ 8008 7997 7996 7995 ] final -113.50 input   59.86 | X-H torsion
[ 10167 10162 10161 10158 ] final   17.93 input  -65.29 | X-H torsion
[ 10718 10713 10712 10709 ] final  123.39 input   66.30 | X-H torsion
[ 10763 10752 10751 10750 ] final  119.56 input  -60.55 | X-H torsion
[ 11005 11000 10999 10996 ] final  131.11 input  -57.11 | X-H torsion

> <Gold.Protein.ActiveResidues>
 VAL166  LYS551  ARG553  GLY616  TRP617  ASP618  TYR619  PRO620  LYS621  CYS622 
 ASP623  PHE694  ASN695  SER759  ASP760  ASP761  ALA762  ILE779  LEU786  VAL792 
 PHE793  MET794  SER795  GLU796  ALA797  LYS798  CYS799  TRP800  GLU811  SER814 

> <Gold.Protein.RotatedAtoms>
  151.3259  135.0830  159.9321 H   0  0  0  0  0  0  0  0  0  0  0  0  # atno 6907 bound_to 6896
  152.5246  133.9592  159.7719 H   0  0  0  0  0  0  0  0  0  0  0  0  # atno 6908 bound_to 6896
  150.9921  133.6086  159.2737 H   0  0  0  0  0  0  0  0  0  0  0  0  # atno 6909 bound_to 6896
  145.6625  140.9248  143.0926 H   0  0  0  0  0  0  0  0  0  0  0  0  # atno 7974 bound_to 7965
  155.0218  140.0393  157.2440 H   0  0  0  0  0  0  0  0  0  0  0  0  # atno 8008 bound_to 7997
  154.7372  140.2742  155.6381 H   0  0  0  0  0  0  0  0  0  0  0  0  # atno 8009 bound_to 7997
  156.2856  140.2672  156.2089 H   0  0  0  0  0  0  0  0  0  0  0  0  # atno 8010 bound_to 7997
  140.5690  143.9196  150.6699 H   0  0  0  0  0  0  0  0  0  0  0  0  # atno 10167 bound_to 10162
  157.5668  131.1086  150.8440 H   0  0  0  0  0  0  0  0  0  0  0  0  # atno 10718 bound_to 10713
  153.5850  135.3476  155.2889 H   0  0  0  0  0  0  0  0  0  0  0  0  # atno 10763 bound_to 10752
  154.8662  135.4191  154.2579 H   0  0  0  0  0  0  0  0  0  0  0  0  # atno 10764 bound_to 10752
  153.3373  135.7048  153.6967 H   0  0  0  0  0  0  0  0  0  0  0  0  # atno 10765 bound_to 10752
  139.9711  134.9577  156.9391 H   0  0  0  0  0  0  0  0  0  0  0  0  # atno 11005 bound_to 11000
  144.7084  139.8468  143.7422 LP  0  0  0  0  0  0  0  0  0  0  0  0  # atno 17320 bound_to 7965
  146.1113  139.4118  143.0286 LP  0  0  0  0  0  0  0  0  0  0  0  0  # atno 17321 bound_to 7965
  140.2666  143.3485  152.1275 LP  0  0  0  0  0  0  0  0  0  0  0  0  # atno 17342 bound_to 10162
  139.5108  144.6890  151.5811 LP  0  0  0  0  0  0  0  0  0  0  0  0  # atno 17343 bound_to 10162
  156.8922  130.5217  149.5286 LP  0  0  0  0  0  0  0  0  0  0  0  0  # atno 17370 bound_to 10713
  156.0716  130.5747  150.9394 LP  0  0  0  0  0  0  0  0  0  0  0  0  # atno 17371 bound_to 10713
  140.5292  134.0830  155.7311 LP  0  0  0  0  0  0  0  0  0  0  0  0  # atno 17394 bound_to 11000
  141.1390  133.9171  157.2368 LP  0  0  0  0  0  0  0  0  0  0  0  0  # atno 17395 bound_to 11000

$$$$
