AV-unprocessed.smi:1796|AV-procd|sdf|7254|dock7
  -GOLD-   22720 8503D 1   1.00000     0.00000
 Structure written by MMmdl.
 42 43  0  0  0  0  0  0  0  0  1 V2000
  148.1455  141.5330  154.8194 C   0  0  0  0  0  0  0  0  0  0  0  0
  149.4474  140.7363  154.9315 C   0  0  0  0  0  0  0  0  0  0  0  0
  150.4199  141.2878  155.4472 O   0  0  0  0  0  0  0  0  0  0  0  0
  149.4892  139.4659  154.4623 N   0  0  0  0  0  0  0  0  0  0  0  0
  150.6391  138.5582  154.5683 C   0  0  0  0  0  0  0  0  0  0  0  0
  150.3036  137.4544  155.5867 C   0  0  0  0  0  0  0  0  0  0  0  0
  149.0146  136.7111  155.1872 C   0  0  0  0  0  0  0  0  0  0  0  0
  147.8524  137.6923  154.9023 C   0  0  2  0  0  0  0  0  0  0  0  0
  146.6180  136.9637  154.3576 C   0  0  0  0  0  0  0  0  0  0  0  0
  145.5621  136.9735  154.9915 O   0  0  0  0  0  0  0  0  0  0  0  0
  146.7755  136.3097  153.1953 N   0  0  0  0  0  0  0  0  0  0  0  0
  145.7750  135.4555  152.5565 C   0  0  1  0  0  0  0  0  0  0  0  0
  145.1699  136.2005  151.3590 C   0  0  0  0  0  0  0  0  0  0  0  0
  146.3993  134.1104  152.1257 C   0  0  0  0  0  0  0  0  0  0  0  0
  145.4364  133.2199  151.5003 N   0  0  0  0  0  0  0  0  0  0  0  0
  145.6560  131.9794  150.9394 C   0  0  0  0  0  0  0  0  0  0  0  0
  144.4592  131.5342  150.4562 C   0  0  0  0  0  0  0  0  0  0  0  0
  143.5537  132.5842  150.7761 C   0  0  0  0  0  0  0  0  0  0  0  0
  144.1400  133.5893  151.4059 N   0  0  0  0  0  0  0  0  0  0  0  0
  148.3106  138.7860  153.9109 C   0  0  0  0  0  0  0  0  0  0  0  0
  147.8321  141.6192  153.7787 H   0  0  0  0  0  0  0  0  0  0  0  0
  148.2772  142.5422  155.2115 H   0  0  0  0  0  0  0  0  0  0  0  0
  147.3502  141.0547  155.3916 H   0  0  0  0  0  0  0  0  0  0  0  0
  150.8353  138.1146  153.5911 H   0  0  0  0  0  0  0  0  0  0  0  0
  151.5656  139.0555  154.8514 H   0  0  0  0  0  0  0  0  0  0  0  0
  151.1317  136.7495  155.6626 H   0  0  0  0  0  0  0  0  0  0  0  0
  150.1802  137.8966  156.5763 H   0  0  0  0  0  0  0  0  0  0  0  0
  149.2225  136.1109  154.2998 H   0  0  0  0  0  0  0  0  0  0  0  0
  148.7337  136.0096  155.9736 H   0  0  0  0  0  0  0  0  0  0  0  0
  147.5803  138.1767  155.8423 H   0  0  0  0  0  0  0  0  0  0  0  0
  147.6793  136.3594  152.7477 H   0  0  0  0  0  0  0  0  0  0  0  0
  144.9597  135.2538  153.2536 H   0  0  0  0  0  0  0  0  0  0  0  0
  144.4010  135.5998  150.8723 H   0  0  0  0  0  0  0  0  0  0  0  0
  145.9283  136.4363  150.6117 H   0  0  0  0  0  0  0  0  0  0  0  0
  144.7061  137.1366  151.6716 H   0  0  0  0  0  0  0  0  0  0  0  0
  147.2026  134.2849  151.4088 H   0  0  0  0  0  0  0  0  0  0  0  0
  146.8520  133.6058  152.9812 H   0  0  0  0  0  0  0  0  0  0  0  0
  146.6365  131.5268  150.9240 H   0  0  0  0  0  0  0  0  0  0  0  0
  144.2613  130.6019  149.9486 H   0  0  0  0  0  0  0  0  0  0  0  0
  142.4952  132.6455  150.5709 H   0  0  0  0  0  0  0  0  0  0  0  0
  147.4900  139.4758  153.7059 H   0  0  0  0  0  0  0  0  0  0  0  0
  148.5711  138.3471  152.9461 H   0  0  0  0  0  0  0  0  0  0  0  0
  1  2  1  0  0  0  0
  1 21  1  0  0  0  0
  1 22  1  0  0  0  0
  1 23  1  0  0  0  0
  2  3  2  0  0  0  0
  2  4  1  0  0  0  0
  4 20  1  0  0  0  0
  4  5  1  0  0  0  0
  5  6  1  0  0  0  0
  5 24  1  0  0  0  0
  5 25  1  0  0  0  0
  6  7  1  0  0  0  0
  6 26  1  0  0  0  0
  6 27  1  0  0  0  0
  7  8  1  0  0  0  0
  7 28  1  0  0  0  0
  7 29  1  0  0  0  0
  8  9  1  0  0  0  0
  8 20  1  0  0  0  0
  8 30  1  0  0  0  0
  9 10  2  0  0  0  0
  9 11  1  0  0  0  0
 11 12  1  0  0  0  0
 11 31  1  0  0  0  0
 12 13  1  0  0  0  0
 12 14  1  0  0  0  0
 12 32  1  0  0  0  0
 13 33  1  0  0  0  0
 13 34  1  0  0  0  0
 13 35  1  0  0  0  0
 14 15  1  0  0  0  0
 14 36  1  0  0  0  0
 14 37  1  0  0  0  0
 15 19  1  0  0  0  0
 15 16  1  0  0  0  0
 16 17  2  0  0  0  0
 16 38  1  0  0  0  0
 17 18  1  0  0  0  0
 17 39  1  0  0  0  0
 18 19  2  0  0  0  0
 18 40  1  0  0  0  0
 20 41  1  0  0  0  0
 20 42  1  0  0  0  0
M  END
> <s_m_source_file>
AV-unprocessed.smi

> <i_m_source_file_index>
1796

> <i_lp_mmshare_version>
43012

> <i_f3d_flags>
0

> <s_epik_input>
W0NIM11DKD1PKU4xW0NIMl1bQ0gyXVtDSDJdW0NASF0oW0NIMl0xKUMoPU8pW05IXVtDQEhdKFtDSDNdKVtDSDJdbjJbY0hdW2NIXVtjSF1uMg==

> <s_epik_cmdline>
J2VwaWtfcHl0aG9uJywgJy1waCcsICc3LjAnLCAnLXRuJywgJzgnLCAnLW1hJywgJzIwMCcsICctbWV0YWxfYmluZGluZycsICctaW1hZScsICc8aW5maWxlLm1hZT4nLCAnLW9tYWUnLCAnPG91dGZpbGUubWFlPic=

> <r_lp_tautomer_probability>
1

> <r_epik_Ionization_Penalty>
0.000315051

> <r_epik_Ionization_Penalty_Charging>
0

> <r_epik_Ionization_Penalty_Neutral>
0.000315051

> <r_epik_State_Penalty>
-0

> <r_epik_Charging_Adjusted_Penalty>
0

> <i_epik_Tot_Q>
0

> <i_epik_Tot_abs_Q>
0

> <r_epik_Metal_State_Penalty>
-0

> <b_epik_Metal_Only>
0

> <s_lp_Force_Field>
OPLS_2005

> <r_lp_Energy>
22.8322

> <b_lp_Chiralities_Consistent>
1

> <s_lp_Variant>
AV-unprocessed.smi:1796-4

> <Gold.Version>
5.8.1

> <Gold.Id.Protein>
6NUR|6NUR_protein|mol2

> <Gold.PLP.Fitness>
40.9107

> <Gold.PLP.PLP>
-31.8710

> <Gold.PLP.part.hbond>
-1.9670

> <Gold.PLP.part.metal>
0.0000

> <Gold.PLP.part.buried>
-1.4985

> <Gold.PLP.part.nonpolar>
-28.6277

> <Gold.PLP.part.repulsive>
0.2893

> <Gold.PLP.ligand.clash>
0.0000

> <Gold.PLP.ligand.torsion>
0.1776

> <Gold.PLP.Chemscore.Hbond>
1.1371

> <Gold.PLP.Chemscore.CHOScore>
1.9832

> <Gold.PLP.Chemscore.Metal>
0.0000

> <Gold.Chemscore.Hbonds>
donor molecule, donor type, donor heavy atom, donor atom, acceptor molecule, acceptor atom, score
      L1  H    11    31       P1  7948  1.00
      P1  H  7989  7998       L1     3  0.07
      L1  C    16    38       P1 10747  1.00
      L1  C    18    40       P1 10186  1.00

> <Gold.PLP.Chemscore.Internal.Correction>
0.0340

> <Gold.Rescore>
     Score         DG    S(hbond)    S(metal)    S(lipo)     H(rot)  DE(clash)    DE(int)     intcor
     10.93     -12.52       1.00        0.00      67.46       1.63       0.03       1.56       ----

> <Gold.Chemscore.Fitness>
10.9348

> <Gold.Chemscore.DG>
-12.5226

> <Gold.Chemscore.ZeroCoef>
-5.4800

> <Gold.Chemscore.Hbond>
0.9976

> <Gold.Chemscore.Metal>
0.0000

> <Gold.Chemscore.Lipo>
67.4599

> <Gold.Chemscore.Internal_Hbond>
0.0000

> <Gold.Chemscore.DEClash>
0.0319

> <Gold.Chemscore.DEInternal>
1.5559

> <Gold.Chemscore.Rot>
1.6336

> <Gold.Chemscore.Internal.Correction>
   9.000000E+99

> <Gold.Chemscore.Hbonds>
donor molecule, donor type, donor heavy atom, donor atom, acceptor molecule, acceptor atom, score
      L1  H    11    31       P1  7948  0.95

> <Gold.Chemscore.Hbond.Weighted>
-3.3319

> <Gold.Chemscore.Metal.Weighted>
-0.0000

> <Gold.Chemscore.Lipo.Weighted>
-7.8928

> <Gold.Chemscore.Internal_Hbond.Weighted>
0.0000

> <Gold.Chemscore.DEClash.Weighted>
0.0319

> <Gold.Chemscore.DEInternal.Weighted>
1.5559

> <Gold.Chemscore.Rot.Weighted>
4.1821

> <Gold.Chemscore.Internal.Correction.Weighted>
   9.000000E+99

> <Gold.Protein.RotatedTorsions>
[ 6907 6896 6895 6894 ] final   25.20 input  -60.11 | X-H torsion
[ 7974 7965 7964 7962 ] final  -53.04 input  175.53 | X-H torsion
[ 8008 7997 7996 7995 ] final  -33.68 input   59.86 | X-H torsion
[ 10167 10162 10161 10158 ] final  -77.71 input  -65.29 | X-H torsion
[ 10718 10713 10712 10709 ] final  131.87 input   66.30 | X-H torsion
[ 10763 10752 10751 10750 ] final -138.45 input  -60.55 | X-H torsion
[ 11005 11000 10999 10996 ] final  -57.69 input  -57.11 | X-H torsion

> <Gold.Protein.ActiveResidues>
 VAL166  LYS551  ARG553  GLY616  TRP617  ASP618  TYR619  PRO620  LYS621  CYS622 
 ASP623  PHE694  ASN695  SER759  ASP760  ASP761  ALA762  ILE779  LEU786  VAL792 
 PHE793  MET794  SER795  GLU796  ALA797  LYS798  CYS799  TRP800  GLU811  SER814 

> <Gold.Protein.RotatedAtoms>
  151.9689  135.0086  160.0551 H   0  0  0  0  0  0  0  0  0  0  0  0  # atno 6907 bound_to 6896
  152.1801  133.4696  159.4962 H   0  0  0  0  0  0  0  0  0  0  0  0  # atno 6908 bound_to 6896
  150.6916  134.1762  159.4274 H   0  0  0  0  0  0  0  0  0  0  0  0  # atno 6909 bound_to 6896
  145.9012  140.7992  142.9742 H   0  0  0  0  0  0  0  0  0  0  0  0  # atno 7974 bound_to 7965
  154.4142  140.1704  156.1927 H   0  0  0  0  0  0  0  0  0  0  0  0  # atno 8008 bound_to 7997
  155.9589  140.3395  155.6450 H   0  0  0  0  0  0  0  0  0  0  0  0  # atno 8009 bound_to 7997
  155.6773  140.0718  157.2488 H   0  0  0  0  0  0  0  0  0  0  0  0  # atno 8010 bound_to 7997
  140.4746  143.2417  151.8152 H   0  0  0  0  0  0  0  0  0  0  0  0  # atno 10167 bound_to 10162
  157.4926  131.1091  150.9535 H   0  0  0  0  0  0  0  0  0  0  0  0  # atno 10718 bound_to 10713
  154.8636  135.3611  154.5387 H   0  0  0  0  0  0  0  0  0  0  0  0  # atno 10763 bound_to 10752
  153.6010  135.7012  153.5389 H   0  0  0  0  0  0  0  0  0  0  0  0  # atno 10764 bound_to 10752
  153.3291  135.4129  155.1441 H   0  0  0  0  0  0  0  0  0  0  0  0  # atno 10765 bound_to 10752
  141.1175  133.6611  156.4807 H   0  0  0  0  0  0  0  0  0  0  0  0  # atno 11005 bound_to 11000
  144.6736  140.1680  143.7417 LP  0  0  0  0  0  0  0  0  0  0  0  0  # atno 17320 bound_to 7965
  145.8788  139.2311  143.1617 LP  0  0  0  0  0  0  0  0  0  0  0  0  # atno 17321 bound_to 7965
  139.4823  144.4849  151.9259 LP  0  0  0  0  0  0  0  0  0  0  0  0  # atno 17342 bound_to 10162
  140.3934  144.2586  150.5898 LP  0  0  0  0  0  0  0  0  0  0  0  0  # atno 17343 bound_to 10162
  157.0232  130.5682  149.5334 LP  0  0  0  0  0  0  0  0  0  0  0  0  # atno 17370 bound_to 10713
  156.0182  130.5277  150.8198 LP  0  0  0  0  0  0  0  0  0  0  0  0  # atno 17371 bound_to 10713
  140.4603  134.6848  157.5082 LP  0  0  0  0  0  0  0  0  0  0  0  0  # atno 17394 bound_to 11000
  140.0108  134.6693  155.9384 LP  0  0  0  0  0  0  0  0  0  0  0  0  # atno 17395 bound_to 11000

$$$$
