AV-unprocessed.smi:1294|AV-procd|sdf|5400|dock2
  -GOLD-   22720 4563D 1   1.00000     0.00000
 Structure written by MMmdl.
 45 46  0  0  0  0  0  0  0  0  1 V2000
  148.5498  134.5928  157.6376 C   0  0  0  0  0  0  0  0  0  0  0  0
  148.5433  134.2139  159.0910 C   0  0  0  0  0  0  0  0  0  0  0  0
  148.4679  132.9373  159.4295 N   0  0  0  0  0  0  0  0  0  0  0  0
  148.4891  132.9370  160.7774 N   0  0  0  0  0  0  0  0  0  0  0  0
  148.4263  131.6756  161.4896 C   0  0  0  0  0  0  0  0  0  0  0  0
  148.5769  134.2163  161.2914 C   0  0  0  0  0  0  0  0  0  0  0  0
  148.6214  134.4837  162.7611 C   0  0  0  0  0  0  0  0  0  0  0  0
  148.6111  135.0750  160.2253 C   0  0  0  0  0  0  0  0  0  0  0  0
  148.7032  136.5802  160.2290 C   0  0  0  0  0  0  0  0  0  0  0  0
  149.6739  137.0485  159.1428 C   0  0  0  0  0  0  0  0  0  0  0  0
  150.6736  136.3800  158.8788 O   0  0  0  0  0  0  0  0  0  0  0  0
  149.3680  138.2005  158.5254 N   0  0  0  0  0  0  0  0  0  0  0  0
  150.1561  138.8403  157.4765 C   0  0  0  0  0  0  0  0  0  0  0  0
  150.3317  140.3469  157.7261 C   0  0  0  0  0  0  0  0  0  0  0  0
  151.7843  140.7199  158.7507 S   0  0  0  0  0  0  0  0  0  0  0  0
  151.5620  142.5041  159.0017 C   0  0  0  0  0  0  0  0  0  0  0  0
  151.2405  143.2392  157.7014 C   0  0  0  0  0  0  0  0  0  0  0  0
  151.5863  144.7013  157.9934 C   0  0  0  0  0  0  0  0  0  0  0  0
  152.6782  144.6722  159.0741 C   0  0  0  0  0  0  0  0  0  0  0  0
  152.8252  143.2068  159.5064 C   0  0  0  0  0  0  0  0  0  0  0  0
  149.3626  135.2859  157.4198 H   0  0  0  0  0  0  0  0  0  0  0  0
  147.6151  135.0791  157.3586 H   0  0  0  0  0  0  0  0  0  0  0  0
  148.6773  133.7227  156.9925 H   0  0  0  0  0  0  0  0  0  0  0  0
  147.6240  131.7089  162.2271 H   0  0  0  0  0  0  0  0  0  0  0  0
  149.3731  131.4972  161.9996 H   0  0  0  0  0  0  0  0  0  0  0  0
  148.2357  130.8523  160.7999 H   0  0  0  0  0  0  0  0  0  0  0  0
  148.8527  135.5288  162.9660 H   0  0  0  0  0  0  0  0  0  0  0  0
  149.3855  133.8747  163.2445 H   0  0  0  0  0  0  0  0  0  0  0  0
  147.6617  134.2551  163.2243 H   0  0  0  0  0  0  0  0  0  0  0  0
  147.7323  137.0388  160.0397 H   0  0  0  0  0  0  0  0  0  0  0  0
  149.0243  136.9508  161.2036 H   0  0  0  0  0  0  0  0  0  0  0  0
  148.5234  138.6752  158.8100 H   0  0  0  0  0  0  0  0  0  0  0  0
  151.1361  138.3631  157.4757 H   0  0  0  0  0  0  0  0  0  0  0  0
  149.7322  138.6607  156.4869 H   0  0  0  0  0  0  0  0  0  0  0  0
  150.4080  140.8841  156.7800 H   0  0  0  0  0  0  0  0  0  0  0  0
  149.4493  140.7316  158.2373 H   0  0  0  0  0  0  0  0  0  0  0  0
  150.7474  142.6648  159.7093 H   0  0  0  0  0  0  0  0  0  0  0  0
  151.8780  142.8696  156.8966 H   0  0  0  0  0  0  0  0  0  0  0  0
  150.2036  143.1088  157.3900 H   0  0  0  0  0  0  0  0  0  0  0  0
  151.9075  145.2289  157.0949 H   0  0  0  0  0  0  0  0  0  0  0  0
  150.7058  145.2173  158.3781 H   0  0  0  0  0  0  0  0  0  0  0  0
  153.6249  145.0613  158.6975 H   0  0  0  0  0  0  0  0  0  0  0  0
  152.3838  145.2951  159.9196 H   0  0  0  0  0  0  0  0  0  0  0  0
  152.9558  143.1064  160.5842 H   0  0  0  0  0  0  0  0  0  0  0  0
  153.7060  142.7770  159.0270 H   0  0  0  0  0  0  0  0  0  0  0  0
  1  2  1  0  0  0  0
  1 21  1  0  0  0  0
  1 22  1  0  0  0  0
  1 23  1  0  0  0  0
  2  8  1  0  0  0  0
  2  3  2  0  0  0  0
  3  4  1  0  0  0  0
  4  5  1  0  0  0  0
  4  6  1  0  0  0  0
  5 24  1  0  0  0  0
  5 25  1  0  0  0  0
  5 26  1  0  0  0  0
  6  7  1  0  0  0  0
  6  8  2  0  0  0  0
  7 27  1  0  0  0  0
  7 28  1  0  0  0  0
  7 29  1  0  0  0  0
  8  9  1  0  0  0  0
  9 10  1  0  0  0  0
  9 30  1  0  0  0  0
  9 31  1  0  0  0  0
 10 11  2  0  0  0  0
 10 12  1  0  0  0  0
 12 13  1  0  0  0  0
 12 32  1  0  0  0  0
 13 14  1  0  0  0  0
 13 33  1  0  0  0  0
 13 34  1  0  0  0  0
 14 15  1  0  0  0  0
 14 35  1  0  0  0  0
 14 36  1  0  0  0  0
 15 16  1  0  0  0  0
 16 20  1  0  0  0  0
 16 17  1  0  0  0  0
 16 37  1  0  0  0  0
 17 18  1  0  0  0  0
 17 38  1  0  0  0  0
 17 39  1  0  0  0  0
 18 19  1  0  0  0  0
 18 40  1  0  0  0  0
 18 41  1  0  0  0  0
 19 20  1  0  0  0  0
 19 42  1  0  0  0  0
 19 43  1  0  0  0  0
 20 44  1  0  0  0  0
 20 45  1  0  0  0  0
M  END
> <s_m_source_file>
AV-unprocessed.smi

> <i_m_source_file_index>
1294

> <i_lp_mmshare_version>
43012

> <i_f3d_flags>
0

> <s_epik_input>
W0NIM11jMW5uKFtDSDNdKWMoW0NIM10pYzFbQ0gyXUMoPU8pW05IXVtDSDJdW0NIMl1TW0NIXTJbQ0gyXVtDSDJdW0NIMl1bQ0gyXTI=

> <s_epik_cmdline>
J2VwaWtfcHl0aG9uJywgJy1waCcsICc3LjAnLCAnLXRuJywgJzgnLCAnLW1hJywgJzIwMCcsICctbWV0YWxfYmluZGluZycsICctaW1hZScsICc8aW5maWxlLm1hZT4nLCAnLW9tYWUnLCAnPG91dGZpbGUubWFlPic=

> <r_lp_tautomer_probability>
1

> <r_epik_Ionization_Penalty>
0.00302432

> <r_epik_Ionization_Penalty_Charging>
0

> <r_epik_Ionization_Penalty_Neutral>
0.00302432

> <r_epik_State_Penalty>
0.0021246

> <r_epik_Charging_Adjusted_Penalty>
0.0021246

> <i_epik_Tot_Q>
0

> <i_epik_Tot_abs_Q>
0

> <r_epik_Metal_State_Penalty>
-0

> <b_epik_Metal_Only>
0

> <s_lp_Force_Field>
OPLS_2005

> <r_lp_Energy>
15.1488

> <b_lp_Chiralities_Consistent>
1

> <s_lp_Variant>
AV-unprocessed.smi:1294-1

> <Gold.Version>
5.8.1

> <Gold.Id.Protein>
6NUR|6NUR_protein|mol2

> <Gold.PLP.Fitness>
40.8296

> <Gold.PLP.PLP>
-39.7086

> <Gold.PLP.part.hbond>
-1.0000

> <Gold.PLP.part.metal>
0.0000

> <Gold.PLP.part.buried>
-5.2593

> <Gold.PLP.part.nonpolar>
-32.7875

> <Gold.PLP.part.repulsive>
0.1734

> <Gold.PLP.ligand.clash>
0.0000

> <Gold.PLP.ligand.torsion>
0.9673

> <Gold.PLP.Chemscore.Hbond>
1.0000

> <Gold.PLP.Chemscore.CHOScore>
0.0000

> <Gold.PLP.Chemscore.Metal>
0.0000

> <Gold.Chemscore.Hbonds>
donor molecule, donor type, donor heavy atom, donor atom, acceptor molecule, acceptor atom, score
      P1  H  6896  6908       L1    11  0.80

> <Gold.PLP.Chemscore.Internal.Correction>
0.0556

> <Gold.Rescore>
     Score         DG    S(hbond)    S(metal)    S(lipo)     H(rot)  DE(clash)    DE(int)     intcor
     16.90     -17.80       1.00        0.00     111.31       1.58       0.00       0.91       ----

> <Gold.Chemscore.Fitness>
16.8953

> <Gold.Chemscore.DG>
-17.8033

> <Gold.Chemscore.ZeroCoef>
-5.4800

> <Gold.Chemscore.Hbond>
0.9997

> <Gold.Chemscore.Metal>
0.0000

> <Gold.Chemscore.Lipo>
111.3067

> <Gold.Chemscore.Internal_Hbond>
0.0000

> <Gold.Chemscore.DEClash>
0.0029

> <Gold.Chemscore.DEInternal>
0.9050

> <Gold.Chemscore.Rot>
1.5776

> <Gold.Chemscore.Internal.Correction>
   9.000000E+99

> <Gold.Chemscore.Hbonds>
donor molecule, donor type, donor heavy atom, donor atom, acceptor molecule, acceptor atom, score
      P1  H  6896  6908       L1    11  0.75

> <Gold.Chemscore.Hbond.Weighted>
-3.3391

> <Gold.Chemscore.Metal.Weighted>
-0.0000

> <Gold.Chemscore.Lipo.Weighted>
-13.0229

> <Gold.Chemscore.Internal_Hbond.Weighted>
0.0000

> <Gold.Chemscore.DEClash.Weighted>
0.0029

> <Gold.Chemscore.DEInternal.Weighted>
0.9050

> <Gold.Chemscore.Rot.Weighted>
4.0387

> <Gold.Chemscore.Internal.Correction.Weighted>
   9.000000E+99

> <Gold.Protein.RotatedTorsions>
[ 6907 6896 6895 6894 ] final -175.21 input  -60.11 | X-H torsion
[ 7974 7965 7964 7962 ] final  -55.97 input  175.53 | X-H torsion
[ 8008 7997 7996 7995 ] final   31.55 input   59.86 | X-H torsion
[ 10167 10162 10161 10158 ] final  160.97 input  -65.29 | X-H torsion
[ 10718 10713 10712 10709 ] final   19.58 input   66.30 | X-H torsion
[ 10763 10752 10751 10750 ] final  -22.97 input  -60.55 | X-H torsion
[ 11005 11000 10999 10996 ] final  -41.62 input  -57.11 | X-H torsion

> <Gold.Protein.ActiveResidues>
 VAL166  LYS551  ARG553  GLY616  TRP617  ASP618  TYR619  PRO620  LYS621  CYS622 
 ASP623  PHE694  ASN695  SER759  ASP760  ASP761  ALA762  ILE779  LEU786  VAL792 
 PHE793  MET794  SER795  GLU796  ALA797  LYS798  CYS799  TRP800  GLU811  SER814 

> <Gold.Protein.RotatedAtoms>
  151.5849  133.3373  159.3015 H   0  0  0  0  0  0  0  0  0  0  0  0  # atno 6907 bound_to 6896
  150.8292  134.7541  159.6850 H   0  0  0  0  0  0  0  0  0  0  0  0  # atno 6908 bound_to 6896
  152.4378  134.5658  159.9958 H   0  0  0  0  0  0  0  0  0  0  0  0  # atno 6909 bound_to 6896
  145.8681  140.8236  142.9902 H   0  0  0  0  0  0  0  0  0  0  0  0  # atno 7974 bound_to 7965
  155.1083  140.3236  155.4528 H   0  0  0  0  0  0  0  0  0  0  0  0  # atno 8008 bound_to 7997
  156.2698  140.2048  156.6155 H   0  0  0  0  0  0  0  0  0  0  0  0  # atno 8009 bound_to 7997
  154.6776  140.0530  157.0218 H   0  0  0  0  0  0  0  0  0  0  0  0  # atno 8010 bound_to 7997
  139.4845  144.4582  151.8740 H   0  0  0  0  0  0  0  0  0  0  0  0  # atno 10167 bound_to 10162
  157.1125  130.6515  149.5901 H   0  0  0  0  0  0  0  0  0  0  0  0  # atno 10718 bound_to 10713
  153.6604  135.6976  153.5179 H   0  0  0  0  0  0  0  0  0  0  0  0  # atno 10763 bound_to 10752
  153.2636  135.4237  155.0918 H   0  0  0  0  0  0  0  0  0  0  0  0  # atno 10764 bound_to 10752
  154.8453  135.3561  154.6149 H   0  0  0  0  0  0  0  0  0  0  0  0  # atno 10765 bound_to 10752
  141.0258  133.6842  156.2482 H   0  0  0  0  0  0  0  0  0  0  0  0  # atno 11005 bound_to 11000
  144.6726  140.1197  143.7450 LP  0  0  0  0  0  0  0  0  0  0  0  0  # atno 17320 bound_to 7965
  145.9169  139.2521  143.1404 LP  0  0  0  0  0  0  0  0  0  0  0  0  # atno 17321 bound_to 7965
  140.4042  144.2453  150.5891 LP  0  0  0  0  0  0  0  0  0  0  0  0  # atno 17342 bound_to 10162
  140.5028  143.2313  151.8653 LP  0  0  0  0  0  0  0  0  0  0  0  0  # atno 17343 bound_to 10162
  155.9847  130.4873  150.6996 LP  0  0  0  0  0  0  0  0  0  0  0  0  # atno 17370 bound_to 10713
  157.4547  131.0876  151.0809 LP  0  0  0  0  0  0  0  0  0  0  0  0  # atno 17371 bound_to 10713
  140.6493  134.5084  157.5576 LP  0  0  0  0  0  0  0  0  0  0  0  0  # atno 17394 bound_to 11000
  139.9175  134.8216  156.1317 LP  0  0  0  0  0  0  0  0  0  0  0  0  # atno 17395 bound_to 11000

$$$$
