AV-unprocessed.smi:265|AV-procd|sdf|2023|dock1
  -GOLD-   2262021223D 1   1.00000     0.00000
 Structure written by MMmdl.
 52 56  0  0  0  0  0  0  0  0  1 V2000
  145.7535  130.2949  151.8437 C   0  0  0  0  0  0  0  0  0  0  0  0
  145.6321  131.8077  152.0853 C   0  0  2  0  0  0  0  0  0  0  0  0
  146.4159  132.4653  151.0926 O   0  0  0  0  0  0  0  0  0  0  0  0
  146.9248  133.6716  151.6332 C   0  0  0  0  0  0  0  0  0  0  0  0
  147.2945  133.2622  153.0505 C   0  0  0  0  0  0  0  0  0  0  0  0
  146.1459  132.3415  153.4530 C   0  0  1  0  0  0  0  0  0  0  0  0
  145.1209  133.1464  154.0126 O   0  0  0  0  0  0  0  0  0  0  0  0
  146.5429  131.2723  154.5052 C   0  0  0  0  0  0  0  0  0  0  0  0
  146.6240  131.7918  155.8629 N   0  0  0  0  0  0  0  0  0  0  0  0
  145.6283  131.7625  156.8134 C   0  0  0  0  0  0  0  0  0  0  0  0
  145.9396  132.2954  157.9633 N   0  0  0  0  0  0  0  0  0  0  0  0
  147.2560  132.7109  157.8000 C   0  0  0  0  0  0  0  0  0  0  0  0
  148.2008  133.3625  158.6423 C   0  0  0  0  0  0  0  0  0  0  0  0
  147.9217  133.7090  159.9245 N   0  0  0  0  0  0  0  0  0  0  0  0
  147.7906  132.6317  160.9052 C   0  0  0  0  0  0  0  0  0  0  0  0
  147.8756  133.1861  162.3355 C   0  0  0  0  0  0  0  0  0  0  0  0
  146.8632  134.3191  162.5689 C   0  0  2  0  0  0  0  0  0  0  0  0
  145.5383  133.8041  162.5512 O   0  0  0  0  0  0  0  0  0  0  0  0
  144.5452  134.7550  162.9384 C   0  0  0  0  0  0  0  0  0  0  0  0
  144.6944  136.0935  162.1918 C   0  0  0  0  0  0  0  0  0  0  0  0
  143.7653  136.8977  162.1842 O   0  0  0  0  0  0  0  0  0  0  0  0
  145.8696  136.3601  161.5993 N   0  0  0  0  0  0  0  0  0  0  0  0
  146.9608  135.4000  161.4697 C   0  0  2  0  0  0  0  0  0  0  0  0
  146.9351  134.7789  160.0577 C   0  0  0  0  0  0  0  0  0  0  0  0
  149.4255  133.6320  158.1156 N   0  0  0  0  0  0  0  0  0  0  0  0
  149.7128  133.2801  156.8591 C   0  0  0  0  0  0  0  0  0  0  0  0
  148.9352  132.6641  155.9668 N   0  0  0  0  0  0  0  0  0  0  0  0
  147.7011  132.4012  156.4834 C   0  0  0  0  0  0  0  0  0  0  0  0
  147.0557  134.7596  163.5494 H   0  0  0  0  0  0  0  0  0  0  0  0
  147.8999  135.9409  161.5938 H   0  0  0  0  0  0  0  0  0  0  0  0
  145.1587  129.7266  152.5588 H   0  0  0  0  0  0  0  0  0  0  0  0
  146.7883  129.9594  151.9160 H   0  0  0  0  0  0  0  0  0  0  0  0
  145.3966  130.0366  150.8465 H   0  0  0  0  0  0  0  0  0  0  0  0
  144.5913  132.0981  151.9299 H   0  0  0  0  0  0  0  0  0  0  0  0
  147.7777  134.0405  151.0633 H   0  0  0  0  0  0  0  0  0  0  0  0
  146.1468  134.4367  151.6319 H   0  0  0  0  0  0  0  0  0  0  0  0
  148.2293  132.7018  153.0140 H   0  0  0  0  0  0  0  0  0  0  0  0
  147.4404  134.1100  153.7213 H   0  0  0  0  0  0  0  0  0  0  0  0
  144.3618  132.6030  154.1594 H   0  0  0  0  0  0  0  0  0  0  0  0
  145.8208  130.4549  154.5030 H   0  0  0  0  0  0  0  0  0  0  0  0
  147.5092  130.8315  154.2579 H   0  0  0  0  0  0  0  0  0  0  0  0
  144.6537  131.3362  156.6229 H   0  0  0  0  0  0  0  0  0  0  0  0
  146.8363  132.1238  160.7587 H   0  0  0  0  0  0  0  0  0  0  0  0
  148.5768  131.8900  160.7581 H   0  0  0  0  0  0  0  0  0  0  0  0
  147.7183  132.3857  163.0589 H   0  0  0  0  0  0  0  0  0  0  0  0
  148.8829  133.5659  162.5103 H   0  0  0  0  0  0  0  0  0  0  0  0
  143.5574  134.3341  162.7491 H   0  0  0  0  0  0  0  0  0  0  0  0
  144.6182  134.9392  164.0109 H   0  0  0  0  0  0  0  0  0  0  0  0
  145.9821  137.2534  161.1425 H   0  0  0  0  0  0  0  0  0  0  0  0
  147.0963  135.5619  159.3170 H   0  0  0  0  0  0  0  0  0  0  0  0
  145.9490  134.3591  159.8521 H   0  0  0  0  0  0  0  0  0  0  0  0
  150.7080  133.5275  156.5198 H   0  0  0  0  0  0  0  0  0  0  0  0
  1  2  1  0  0  0  0
  1 31  1  0  0  0  0
  1 32  1  0  0  0  0
  1 33  1  0  0  0  0
  2  6  1  0  0  0  0
  2  3  1  0  0  0  0
  2 34  1  0  0  0  0
  3  4  1  0  0  0  0
  4  5  1  0  0  0  0
  4 35  1  0  0  0  0
  4 36  1  0  0  0  0
  5  6  1  0  0  0  0
  5 37  1  0  0  0  0
  5 38  1  0  0  0  0
  6  7  1  0  0  0  0
  6  8  1  0  0  0  0
  7 39  1  0  0  0  0
  8  9  1  0  0  0  0
  8 40  1  0  0  0  0
  8 41  1  0  0  0  0
  9 28  1  0  0  0  0
  9 10  1  0  0  0  0
 10 11  2  0  0  0  0
 10 42  1  0  0  0  0
 11 12  1  0  0  0  0
 12 28  2  0  0  0  0
 12 13  1  0  0  0  0
 13 14  1  0  0  0  0
 13 25  2  0  0  0  0
 14 24  1  0  0  0  0
 14 15  1  0  0  0  0
 15 16  1  0  0  0  0
 15 43  1  0  0  0  0
 15 44  1  0  0  0  0
 16 17  1  0  0  0  0
 16 45  1  0  0  0  0
 16 46  1  0  0  0  0
 17 29  1  0  0  0  0
 17 23  1  0  0  0  0
 17 18  1  0  0  0  0
 18 19  1  0  0  0  0
 19 20  1  0  0  0  0
 19 47  1  0  0  0  0
 19 48  1  0  0  0  0
 20 21  2  0  0  0  0
 20 22  1  0  0  0  0
 22 23  1  0  0  0  0
 22 49  1  0  0  0  0
 23 30  1  0  0  0  0
 23 24  1  0  0  0  0
 24 50  1  0  0  0  0
 24 51  1  0  0  0  0
 25 26  1  0  0  0  0
 26 27  2  0  0  0  0
 26 52  1  0  0  0  0
 27 28  1  0  0  0  0
M  END
> <s_m_source_file>
AV-unprocessed.smi

> <i_m_source_file_index>
265

> <i_lp_mmshare_version>
43012

> <i_f3d_flags>
0

> <s_epik_input>
W0NIMl0xW0NIMl1PW0NAQEhdKFtDSDNdKVtDQEBdMShbT0hdKVtDSDJdbihbY0hdbjIpYyhjMjMpbltjSF1uYzNOKFtDSDJdW0NIMl00KVtDSDJdW0NAQEhdKFtDQEhdNDUpW05IXUMoPU8pW0NIMl1PNQ==

> <s_epik_cmdline>
J2VwaWtfcHl0aG9uJywgJy1waCcsICc3LjAnLCAnLXRuJywgJzgnLCAnLW1hJywgJzIwMCcsICctbWV0YWxfYmluZGluZycsICctaW1hZScsICc8aW5maWxlLm1hZT4nLCAnLW9tYWUnLCAnPG91dGZpbGUubWFlPic=

> <r_lp_tautomer_probability>
1

> <r_epik_Ionization_Penalty>
0.00221504

> <r_epik_Ionization_Penalty_Charging>
0

> <r_epik_Ionization_Penalty_Neutral>
0.00221504

> <r_epik_State_Penalty>
-0

> <r_epik_Charging_Adjusted_Penalty>
0

> <i_epik_Tot_Q>
0

> <i_epik_Tot_abs_Q>
0

> <r_epik_Metal_State_Penalty>
-0

> <b_epik_Metal_Only>
0

> <s_lp_Force_Field>
OPLS_2005

> <r_lp_Energy>
44.3548

> <b_lp_Chiralities_Consistent>
1

> <s_lp_Variant>
AV-unprocessed.smi:265-9

> <Gold.Version>
5.8.1

> <Gold.Id.Protein>
6NUR|6NUR_protein|mol2

> <Gold.PLP.Fitness>
41.1548

> <Gold.PLP.PLP>
-33.3239

> <Gold.PLP.part.hbond>
-2.5595

> <Gold.PLP.part.metal>
0.0000

> <Gold.PLP.part.buried>
-6.8464

> <Gold.PLP.part.nonpolar>
-24.4813

> <Gold.PLP.part.repulsive>
0.3391

> <Gold.PLP.ligand.clash>
0.0000

> <Gold.PLP.ligand.torsion>
0.7631

> <Gold.PLP.Chemscore.Hbond>
2.0000

> <Gold.PLP.Chemscore.CHOScore>
1.0000

> <Gold.PLP.Chemscore.Metal>
0.0000

> <Gold.Chemscore.Hbonds>
donor molecule, donor type, donor heavy atom, donor atom, acceptor molecule, acceptor atom, score
      L1  H     7    39       P1 10957  1.00
      P1  H  6896  6907       L1    25  1.00
      L1  C    10    42       P1 10956  0.08
      L1  C    10    42       P1 10957  0.61

> <Gold.PLP.Chemscore.Internal.Correction>
0.3570

> <Gold.Rescore>
     Score         DG    S(hbond)    S(metal)    S(lipo)     H(rot)  DE(clash)    DE(int)     intcor
     13.82     -14.58       1.92        0.00      72.09       2.25       0.01       0.76       ----

> <Gold.Chemscore.Fitness>
13.8163

> <Gold.Chemscore.DG>
-14.5843

> <Gold.Chemscore.ZeroCoef>
-5.4800

> <Gold.Chemscore.Hbond>
1.9214

> <Gold.Chemscore.Metal>
0.0000

> <Gold.Chemscore.Lipo>
72.0913

> <Gold.Chemscore.Internal_Hbond>
0.0000

> <Gold.Chemscore.DEClash>
0.0108

> <Gold.Chemscore.DEInternal>
0.7573

> <Gold.Chemscore.Rot>
2.2453

> <Gold.Chemscore.Internal.Correction>
   9.000000E+99

> <Gold.Chemscore.Hbonds>
donor molecule, donor type, donor heavy atom, donor atom, acceptor molecule, acceptor atom, score
      L1  H     7    39       P1 10957  0.76
      P1  H  6896  6907       L1    25  0.90

> <Gold.Chemscore.Hbond.Weighted>
-6.4176

> <Gold.Chemscore.Metal.Weighted>
-0.0000

> <Gold.Chemscore.Lipo.Weighted>
-8.4347

> <Gold.Chemscore.Internal_Hbond.Weighted>
0.0000

> <Gold.Chemscore.DEClash.Weighted>
0.0108

> <Gold.Chemscore.DEInternal.Weighted>
0.7573

> <Gold.Chemscore.Rot.Weighted>
5.7479

> <Gold.Chemscore.Internal.Correction.Weighted>
   9.000000E+99

> <Gold.Protein.RotatedTorsions>
[ 6907 6896 6895 6894 ] final -107.46 input  -60.11 | X-H torsion
[ 7974 7965 7964 7962 ] final -140.18 input  175.53 | X-H torsion
[ 8008 7997 7996 7995 ] final -168.02 input   59.86 | X-H torsion
[ 10167 10162 10161 10158 ] final  -17.82 input  -65.29 | X-H torsion
[ 10718 10713 10712 10709 ] final  -48.55 input   66.30 | X-H torsion
[ 10763 10752 10751 10750 ] final  136.60 input  -60.55 | X-H torsion
[ 11005 11000 10999 10996 ] final  138.49 input  -57.11 | X-H torsion

> <Gold.Protein.ActiveResidues>
 VAL166  LYS551  ARG553  GLY616  TRP617  ASP618  TYR619  PRO620  LYS621  CYS622 
 ASP623  PHE694  ASN695  SER759  ASP760  ASP761  ALA762  ILE779  LEU786  VAL792 
 PHE793  MET794  SER795  GLU796  ALA797  LYS798  CYS799  TRP800  GLU811  SER814 

> <Gold.Protein.RotatedAtoms>
  150.7445  133.9823  159.3579 H   0  0  0  0  0  0  0  0  0  0  0  0  # atno 6907 bound_to 6896
  151.7765  135.0771  160.0377 H   0  0  0  0  0  0  0  0  0  0  0  0  # atno 6908 bound_to 6896
  152.3303  133.5915  159.5841 H   0  0  0  0  0  0  0  0  0  0  0  0  # atno 6909 bound_to 6896
  144.8617  140.6230  143.5324 H   0  0  0  0  0  0  0  0  0  0  0  0  # atno 7974 bound_to 7965
  155.8857  140.1016  157.1454 H   0  0  0  0  0  0  0  0  0  0  0  0  # atno 8008 bound_to 7997
  154.4009  140.1320  156.4316 H   0  0  0  0  0  0  0  0  0  0  0  0  # atno 8009 bound_to 7997
  155.7591  140.3463  155.5191 H   0  0  0  0  0  0  0  0  0  0  0  0  # atno 8010 bound_to 7997
  140.7252  143.4978  150.9909 H   0  0  0  0  0  0  0  0  0  0  0  0  # atno 10167 bound_to 10162
  156.1977  130.4155  149.9284 H   0  0  0  0  0  0  0  0  0  0  0  0  # atno 10718 bound_to 10713
  153.8592  135.3069  155.3437 H   0  0  0  0  0  0  0  0  0  0  0  0  # atno 10763 bound_to 10752
  154.7857  135.4811  153.9943 H   0  0  0  0  0  0  0  0  0  0  0  0  # atno 10764 bound_to 10752
  153.1472  135.6836  153.9031 H   0  0  0  0  0  0  0  0  0  0  0  0  # atno 10765 bound_to 10752
  140.0187  134.9406  157.0429 H   0  0  0  0  0  0  0  0  0  0  0  0  # atno 11005 bound_to 11000
  145.4299  139.1551  143.4028 LP  0  0  0  0  0  0  0  0  0  0  0  0  # atno 17320 bound_to 7965
  146.2865  140.4415  142.8756 LP  0  0  0  0  0  0  0  0  0  0  0  0  # atno 17321 bound_to 7965
  139.8685  143.7222  152.3168 LP  0  0  0  0  0  0  0  0  0  0  0  0  # atno 17342 bound_to 10162
  139.7463  144.7546  151.0575 LP  0  0  0  0  0  0  0  0  0  0  0  0  # atno 17343 bound_to 10162
  156.7004  130.8931  151.3598 LP  0  0  0  0  0  0  0  0  0  0  0  0  # atno 17370 bound_to 10713
  157.6967  130.9289  150.0665 LP  0  0  0  0  0  0  0  0  0  0  0  0  # atno 17371 bound_to 10713
  140.4425  134.1666  155.7175 LP  0  0  0  0  0  0  0  0  0  0  0  0  # atno 17394 bound_to 11000
  141.1760  133.8513  157.1420 LP  0  0  0  0  0  0  0  0  0  0  0  0  # atno 17395 bound_to 11000

$$$$
