AV-unprocessed.smi:103|AV-procd|sdf|986|dock3
  -GOLD-   2262017553D 1   1.00000     0.00000
 Structure written by MMmdl.
 53 55  0  0  0  0  0  0  0  0  1 V2000
  147.3942  142.1514  154.6863 C   0  0  0  0  0  0  0  0  0  0  0  0
  148.5241  141.1416  154.8361 C   0  0  0  0  0  0  0  0  0  0  0  0
  149.6026  141.2987  154.2633 O   0  0  0  0  0  0  0  0  0  0  0  0
  148.1906  140.1197  155.6432 O   0  0  0  0  0  0  0  0  0  0  0  0
  149.0847  139.0341  155.8433 C   0  0  0  0  0  0  0  0  0  0  0  0
  149.2956  138.8178  157.3474 C   0  0  1  0  0  0  0  0  0  0  0  0
  148.0953  138.2692  157.8887 O   0  0  0  0  0  0  0  0  0  0  0  0
  148.3807  137.1418  158.6479 C   0  0  1  0  0  0  0  0  0  0  0  0
  147.2323  136.1817  158.5671 N   0  0  0  0  0  0  0  0  0  0  0  0
  146.5481  135.5541  159.5876 C   0  0  0  0  0  0  0  0  0  0  0  0
  146.8132  135.7890  161.3404 S   0  0  0  0  0  0  0  0  0  0  0  0
  145.0896  135.8727  161.9742 C   0  0  0  0  0  0  0  0  0  0  0  0
  147.4612  134.5680  161.8443 O   0  0  0  0  0  0  0  0  0  0  0  0
  147.4549  137.1015  161.5109 O   0  0  0  0  0  0  0  0  0  0  0  0
  145.5468  134.7916  159.2414 N   0  0  0  0  0  0  0  0  0  0  0  0
  145.5866  134.8333  157.8547 C   0  0  0  0  0  0  0  0  0  0  0  0
  144.8263  134.2178  156.8287 C   0  0  0  0  0  0  0  0  0  0  0  0
  143.8076  133.3826  157.0749 N   0  0  0  0  0  0  0  0  0  0  0  0
  145.1446  134.4816  155.5399 N   0  0  0  0  0  0  0  0  0  0  0  0
  146.1584  135.3092  155.2680 C   0  0  0  0  0  0  0  0  0  0  0  0
  146.9561  135.9587  156.1190 N   0  0  0  0  0  0  0  0  0  0  0  0
  146.6352  135.6937  157.4198 C   0  0  0  0  0  0  0  0  0  0  0  0
  149.6763  136.5493  158.0935 C   0  0  1  0  0  0  0  0  0  0  0  0
  149.4258  135.6653  157.0062 O   0  0  0  0  0  0  0  0  0  0  0  0
  150.4355  135.1964  156.2585 C   0  0  0  0  0  0  0  0  0  0  0  0
  149.9559  134.2369  155.1775 C   0  0  0  0  0  0  0  0  0  0  0  0
  151.6271  135.4733  156.3910 O   0  0  0  0  0  0  0  0  0  0  0  0
  150.4110  137.7966  157.6270 C   0  0  2  0  0  0  0  0  0  0  0  0
  151.2684  138.2745  158.6573 O   0  0  0  0  0  0  0  0  0  0  0  0
  152.1776  139.2315  158.3968 C   0  0  0  0  0  0  0  0  0  0  0  0
  152.9126  139.6934  159.6480 C   0  0  0  0  0  0  0  0  0  0  0  0
  152.4298  139.7107  157.2915 O   0  0  0  0  0  0  0  0  0  0  0  0
  146.4476  141.6410  154.5079 H   0  0  0  0  0  0  0  0  0  0  0  0
  147.5883  142.8205  153.8477 H   0  0  0  0  0  0  0  0  0  0  0  0
  147.3006  142.7501  155.5924 H   0  0  0  0  0  0  0  0  0  0  0  0
  148.7372  138.1086  155.3821 H   0  0  0  0  0  0  0  0  0  0  0  0
  150.0321  139.2889  155.3679 H   0  0  0  0  0  0  0  0  0  0  0  0
  149.5166  139.7694  157.8333 H   0  0  0  0  0  0  0  0  0  0  0  0
  148.4552  137.4376  159.6937 H   0  0  0  0  0  0  0  0  0  0  0  0
  145.1070  136.0175  163.0541 H   0  0  0  0  0  0  0  0  0  0  0  0
  144.5726  134.9419  161.7410 H   0  0  0  0  0  0  0  0  0  0  0  0
  144.5667  136.7048  161.5040 H   0  0  0  0  0  0  0  0  0  0  0  0
  143.5522  133.1673  158.0280 H   0  0  0  0  0  0  0  0  0  0  0  0
  143.2997  132.9673  156.3075 H   0  0  0  0  0  0  0  0  0  0  0  0
  146.3586  135.4775  154.2200 H   0  0  0  0  0  0  0  0  0  0  0  0
  150.1981  136.0285  158.8977 H   0  0  0  0  0  0  0  0  0  0  0  0
  148.9477  134.4960  154.8524 H   0  0  0  0  0  0  0  0  0  0  0  0
  149.9441  133.2162  155.5599 H   0  0  0  0  0  0  0  0  0  0  0  0
  150.6179  134.2758  154.3123 H   0  0  0  0  0  0  0  0  0  0  0  0
  150.9929  137.6034  156.7240 H   0  0  0  0  0  0  0  0  0  0  0  0
  152.2578  139.6477  160.5185 H   0  0  0  0  0  0  0  0  0  0  0  0
  153.2556  140.7215  159.5293 H   0  0  0  0  0  0  0  0  0  0  0  0
  153.7796  139.0583  159.8308 H   0  0  0  0  0  0  0  0  0  0  0  0
  1  2  1  0  0  0  0
  1 33  1  0  0  0  0
  1 34  1  0  0  0  0
  1 35  1  0  0  0  0
  2  3  2  0  0  0  0
  2  4  1  0  0  0  0
  4  5  1  0  0  0  0
  5  6  1  0  0  0  0
  5 36  1  0  0  0  0
  5 37  1  0  0  0  0
  6 28  1  0  0  0  0
  6  7  1  0  0  0  0
  6 38  1  0  0  0  0
  7  8  1  0  0  0  0
  8  9  1  0  0  0  0
  8 23  1  0  0  0  0
  8 39  1  0  0  0  0
  9 22  1  0  0  0  0
  9 10  1  0  0  0  0
 10 11  1  0  0  0  0
 10 15  2  0  0  0  0
 11 12  1  0  0  0  0
 11 13  2  0  0  0  0
 11 14  2  0  0  0  0
 12 40  1  0  0  0  0
 12 41  1  0  0  0  0
 12 42  1  0  0  0  0
 15 16  1  0  0  0  0
 16 22  2  0  0  0  0
 16 17  1  0  0  0  0
 17 18  1  0  0  0  0
 17 19  2  0  0  0  0
 18 43  1  0  0  0  0
 18 44  1  0  0  0  0
 19 20  1  0  0  0  0
 20 21  2  0  0  0  0
 20 45  1  0  0  0  0
 21 22  1  0  0  0  0
 23 24  1  0  0  0  0
 23 28  1  0  0  0  0
 23 46  1  0  0  0  0
 24 25  1  0  0  0  0
 25 26  1  0  0  0  0
 25 27  2  0  0  0  0
 26 47  1  0  0  0  0
 26 48  1  0  0  0  0
 26 49  1  0  0  0  0
 28 29  1  0  0  0  0
 28 50  1  0  0  0  0
 29 30  1  0  0  0  0
 30 31  1  0  0  0  0
 30 32  2  0  0  0  0
 31 51  1  0  0  0  0
 31 52  1  0  0  0  0
 31 53  1  0  0  0  0
M  END
> <s_m_source_file>
AV-unprocessed.smi

> <i_m_source_file_index>
103

> <i_lp_mmshare_version>
43012

> <i_f3d_flags>
0

> <s_epik_input>
W0NIM11DKD1PKU9bQ0gyXVtDQEBIXTFPW0NASF0oW0NAQEhdKE9DKD1PKVtDSDNdKVtDQEhdMU9DKD1PKVtDSDNdKW4oYyhuMilTKD1PKSg9TylbQ0gzXSljKGMyMyluW2NIXW5jM1tOSDJd

> <s_epik_cmdline>
J2VwaWtfcHl0aG9uJywgJy1waCcsICc3LjAnLCAnLXRuJywgJzgnLCAnLW1hJywgJzIwMCcsICctbWV0YWxfYmluZGluZycsICctaW1hZScsICc8aW5maWxlLm1hZT4nLCAnLW9tYWUnLCAnPG91dGZpbGUubWFlPic=

> <r_lp_tautomer_probability>
1

> <r_epik_Ionization_Penalty>
1.51338e-05

> <r_epik_Ionization_Penalty_Charging>
0

> <r_epik_Ionization_Penalty_Neutral>
1.51338e-05

> <r_epik_State_Penalty>
-0

> <r_epik_Charging_Adjusted_Penalty>
0

> <i_epik_Tot_Q>
0

> <i_epik_Tot_abs_Q>
0

> <r_epik_Metal_State_Penalty>
-0

> <b_epik_Metal_Only>
0

> <s_epik_Chemistry_Notes>
This compound has an ester and may undergo hydrolysis at high or low pH. This compound contains an acetal/aminal-like group ( X-CH(R)-Y where X, Y are N, S, or O) that may be acid/base labile, releasing an aldehyde.

> <s_lp_Force_Field>
OPLS_2005

> <r_lp_Energy>
13.7998

> <b_lp_Chiralities_Consistent>
1

> <s_lp_Variant>
AV-unprocessed.smi:103-10

> <Gold.Version>
5.8.1

> <Gold.Id.Protein>
6NUR|6NUR_protein|mol2

> <Gold.PLP.Fitness>
44.8223

> <Gold.PLP.PLP>
-28.1165

> <Gold.PLP.part.hbond>
-7.0000

> <Gold.PLP.part.metal>
0.0000

> <Gold.PLP.part.buried>
-5.7867

> <Gold.PLP.part.nonpolar>
-16.2158

> <Gold.PLP.part.repulsive>
1.5607

> <Gold.PLP.ligand.clash>
0.0000

> <Gold.PLP.ligand.torsion>
1.8364

> <Gold.PLP.Chemscore.Hbond>
6.0045

> <Gold.PLP.Chemscore.CHOScore>
0.0000

> <Gold.PLP.Chemscore.Metal>
0.0000

> <Gold.Chemscore.Hbonds>
donor molecule, donor type, donor heavy atom, donor atom, acceptor molecule, acceptor atom, score
      L1  H    18    44       P1 10957  1.00
      P1  H  6931  6943       L1    14  0.98
      P1  H  6934  6947       L1    14  0.88
      P1  H  7989  7998       L1     3  0.24
      P1  H  7997  8008       L1    32  0.81
      P1  H  8011  8017       L1     3  0.34
      P1  H 10752 10764       L1    27  0.89

> <Gold.PLP.Chemscore.Internal.Correction>
2.3651

> <Gold.Rescore>
     Score         DG    S(hbond)    S(metal)    S(lipo)     H(rot)  DE(clash)    DE(int)     intcor
     10.26     -16.46       5.38        0.00      33.06       4.25       0.16       6.03       ----

> <Gold.Chemscore.Fitness>
10.2610

> <Gold.Chemscore.DG>
-16.4577

> <Gold.Chemscore.ZeroCoef>
-5.4800

> <Gold.Chemscore.Hbond>
5.3829

> <Gold.Chemscore.Metal>
0.0000

> <Gold.Chemscore.Lipo>
33.0558

> <Gold.Chemscore.Internal_Hbond>
0.0000

> <Gold.Chemscore.DEClash>
0.1620

> <Gold.Chemscore.DEInternal>
6.0346

> <Gold.Chemscore.Rot>
4.2456

> <Gold.Chemscore.Internal.Correction>
   9.000000E+99

> <Gold.Chemscore.Hbonds>
donor molecule, donor type, donor heavy atom, donor atom, acceptor molecule, acceptor atom, score
      L1  H    18    44       P1 10957  0.96
      P1  H  6931  6943       L1    14  0.90
      P1  H  6934  6947       L1    14  0.82
      P1  H  7989  7998       L1     3  0.24
      P1  H  7997  8008       L1    32  0.75
      P1  H  8011  8017       L1     3  0.34
      P1  H 10752 10764       L1    27  0.81

> <Gold.Chemscore.Hbond.Weighted>
-17.9788

> <Gold.Chemscore.Metal.Weighted>
-0.0000

> <Gold.Chemscore.Lipo.Weighted>
-3.8675

> <Gold.Chemscore.Internal_Hbond.Weighted>
0.0000

> <Gold.Chemscore.DEClash.Weighted>
0.1620

> <Gold.Chemscore.DEInternal.Weighted>
6.0346

> <Gold.Chemscore.Rot.Weighted>
10.8687

> <Gold.Chemscore.Internal.Correction.Weighted>
   9.000000E+99

> <Gold.Protein.RotatedTorsions>
[ 6907 6896 6895 6894 ] final -169.53 input  -60.11 | X-H torsion
[ 7974 7965 7964 7962 ] final  -58.76 input  175.53 | X-H torsion
[ 8008 7997 7996 7995 ] final  -73.25 input   59.86 | X-H torsion
[ 10167 10162 10161 10158 ] final -127.31 input  -65.29 | X-H torsion
[ 10718 10713 10712 10709 ] final   48.47 input   66.30 | X-H torsion
[ 10763 10752 10751 10750 ] final  -45.90 input  -60.55 | X-H torsion
[ 11005 11000 10999 10996 ] final   59.44 input  -57.11 | X-H torsion

> <Gold.Protein.ActiveResidues>
 VAL166  LYS551  ARG553  GLY616  TRP617  ASP618  TYR619  PRO620  LYS621  CYS622 
 ASP623  PHE694  ASN695  SER759  ASP760  ASP761  ALA762  ILE779  LEU786  VAL792 
 PHE793  MET794  SER795  GLU796  ALA797  LYS798  CYS799  TRP800  GLU811  SER814 

> <Gold.Protein.RotatedAtoms>
  151.4931  133.3520  159.2856 H   0  0  0  0  0  0  0  0  0  0  0  0  # atno 6907 bound_to 6896
  150.8822  134.8216  159.7244 H   0  0  0  0  0  0  0  0  0  0  0  0  # atno 6908 bound_to 6896
  152.4770  134.4830  159.9723 H   0  0  0  0  0  0  0  0  0  0  0  0  # atno 6909 bound_to 6896
  145.8355  140.8452  143.0061 H   0  0  0  0  0  0  0  0  0  0  0  0  # atno 7974 bound_to 7965
  154.5232  140.0782  156.8210 H   0  0  0  0  0  0  0  0  0  0  0  0  # atno 8008 bound_to 7997
  155.3531  140.3414  155.4221 H   0  0  0  0  0  0  0  0  0  0  0  0  # atno 8009 bound_to 7997
  156.1703  140.1617  156.8445 H   0  0  0  0  0  0  0  0  0  0  0  0  # atno 8010 bound_to 7997
  139.9622  143.5938  152.2441 H   0  0  0  0  0  0  0  0  0  0  0  0  # atno 10167 bound_to 10162
  157.4690  130.8243  149.7967 H   0  0  0  0  0  0  0  0  0  0  0  0  # atno 10718 bound_to 10713
  154.0361  135.6650  153.4785 H   0  0  0  0  0  0  0  0  0  0  0  0  # atno 10763 bound_to 10752
  153.0520  135.5078  154.7886 H   0  0  0  0  0  0  0  0  0  0  0  0  # atno 10764 bound_to 10752
  154.6847  135.3051  154.9529 H   0  0  0  0  0  0  0  0  0  0  0  0  # atno 10765 bound_to 10752
  140.0303  134.6021  155.9516 H   0  0  0  0  0  0  0  0  0  0  0  0  # atno 11005 bound_to 11000
  144.6737  140.0734  143.7472 LP  0  0  0  0  0  0  0  0  0  0  0  0  # atno 17320 bound_to 7965
  145.9524  139.2743  143.1204 LP  0  0  0  0  0  0  0  0  0  0  0  0  # atno 17321 bound_to 7965
  139.6545  144.7662  151.2082 LP  0  0  0  0  0  0  0  0  0  0  0  0  # atno 17342 bound_to 10162
  140.7549  143.6107  150.8608 LP  0  0  0  0  0  0  0  0  0  0  0  0  # atno 17343 bound_to 10162
  156.0064  130.3854  150.2417 LP  0  0  0  0  0  0  0  0  0  0  0  0  # atno 17370 bound_to 10713
  157.0598  131.0087  151.3226 LP  0  0  0  0  0  0  0  0  0  0  0  0  # atno 17371 bound_to 10713
  141.1827  133.6549  156.5087 LP  0  0  0  0  0  0  0  0  0  0  0  0  # atno 17394 bound_to 11000
  140.4236  134.7165  157.4904 LP  0  0  0  0  0  0  0  0  0  0  0  0  # atno 17395 bound_to 11000

$$$$
