#       Name:                AV-unprocessed.smi:112
#       Creating user name   scv26
#       Creation time:       Thu Mar 26 18:19:17 2020


#       File generated by GOLD software.
#

@<TRIPOS>MOLECULE
AV-unprocessed.smi:112
    68    71     1
SMALL
NO_CHARGES


@<TRIPOS>ATOM
      1 ****        -0.4440   5.1580   1.4283 C.3            1 S1                 0.0000
      2 ****         0.0919   3.7385   1.3302 C.2            1 S1                 0.0000
      3 ****         1.4011   3.4764   1.1124 C.2            1 S1                 0.0000
      4 ****         1.9240   2.2006   1.0204 N.am           1 S1                 0.0000
      5 ****         3.3986   2.0246   0.7197 C.3            1 S1                 0.0000
      6 ****         4.1648   1.2562   1.8064 C.3            1 S1                 0.0000
      7 ****         5.1842   0.4935   0.9832 C.3            1 S1                 0.0000
      8 ****         6.3393   1.2854   0.7738 O.3            1 S1                 0.0000
      9 ****         4.4166   0.2199  -0.3204 C.3            1 S1                 0.0000
     10 ****         5.2529  -0.0137  -1.5908 C.3            1 S1                 0.0000
     11 ****         5.9821  -1.2184  -1.4866 O.3            1 S1                 0.0000
     12 ****         3.5385   1.3317  -0.4859 O.3            1 S1                 0.0000
     13 ****         1.0586   1.0878   1.1140 C.2            1 S1                 0.0000
     14 ****         1.4801  -0.0618   0.9766 O.2            1 S1                 0.0000
     15 ****        -0.3129   1.3267   1.3586 N.am           1 S1                 0.0000
     16 ****        -1.2285   0.1670   1.4596 C.3            1 S1                 0.0000
     17 ****        -1.8281  -0.2725   0.1052 C.2            1 S1                 0.0000
     18 ****        -1.5001   0.3338  -0.9153 O.2            1 S1                 0.0000
     19 ****        -2.6956  -1.3152   0.1042 N.am           1 S1                 0.0000
     20 ****        -3.1011  -2.0363   1.3233 C.3            1 S1                 0.0000
     21 ****        -4.0990  -3.1249   0.8718 C.3            1 S1                 0.0000
     22 ****        -4.1607  -2.9330  -0.6148 C.ar           1 S1                 0.0000
     23 ****        -4.9230  -3.6827  -1.5264 C.ar           1 S1                 0.0000
     24 ****        -4.8559  -3.3585  -2.9043 C.ar           1 S1                 0.0000
     25 ****        -5.6433  -4.1238  -3.8911 N.pl3          1 S1                 1.0000
     26 ****        -5.5370  -3.8266  -5.0766 O.2            1 S1                 0.0000
     27 ****        -6.3702  -5.0235  -3.4822 O.2            1 S1                -1.0000
     28 ****        -4.0212  -2.2878  -3.3216 C.ar           1 S1                 0.0000
     29 ****        -3.2620  -1.5445  -2.3915 C.ar           1 S1                 0.0000
     30 ****        -3.3445  -1.8847  -1.0236 C.ar           1 S1                 0.0000
     31 ****        -0.8547   2.6305   1.4719 C.2            1 S1                 0.0000
     32 ****        -2.0606   2.7950   1.6672 O.2            1 S1                 0.0000
     33 ****         0.3455   5.8999   1.3053 H              1 S1                 0.0000
     34 ****        -0.9085   5.3236   2.4009 H              1 S1                 0.0000
     35 ****        -1.1925   5.3369   0.6557 H              1 S1                 0.0000
     36 ****         2.0733   4.3162   1.0078 H              1 S1                 0.0000
     37 ****         3.8056   3.0258   0.5754 H              1 S1                 0.0000
     38 ****         4.5989   1.9373   2.5392 H              1 S1                 0.0000
     39 ****         3.5122   0.5611   2.3324 H              1 S1                 0.0000
     40 ****         5.4881  -0.4318   1.4734 H              1 S1                 0.0000
     41 ****         6.9406   0.8041   0.2263 H              1 S1                 0.0000
     42 ****         3.7790  -0.6509  -0.1617 H              1 S1                 0.0000
     43 ****         4.5935  -0.0928  -2.4553 H              1 S1                 0.0000
     44 ****         5.9311   0.8166  -1.7875 H              1 S1                 0.0000
     45 ****         6.5807  -1.1486  -0.7589 H              1 S1                 0.0000
     46 ****        -0.7151  -0.6836   1.9099 H              1 S1                 0.0000
     47 ****        -2.0401   0.3853   2.1547 H              1 S1                 0.0000
     48 ****        -2.2353  -2.4926   1.8050 H              1 S1                 0.0000
     49 ****        -3.5750  -1.3611   2.0371 H              1 S1                 0.0000
     50 ****        -3.7462  -4.1275   1.1151 H              1 S1                 0.0000
     51 ****        -5.0852  -2.9802   1.3140 H              1 S1                 0.0000
     52 ****        -5.5445  -4.4901  -1.1679 H              1 S1                 0.0000
     53 ****        -3.9545  -2.0243  -4.3668 H              1 S1                 0.0000
     54 ****        -2.6404  -0.7401  -2.7512 H              1 S1                 0.0000
     55 ****         6.7722   1.4882   1.6521 LP             1 S1                 0.0000
     56 ****         6.0840   2.1406   0.3227 LP             1 S1                 0.0000
     57 ****         6.4952  -1.3751  -2.3305 LP             1 S1                 0.0000
     58 ****         5.3529  -1.9803  -1.3327 LP             1 S1                 0.0000
     59 ****         3.9135   1.9477  -1.1786 LP             1 S1                 0.0000
     60 ****         2.6421   1.0025  -0.7828 LP             1 S1                 0.0000
     61 ****         2.4507  -0.2202   0.7953 LP             1 S1                 0.0000
     62 ****         0.8516  -0.8365   1.0464 LP             1 S1                 0.0000
     63 ****        -0.8559   1.0965  -0.8585 LP             1 S1                 0.0000
     64 ****        -1.8780   0.0634  -1.8008 LP             1 S1                 0.0000
     65 ****        -4.9287  -3.0826  -5.3529 LP             1 S1                 0.0000
     66 ****        -6.0587  -4.3284  -5.7666 LP             1 S1                 0.0000
     67 ****        -2.4344   3.7200   1.7360 LP             1 S1                 0.0000
     68 ****        -2.6652   2.0035   1.7569 LP             1 S1                 0.0000
@<TRIPOS>BOND
    1    1    2 1     
    2    1   33 1     
    3    1   34 1     
    4    1   35 1     
    5    2   31 1     
    6    2    3 2     
    7    3    4 1     
    8    3   36 1     
    9    4    5 1     
   10    4   13 am    
   11    5   12 1     
   12    5    6 1     
   13    5   37 1     
   14    6    7 1     
   15    6   38 1     
   16    6   39 1     
   17    7    8 1     
   18    7    9 1     
   19    7   40 1     
   20    8   41 1     
   21    9   10 1     
   22    9   12 1     
   23    9   42 1     
   24   10   11 1     
   25   10   43 1     
   26   10   44 1     
   27   11   45 1     
   28   13   14 2     
   29   13   15 am    
   30   15   16 1     
   31   15   31 am    
   32   16   17 1     
   33   16   46 1     
   34   16   47 1     
   35   17   18 2     
   36   17   19 am    
   37   19   30 1     
   38   19   20 1     
   39   20   21 1     
   40   20   48 1     
   41   20   49 1     
   42   21   22 1     
   43   21   50 1     
   44   21   51 1     
   45   22   30 ar    
   46   22   23 ar    
   47   23   24 ar    
   48   23   52 1     
   49   24   25 1     
   50   24   28 ar    
   51   25   26 2     
   52   25   27 1     
   53   28   29 ar    
   54   28   53 1     
   55   29   30 ar    
   56   29   54 1     
   57   31   32 2     
   58    8   55 1     
   59    8   56 1     
   60   11   57 1     
   61   11   58 1     
   62   12   59 1     
   63   12   60 1     
   64   14   61 1     
   65   14   62 1     
   66   18   63 1     
   67   18   64 1     
   68   26   65 1     
   69   26   66 1     
   70   32   67 1     
   71   32   68 1     
@<TRIPOS>SUBSTRUCTURE
      1 S1             1
@<TRIPOS>SET
LONE_PAIRS      STATIC     ATOMS    <user>   **** ""
15 55 56 57 58 59 60 61 62 63 64 65 66 27 67 68
DONOR_HYDROGENS      STATIC     ATOMS    <user>   **** ""
2 41 45
ATOM$BLUE        STATIC     ATOMS    COLORGROUP SYSTEM
15 55 56 57 58 59 60 61 62 63 64 65 66 27 67 68
ATOM$RED        STATIC     ATOMS    COLORGROUP SYSTEM
2 41 45
