AV-unprocessed.smi:2230|AV-procd|sdf|9036|dock10
  -GOLD-   2272012243D 1   1.00000     0.00000
 Structure written by MMmdl.
 29 30  0  0  0  0  0  0  0  0  2 V2000
  153.5769  138.7986  154.6996 O   0  0  0  0  0  0  0  0  0  0  0  0
  152.5062  138.3012  155.1148 C   0  0  0  0  0  0  0  0  0  0  0  0
  151.7732  137.5314  154.4553 O   0  5  0  0  0  0  0  0  0  0  0  0
  152.0680  138.6286  156.5508 C   0  0  1  0  0  0  0  0  0  0  0  0
  152.0524  140.1538  156.8104 C   0  0  0  0  0  0  0  0  0  0  0  0
  151.5491  140.4313  158.1507 N   0  0  0  0  0  0  0  0  0  0  0  0
  151.6249  141.7832  158.5199 C   0  0  0  0  0  0  0  0  0  0  0  0
  150.9059  142.6679  157.7858 N   0  0  0  0  0  0  0  0  0  0  0  0
  150.9555  143.9740  158.1174 C   0  0  0  0  0  0  0  0  0  0  0  0
  151.7170  144.4663  159.1923 C   0  0  0  0  0  0  0  0  0  0  0  0
  152.4630  143.5501  159.9563 C   0  0  0  0  0  0  0  0  0  0  0  0
  152.4243  142.1768  159.6245 C   0  0  0  0  0  0  0  0  0  0  0  0
  153.2204  141.1590  160.4377 C   0  0  0  0  0  0  0  0  0  0  0  0
  153.2656  141.4897  161.7288 F   0  0  0  0  0  0  0  0  0  0  0  0
  152.6558  139.9550  160.3411 F   0  0  0  0  0  0  0  0  0  0  0  0
  154.4728  141.0894  159.9862 F   0  0  0  0  0  0  0  0  0  0  0  0
  150.2501  139.8234  158.4028 C   0  0  0  0  0  0  0  0  0  0  0  0
  150.3217  138.3135  158.1278 C   0  0  0  0  0  0  0  0  0  0  0  0
  150.7636  138.0968  156.7918 O   0  0  0  0  0  0  0  0  0  0  0  0
  152.7773  138.1466  157.2262 H   0  0  0  0  0  0  0  0  0  0  0  0
  153.0570  140.5679  156.7132 H   0  0  0  0  0  0  0  0  0  0  0  0
  151.4237  140.6538  156.0718 H   0  0  0  0  0  0  0  0  0  0  0  0
  150.3690  144.6460  157.5087 H   0  0  0  0  0  0  0  0  0  0  0  0
  151.7288  145.5210  159.4252 H   0  0  0  0  0  0  0  0  0  0  0  0
  153.0533  143.9091  160.7860 H   0  0  0  0  0  0  0  0  0  0  0  0
  149.9504  140.0039  159.4358 H   0  0  0  0  0  0  0  0  0  0  0  0
  149.4968  140.2817  157.7604 H   0  0  0  0  0  0  0  0  0  0  0  0
  150.9946  137.8197  158.8308 H   0  0  0  0  0  0  0  0  0  0  0  0
  149.3384  137.8607  158.2543 H   0  0  0  0  0  0  0  0  0  0  0  0
  1  2  2  0  0  0  0
  2  3  1  0  0  0  0
  2  4  1  0  0  0  0
  4 19  1  0  0  0  0
  4  5  1  0  0  0  0
  4 20  1  0  0  0  0
  5  6  1  0  0  0  0
  5 21  1  0  0  0  0
  5 22  1  0  0  0  0
  6  7  1  0  0  0  0
  6 17  1  0  0  0  0
  7 12  1  0  0  0  0
  7  8  2  0  0  0  0
  8  9  1  0  0  0  0
  9 10  2  0  0  0  0
  9 23  1  0  0  0  0
 10 11  1  0  0  0  0
 10 24  1  0  0  0  0
 11 12  2  0  0  0  0
 11 25  1  0  0  0  0
 12 13  1  0  0  0  0
 13 14  1  0  0  0  0
 13 15  1  0  0  0  0
 13 16  1  0  0  0  0
 17 18  1  0  0  0  0
 17 26  1  0  0  0  0
 17 27  1  0  0  0  0
 18 19  1  0  0  0  0
 18 28  1  0  0  0  0
 18 29  1  0  0  0  0
M  CHG  1   3  -1
M  END
> <s_m_source_file>
AV-unprocessed.smi

> <i_m_source_file_index>
2230

> <i_lp_mmshare_version>
43012

> <i_f3d_flags>
0

> <s_epik_input>
Tz1DKFtPSF0pW0NAQEhdMVtDSDJdTihbQ0gyXVtDSDJdTzEpYzJuW2NIXVtjSF1bY0hdYzJDKEYpKEYpRg==

> <s_epik_cmdline>
J2VwaWtfcHl0aG9uJywgJy1waCcsICc3LjAnLCAnLXRuJywgJzgnLCAnLW1hJywgJzIwMCcsICctbWV0YWxfYmluZGluZycsICctaW1hZScsICc8aW5maWxlLm1hZT4nLCAnLW9tYWUnLCAnPG91dGZpbGUubWFlPic=

> <r_lp_tautomer_probability>
1

> <r_epik_Ionization_Penalty>
0.000150991

> <r_epik_Ionization_Penalty_Charging>
0.000148814

> <r_epik_Ionization_Penalty_Neutral>
2.17728e-06

> <r_epik_State_Penalty>
-0

> <r_epik_Charging_Adjusted_Penalty>
0.000148814

> <i_epik_Tot_Q>
-1

> <i_epik_Tot_abs_Q>
1

> <r_epik_Metal_State_Penalty>
-0

> <b_epik_Metal_Only>
0

> <s_lp_Force_Field>
OPLS_2005

> <r_lp_Energy>
24.6169

> <b_lp_Chiralities_Consistent>
1

> <s_lp_Variant>
AV-unprocessed.smi:2230-2

> <Gold.Version>
5.8.1

> <Gold.Id.Protein>
6NUR|6NUR_protein|mol2

> <Gold.PLP.Fitness>
49.3825

> <Gold.PLP.PLP>
-36.6972

> <Gold.PLP.part.hbond>
-2.0000

> <Gold.PLP.part.metal>
0.0000

> <Gold.PLP.part.buried>
-5.1222

> <Gold.PLP.part.nonpolar>
-31.0473

> <Gold.PLP.part.repulsive>
0.2176

> <Gold.PLP.ligand.clash>
0.0062

> <Gold.PLP.ligand.torsion>
1.2534

> <Gold.PLP.Chemscore.Hbond>
3.8080

> <Gold.PLP.Chemscore.CHOScore>
1.0475

> <Gold.PLP.Chemscore.Metal>
0.0000

> <Gold.Chemscore.Hbonds>
donor molecule, donor type, donor heavy atom, donor atom, acceptor molecule, acceptor atom, score
      P1  H  7997  8008       L1     1  2.00
      P1  H 10752 10765       L1     3  1.06
      L1  C     9    23       P1  8028  1.00
      L1  C     9    23       P1  8029  0.02

> <Gold.PLP.Chemscore.Internal.Correction>
0.6317

> <Gold.Rescore>
     Score         DG    S(hbond)    S(metal)    S(lipo)     H(rot)  DE(clash)    DE(int)     intcor
     11.93     -14.64       1.41        0.00      70.72       1.49       0.75       1.96       ----

> <Gold.Chemscore.Fitness>
11.9286

> <Gold.Chemscore.DG>
-14.6385

> <Gold.Chemscore.ZeroCoef>
-5.4800

> <Gold.Chemscore.Hbond>
1.4081

> <Gold.Chemscore.Metal>
0.0000

> <Gold.Chemscore.Lipo>
70.7183

> <Gold.Chemscore.Internal_Hbond>
0.0000

> <Gold.Chemscore.DEClash>
0.7496

> <Gold.Chemscore.DEInternal>
1.9602

> <Gold.Chemscore.Rot>
1.4916

> <Gold.Chemscore.Internal.Correction>
   9.000000E+99

> <Gold.Chemscore.Hbonds>
donor molecule, donor type, donor heavy atom, donor atom, acceptor molecule, acceptor atom, score
      P1  H  7997  8008       L1     1  0.90
      P1  H 10752 10765       L1     3  0.21

> <Gold.Chemscore.Hbond.Weighted>
-4.7029

> <Gold.Chemscore.Metal.Weighted>
-0.0000

> <Gold.Chemscore.Lipo.Weighted>
-8.2740

> <Gold.Chemscore.Internal_Hbond.Weighted>
0.0000

> <Gold.Chemscore.DEClash.Weighted>
0.7496

> <Gold.Chemscore.DEInternal.Weighted>
1.9602

> <Gold.Chemscore.Rot.Weighted>
3.8185

> <Gold.Chemscore.Internal.Correction.Weighted>
   9.000000E+99

> <Gold.Protein.RotatedTorsions>
[ 6907 6896 6895 6894 ] final   92.55 input  -60.11 | X-H torsion
[ 7974 7965 7964 7962 ] final  124.56 input  175.53 | X-H torsion
[ 8008 7997 7996 7995 ] final   -4.17 input   59.86 | X-H torsion
[ 10167 10162 10161 10158 ] final   41.37 input  -65.29 | X-H torsion
[ 10718 10713 10712 10709 ] final -132.38 input   66.30 | X-H torsion
[ 10763 10752 10751 10750 ] final  167.24 input  -60.55 | X-H torsion
[ 11005 11000 10999 10996 ] final   37.27 input  -57.11 | X-H torsion

> <Gold.Protein.ActiveResidues>
 VAL166  LYS551  ARG553  GLY616  TRP617  ASP618  TYR619  PRO620  LYS621  CYS622 
 ASP623  PHE694  ASN695  SER759  ASP760  ASP761  ALA762  ILE779  LEU786  VAL792 
 PHE793  MET794  SER795  GLU796  ALA797  LYS798  CYS799  TRP800  GLU811  SER814 

> <Gold.Protein.RotatedAtoms>
  152.5452  134.1484  159.8507 H   0  0  0  0  0  0  0  0  0  0  0  0  # atno 6907 bound_to 6896
  151.1513  133.4898  159.2602 H   0  0  0  0  0  0  0  0  0  0  0  0  # atno 6908 bound_to 6896
  151.1469  135.0218  159.8706 H   0  0  0  0  0  0  0  0  0  0  0  0  # atno 6909 bound_to 6896
  145.0831  139.3642  143.4899 H   0  0  0  0  0  0  0  0  0  0  0  0  # atno 7974 bound_to 7965
  154.6171  140.2491  155.7595 H   0  0  0  0  0  0  0  0  0  0  0  0  # atno 8008 bound_to 7997
  156.2405  140.2934  156.0380 H   0  0  0  0  0  0  0  0  0  0  0  0  # atno 8009 bound_to 7997
  155.1957  140.0393  157.2899 H   0  0  0  0  0  0  0  0  0  0  0  0  # atno 8010 bound_to 7997
  140.3649  144.2180  150.6136 H   0  0  0  0  0  0  0  0  0  0  0  0  # atno 10167 bound_to 10162
  156.2340  130.7055  151.0888 H   0  0  0  0  0  0  0  0  0  0  0  0  # atno 10718 bound_to 10713
  154.3509  135.2753  155.2372 H   0  0  0  0  0  0  0  0  0  0  0  0  # atno 10763 bound_to 10752
  154.4602  135.5909  153.6254 H   0  0  0  0  0  0  0  0  0  0  0  0  # atno 10764 bound_to 10752
  152.9850  135.6063  154.3720 H   0  0  0  0  0  0  0  0  0  0  0  0  # atno 10765 bound_to 10752
  140.2242  134.3605  155.7991 H   0  0  0  0  0  0  0  0  0  0  0  0  # atno 11005 bound_to 11000
  146.3531  140.0630  142.8628 LP  0  0  0  0  0  0  0  0  0  0  0  0  # atno 17320 bound_to 7965
  145.1155  140.9431  143.4631 LP  0  0  0  0  0  0  0  0  0  0  0  0  # atno 17321 bound_to 7965
  140.5090  143.2296  151.8564 LP  0  0  0  0  0  0  0  0  0  0  0  0  # atno 17342 bound_to 10162
  139.4810  144.4972  151.9109 LP  0  0  0  0  0  0  0  0  0  0  0  0  # atno 17343 bound_to 10162
  157.7146  131.0716  150.6376 LP  0  0  0  0  0  0  0  0  0  0  0  0  # atno 17370 bound_to 10713
  156.6445  130.4467  149.5741 LP  0  0  0  0  0  0  0  0  0  0  0  0  # atno 17371 bound_to 10713
  141.2221  133.7210  156.8625 LP  0  0  0  0  0  0  0  0  0  0  0  0  # atno 17394 bound_to 11000
  140.1818  134.9028  157.2957 LP  0  0  0  0  0  0  0  0  0  0  0  0  # atno 17395 bound_to 11000

$$$$
