AV-unprocessed.smi:2061|AV-procd|sdf|8371|dock5
  -GOLD-   2272011 43D 1   1.00000     0.00000
 Structure written by MMmdl.
 46 47  0  0  0  0  0  0  0  0  2 V2000
  151.9385  140.7920  157.4173 C   0  0  0  0  0  0  0  0  0  0  0  0
  151.3915  139.9099  156.3479 C   0  0  0  0  0  0  0  0  0  0  0  0
  151.1246  138.5711  156.2928 C   0  0  0  0  0  0  0  0  0  0  0  0
  150.6159  138.4013  154.9720 C   0  0  0  0  0  0  0  0  0  0  0  0
  150.1822  137.1831  154.3880 N   0  0  0  0  0  0  0  0  0  0  0  0
  150.1236  135.9630  154.9479 C   0  0  0  0  0  0  0  0  0  0  0  0
  150.4612  135.6889  156.0994 O   0  0  0  0  0  0  0  0  0  0  0  0
  149.6454  135.0554  154.0833 N   0  0  0  0  0  0  0  0  0  0  0  0
  149.4041  133.6447  154.3805 C   0  0  0  0  0  0  0  0  0  0  0  0
  148.7276  132.8702  153.2134 C   0  0  1  0  0  0  0  0  0  0  0  0
  148.3060  131.4517  153.6718 C   0  0  0  0  0  0  0  0  0  0  0  0
  147.5694  133.6283  152.6263 N   0  3  1  0  0  0  0  0  0  0  0  0
  146.8250  132.8806  151.5747 C   0  0  0  0  0  0  0  0  0  0  0  0
  145.6864  133.7233  150.9722 C   0  0  1  0  0  0  0  0  0  0  0  0
  144.8531  132.9222  149.9657 C   0  0  0  0  0  0  0  0  0  0  0  0
  144.8132  134.1609  152.0044 O   0  0  0  0  0  0  0  0  0  0  0  0
  145.4495  134.9320  153.0174 C   0  0  2  0  0  0  0  0  0  0  0  0
  145.8600  136.3318  152.5241 C   0  0  0  0  0  0  0  0  0  0  0  0
  146.6075  134.1334  153.6469 C   0  0  0  0  0  0  0  0  0  0  0  0
  150.5829  139.5315  154.2903 N   0  0  0  0  0  0  0  0  0  0  0  0
  151.0766  140.5053  155.1661 O   0  0  0  0  0  0  0  0  0  0  0  0
  152.2884  140.2043  158.2663 H   0  0  0  0  0  0  0  0  0  0  0  0
  151.1754  141.4830  157.7756 H   0  0  0  0  0  0  0  0  0  0  0  0
  152.7783  141.3781  157.0434 H   0  0  0  0  0  0  0  0  0  0  0  0
  151.2751  137.8471  157.0791 H   0  0  0  0  0  0  0  0  0  0  0  0
  149.8614  137.2554  153.4337 H   0  0  0  0  0  0  0  0  0  0  0  0
  149.3994  135.3711  153.1561 H   0  0  0  0  0  0  0  0  0  0  0  0
  150.3239  133.1426  154.6853 H   0  0  0  0  0  0  0  0  0  0  0  0
  148.7599  133.6672  155.2574 H   0  0  0  0  0  0  0  0  0  0  0  0
  149.4724  132.7520  152.4246 H   0  0  0  0  0  0  0  0  0  0  0  0
  149.1266  130.9108  154.1401 H   0  0  0  0  0  0  0  0  0  0  0  0
  147.9987  130.8172  152.8426 H   0  0  0  0  0  0  0  0  0  0  0  0
  147.4878  131.4944  154.3916 H   0  0  0  0  0  0  0  0  0  0  0  0
  147.4797  132.6103  150.7489 H   0  0  0  0  0  0  0  0  0  0  0  0
  146.4321  131.9540  151.9970 H   0  0  0  0  0  0  0  0  0  0  0  0
  146.1050  134.5838  150.4501 H   0  0  0  0  0  0  0  0  0  0  0  0
  145.4692  132.5641  149.1405 H   0  0  0  0  0  0  0  0  0  0  0  0
  144.0576  133.5364  149.5431 H   0  0  0  0  0  0  0  0  0  0  0  0
  144.3892  132.0555  150.4380 H   0  0  0  0  0  0  0  0  0  0  0  0
  144.6963  135.0840  153.7911 H   0  0  0  0  0  0  0  0  0  0  0  0
  146.2037  136.9482  153.3553 H   0  0  0  0  0  0  0  0  0  0  0  0
  145.0153  136.8446  152.0633 H   0  0  0  0  0  0  0  0  0  0  0  0
  146.6690  136.2956  151.7950 H   0  0  0  0  0  0  0  0  0  0  0  0
  146.2058  133.2847  154.2030 H   0  0  0  0  0  0  0  0  0  0  0  0
  147.0934  134.7852  154.3700 H   0  0  0  0  0  0  0  0  0  0  0  0
  147.9605  134.4421  152.1734 H   0  0  0  0  0  0  0  0  0  0  0  0
  1  2  1  0  0  0  0
  1 22  1  0  0  0  0
  1 23  1  0  0  0  0
  1 24  1  0  0  0  0
  2 21  1  0  0  0  0
  2  3  2  0  0  0  0
  3  4  1  0  0  0  0
  3 25  1  0  0  0  0
  4  5  1  0  0  0  0
  4 20  2  0  0  0  0
  5  6  1  0  0  0  0
  5 26  1  0  0  0  0
  6  7  2  0  0  0  0
  6  8  1  0  0  0  0
  8  9  1  0  0  0  0
  8 27  1  0  0  0  0
  9 10  1  0  0  0  0
  9 28  1  0  0  0  0
  9 29  1  0  0  0  0
 10 11  1  0  0  0  0
 10 12  1  0  0  0  0
 10 30  1  0  0  0  0
 11 31  1  0  0  0  0
 11 32  1  0  0  0  0
 11 33  1  0  0  0  0
 12 19  1  0  0  0  0
 12 13  1  0  0  0  0
 12 46  1  0  0  0  0
 13 14  1  0  0  0  0
 13 34  1  0  0  0  0
 13 35  1  0  0  0  0
 14 15  1  0  0  0  0
 14 16  1  0  0  0  0
 14 36  1  0  0  0  0
 15 37  1  0  0  0  0
 15 38  1  0  0  0  0
 15 39  1  0  0  0  0
 16 17  1  0  0  0  0
 17 18  1  0  0  0  0
 17 19  1  0  0  0  0
 17 40  1  0  0  0  0
 18 41  1  0  0  0  0
 18 42  1  0  0  0  0
 18 43  1  0  0  0  0
 19 44  1  0  0  0  0
 19 45  1  0  0  0  0
 20 21  1  0  0  0  0
M  CHG  1  12   1
M  END
> <s_m_source_file>
AV-unprocessed.smi

> <i_m_source_file_index>
2061

> <i_lp_mmshare_version>
43012

> <i_f3d_flags>
0

> <s_epik_input>
W0NIM11jMVtjSF1jKG5vMSlbTkhdQyg9TylbTkhdW0NIMl1bQ0BIXShbQ0gzXSlOMltDSDJdW0NAQEhdKFtDSDNdKU9bQ0BASF0oW0NIM10pW0NIMl0y

> <s_epik_cmdline>
J2VwaWtfcHl0aG9uJywgJy1waCcsICc3LjAnLCAnLXRuJywgJzgnLCAnLW1hJywgJzIwMCcsICctbWV0YWxfYmluZGluZycsICctaW1hZScsICc8aW5maWxlLm1hZT4nLCAnLW9tYWUnLCAnPG91dGZpbGUubWFlPic=

> <r_epik_Ionization_Penalty>
0.707076

> <r_epik_Ionization_Penalty_Charging>
0.707039

> <r_epik_Ionization_Penalty_Neutral>
3.6548e-05

> <r_epik_State_Penalty>
0.730276

> <r_epik_Charging_Adjusted_Penalty>
1.43732

> <i_epik_Tot_Q>
1

> <i_epik_Tot_abs_Q>
1

> <r_epik_Metal_State_Penalty>
0.743132

> <b_epik_Metal_Only>
0

> <s_lp_Force_Field>
OPLS_2005

> <r_lp_Energy>
23.7206

> <b_lp_Chiralities_Consistent>
1

> <s_lp_Variant>
AV-unprocessed.smi:2061-12

> <Gold.Version>
5.8.1

> <Gold.Id.Protein>
6NUR|6NUR_protein|mol2

> <Gold.PLP.Fitness>
41.0407

> <Gold.PLP.PLP>
-30.6136

> <Gold.PLP.part.hbond>
-5.6699

> <Gold.PLP.part.metal>
0.0000

> <Gold.PLP.part.buried>
-2.2212

> <Gold.PLP.part.nonpolar>
-23.2483

> <Gold.PLP.part.repulsive>
0.4211

> <Gold.PLP.ligand.clash>
0.0000

> <Gold.PLP.ligand.torsion>
0.1915

> <Gold.PLP.Chemscore.Hbond>
3.5892

> <Gold.PLP.Chemscore.CHOScore>
0.0000

> <Gold.PLP.Chemscore.Metal>
0.0000

> <Gold.Chemscore.Hbonds>
donor molecule, donor type, donor heavy atom, donor atom, acceptor molecule, acceptor atom, score
      L1  H     5    26       P1  7948  0.87
      L1  H     8    27       P1  7948  0.65
      L1  H    12    46       P1  7948  1.90

> <Gold.PLP.Chemscore.Internal.Correction>
0.0425

> <Gold.Rescore>
     Score         DG    S(hbond)    S(metal)    S(lipo)     H(rot)  DE(clash)    DE(int)     intcor
     13.78     -15.27       2.06        0.00      59.46       1.58       0.09       1.41       ----

> <Gold.Chemscore.Fitness>
13.7752

> <Gold.Chemscore.DG>
-15.2659

> <Gold.Chemscore.ZeroCoef>
-5.4800

> <Gold.Chemscore.Hbond>
2.0607

> <Gold.Chemscore.Metal>
0.0000

> <Gold.Chemscore.Lipo>
59.4595

> <Gold.Chemscore.Internal_Hbond>
0.0000

> <Gold.Chemscore.DEClash>
0.0856

> <Gold.Chemscore.DEInternal>
1.4051

> <Gold.Chemscore.Rot>
1.5834

> <Gold.Chemscore.Internal.Correction>
   9.000000E+99

> <Gold.Chemscore.Hbonds>
donor molecule, donor type, donor heavy atom, donor atom, acceptor molecule, acceptor atom, score
      L1  H     5    26       P1  7948  0.40
      L1  H     8    27       P1  7948  0.05
      L1  H    12    46       P1  7948  0.20

> <Gold.Chemscore.Hbond.Weighted>
-6.8826

> <Gold.Chemscore.Metal.Weighted>
-0.0000

> <Gold.Chemscore.Lipo.Weighted>
-6.9568

> <Gold.Chemscore.Internal_Hbond.Weighted>
0.0000

> <Gold.Chemscore.DEClash.Weighted>
0.0856

> <Gold.Chemscore.DEInternal.Weighted>
1.4051

> <Gold.Chemscore.Rot.Weighted>
4.0535

> <Gold.Chemscore.Internal.Correction.Weighted>
   9.000000E+99

> <Gold.Protein.RotatedTorsions>
[ 6907 6896 6895 6894 ] final  143.23 input  -60.11 | X-H torsion
[ 7974 7965 7964 7962 ] final   84.51 input  175.53 | X-H torsion
[ 8008 7997 7996 7995 ] final  137.42 input   59.86 | X-H torsion
[ 10167 10162 10161 10158 ] final -136.71 input  -65.29 | X-H torsion
[ 10718 10713 10712 10709 ] final  -16.31 input   66.30 | X-H torsion
[ 10763 10752 10751 10750 ] final  -45.42 input  -60.55 | X-H torsion
[ 11005 11000 10999 10996 ] final  140.95 input  -57.11 | X-H torsion

> <Gold.Protein.ActiveResidues>
 VAL166  LYS551  ARG553  GLY616  TRP617  ASP618  TYR619  PRO620  LYS621  CYS622 
 ASP623  PHE694  ASN695  SER759  ASP760  ASP761  ALA762  ILE779  LEU786  VAL792 
 PHE793  MET794  SER795  GLU796  ALA797  LYS798  CYS799  TRP800  GLU811  SER814 

> <Gold.Protein.RotatedAtoms>
  152.2089  133.4896  159.5099 H   0  0  0  0  0  0  0  0  0  0  0  0  # atno 6907 bound_to 6896
  150.6986  134.1493  159.4143 H   0  0  0  0  0  0  0  0  0  0  0  0  # atno 6908 bound_to 6896
  151.9412  135.0212  160.0586 H   0  0  0  0  0  0  0  0  0  0  0  0  # atno 6909 bound_to 6896
  145.5977  139.2347  143.2263 H   0  0  0  0  0  0  0  0  0  0  0  0  # atno 7974 bound_to 7965
  156.3002  140.2420  156.3907 H   0  0  0  0  0  0  0  0  0  0  0  0  # atno 8008 bound_to 7997
  154.8617  140.0419  157.1689 H   0  0  0  0  0  0  0  0  0  0  0  0  # atno 8009 bound_to 7997
  154.8890  140.2960  155.5385 H   0  0  0  0  0  0  0  0  0  0  0  0  # atno 8010 bound_to 7997
  139.8651  143.7028  152.2646 H   0  0  0  0  0  0  0  0  0  0  0  0  # atno 10167 bound_to 10162
  156.5894  130.4795  149.6286 H   0  0  0  0  0  0  0  0  0  0  0  0  # atno 10718 bound_to 10713
  154.0282  135.6660  153.4778 H   0  0  0  0  0  0  0  0  0  0  0  0  # atno 10763 bound_to 10752
  153.0551  135.5061  154.7958 H   0  0  0  0  0  0  0  0  0  0  0  0  # atno 10764 bound_to 10752
  154.6895  135.3059  154.9465 H   0  0  0  0  0  0  0  0  0  0  0  0  # atno 10765 bound_to 10752
  140.0365  134.9326  157.0763 H   0  0  0  0  0  0  0  0  0  0  0  0  # atno 11005 bound_to 11000
  146.1599  140.6803  142.9282 LP  0  0  0  0  0  0  0  0  0  0  0  0  # atno 17320 bound_to 7965
  144.7323  140.4708  143.6929 LP  0  0  0  0  0  0  0  0  0  0  0  0  # atno 17321 bound_to 7965
  139.7337  144.7576  151.0762 LP  0  0  0  0  0  0  0  0  0  0  0  0  # atno 17342 bound_to 10162
  140.7769  143.5057  150.9715 LP  0  0  0  0  0  0  0  0  0  0  0  0  # atno 17343 bound_to 10162
  156.2563  130.6936  151.1690 LP  0  0  0  0  0  0  0  0  0  0  0  0  # atno 17370 bound_to 10713
  157.7307  131.0614  150.5712 LP  0  0  0  0  0  0  0  0  0  0  0  0  # atno 17371 bound_to 10713
  140.4138  134.1953  155.7163 LP  0  0  0  0  0  0  0  0  0  0  0  0  # atno 17394 bound_to 11000
  141.1860  133.8311  157.1083 LP  0  0  0  0  0  0  0  0  0  0  0  0  # atno 17395 bound_to 11000

$$$$
