AV-unprocessed.smi:1793|AV-procd|sdf|7228|dock6
  -GOLD-   22720 8473D 1   1.00000     0.00000
 Structure written by MMmdl.
 47 49  0  0  0  0  0  0  0  0  2 V2000
  152.5196  137.1700  154.4307 C   0  0  0  0  0  0  0  0  0  0  0  0
  151.1067  137.2491  155.0345 C   0  0  2  0  0  0  0  0  0  0  0  0
  150.2715  136.1904  154.4735 N   0  0  0  0  0  0  0  0  0  0  0  0
  149.8501  135.1024  155.1324 C   0  0  0  0  0  0  0  0  0  0  0  0
  150.1540  134.8480  156.2977 O   0  0  0  0  0  0  0  0  0  0  0  0
  149.0457  134.3517  154.3619 N   0  0  0  0  0  0  0  0  0  0  0  0
  148.3541  133.1591  154.7165 C   0  0  0  0  0  0  0  0  0  0  0  0
  148.7389  132.3952  155.8484 C   0  0  0  0  0  0  0  0  0  0  0  0
  148.0227  131.2325  156.1889 C   0  0  0  0  0  0  0  0  0  0  0  0
  146.9334  130.8467  155.3895 C   0  0  0  0  0  0  0  0  0  0  0  0
  146.6051  131.5822  154.3075 N   0  3  0  0  0  0  0  0  0  0  0  0
  147.2641  132.7026  153.9190 C   0  0  0  0  0  0  0  0  0  0  0  0
  146.8099  133.3620  152.7537 N   0  0  0  0  0  0  0  0  0  0  0  0
  146.2796  134.7184  152.8307 C   0  0  0  0  0  0  0  0  0  0  0  0
  145.5901  134.9510  151.4892 C   0  0  0  0  0  0  0  0  0  0  0  0
  145.0291  133.5699  151.1643 C   0  0  0  0  0  0  0  0  0  0  0  0
  146.0706  132.6080  151.7461 C   0  0  0  0  0  0  0  0  0  0  0  0
  150.4343  138.6098  154.7704 C   0  0  2  0  0  0  0  0  0  0  0  0
  150.2590  138.9635  153.2907 C   0  0  0  0  0  0  0  0  0  0  0  0
  150.3290  140.4842  153.2597 C   0  0  0  0  0  0  0  0  0  0  0  0
  150.7412  140.8704  154.6809 C   0  0  0  0  0  0  0  0  0  0  0  0
  151.2523  139.6712  155.2406 O   0  0  0  0  0  0  0  0  0  0  0  0
  153.1760  137.9290  154.8568 H   0  0  0  0  0  0  0  0  0  0  0  0
  152.4985  137.3172  153.3505 H   0  0  0  0  0  0  0  0  0  0  0  0
  152.9791  136.2004  154.6257 H   0  0  0  0  0  0  0  0  0  0  0  0
  151.1802  137.1098  156.1148 H   0  0  0  0  0  0  0  0  0  0  0  0
  149.9665  136.3180  153.5198 H   0  0  0  0  0  0  0  0  0  0  0  0
  148.8120  134.7394  153.4598 H   0  0  0  0  0  0  0  0  0  0  0  0
  149.5800  132.6816  156.4616 H   0  0  0  0  0  0  0  0  0  0  0  0
  148.3049  130.6477  157.0523 H   0  0  0  0  0  0  0  0  0  0  0  0
  146.3239  129.9740  155.5750 H   0  0  0  0  0  0  0  0  0  0  0  0
  145.5482  134.7966  153.6362 H   0  0  0  0  0  0  0  0  0  0  0  0
  147.0712  135.4466  153.0106 H   0  0  0  0  0  0  0  0  0  0  0  0
  144.8238  135.7252  151.5330 H   0  0  0  0  0  0  0  0  0  0  0  0
  146.3244  135.2404  150.7358 H   0  0  0  0  0  0  0  0  0  0  0  0
  144.0758  133.4333  151.6769 H   0  0  0  0  0  0  0  0  0  0  0  0
  144.8614  133.4184  150.0976 H   0  0  0  0  0  0  0  0  0  0  0  0
  146.7641  132.2949  150.9652 H   0  0  0  0  0  0  0  0  0  0  0  0
  145.5984  131.7166  152.1617 H   0  0  0  0  0  0  0  0  0  0  0  0
  149.4695  138.6630  155.2790 H   0  0  0  0  0  0  0  0  0  0  0  0
  151.0777  138.5512  152.6991 H   0  0  0  0  0  0  0  0  0  0  0  0
  149.3250  138.5771  152.8818 H   0  0  0  0  0  0  0  0  0  0  0  0
  151.0720  140.8143  152.5328 H   0  0  0  0  0  0  0  0  0  0  0  0
  149.3732  140.9352  152.9908 H   0  0  0  0  0  0  0  0  0  0  0  0
  151.4835  141.6686  154.7023 H   0  0  0  0  0  0  0  0  0  0  0  0
  149.8742  141.1949  155.2583 H   0  0  0  0  0  0  0  0  0  0  0  0
  145.8155  131.2710  153.7417 H   0  0  0  0  0  0  0  0  0  0  0  0
  1  2  1  0  0  0  0
  1 23  1  0  0  0  0
  1 24  1  0  0  0  0
  1 25  1  0  0  0  0
  2  3  1  0  0  0  0
  2 18  1  0  0  0  0
  2 26  1  0  0  0  0
  3  4  1  0  0  0  0
  3 27  1  0  0  0  0
  4  5  2  0  0  0  0
  4  6  1  0  0  0  0
  6  7  1  0  0  0  0
  6 28  1  0  0  0  0
  7 12  1  0  0  0  0
  7  8  2  0  0  0  0
  8  9  1  0  0  0  0
  8 29  1  0  0  0  0
  9 10  2  0  0  0  0
  9 30  1  0  0  0  0
 10 11  1  0  0  0  0
 10 31  1  0  0  0  0
 11 12  2  0  0  0  0
 11 47  1  0  0  0  0
 12 13  1  0  0  0  0
 13 17  1  0  0  0  0
 13 14  1  0  0  0  0
 14 15  1  0  0  0  0
 14 32  1  0  0  0  0
 14 33  1  0  0  0  0
 15 16  1  0  0  0  0
 15 34  1  0  0  0  0
 15 35  1  0  0  0  0
 16 17  1  0  0  0  0
 16 36  1  0  0  0  0
 16 37  1  0  0  0  0
 17 38  1  0  0  0  0
 17 39  1  0  0  0  0
 18 22  1  0  0  0  0
 18 19  1  0  0  0  0
 18 40  1  0  0  0  0
 19 20  1  0  0  0  0
 19 41  1  0  0  0  0
 19 42  1  0  0  0  0
 20 21  1  0  0  0  0
 20 43  1  0  0  0  0
 20 44  1  0  0  0  0
 21 22  1  0  0  0  0
 21 45  1  0  0  0  0
 21 46  1  0  0  0  0
M  CHG  1  11   1
M  END
> <s_m_source_file>
AV-unprocessed.smi

> <i_m_source_file_index>
1793

> <i_lp_mmshare_version>
43012

> <i_f3d_flags>
0

> <s_epik_input>
TzFbQ0gyXVtDSDJdW0NIMl1bQ0BIXTFbQ0BIXShbQ0gzXSlbTkhdQyg9TylbTkhdYzJbY0hdW2NIXVtjSF1uYzJOM1tDSDJdW0NIMl1bQ0gyXVtDSDJdMw==

> <s_epik_cmdline>
J2VwaWtfcHl0aG9uJywgJy1waCcsICc3LjAnLCAnLXRuJywgJzgnLCAnLW1hJywgJzIwMCcsICctbWV0YWxfYmluZGluZycsICctaW1hZScsICc8aW5maWxlLm1hZT4nLCAnLW9tYWUnLCAnPG91dGZpbGUubWFlPic=

> <r_lp_tautomer_probability>
0.999994

> <r_epik_Ionization_Penalty>
1.11092

> <r_epik_Ionization_Penalty_Charging>
1.1109

> <r_epik_Ionization_Penalty_Neutral>
1.9363e-05

> <r_epik_State_Penalty>
1.16888

> <r_epik_Charging_Adjusted_Penalty>
2.27978

> <i_epik_Tot_Q>
1

> <i_epik_Tot_abs_Q>
1

> <r_epik_Metal_State_Penalty>
1.25472

> <b_epik_Metal_Only>
0

> <s_lp_Force_Field>
OPLS_2005

> <r_lp_Energy>
52.5047

> <b_lp_Chiralities_Consistent>
1

> <s_lp_Variant>
AV-unprocessed.smi:1793-5

> <Gold.Version>
5.8.1

> <Gold.Id.Protein>
6NUR|6NUR_protein|mol2

> <Gold.PLP.Fitness>
42.0640

> <Gold.PLP.PLP>
-36.6138

> <Gold.PLP.part.hbond>
-3.7449

> <Gold.PLP.part.metal>
0.0000

> <Gold.PLP.part.buried>
-2.2917

> <Gold.PLP.part.nonpolar>
-31.5178

> <Gold.PLP.part.repulsive>
0.3259

> <Gold.PLP.ligand.clash>
0.0000

> <Gold.PLP.ligand.torsion>
0.5190

> <Gold.PLP.Chemscore.Hbond>
2.0171

> <Gold.PLP.Chemscore.CHOScore>
0.0000

> <Gold.PLP.Chemscore.Metal>
0.0000

> <Gold.Chemscore.Hbonds>
donor molecule, donor type, donor heavy atom, donor atom, acceptor molecule, acceptor atom, score
      L1  H     3    27       P1  7948  0.75
      L1  H     6    28       P1  7948  0.70

> <Gold.PLP.Chemscore.Internal.Correction>
0.4367

> <Gold.Rescore>
     Score         DG    S(hbond)    S(metal)    S(lipo)     H(rot)  DE(clash)    DE(int)     intcor
     12.32     -14.34       0.89        0.00      80.49       1.38       0.20       1.82       ----

> <Gold.Chemscore.Fitness>
12.3197

> <Gold.Chemscore.DG>
-14.3430

> <Gold.Chemscore.ZeroCoef>
-5.4800

> <Gold.Chemscore.Hbond>
0.8918

> <Gold.Chemscore.Metal>
0.0000

> <Gold.Chemscore.Lipo>
80.4920

> <Gold.Chemscore.Internal_Hbond>
0.0000

> <Gold.Chemscore.DEClash>
0.1990

> <Gold.Chemscore.DEInternal>
1.8243

> <Gold.Chemscore.Rot>
1.3802

> <Gold.Chemscore.Internal.Correction>
   9.000000E+99

> <Gold.Chemscore.Hbonds>
donor molecule, donor type, donor heavy atom, donor atom, acceptor molecule, acceptor atom, score
      L1  H     3    27       P1  7948  0.09
      L1  H     6    28       P1  7948  0.23

> <Gold.Chemscore.Hbond.Weighted>
-2.9787

> <Gold.Chemscore.Metal.Weighted>
-0.0000

> <Gold.Chemscore.Lipo.Weighted>
-9.4176

> <Gold.Chemscore.Internal_Hbond.Weighted>
0.0000

> <Gold.Chemscore.DEClash.Weighted>
0.1990

> <Gold.Chemscore.DEInternal.Weighted>
1.8243

> <Gold.Chemscore.Rot.Weighted>
3.5332

> <Gold.Chemscore.Internal.Correction.Weighted>
   9.000000E+99

> <Gold.Protein.RotatedTorsions>
[ 6907 6896 6895 6894 ] final   20.86 input  -60.11 | X-H torsion
[ 7974 7965 7964 7962 ] final -113.50 input  175.53 | X-H torsion
[ 8008 7997 7996 7995 ] final   41.55 input   59.86 | X-H torsion
[ 10167 10162 10161 10158 ] final  -77.10 input  -65.29 | X-H torsion
[ 10718 10713 10712 10709 ] final   12.69 input   66.30 | X-H torsion
[ 10763 10752 10751 10750 ] final  -42.74 input  -60.55 | X-H torsion
[ 11005 11000 10999 10996 ] final  116.12 input  -57.11 | X-H torsion

> <Gold.Protein.ActiveResidues>
 VAL166  LYS551  ARG553  GLY616  TRP617  ASP618  TYR619  PRO620  LYS621  CYS622 
 ASP623  PHE694  ASN695  SER759  ASP760  ASP761  ALA762  ILE779  LEU786  VAL792 
 PHE793  MET794  SER795  GLU796  ALA797  LYS798  CYS799  TRP800  GLU811  SER814 

> <Gold.Protein.RotatedAtoms>
  151.9030  135.0370  160.0507 H   0  0  0  0  0  0  0  0  0  0  0  0  # atno 6907 bound_to 6896
  152.2343  133.5079  159.5242 H   0  0  0  0  0  0  0  0  0  0  0  0  # atno 6908 bound_to 6896
  150.7034  134.1091  159.4036 H   0  0  0  0  0  0  0  0  0  0  0  0  # atno 6909 bound_to 6896
  145.1313  140.8726  143.3756 H   0  0  0  0  0  0  0  0  0  0  0  0  # atno 7974 bound_to 7965
  155.2715  140.3366  155.4265 H   0  0  0  0  0  0  0  0  0  0  0  0  # atno 8008 bound_to 7997
  156.2130  140.1777  156.7693 H   0  0  0  0  0  0  0  0  0  0  0  0  # atno 8009 bound_to 7997
  154.5713  140.0669  156.8953 H   0  0  0  0  0  0  0  0  0  0  0  0  # atno 8010 bound_to 7997
  140.4799  143.2405  151.8073 H   0  0  0  0  0  0  0  0  0  0  0  0  # atno 10167 bound_to 10162
  157.0138  130.6127  149.5711 H   0  0  0  0  0  0  0  0  0  0  0  0  # atno 10718 bound_to 10713
  153.9840  135.6713  153.4751 H   0  0  0  0  0  0  0  0  0  0  0  0  # atno 10763 bound_to 10752
  153.0735  135.4961  154.8352 H   0  0  0  0  0  0  0  0  0  0  0  0  # atno 10764 bound_to 10752
  154.7148  135.3104  154.9103 H   0  0  0  0  0  0  0  0  0  0  0  0  # atno 10765 bound_to 10752
  139.9031  134.9593  156.7150 H   0  0  0  0  0  0  0  0  0  0  0  0  # atno 11005 bound_to 11000
  145.0632  139.3089  143.5870 LP  0  0  0  0  0  0  0  0  0  0  0  0  # atno 17320 bound_to 7965
  146.3513  140.0081  142.8669 LP  0  0  0  0  0  0  0  0  0  0  0  0  # atno 17321 bound_to 7965
  139.4832  144.4785  151.9336 LP  0  0  0  0  0  0  0  0  0  0  0  0  # atno 17342 bound_to 10162
  140.3870  144.2663  150.5903 LP  0  0  0  0  0  0  0  0  0  0  0  0  # atno 17343 bound_to 10162
  156.0126  130.5219  150.8037 LP  0  0  0  0  0  0  0  0  0  0  0  0  # atno 17370 bound_to 10713
  157.5301  131.0936  150.9966 LP  0  0  0  0  0  0  0  0  0  0  0  0  # atno 17371 bound_to 10713
  140.7046  133.9276  155.8045 LP  0  0  0  0  0  0  0  0  0  0  0  0  # atno 17394 bound_to 11000
  141.0346  134.0707  157.3974 LP  0  0  0  0  0  0  0  0  0  0  0  0  # atno 17395 bound_to 11000

$$$$
