AV-unprocessed.smi:498|AV-procd|sdf|2728|dock7
  -GOLD-   2262023173D 1   1.00000     0.00000
 Structure written by MMmdl.
 42 44  0  0  0  0  0  0  0  0  1 V2000
  152.4049  138.4909  154.5349 C   0  0  0  0  0  0  0  0  0  0  0  0
  151.7713  139.5466  155.4432 C   0  0  0  0  0  0  0  0  0  0  0  0
  150.7336  140.1962  154.7304 O   0  0  0  0  0  0  0  0  0  0  0  0
  150.0947  141.2089  155.4905 C   0  0  0  0  0  0  0  0  0  0  0  0
  149.4853  140.5977  156.7597 C   0  0  0  0  0  0  0  0  0  0  0  0
  150.4932  140.3013  157.7690 N   0  0  0  0  0  0  0  0  0  0  0  0
  150.7903  139.1107  158.3523 C   0  0  0  0  0  0  0  0  0  0  0  0
  150.0644  137.8346  158.0261 C   0  0  0  0  0  0  0  0  0  0  0  0
  149.2729  137.4396  159.1877 N   0  0  0  0  0  0  0  0  0  0  0  0
  148.7202  136.2336  159.3907 C   0  0  0  0  0  0  0  0  0  0  0  0
  148.8789  135.2744  158.6367 O   0  0  0  0  0  0  0  0  0  0  0  0
  147.8921  136.1048  160.6044 C   0  0  0  0  0  0  0  0  0  0  0  0
  147.3817  135.0044  161.2420 C   0  0  0  0  0  0  0  0  0  0  0  0
  146.6709  135.4843  162.3766 C   0  0  0  0  0  0  0  0  0  0  0  0
  146.7990  136.8432  162.3528 C   0  0  0  0  0  0  0  0  0  0  0  0
  147.5414  137.2363  161.2824 O   0  0  0  0  0  0  0  0  0  0  0  0
  151.7892  139.1377  159.2384 N   0  0  0  0  0  0  0  0  0  0  0  0
  152.1564  140.4679  159.2490 C   0  0  0  0  0  0  0  0  0  0  0  0
  153.1536  141.1389  159.9924 C   0  0  0  0  0  0  0  0  0  0  0  0
  153.3475  142.5270  159.8363 C   0  0  0  0  0  0  0  0  0  0  0  0
  152.5482  143.2620  158.9371 C   0  0  0  0  0  0  0  0  0  0  0  0
  151.5508  142.6117  158.1855 C   0  0  0  0  0  0  0  0  0  0  0  0
  151.3623  141.2251  158.3432 C   0  0  0  0  0  0  0  0  0  0  0  0
  153.2115  137.9681  155.0492 H   0  0  0  0  0  0  0  0  0  0  0  0
  152.8200  138.9467  153.6356 H   0  0  0  0  0  0  0  0  0  0  0  0
  151.6682  137.7487  154.2259 H   0  0  0  0  0  0  0  0  0  0  0  0
  151.3719  139.0716  156.3407 H   0  0  0  0  0  0  0  0  0  0  0  0
  152.5239  140.2714  155.7571 H   0  0  0  0  0  0  0  0  0  0  0  0
  150.8143  141.9795  155.7615 H   0  0  0  0  0  0  0  0  0  0  0  0
  149.3173  141.6900  154.8957 H   0  0  0  0  0  0  0  0  0  0  0  0
  148.7257  141.2542  157.1838 H   0  0  0  0  0  0  0  0  0  0  0  0
  148.9698  139.6713  156.5055 H   0  0  0  0  0  0  0  0  0  0  0  0
  149.4450  137.9332  157.1355 H   0  0  0  0  0  0  0  0  0  0  0  0
  150.7985  137.0563  157.8174 H   0  0  0  0  0  0  0  0  0  0  0  0
  149.0830  138.1619  159.8671 H   0  0  0  0  0  0  0  0  0  0  0  0
  147.5055  133.9770  160.9328 H   0  0  0  0  0  0  0  0  0  0  0  0
  146.1355  134.9087  163.1171 H   0  0  0  0  0  0  0  0  0  0  0  0
  146.4461  137.6422  162.9882 H   0  0  0  0  0  0  0  0  0  0  0  0
  153.7696  140.5850  160.6852 H   0  0  0  0  0  0  0  0  0  0  0  0
  154.1119  143.0299  160.4102 H   0  0  0  0  0  0  0  0  0  0  0  0
  152.7009  144.3255  158.8241 H   0  0  0  0  0  0  0  0  0  0  0  0
  150.9357  143.1736  157.4987 H   0  0  0  0  0  0  0  0  0  0  0  0
  1  2  1  0  0  0  0
  1 24  1  0  0  0  0
  1 25  1  0  0  0  0
  1 26  1  0  0  0  0
  2  3  1  0  0  0  0
  2 27  1  0  0  0  0
  2 28  1  0  0  0  0
  3  4  1  0  0  0  0
  4  5  1  0  0  0  0
  4 29  1  0  0  0  0
  4 30  1  0  0  0  0
  5  6  1  0  0  0  0
  5 31  1  0  0  0  0
  5 32  1  0  0  0  0
  6 23  1  0  0  0  0
  6  7  1  0  0  0  0
  7  8  1  0  0  0  0
  7 17  2  0  0  0  0
  8  9  1  0  0  0  0
  8 33  1  0  0  0  0
  8 34  1  0  0  0  0
  9 10  1  0  0  0  0
  9 35  1  0  0  0  0
 10 11  2  0  0  0  0
 10 12  1  0  0  0  0
 12 16  1  0  0  0  0
 12 13  2  0  0  0  0
 13 14  1  0  0  0  0
 13 36  1  0  0  0  0
 14 15  2  0  0  0  0
 14 37  1  0  0  0  0
 15 16  1  0  0  0  0
 15 38  1  0  0  0  0
 17 18  1  0  0  0  0
 18 23  2  0  0  0  0
 18 19  1  0  0  0  0
 19 20  2  0  0  0  0
 19 39  1  0  0  0  0
 20 21  1  0  0  0  0
 20 40  1  0  0  0  0
 21 22  2  0  0  0  0
 21 41  1  0  0  0  0
 22 23  1  0  0  0  0
 22 42  1  0  0  0  0
M  END
> <s_m_source_file>
AV-unprocessed.smi

> <i_m_source_file_index>
498

> <i_lp_mmshare_version>
43012

> <i_f3d_flags>
0

> <s_epik_input>
W0NIM11bQ0gyXU9bQ0gyXVtDSDJdbihjKGMxMilbY0hdW2NIXVtjSF1bY0hdMiljKG4xKVtDSDJdW05IXUMoPU8pYzNbY0hdW2NIXVtjSF1vMw==

> <s_epik_cmdline>
J2VwaWtfcHl0aG9uJywgJy1waCcsICc3LjAnLCAnLXRuJywgJzgnLCAnLW1hJywgJzIwMCcsICctbWV0YWxfYmluZGluZycsICctaW1hZScsICc8aW5maWxlLm1hZT4nLCAnLW9tYWUnLCAnPG91dGZpbGUubWFlPic=

> <r_epik_Ionization_Penalty>
0.0701438

> <r_epik_Ionization_Penalty_Charging>
0

> <r_epik_Ionization_Penalty_Neutral>
0.0701438

> <r_epik_State_Penalty>
0.061475

> <r_epik_Charging_Adjusted_Penalty>
0.061475

> <i_epik_Tot_Q>
0

> <i_epik_Tot_abs_Q>
0

> <r_epik_Metal_State_Penalty>
0.0666689

> <b_epik_Metal_Only>
0

> <s_lp_Force_Field>
OPLS_2005

> <r_lp_Energy>
6.14226

> <b_lp_Chiralities_Consistent>
1

> <s_lp_Variant>
AV-unprocessed.smi:498-1

> <Gold.Version>
5.8.1

> <Gold.Id.Protein>
6NUR|6NUR_protein|mol2

> <Gold.PLP.Fitness>
60.9449

> <Gold.PLP.PLP>
-50.1488

> <Gold.PLP.part.hbond>
-4.0000

> <Gold.PLP.part.metal>
0.0000

> <Gold.PLP.part.buried>
-6.9717

> <Gold.PLP.part.nonpolar>
-40.6652

> <Gold.PLP.part.repulsive>
0.3026

> <Gold.PLP.ligand.clash>
0.0000

> <Gold.PLP.ligand.torsion>
0.3035

> <Gold.PLP.Chemscore.Hbond>
3.7840

> <Gold.PLP.Chemscore.CHOScore>
0.0000

> <Gold.PLP.Chemscore.Metal>
0.0000

> <Gold.Chemscore.Hbonds>
donor molecule, donor type, donor heavy atom, donor atom, acceptor molecule, acceptor atom, score
      P1  H  6896  6907       L1    11  0.65
      P1  H  6931  6943       L1    16  0.90
      P1  H  6934  6947       L1    16  0.90
      P1  H  7989  7998       L1     3  1.00

> <Gold.PLP.Chemscore.Internal.Correction>
0.0510

> <Gold.Rescore>
     Score         DG    S(hbond)    S(metal)    S(lipo)     H(rot)  DE(clash)    DE(int)     intcor
     22.04     -23.89       2.82        0.00     120.16       1.98       0.17       1.68       ----

> <Gold.Chemscore.Fitness>
22.0384

> <Gold.Chemscore.DG>
-23.8878

> <Gold.Chemscore.ZeroCoef>
-5.4800

> <Gold.Chemscore.Hbond>
2.8208

> <Gold.Chemscore.Metal>
0.0000

> <Gold.Chemscore.Lipo>
120.1569

> <Gold.Chemscore.Internal_Hbond>
0.0000

> <Gold.Chemscore.DEClash>
0.1687

> <Gold.Chemscore.DEInternal>
1.6807

> <Gold.Chemscore.Rot>
1.9813

> <Gold.Chemscore.Internal.Correction>
   9.000000E+99

> <Gold.Chemscore.Hbonds>
donor molecule, donor type, donor heavy atom, donor atom, acceptor molecule, acceptor atom, score
      P1  H  6896  6907       L1    11  0.29
      P1  H  6931  6943       L1    16  0.54
      P1  H  6934  6947       L1    16  0.62
      P1  H  7989  7998       L1     3  0.19

> <Gold.Chemscore.Hbond.Weighted>
-9.4215

> <Gold.Chemscore.Metal.Weighted>
-0.0000

> <Gold.Chemscore.Lipo.Weighted>
-14.0584

> <Gold.Chemscore.Internal_Hbond.Weighted>
0.0000

> <Gold.Chemscore.DEClash.Weighted>
0.1687

> <Gold.Chemscore.DEInternal.Weighted>
1.6807

> <Gold.Chemscore.Rot.Weighted>
5.0720

> <Gold.Chemscore.Internal.Correction.Weighted>
   9.000000E+99

> <Gold.Protein.RotatedTorsions>
[ 6907 6896 6895 6894 ] final  -91.28 input  -60.11 | X-H torsion
[ 7974 7965 7964 7962 ] final  166.23 input  175.53 | X-H torsion
[ 8008 7997 7996 7995 ] final   35.23 input   59.86 | X-H torsion
[ 10167 10162 10161 10158 ] final   90.46 input  -65.29 | X-H torsion
[ 10718 10713 10712 10709 ] final  -53.27 input   66.30 | X-H torsion
[ 10763 10752 10751 10750 ] final  161.98 input  -60.55 | X-H torsion
[ 11005 11000 10999 10996 ] final   44.49 input  -57.11 | X-H torsion

> <Gold.Protein.ActiveResidues>
 VAL166  LYS551  ARG553  GLY616  TRP617  ASP618  TYR619  PRO620  LYS621  CYS622 
 ASP623  PHE694  ASN695  SER759  ASP760  ASP761  ALA762  ILE779  LEU786  VAL792 
 PHE793  MET794  SER795  GLU796  ALA797  LYS798  CYS799  TRP800  GLU811  SER814 

> <Gold.Protein.RotatedAtoms>
  150.6891  134.2302  159.4431 H   0  0  0  0  0  0  0  0  0  0  0  0  # atno 6907 bound_to 6896
  152.0253  134.9797  160.0581 H   0  0  0  0  0  0  0  0  0  0  0  0  # atno 6908 bound_to 6896
  152.1358  133.4399  159.4779 H   0  0  0  0  0  0  0  0  0  0  0  0  # atno 6909 bound_to 6896
  144.7470  139.8586  143.6379 H   0  0  0  0  0  0  0  0  0  0  0  0  # atno 7974 bound_to 7965
  155.1676  140.3289  155.4399 H   0  0  0  0  0  0  0  0  0  0  0  0  # atno 8008 bound_to 7997
  156.2521  140.1949  156.6731 H   0  0  0  0  0  0  0  0  0  0  0  0  # atno 8009 bound_to 7997
  154.6360  140.0576  156.9775 H   0  0  0  0  0  0  0  0  0  0  0  0  # atno 8010 bound_to 7997
  139.8471  144.6612  150.9214 H   0  0  0  0  0  0  0  0  0  0  0  0  # atno 10167 bound_to 10162
  156.1550  130.4150  149.9884 H   0  0  0  0  0  0  0  0  0  0  0  0  # atno 10718 bound_to 10713
  154.2713  135.2765  155.2737 H   0  0  0  0  0  0  0  0  0  0  0  0  # atno 10763 bound_to 10752
  154.5299  135.5732  153.6753 H   0  0  0  0  0  0  0  0  0  0  0  0  # atno 10764 bound_to 10752
  152.9944  135.6225  154.2868 H   0  0  0  0  0  0  0  0  0  0  0  0  # atno 10765 bound_to 10752
  140.1547  134.4417  155.8357 H   0  0  0  0  0  0  0  0  0  0  0  0  # atno 11005 bound_to 11000
  146.1365  139.4411  143.0136 LP  0  0  0  0  0  0  0  0  0  0  0  0  # atno 17320 bound_to 7965
  145.7084  141.0114  143.1466 LP  0  0  0  0  0  0  0  0  0  0  0  0  # atno 17321 bound_to 7965
  140.7792  143.3861  151.1392 LP  0  0  0  0  0  0  0  0  0  0  0  0  # atno 17342 bound_to 10162
  139.7502  143.8790  152.3074 LP  0  0  0  0  0  0  0  0  0  0  0  0  # atno 17343 bound_to 10162
  156.7730  130.9193  151.3644 LP  0  0  0  0  0  0  0  0  0  0  0  0  # atno 17370 bound_to 10713
  157.6687  130.9031  149.9991 LP  0  0  0  0  0  0  0  0  0  0  0  0  # atno 17371 bound_to 10713
  141.2203  133.6887  156.7486 LP  0  0  0  0  0  0  0  0  0  0  0  0  # atno 17394 bound_to 11000
  140.2561  134.8502  157.3714 LP  0  0  0  0  0  0  0  0  0  0  0  0  # atno 17395 bound_to 11000

$$$$
