AV-unprocessed.smi:2565|AV-procd|sdf|10071|dock6
  -GOLD-   2272014103D 1   1.00000     0.00000
 Structure written by MMmdl.
 24 25  0  0  0  0  0  0  0  0  1 V2000
  151.6303  143.3782  158.7997 C   0  0  0  0  0  0  0  0  0  0  0  0
  152.3381  142.1165  158.8861 N   0  0  0  0  0  0  0  0  0  0  0  0
  153.1338  141.6690  159.8688 C   0  0  0  0  0  0  0  0  0  0  0  0
  153.6599  140.4626  159.6630 N   0  0  0  0  0  0  0  0  0  0  0  0
  153.1682  140.0753  158.4322 N   0  0  0  0  0  0  0  0  0  0  0  0
  152.3861  141.0828  158.0206 C   0  0  0  0  0  0  0  0  0  0  0  0
  151.6540  141.0976  156.7106 C   0  0  1  0  0  0  0  0  0  0  0  0
  151.9144  139.8249  155.8815 C   0  0  0  0  0  0  0  0  0  0  0  0
  151.1185  139.8475  154.6553 N   0  0  0  0  0  0  0  0  0  0  0  0
  149.6978  140.0291  154.9502 C   0  0  0  0  0  0  0  0  0  0  0  0
  149.4846  141.2859  155.8133 C   0  0  0  0  0  0  0  0  0  0  0  0
  150.2613  141.1871  157.0025 O   0  0  0  0  0  0  0  0  0  0  0  0
  151.9161  144.0262  159.6288 H   0  0  0  0  0  0  0  0  0  0  0  0
  150.5555  143.2008  158.8427 H   0  0  0  0  0  0  0  0  0  0  0  0
  151.8756  143.8764  157.8615 H   0  0  0  0  0  0  0  0  0  0  0  0
  153.3380  142.2434  160.7606 H   0  0  0  0  0  0  0  0  0  0  0  0
  151.9520  141.9832  156.1470 H   0  0  0  0  0  0  0  0  0  0  0  0
  152.9741  139.7455  155.6374 H   0  0  0  0  0  0  0  0  0  0  0  0
  151.6606  138.9425  156.4702 H   0  0  0  0  0  0  0  0  0  0  0  0
  151.2515  138.9787  154.1477 H   0  0  0  0  0  0  0  0  0  0  0  0
  149.1305  140.1112  154.0228 H   0  0  0  0  0  0  0  0  0  0  0  0
  149.3133  139.1544  155.4762 H   0  0  0  0  0  0  0  0  0  0  0  0
  149.7512  142.1888  155.2615 H   0  0  0  0  0  0  0  0  0  0  0  0
  148.4332  141.3791  156.0853 H   0  0  0  0  0  0  0  0  0  0  0  0
  1  2  1  0  0  0  0
  1 13  1  0  0  0  0
  1 14  1  0  0  0  0
  1 15  1  0  0  0  0
  2  6  1  0  0  0  0
  2  3  1  0  0  0  0
  3  4  2  0  0  0  0
  3 16  1  0  0  0  0
  4  5  1  0  0  0  0
  5  6  2  0  0  0  0
  6  7  1  0  0  0  0
  7 12  1  0  0  0  0
  7  8  1  0  0  0  0
  7 17  1  0  0  0  0
  8  9  1  0  0  0  0
  8 18  1  0  0  0  0
  8 19  1  0  0  0  0
  9 10  1  0  0  0  0
  9 20  1  0  0  0  0
 10 11  1  0  0  0  0
 10 21  1  0  0  0  0
 10 22  1  0  0  0  0
 11 12  1  0  0  0  0
 11 23  1  0  0  0  0
 11 24  1  0  0  0  0
M  END
> <s_m_source_file>
AV-unprocessed.smi

> <i_m_source_file_index>
2565

> <i_lp_mmshare_version>
43012

> <i_f3d_flags>
0

> <s_epik_input>
W0NIM11uMVtjSF1ubmMxW0NAQEhdMltDSDJdW05IXVtDSDJdW0NIMl1PMg==

> <s_epik_cmdline>
J2VwaWtfcHl0aG9uJywgJy1waCcsICc3LjAnLCAnLXRuJywgJzgnLCAnLW1hJywgJzIwMCcsICctbWV0YWxfYmluZGluZycsICctaW1hZScsICc8aW5maWxlLm1hZT4nLCAnLW9tYWUnLCAnPG91dGZpbGUubWFlPic=

> <r_lp_tautomer_probability>
1

> <r_epik_Ionization_Penalty>
0.980774

> <r_epik_Ionization_Penalty_Charging>
0

> <r_epik_Ionization_Penalty_Neutral>
0.980774

> <r_epik_State_Penalty>
1.0271

> <r_epik_Charging_Adjusted_Penalty>
1.0271

> <i_epik_Tot_Q>
0

> <i_epik_Tot_abs_Q>
0

> <r_epik_Metal_State_Penalty>
1.02688

> <b_epik_Metal_Only>
0

> <s_lp_Force_Field>
OPLS_2005

> <r_lp_Energy>
14.243

> <b_lp_Chiralities_Consistent>
1

> <s_lp_Variant>
AV-unprocessed.smi:2565-4

> <Gold.Version>
5.8.1

> <Gold.Id.Protein>
6NUR|6NUR_protein|mol2

> <Gold.PLP.Fitness>
27.4700

> <Gold.PLP.PLP>
-21.4779

> <Gold.PLP.part.hbond>
-2.0000

> <Gold.PLP.part.metal>
0.0000

> <Gold.PLP.part.buried>
-3.9252

> <Gold.PLP.part.nonpolar>
-14.7823

> <Gold.PLP.part.repulsive>
0.0552

> <Gold.PLP.ligand.clash>
0.0000

> <Gold.PLP.ligand.torsion>
0.0055

> <Gold.PLP.Chemscore.Hbond>
2.0000

> <Gold.PLP.Chemscore.CHOScore>
0.0000

> <Gold.PLP.Chemscore.Metal>
0.0000

> <Gold.Chemscore.Hbonds>
donor molecule, donor type, donor heavy atom, donor atom, acceptor molecule, acceptor atom, score
      P1  H  7989  7998       L1     9  0.90
      P1  H  7997  8009       L1     5  1.00

> <Gold.PLP.Chemscore.Internal.Correction>
0.0030

> <Gold.Rescore>
     Score         DG    S(hbond)    S(metal)    S(lipo)     H(rot)  DE(clash)    DE(int)     intcor
      9.18      -9.24       0.69        0.00      34.38       1.00       0.05       0.01       ----

> <Gold.Chemscore.Fitness>
9.1807

> <Gold.Chemscore.DG>
-9.2358

> <Gold.Chemscore.ZeroCoef>
-5.4800

> <Gold.Chemscore.Hbond>
0.6868

> <Gold.Chemscore.Metal>
0.0000

> <Gold.Chemscore.Lipo>
34.3758

> <Gold.Chemscore.Internal_Hbond>
0.0000

> <Gold.Chemscore.DEClash>
0.0484

> <Gold.Chemscore.DEInternal>
0.0067

> <Gold.Chemscore.Rot>
1.0000

> <Gold.Chemscore.Internal.Correction>
   9.000000E+99

> <Gold.Chemscore.Hbonds>
donor molecule, donor type, donor heavy atom, donor atom, acceptor molecule, acceptor atom, score
      P1  H  7989  7998       L1     9  0.14
      P1  H  7997  8009       L1     5  0.31

> <Gold.Chemscore.Hbond.Weighted>
-2.2938

> <Gold.Chemscore.Metal.Weighted>
-0.0000

> <Gold.Chemscore.Lipo.Weighted>
-4.0220

> <Gold.Chemscore.Internal_Hbond.Weighted>
0.0000

> <Gold.Chemscore.DEClash.Weighted>
0.0484

> <Gold.Chemscore.DEInternal.Weighted>
0.0067

> <Gold.Chemscore.Rot.Weighted>
2.5600

> <Gold.Chemscore.Internal.Correction.Weighted>
   9.000000E+99

> <Gold.Protein.RotatedTorsions>
[ 6907 6896 6895 6894 ] final -117.97 input  -60.11 | X-H torsion
[ 7974 7965 7964 7962 ] final    7.63 input  175.53 | X-H torsion
[ 8008 7997 7996 7995 ] final  149.29 input   59.86 | X-H torsion
[ 10167 10162 10161 10158 ] final -173.02 input  -65.29 | X-H torsion
[ 10718 10713 10712 10709 ] final    3.19 input   66.30 | X-H torsion
[ 10763 10752 10751 10750 ] final  -72.47 input  -60.55 | X-H torsion
[ 11005 11000 10999 10996 ] final   54.74 input  -57.11 | X-H torsion

> <Gold.Protein.ActiveResidues>
 VAL166  LYS551  ARG553  GLY616  TRP617  ASP618  TYR619  PRO620  LYS621  CYS622 
 ASP623  PHE694  ASN695  SER759  ASP760  ASP761  ALA762  ILE779  LEU786  VAL792 
 PHE793  MET794  SER795  GLU796  ALA797  LYS798  CYS799  TRP800  GLU811  SER814 

> <Gold.Protein.RotatedAtoms>
  150.8181  133.8302  159.3151 H   0  0  0  0  0  0  0  0  0  0  0  0  # atno 6907 bound_to 6896
  151.6068  135.1041  160.0082 H   0  0  0  0  0  0  0  0  0  0  0  0  # atno 6908 bound_to 6896
  152.4271  133.7173  159.6570 H   0  0  0  0  0  0  0  0  0  0  0  0  # atno 6909 bound_to 6896
  146.2425  140.0054  142.8412 H   0  0  0  0  0  0  0  0  0  0  0  0  # atno 7974 bound_to 7965
  156.2760  140.2106  156.5834 H   0  0  0  0  0  0  0  0  0  0  0  0  # atno 8008 bound_to 7997
  154.7040  140.0518  157.0509 H   0  0  0  0  0  0  0  0  0  0  0  0  # atno 8009 bound_to 7997
  155.0695  140.3175  155.4638 H   0  0  0  0  0  0  0  0  0  0  0  0  # atno 8010 bound_to 7997
  139.5712  144.1638  152.1386 H   0  0  0  0  0  0  0  0  0  0  0  0  # atno 10167 bound_to 10162
  156.8742  130.5630  149.5656 H   0  0  0  0  0  0  0  0  0  0  0  0  # atno 10718 bound_to 10713
  154.4461  135.5929  153.6161 H   0  0  0  0  0  0  0  0  0  0  0  0  # atno 10763 bound_to 10752
  152.9809  135.6010  154.3662 H   0  0  0  0  0  0  0  0  0  0  0  0  # atno 10764 bound_to 10752
  154.3518  135.2841  155.2347 H   0  0  0  0  0  0  0  0  0  0  0  0  # atno 10765 bound_to 10752
  140.0662  134.5533  155.9096 H   0  0  0  0  0  0  0  0  0  0  0  0  # atno 11005 bound_to 11000
  145.1377  140.9553  143.4507 LP  0  0  0  0  0  0  0  0  0  0  0  0  # atno 17320 bound_to 7965
  145.0326  139.3327  143.6017 LP  0  0  0  0  0  0  0  0  0  0  0  0  # atno 17321 bound_to 7965
  140.1171  144.5406  150.6887 LP  0  0  0  0  0  0  0  0  0  0  0  0  # atno 17342 bound_to 10162
  140.6996  143.2426  151.4903 LP  0  0  0  0  0  0  0  0  0  0  0  0  # atno 17343 bound_to 10162
  156.0711  130.5743  150.9384 LP  0  0  0  0  0  0  0  0  0  0  0  0  # atno 17370 bound_to 10713
  157.6178  131.0932  150.8678 LP  0  0  0  0  0  0  0  0  0  0  0  0  # atno 17371 bound_to 10713
  141.1994  133.6606  156.5840 LP  0  0  0  0  0  0  0  0  0  0  0  0  # atno 17394 bound_to 11000
  140.3695  134.7618  157.4589 LP  0  0  0  0  0  0  0  0  0  0  0  0  # atno 17395 bound_to 11000

$$$$
