AV-unprocessed.smi:52|AV-procd|sdf|511|dock9
  -GOLD-   2262016383D 1   1.00000     0.00000
 Structure written by MMmdl.
 26 27  0  0  0  0  0  0  0  0  2 V2000
  152.3399  136.6499  156.7471 O   0  0  0  0  0  0  0  0  0  0  0  0
  152.4078  137.8788  156.9711 C   0  0  0  0  0  0  0  0  0  0  0  0
  152.6184  138.7052  156.0561 O   0  5  0  0  0  0  0  0  0  0  0  0
  152.2329  138.3692  158.3631 C   0  0  0  0  0  0  0  0  0  0  0  0
  152.1533  137.6041  159.4991 C   0  0  0  0  0  0  0  0  0  0  0  0
  151.9947  138.4234  160.5840 O   0  0  0  0  0  0  0  0  0  0  0  0
  151.9821  139.6778  160.0568 C   0  0  0  0  0  0  0  0  0  0  0  0
  151.8113  140.8469  160.9700 C   0  0  0  0  0  0  0  0  0  0  0  0
  151.6803  142.1139  160.2584 N   0  0  0  0  0  0  0  0  0  0  0  0
  151.3655  143.2419  161.1203 C   0  0  0  0  0  0  0  0  0  0  0  0
  150.7758  144.3320  160.2145 C   0  0  0  0  0  0  0  0  0  0  0  0
  150.4128  143.5853  158.9204 C   0  0  2  0  0  0  0  0  0  0  0  0
  149.0964  143.8510  158.4845 O   0  0  0  0  0  0  0  0  0  0  0  0
  150.6055  142.1138  159.2884 C   0  0  0  0  0  0  0  0  0  0  0  0
  152.1211  139.7039  158.7334 N   0  0  0  0  0  0  0  0  0  0  0  0
  151.1138  143.8592  158.1308 H   0  0  0  0  0  0  0  0  0  0  0  0
  152.1891  136.5418  159.6898 H   0  0  0  0  0  0  0  0  0  0  0  0
  150.9193  140.6717  161.5722 H   0  0  0  0  0  0  0  0  0  0  0  0
  152.6544  140.8826  161.6614 H   0  0  0  0  0  0  0  0  0  0  0  0
  150.6157  142.9490  161.8573 H   0  0  0  0  0  0  0  0  0  0  0  0
  152.2450  143.5865  161.6651 H   0  0  0  0  0  0  0  0  0  0  0  0
  149.9104  144.7971  160.6886 H   0  0  0  0  0  0  0  0  0  0  0  0
  151.5069  145.1153  160.0115 H   0  0  0  0  0  0  0  0  0  0  0  0
  149.1306  144.1335  157.5833 H   0  0  0  0  0  0  0  0  0  0  0  0
  150.8414  141.4949  158.4222 H   0  0  0  0  0  0  0  0  0  0  0  0
  149.6944  141.7210  159.7444 H   0  0  0  0  0  0  0  0  0  0  0  0
  1  2  2  0  0  0  0
  2  3  1  0  0  0  0
  2  4  1  0  0  0  0
  4 15  1  0  0  0  0
  4  5  2  0  0  0  0
  5  6  1  0  0  0  0
  5 17  1  0  0  0  0
  6  7  1  0  0  0  0
  7  8  1  0  0  0  0
  7 15  2  0  0  0  0
  8  9  1  0  0  0  0
  8 18  1  0  0  0  0
  8 19  1  0  0  0  0
  9 14  1  0  0  0  0
  9 10  1  0  0  0  0
 10 11  1  0  0  0  0
 10 20  1  0  0  0  0
 10 21  1  0  0  0  0
 11 12  1  0  0  0  0
 11 22  1  0  0  0  0
 11 23  1  0  0  0  0
 12 16  1  0  0  0  0
 12 13  1  0  0  0  0
 12 14  1  0  0  0  0
 13 24  1  0  0  0  0
 14 25  1  0  0  0  0
 14 26  1  0  0  0  0
M  CHG  1   3  -1
M  END
> <s_m_source_file>
AV-unprocessed.smi

> <i_m_source_file_index>
52

> <i_lp_mmshare_version>
43012

> <i_f3d_flags>
0

> <s_epik_input>
Tz1DKFtPSF0pYzFbY0hdb2MobjEpW0NIMl1OMltDSDJdW0NIMl1bQ0BIXShbT0hdKVtDSDJdMg==

> <s_epik_cmdline>
J2VwaWtfcHl0aG9uJywgJy1waCcsICc3LjAnLCAnLXRuJywgJzgnLCAnLW1hJywgJzIwMCcsICctbWV0YWxfYmluZGluZycsICctaW1hZScsICc8aW5maWxlLm1hZT4nLCAnLW9tYWUnLCAnPG91dGZpbGUubWFlPic=

> <r_epik_Ionization_Penalty>
1.6537

> <r_epik_Ionization_Penalty_Charging>
0.000221913

> <r_epik_Ionization_Penalty_Neutral>
1.65348

> <r_epik_State_Penalty>
1.75577

> <r_epik_Charging_Adjusted_Penalty>
1.75599

> <i_epik_Tot_Q>
-1

> <i_epik_Tot_abs_Q>
1

> <r_epik_Metal_State_Penalty>
1.75577

> <b_epik_Metal_Only>
0

> <s_lp_Force_Field>
OPLS_2005

> <r_lp_Energy>
35.4981

> <b_lp_Chiralities_Consistent>
1

> <s_lp_Variant>
AV-unprocessed.smi:52-5

> <Gold.Version>
5.8.1

> <Gold.Id.Protein>
6NUR|6NUR_protein|mol2

> <Gold.PLP.Fitness>
42.0393

> <Gold.PLP.PLP>
-27.2453

> <Gold.PLP.part.hbond>
-5.0000

> <Gold.PLP.part.metal>
0.0000

> <Gold.PLP.part.buried>
-4.3566

> <Gold.PLP.part.nonpolar>
-18.3980

> <Gold.PLP.part.repulsive>
0.0000

> <Gold.PLP.ligand.clash>
0.0000

> <Gold.PLP.ligand.torsion>
0.0796

> <Gold.PLP.Chemscore.Hbond>
4.9840

> <Gold.PLP.Chemscore.CHOScore>
0.0000

> <Gold.PLP.Chemscore.Metal>
0.0000

> <Gold.Chemscore.Hbonds>
donor molecule, donor type, donor heavy atom, donor atom, acceptor molecule, acceptor atom, score
      L1  H    13    24       P1  8028  0.55
      P1  H  7997  8009       L1     3  0.94
      P1  H 10752 10764       L1     1  0.98

> <Gold.PLP.Chemscore.Internal.Correction>
0.0012

> <Gold.Rescore>
     Score         DG    S(hbond)    S(metal)    S(lipo)     H(rot)  DE(clash)    DE(int)     intcor
     15.66     -15.81       2.30        0.00      65.31       1.95       0.04       0.11       ----

> <Gold.Chemscore.Fitness>
15.6552

> <Gold.Chemscore.DG>
-15.8101

> <Gold.Chemscore.ZeroCoef>
-5.4800

> <Gold.Chemscore.Hbond>
2.2995

> <Gold.Chemscore.Metal>
0.0000

> <Gold.Chemscore.Lipo>
65.3084

> <Gold.Chemscore.Internal_Hbond>
0.0000

> <Gold.Chemscore.DEClash>
0.0448

> <Gold.Chemscore.DEInternal>
0.1100

> <Gold.Chemscore.Rot>
1.9497

> <Gold.Chemscore.Internal.Correction>
   9.000000E+99

> <Gold.Chemscore.Hbonds>
donor molecule, donor type, donor heavy atom, donor atom, acceptor molecule, acceptor atom, score
      L1  H    13    24       P1  8028  0.03
      P1  H  7997  8009       L1     3  0.46
      P1  H 10752 10764       L1     1  0.48

> <Gold.Chemscore.Hbond.Weighted>
-7.6802

> <Gold.Chemscore.Metal.Weighted>
-0.0000

> <Gold.Chemscore.Lipo.Weighted>
-7.6411

> <Gold.Chemscore.Internal_Hbond.Weighted>
0.0000

> <Gold.Chemscore.DEClash.Weighted>
0.0448

> <Gold.Chemscore.DEInternal.Weighted>
0.1100

> <Gold.Chemscore.Rot.Weighted>
4.9912

> <Gold.Chemscore.Internal.Correction.Weighted>
   9.000000E+99

> <Gold.Protein.RotatedTorsions>
[ 6907 6896 6895 6894 ] final  -93.80 input  -60.11 | X-H torsion
[ 7974 7965 7964 7962 ] final  -77.10 input  175.53 | X-H torsion
[ 8008 7997 7996 7995 ] final -157.45 input   59.86 | X-H torsion
[ 10167 10162 10161 10158 ] final   77.74 input  -65.29 | X-H torsion
[ 10718 10713 10712 10709 ] final   70.79 input   66.30 | X-H torsion
[ 10763 10752 10751 10750 ] final   -1.80 input  -60.55 | X-H torsion
[ 11005 11000 10999 10996 ] final -152.07 input  -57.11 | X-H torsion

> <Gold.Protein.ActiveResidues>
 VAL166  LYS551  ARG553  GLY616  TRP617  ASP618  TYR619  PRO620  LYS621  CYS622 
 ASP623  PHE694  ASN695  SER759  ASP760  ASP761  ALA762  ILE779  LEU786  VAL792 
 PHE793  MET794  SER795  GLU796  ALA797  LYS798  CYS799  TRP800  GLU811  SER814 

> <Gold.Protein.RotatedAtoms>
  150.6929  134.1911  159.4285 H   0  0  0  0  0  0  0  0  0  0  0  0  # atno 6907 bound_to 6896
  151.9882  134.9991  160.0569 H   0  0  0  0  0  0  0  0  0  0  0  0  # atno 6908 bound_to 6896
  152.1692  133.4597  159.4937 H   0  0  0  0  0  0  0  0  0  0  0  0  # atno 6909 bound_to 6896
  145.6041  140.9402  143.1225 H   0  0  0  0  0  0  0  0  0  0  0  0  # atno 7974 bound_to 7965
  155.7326  140.0804  157.2282 H   0  0  0  0  0  0  0  0  0  0  0  0  # atno 8008 bound_to 7997
  154.4031  140.1592  156.2581 H   0  0  0  0  0  0  0  0  0  0  0  0  # atno 8009 bound_to 7997
  155.9094  140.3405  155.6090 H   0  0  0  0  0  0  0  0  0  0  0  0  # atno 8010 bound_to 7997
  139.9783  144.5845  150.7923 H   0  0  0  0  0  0  0  0  0  0  0  0  # atno 10167 bound_to 10162
  157.6418  130.9495  150.0699 H   0  0  0  0  0  0  0  0  0  0  0  0  # atno 10718 bound_to 10713
  153.3496  135.6985  153.6799 H   0  0  0  0  0  0  0  0  0  0  0  0  # atno 10763 bound_to 10752
  153.5531  135.3549  155.2768 H   0  0  0  0  0  0  0  0  0  0  0  0  # atno 10764 bound_to 10752
  154.8651  135.4231  154.2728 H   0  0  0  0  0  0  0  0  0  0  0  0  # atno 10765 bound_to 10752
  140.7228  134.3707  157.5180 H   0  0  0  0  0  0  0  0  0  0  0  0  # atno 11005 bound_to 11000
  144.7297  139.7763  143.7351 LP  0  0  0  0  0  0  0  0  0  0  0  0  # atno 17320 bound_to 7965
  146.1554  139.4650  143.0022 LP  0  0  0  0  0  0  0  0  0  0  0  0  # atno 17321 bound_to 7965
  140.7498  143.2944  151.3243 LP  0  0  0  0  0  0  0  0  0  0  0  0  # atno 17342 bound_to 10162
  139.6429  144.0506  152.2568 LP  0  0  0  0  0  0  0  0  0  0  0  0  # atno 17343 bound_to 10162
  156.1706  130.3646  149.9170 LP  0  0  0  0  0  0  0  0  0  0  0  0  # atno 17370 bound_to 10713
  156.7146  130.8983  151.3612 LP  0  0  0  0  0  0  0  0  0  0  0  0  # atno 17371 bound_to 10713
  139.8844  134.8966  156.2706 LP  0  0  0  0  0  0  0  0  0  0  0  0  # atno 17394 bound_to 11000
  140.9988  133.7164  156.0928 LP  0  0  0  0  0  0  0  0  0  0  0  0  # atno 17395 bound_to 11000

$$$$
