#       Name:                AV-unprocessed.smi:1815
#       Creating user name   scv26
#       Creation time:       Fri Mar 27 09:01:26 2020


#       File generated by GOLD software.
#

@<TRIPOS>MOLECULE
AV-unprocessed.smi:1815
    45    46     1
SMALL
NO_CHARGES


@<TRIPOS>ATOM
      1 ****        -2.7190   1.2582   1.4007 C.3            1 S1                 0.0000
      2 ****        -2.1828   2.4547   0.5961 C.3            1 S1                 0.0000
      3 ****        -0.6437   2.4934   0.5148 C.3            1 S1                 0.0000
      4 ****        -0.1025   1.4847  -0.3929 N.3            1 S1                 0.0000
      5 ****         1.3569   1.5372  -0.4868 C.3            1 S1                 0.0000
      6 ****         2.1155   1.1484   0.7978 C.3            1 S1                 0.0000
      7 ****         1.7500  -0.1852   1.2647 N.am           1 S1                 0.0000
      8 ****         2.2094  -1.3337   0.7481 C.2            1 S1                 0.0000
      9 ****         3.0180  -1.3851  -0.1794 O.2            1 S1                 0.0000
     10 ****         1.6707  -2.3971   1.3701 N.am           1 S1                 0.0000
     11 ****         1.9101  -3.7741   1.1205 C.2            1 S1                 0.0000
     12 ****         2.7579  -4.2374   0.1943 N.2            1 S1                 0.0000
     13 ****         2.7970  -5.6338   0.1703 C.2            1 S1                 0.0000
     14 ****         1.9664  -6.2222   1.0915 C.2            1 S1                 0.0000
     15 ****         1.0983  -5.0386   2.0325 S.3            1 S1                 0.0000
     16 ****        -0.7175   1.6461  -1.7035 C.3            1 S1                 0.0000
     17 ****        -2.2518   1.5433  -1.6354 C.3            1 S1                 0.0000
     18 ****        -2.9080   1.8014  -2.9957 C.3            1 S1                 0.0000
     19 ****        -2.7511   2.5106  -0.7133 O.3            1 S1                 0.0000
     20 ****        -2.3651   1.2952   2.4312 H              1 S1                 0.0000
     21 ****        -2.3987   0.3047   0.9812 H              1 S1                 0.0000
     22 ****        -3.8087   1.2639   1.4256 H              1 S1                 0.0000
     23 ****        -2.5131   3.3572   1.1111 H              1 S1                 0.0000
     24 ****        -0.3334   3.4843   0.1800 H              1 S1                 0.0000
     25 ****        -0.2351   2.3652   1.5165 H              1 S1                 0.0000
     26 ****         1.6840   0.8658  -1.2820 H              1 S1                 0.0000
     27 ****         1.6683   2.5351  -0.7988 H              1 S1                 0.0000
     28 ****         3.1908   1.1945   0.6189 H              1 S1                 0.0000
     29 ****         1.9188   1.8619   1.5974 H              1 S1                 0.0000
     30 ****         1.0841  -0.2343   2.0215 H              1 S1                 0.0000
     31 ****         1.0136  -2.1990   2.1101 H              1 S1                 0.0000
     32 ****         3.4459  -6.1285  -0.5372 H              1 S1                 0.0000
     33 ****         1.8141  -7.2759   1.2725 H              1 S1                 0.0000
     34 ****        -0.4338   2.6107  -2.1278 H              1 S1                 0.0000
     35 ****        -0.3382   0.8829  -2.3844 H              1 S1                 0.0000
     36 ****        -2.5353   0.5447  -1.3018 H              1 S1                 0.0000
     37 ****        -2.5687   1.0795  -3.7389 H              1 S1                 0.0000
     38 ****        -2.6704   2.7994  -3.3651 H              1 S1                 0.0000
     39 ****        -3.9930   1.7217  -2.9258 H              1 S1                 0.0000
     40 ****        -0.3232   0.5820  -0.0235 LP             1 S1                 0.0000
     41 ****         3.3661  -0.5407  -0.5866 LP             1 S1                 0.0000
     42 ****         3.3265  -2.2712  -0.5252 LP             1 S1                 0.0000
     43 ****         3.2997  -3.6528  -0.4096 LP             1 S1                 0.0000
     44 ****        -2.5704   3.4191  -1.0902 LP             1 S1                 0.0000
     45 ****        -3.7382   2.3755  -0.6278 LP             1 S1                 0.0000
@<TRIPOS>BOND
    1    1    2 1     
    2    1   20 1     
    3    1   21 1     
    4    1   22 1     
    5    2   19 1     
    6    2    3 1     
    7    2   23 1     
    8    3    4 1     
    9    3   24 1     
   10    3   25 1     
   11    4    5 1     
   12    4   16 1     
   13    5    6 1     
   14    5   26 1     
   15    5   27 1     
   16    6    7 1     
   17    6   28 1     
   18    6   29 1     
   19    7    8 am    
   20    7   30 1     
   21    8    9 2     
   22    8   10 am    
   23   10   11 1     
   24   10   31 1     
   25   11   15 1     
   26   11   12 2     
   27   12   13 1     
   28   13   14 2     
   29   13   32 1     
   30   14   15 1     
   31   14   33 1     
   32   16   17 1     
   33   16   34 1     
   34   16   35 1     
   35   17   18 1     
   36   17   19 1     
   37   17   36 1     
   38   18   37 1     
   39   18   38 1     
   40   18   39 1     
   41    4   40 1     
   42    9   41 1     
   43    9   42 1     
   44   12   43 1     
   45   19   44 1     
   46   19   45 1     
@<TRIPOS>SUBSTRUCTURE
      1 S1             1
@<TRIPOS>SET
LONE_PAIRS      STATIC     ATOMS    <user>   **** ""
6 40 41 42 43 44 45
DONOR_HYDROGENS      STATIC     ATOMS    <user>   **** ""
2 30 31
ATOM$BLUE        STATIC     ATOMS    COLORGROUP SYSTEM
6 40 41 42 43 44 45
ATOM$RED        STATIC     ATOMS    COLORGROUP SYSTEM
2 30 31
