AV-unprocessed.smi:3158|AV-procd|sdf|12048|dock7
  -GOLD-   2272017473D 1   1.00000     0.00000
 Structure written by MMmdl.
 39 39  0  0  0  0  0  0  0  0  1 V2000
  152.6574  144.1812  158.8071 C   0  0  0  0  0  0  0  0  0  0  0  0
  151.4725  144.0166  157.8444 C   0  0  0  0  0  0  0  0  0  0  0  0
  151.4160  142.6417  157.1499 C   0  0  1  0  0  0  0  0  0  0  0  0
  151.4046  141.4925  158.1672 C   0  0  0  0  0  0  0  0  0  0  0  0
  150.2304  142.5363  156.3016 N   0  0  0  0  0  0  0  0  0  0  0  0
  149.9672  141.5483  155.4309 C   0  0  0  0  0  0  0  0  0  0  0  0
  150.7231  140.5960  155.2355 O   0  0  0  0  0  0  0  0  0  0  0  0
  148.6252  141.6355  154.6848 C   0  0  1  0  0  0  0  0  0  0  0  0
  148.2880  140.2971  154.0069 C   0  0  0  0  0  0  0  0  0  0  0  0
  147.5057  142.0532  155.5481 N   0  0  0  0  0  0  0  0  0  0  0  0
  146.1988  142.0067  154.9016 C   0  0  0  0  0  0  0  0  0  0  0  0
  146.0988  143.1390  153.8704 C   0  0  0  0  0  0  0  0  0  0  0  0
  145.0018  144.0374  154.1736 N   0  0  0  0  0  0  0  0  0  0  0  0
  144.5512  145.1168  153.4435 C   0  0  0  0  0  0  0  0  0  0  0  0
  143.4927  145.6512  154.1208 C   0  0  0  0  0  0  0  0  0  0  0  0
  143.3700  144.8183  155.2680 C   0  0  0  0  0  0  0  0  0  0  0  0
  144.2740  143.8525  155.2962 N   0  0  0  0  0  0  0  0  0  0  0  0
  152.6112  145.1442  159.3158 H   0  0  0  0  0  0  0  0  0  0  0  0
  153.6114  144.1339  158.2817 H   0  0  0  0  0  0  0  0  0  0  0  0
  152.6554  143.4018  159.5696 H   0  0  0  0  0  0  0  0  0  0  0  0
  150.5499  144.1691  158.4056 H   0  0  0  0  0  0  0  0  0  0  0  0
  151.5045  144.8088  157.0954 H   0  0  0  0  0  0  0  0  0  0  0  0
  152.3191  142.5282  156.5476 H   0  0  0  0  0  0  0  0  0  0  0  0
  152.2917  141.5204  158.8005 H   0  0  0  0  0  0  0  0  0  0  0  0
  151.3901  140.5242  157.6652 H   0  0  0  0  0  0  0  0  0  0  0  0
  150.5302  141.5442  158.8168 H   0  0  0  0  0  0  0  0  0  0  0  0
  149.5431  143.2700  156.3952 H   0  0  0  0  0  0  0  0  0  0  0  0
  148.7287  142.3792  153.8923 H   0  0  0  0  0  0  0  0  0  0  0  0
  149.0923  139.9753  153.3443 H   0  0  0  0  0  0  0  0  0  0  0  0
  147.3844  140.3834  153.4025 H   0  0  0  0  0  0  0  0  0  0  0  0
  148.1206  139.5042  154.7373 H   0  0  0  0  0  0  0  0  0  0  0  0
  147.6624  142.9696  155.9431 H   0  0  0  0  0  0  0  0  0  0  0  0
  146.0491  141.0490  154.4017 H   0  0  0  0  0  0  0  0  0  0  0  0
  145.4141  142.1134  155.6521 H   0  0  0  0  0  0  0  0  0  0  0  0
  147.0245  143.7162  153.8398 H   0  0  0  0  0  0  0  0  0  0  0  0
  145.9448  142.7320  152.8699 H   0  0  0  0  0  0  0  0  0  0  0  0
  145.0148  145.4100  152.5130 H   0  0  0  0  0  0  0  0  0  0  0  0
  142.8966  146.5064  153.8395 H   0  0  0  0  0  0  0  0  0  0  0  0
  142.6557  144.8860  156.0753 H   0  0  0  0  0  0  0  0  0  0  0  0
  1  2  1  0  0  0  0
  1 18  1  0  0  0  0
  1 19  1  0  0  0  0
  1 20  1  0  0  0  0
  2  3  1  0  0  0  0
  2 21  1  0  0  0  0
  2 22  1  0  0  0  0
  3  4  1  0  0  0  0
  3  5  1  0  0  0  0
  3 23  1  0  0  0  0
  4 24  1  0  0  0  0
  4 25  1  0  0  0  0
  4 26  1  0  0  0  0
  5  6  1  0  0  0  0
  5 27  1  0  0  0  0
  6  7  2  0  0  0  0
  6  8  1  0  0  0  0
  8  9  1  0  0  0  0
  8 10  1  0  0  0  0
  8 28  1  0  0  0  0
  9 29  1  0  0  0  0
  9 30  1  0  0  0  0
  9 31  1  0  0  0  0
 10 11  1  0  0  0  0
 10 32  1  0  0  0  0
 11 12  1  0  0  0  0
 11 33  1  0  0  0  0
 11 34  1  0  0  0  0
 12 13  1  0  0  0  0
 12 35  1  0  0  0  0
 12 36  1  0  0  0  0
 13 17  1  0  0  0  0
 13 14  1  0  0  0  0
 14 15  2  0  0  0  0
 14 37  1  0  0  0  0
 15 16  1  0  0  0  0
 15 38  1  0  0  0  0
 16 17  2  0  0  0  0
 16 39  1  0  0  0  0
M  END
> <s_m_source_file>
AV-unprocessed.smi

> <i_m_source_file_index>
3158

> <i_lp_mmshare_version>
43012

> <i_f3d_flags>
0

> <s_epik_input>
W0NIM11bQ0gyXVtDQEhdKFtDSDNdKVtOSF1DKD1PKVtDQEhdKFtDSDNdKVtOSF1bQ0gyXVtDSDJdbjFbY0hdW2NIXVtjSF1uMQ==

> <s_epik_cmdline>
J2VwaWtfcHl0aG9uJywgJy1waCcsICc3LjAnLCAnLXRuJywgJzgnLCAnLW1hJywgJzIwMCcsICctbWV0YWxfYmluZGluZycsICctaW1hZScsICc8aW5maWxlLm1hZT4nLCAnLW9tYWUnLCAnPG91dGZpbGUubWFlPic=

> <r_lp_tautomer_probability>
1

> <r_epik_Ionization_Penalty>
0.724013

> <r_epik_Ionization_Penalty_Charging>
0

> <r_epik_Ionization_Penalty_Neutral>
0.724013

> <r_epik_State_Penalty>
0.74758

> <r_epik_Charging_Adjusted_Penalty>
0.74758

> <i_epik_Tot_Q>
0

> <i_epik_Tot_abs_Q>
0

> <r_epik_Metal_State_Penalty>
0.746846

> <b_epik_Metal_Only>
0

> <s_lp_Force_Field>
OPLS_2005

> <r_lp_Energy>
5.19136

> <b_lp_Chiralities_Consistent>
1

> <s_lp_Variant>
AV-unprocessed.smi:3158-8

> <Gold.Version>
5.8.1

> <Gold.Id.Protein>
6NUR|6NUR_protein|mol2

> <Gold.PLP.Fitness>
47.9711

> <Gold.PLP.PLP>
-40.8828

> <Gold.PLP.part.hbond>
-3.0000

> <Gold.PLP.part.metal>
0.0000

> <Gold.PLP.part.buried>
-5.3964

> <Gold.PLP.part.nonpolar>
-32.7188

> <Gold.PLP.part.repulsive>
0.3066

> <Gold.PLP.ligand.clash>
0.0000

> <Gold.PLP.ligand.torsion>
0.9269

> <Gold.PLP.Chemscore.Hbond>
2.9360

> <Gold.PLP.Chemscore.CHOScore>
0.0000

> <Gold.PLP.Chemscore.Metal>
0.0000

> <Gold.Chemscore.Hbonds>
donor molecule, donor type, donor heavy atom, donor atom, acceptor molecule, acceptor atom, score
      L1  H     5    27       P1  8028  0.90
      L1  H    10    32       P1  8028  0.64
      P1  H  7989  7998       L1     7  0.94

> <Gold.PLP.Chemscore.Internal.Correction>
0.1341

> <Gold.Rescore>
     Score         DG    S(hbond)    S(metal)    S(lipo)     H(rot)  DE(clash)    DE(int)     intcor
     15.83     -17.33       1.86        0.00      94.68       2.12       0.42       1.08       ----

> <Gold.Chemscore.Fitness>
15.8331

> <Gold.Chemscore.DG>
-17.3323

> <Gold.Chemscore.ZeroCoef>
-5.4800

> <Gold.Chemscore.Hbond>
1.8595

> <Gold.Chemscore.Metal>
0.0000

> <Gold.Chemscore.Lipo>
94.6801

> <Gold.Chemscore.Internal_Hbond>
0.0000

> <Gold.Chemscore.DEClash>
0.4197

> <Gold.Chemscore.DEInternal>
1.0795

> <Gold.Chemscore.Rot>
2.1234

> <Gold.Chemscore.Internal.Correction>
   9.000000E+99

> <Gold.Chemscore.Hbonds>
donor molecule, donor type, donor heavy atom, donor atom, acceptor molecule, acceptor atom, score
      L1  H     5    27       P1  8028  0.88
      L1  H    10    32       P1  8028  0.18
      P1  H  7989  7998       L1     7  0.58

> <Gold.Chemscore.Hbond.Weighted>
-6.2106

> <Gold.Chemscore.Metal.Weighted>
-0.0000

> <Gold.Chemscore.Lipo.Weighted>
-11.0776

> <Gold.Chemscore.Internal_Hbond.Weighted>
0.0000

> <Gold.Chemscore.DEClash.Weighted>
0.4197

> <Gold.Chemscore.DEInternal.Weighted>
1.0795

> <Gold.Chemscore.Rot.Weighted>
5.4359

> <Gold.Chemscore.Internal.Correction.Weighted>
   9.000000E+99

> <Gold.Protein.RotatedTorsions>
[ 6907 6896 6895 6894 ] final  129.32 input  -60.11 | X-H torsion
[ 7974 7965 7964 7962 ] final   13.20 input  175.53 | X-H torsion
[ 8008 7997 7996 7995 ] final  -64.77 input   59.86 | X-H torsion
[ 10167 10162 10161 10158 ] final  104.29 input  -65.29 | X-H torsion
[ 10718 10713 10712 10709 ] final  -57.90 input   66.30 | X-H torsion
[ 10763 10752 10751 10750 ] final -134.59 input  -60.55 | X-H torsion
[ 11005 11000 10999 10996 ] final -111.96 input  -57.11 | X-H torsion

> <Gold.Protein.ActiveResidues>
 VAL166  LYS551  ARG553  GLY616  TRP617  ASP618  TYR619  PRO620  LYS621  CYS622 
 ASP623  PHE694  ASN695  SER759  ASP760  ASP761  ALA762  ILE779  LEU786  VAL792 
 PHE793  MET794  SER795  GLU796  ALA797  LYS798  CYS799  TRP800  GLU811  SER814 

> <Gold.Protein.RotatedAtoms>
  152.3635  133.6327  159.6032 H   0  0  0  0  0  0  0  0  0  0  0  0  # atno 6907 bound_to 6896
  150.7618  133.9385  159.3457 H   0  0  0  0  0  0  0  0  0  0  0  0  # atno 6908 bound_to 6896
  151.7219  135.0893  160.0336 H   0  0  0  0  0  0  0  0  0  0  0  0  # atno 6909 bound_to 6896
  146.2334  139.9223  142.8508 H   0  0  0  0  0  0  0  0  0  0  0  0  # atno 7974 bound_to 7965
  154.4631  140.0947  156.6947 H   0  0  0  0  0  0  0  0  0  0  0  0  # atno 8008 bound_to 7997
  155.4936  140.3471  155.4340 H   0  0  0  0  0  0  0  0  0  0  0  0  # atno 8009 bound_to 7997
  156.0907  140.1396  156.9584 H   0  0  0  0  0  0  0  0  0  0  0  0  # atno 8010 bound_to 7997
  139.7190  144.7062  151.0903 H   0  0  0  0  0  0  0  0  0  0  0  0  # atno 10167 bound_to 10162
  156.1176  130.4169  150.0503 H   0  0  0  0  0  0  0  0  0  0  0  0  # atno 10718 bound_to 10713
  154.8717  135.3730  154.4760 H   0  0  0  0  0  0  0  0  0  0  0  0  # atno 10763 bound_to 10752
  153.5417  135.7026  153.5638 H   0  0  0  0  0  0  0  0  0  0  0  0  # atno 10764 bound_to 10752
  153.3797  135.4000  155.1812 H   0  0  0  0  0  0  0  0  0  0  0  0  # atno 10765 bound_to 10752
  141.0704  133.9390  157.2497 H   0  0  0  0  0  0  0  0  0  0  0  0  # atno 11005 bound_to 11000
  145.2124  140.9901  143.4093 LP  0  0  0  0  0  0  0  0  0  0  0  0  # atno 17320 bound_to 7965
  144.9679  139.3910  143.6323 LP  0  0  0  0  0  0  0  0  0  0  0  0  # atno 17321 bound_to 7965
  140.7750  143.5191  150.9558 LP  0  0  0  0  0  0  0  0  0  0  0  0  # atno 17342 bound_to 10162
  139.8878  143.6991  152.3149 LP  0  0  0  0  0  0  0  0  0  0  0  0  # atno 17343 bound_to 10162
  156.8450  130.9439  151.3629 LP  0  0  0  0  0  0  0  0  0  0  0  0  # atno 17370 bound_to 10713
  157.6359  130.8766  149.9358 LP  0  0  0  0  0  0  0  0  0  0  0  0  # atno 17371 bound_to 10713
  139.9517  135.0174  156.9014 LP  0  0  0  0  0  0  0  0  0  0  0  0  # atno 17394 bound_to 11000
  140.5686  134.0465  155.7423 LP  0  0  0  0  0  0  0  0  0  0  0  0  # atno 17395 bound_to 11000

$$$$
