#       Name:                AV-unprocessed.smi:3276
#       Creating user name   scv26
#       Creation time:       Fri Mar 27 18:45:01 2020


#       File generated by GOLD software.
#

@<TRIPOS>MOLECULE
AV-unprocessed.smi:3276
    45    46     1
SMALL
NO_CHARGES


@<TRIPOS>ATOM
      1 ****         0.0908   5.4834  -1.2204 C.3            1 S1                 0.0000
      2 ****        -0.7003   4.1931  -1.1974 C.ar           1 S1                 0.0000
      3 ****        -2.1036   4.1894  -1.0496 C.ar           1 S1                 0.0000
      4 ****        -2.8097   3.0384  -1.0292 N.ar           1 S1                 0.0000
      5 ****        -2.1070   1.8889  -1.1551 C.ar           1 S1                 0.0000
      6 ****        -2.9164   0.6046  -1.1275 C.3            1 S1                 0.0000
      7 ****        -0.6962   1.8858  -1.3011 C.ar           1 S1                 0.0000
      8 ****        -0.0010   0.6744  -1.4310 N.pl3          1 S1                 0.0000
      9 ****         1.4434   0.6351  -1.2516 C.3            1 S1                 0.0000
     10 ****         1.9616  -0.8063  -1.2282 C.3            1 S1                 0.0000
     11 ****         1.4921  -1.4372  -0.0488 O.3            1 S1                 0.0000
     12 ****         1.9145  -2.7858   0.0672 C.3            1 S1                 0.0000
     13 ****         1.3088  -3.4082   1.3331 C.3            1 S1                 0.0000
     14 ****        -0.2190  -3.3537   1.4177 C.3            1 S1                 0.0000
     15 ****        -0.4411  -3.3398   2.9131 C.3            1 S1                 0.0000
     16 ****         0.7184  -2.4677   3.3845 C.3            1 S1                 0.0000
     17 ****         1.7998  -2.7626   2.5058 O.3            1 S1                 0.0000
     18 ****         0.0040   3.0466  -1.3231 N.ar           1 S1                 0.0000
     19 ****        -0.5706   6.3504  -1.2150 H              1 S1                 0.0000
     20 ****         0.7110   5.5339  -2.1159 H              1 S1                 0.0000
     21 ****         0.7401   5.5439  -0.3465 H              1 S1                 0.0000
     22 ****        -2.6626   5.1080  -0.9475 H              1 S1                 0.0000
     23 ****        -2.5750  -0.0426  -0.3192 H              1 S1                 0.0000
     24 ****        -2.8053   0.0675  -2.0698 H              1 S1                 0.0000
     25 ****        -3.9780   0.8041  -0.9747 H              1 S1                 0.0000
     26 ****        -0.5129  -0.1916  -1.3431 H              1 S1                 0.0000
     27 ****         1.9114   1.1766  -2.0745 H              1 S1                 0.0000
     28 ****         1.7199   1.1459  -0.3284 H              1 S1                 0.0000
     29 ****         1.6318  -1.3474  -2.1168 H              1 S1                 0.0000
     30 ****         3.0524  -0.8042  -1.2306 H              1 S1                 0.0000
     31 ****         1.5920  -3.3520  -0.8078 H              1 S1                 0.0000
     32 ****         3.0036  -2.8367   0.1075 H              1 S1                 0.0000
     33 ****         1.6229  -4.4509   1.4006 H              1 S1                 0.0000
     34 ****        -0.6079  -2.4320   0.9830 H              1 S1                 0.0000
     35 ****        -0.7025  -4.1943   0.9193 H              1 S1                 0.0000
     36 ****        -1.4162  -2.9452   3.1996 H              1 S1                 0.0000
     37 ****        -0.3452  -4.3481   3.3177 H              1 S1                 0.0000
     38 ****         0.4650  -1.4119   3.2803 H              1 S1                 0.0000
     39 ****         0.9863  -2.6512   4.4250 H              1 S1                 0.0000
     40 ****        -3.8043   3.0357  -0.9260 LP             1 S1                 0.0000
     41 ****         0.4923  -1.4162  -0.0532 LP             1 S1                 0.0000
     42 ****         1.8328  -0.9280   0.7415 LP             1 S1                 0.0000
     43 ****         2.2596  -1.9126   2.2487 LP             1 S1                 0.0000
     44 ****         2.4490  -3.3657   2.9693 LP             1 S1                 0.0000
     45 ****         0.9985   3.0541  -1.4278 LP             1 S1                 0.0000
@<TRIPOS>BOND
    1    1    2 1     
    2    1   19 1     
    3    1   20 1     
    4    1   21 1     
    5    2   18 ar    
    6    2    3 ar    
    7    3    4 ar    
    8    3   22 1     
    9    4    5 ar    
   10    5    6 1     
   11    5    7 ar    
   12    6   23 1     
   13    6   24 1     
   14    6   25 1     
   15    7    8 1     
   16    7   18 ar    
   17    8    9 1     
   18    8   26 1     
   19    9   10 1     
   20    9   27 1     
   21    9   28 1     
   22   10   11 1     
   23   10   29 1     
   24   10   30 1     
   25   11   12 1     
   26   12   13 1     
   27   12   31 1     
   28   12   32 1     
   29   13   17 1     
   30   13   14 1     
   31   13   33 1     
   32   14   15 1     
   33   14   34 1     
   34   14   35 1     
   35   15   16 1     
   36   15   36 1     
   37   15   37 1     
   38   16   17 1     
   39   16   38 1     
   40   16   39 1     
   41    4   40 1     
   42   11   41 1     
   43   11   42 1     
   44   17   43 1     
   45   17   44 1     
   46   18   45 1     
@<TRIPOS>SUBSTRUCTURE
      1 S1             1
@<TRIPOS>SET
LONE_PAIRS      STATIC     ATOMS    <user>   **** ""
6 40 41 42 43 44 45
DONOR_HYDROGENS      STATIC     ATOMS    <user>   **** ""
1 26
ATOM$BLUE        STATIC     ATOMS    COLORGROUP SYSTEM
6 40 41 42 43 44 45
ATOM$RED        STATIC     ATOMS    COLORGROUP SYSTEM
1 26
