AV-unprocessed.smi:1105|AV-procd|sdf|4776|dock2
  -GOLD-   22720 3313D 1   1.00000     0.00000
 Structure written by MMmdl.
 33 34  0  0  0  0  0  0  0  0  1 V2000
  146.7951  138.7304  151.8830 C   0  0  0  0  0  0  0  0  0  0  0  0
  148.0445  138.7263  152.6284 N   0  0  0  0  0  0  0  0  0  0  0  0
  148.3151  139.5504  153.6489 C   0  0  0  0  0  0  0  0  0  0  0  0
  147.5244  140.3982  154.0625 O   0  0  0  0  0  0  0  0  0  0  0  0
  149.5513  139.3368  154.1311 N   0  0  0  0  0  0  0  0  0  0  0  0
  150.2126  140.0052  155.1964 C   0  0  0  0  0  0  0  0  0  0  0  0
  149.6376  141.0452  155.9651 C   0  0  0  0  0  0  0  0  0  0  0  0
  150.3928  141.6185  157.0062 C   0  0  0  0  0  0  0  0  0  0  0  0
  151.6924  141.1310  157.2532 C   0  0  0  0  0  0  0  0  0  0  0  0
  152.4476  141.7008  158.2879 N   0  0  0  0  0  0  0  0  0  0  0  0
  152.4460  140.9078  159.5112 C   0  0  0  0  0  0  0  0  0  0  0  0
  153.3928  141.5375  160.5472 C   0  0  0  0  0  0  0  0  0  0  0  0
  153.0147  142.8917  160.7786 O   0  0  0  0  0  0  0  0  0  0  0  0
  153.0878  143.6791  159.5931 C   0  0  0  0  0  0  0  0  0  0  0  0
  152.1346  143.1034  158.5314 C   0  0  0  0  0  0  0  0  0  0  0  0
  152.2431  140.1264  156.5315 N   0  0  0  0  0  0  0  0  0  0  0  0
  151.5141  139.5812  155.5352 C   0  0  0  0  0  0  0  0  0  0  0  0
  146.8272  137.9735  151.0996 H   0  0  0  0  0  0  0  0  0  0  0  0
  146.6267  139.7003  151.4134 H   0  0  0  0  0  0  0  0  0  0  0  0
  145.9513  138.5087  152.5379 H   0  0  0  0  0  0  0  0  0  0  0  0
  148.7475  138.0586  152.3471 H   0  0  0  0  0  0  0  0  0  0  0  0
  150.1099  138.6587  153.6338 H   0  0  0  0  0  0  0  0  0  0  0  0
  148.6357  141.4041  155.7886 H   0  0  0  0  0  0  0  0  0  0  0  0
  149.9772  142.4153  157.6056 H   0  0  0  0  0  0  0  0  0  0  0  0
  151.4349  140.8561  159.9180 H   0  0  0  0  0  0  0  0  0  0  0  0
  152.7578  139.8860  159.2902 H   0  0  0  0  0  0  0  0  0  0  0  0
  153.3408  140.9881  161.4872 H   0  0  0  0  0  0  0  0  0  0  0  0
  154.4288  141.4908  160.2070 H   0  0  0  0  0  0  0  0  0  0  0  0
  152.8096  144.7058  159.8306 H   0  0  0  0  0  0  0  0  0  0  0  0
  154.1139  143.7038  159.2226 H   0  0  0  0  0  0  0  0  0  0  0  0
  152.2230  143.6680  157.6025 H   0  0  0  0  0  0  0  0  0  0  0  0
  151.1022  143.1992  158.8710 H   0  0  0  0  0  0  0  0  0  0  0  0
  151.9905  138.7818  154.9865 H   0  0  0  0  0  0  0  0  0  0  0  0
  1  2  1  0  0  0  0
  1 18  1  0  0  0  0
  1 19  1  0  0  0  0
  1 20  1  0  0  0  0
  2  3  1  0  0  0  0
  2 21  1  0  0  0  0
  3  4  2  0  0  0  0
  3  5  1  0  0  0  0
  5  6  1  0  0  0  0
  5 22  1  0  0  0  0
  6 17  1  0  0  0  0
  6  7  2  0  0  0  0
  7  8  1  0  0  0  0
  7 23  1  0  0  0  0
  8  9  2  0  0  0  0
  8 24  1  0  0  0  0
  9 10  1  0  0  0  0
  9 16  1  0  0  0  0
 10 15  1  0  0  0  0
 10 11  1  0  0  0  0
 11 12  1  0  0  0  0
 11 25  1  0  0  0  0
 11 26  1  0  0  0  0
 12 13  1  0  0  0  0
 12 27  1  0  0  0  0
 12 28  1  0  0  0  0
 13 14  1  0  0  0  0
 14 15  1  0  0  0  0
 14 29  1  0  0  0  0
 14 30  1  0  0  0  0
 15 31  1  0  0  0  0
 15 32  1  0  0  0  0
 16 17  2  0  0  0  0
 17 33  1  0  0  0  0
M  END
> <s_m_source_file>
AV-unprocessed.smi

> <i_m_source_file_index>
1105

> <i_lp_mmshare_version>
43012

> <i_f3d_flags>
0

> <s_epik_input>
W0NIM11bTkhdQyg9TylbTkhdYzFbY0hdW2NIXWMobltjSF0xKU4yW0NIMl1bQ0gyXU9bQ0gyXVtDSDJdMg==

> <s_epik_cmdline>
J2VwaWtfcHl0aG9uJywgJy1waCcsICc3LjAnLCAnLXRuJywgJzgnLCAnLW1hJywgJzIwMCcsICctbWV0YWxfYmluZGluZycsICctaW1hZScsICc8aW5maWxlLm1hZT4nLCAnLW9tYWUnLCAnPG91dGZpbGUubWFlPic=

> <r_lp_tautomer_probability>
1

> <r_epik_Ionization_Penalty>
0.00679356

> <r_epik_Ionization_Penalty_Charging>
0

> <r_epik_Ionization_Penalty_Neutral>
0.00679356

> <r_epik_State_Penalty>
0.00501419

> <r_epik_Charging_Adjusted_Penalty>
0.00501419

> <i_epik_Tot_Q>
0

> <i_epik_Tot_abs_Q>
0

> <r_epik_Metal_State_Penalty>
-0

> <b_epik_Metal_Only>
0

> <s_lp_Force_Field>
OPLS_2005

> <r_lp_Energy>
21.2477

> <b_lp_Chiralities_Consistent>
1

> <s_lp_Variant>
AV-unprocessed.smi:1105-1

> <Gold.Version>
5.8.1

> <Gold.Id.Protein>
6NUR|6NUR_protein|mol2

> <Gold.PLP.Fitness>
36.7975

> <Gold.PLP.PLP>
-32.8263

> <Gold.PLP.part.hbond>
-3.7607

> <Gold.PLP.part.metal>
0.0000

> <Gold.PLP.part.buried>
0.1468

> <Gold.PLP.part.nonpolar>
-27.9315

> <Gold.PLP.part.repulsive>
0.3144

> <Gold.PLP.ligand.clash>
0.0000

> <Gold.PLP.ligand.torsion>
0.6533

> <Gold.PLP.Chemscore.Hbond>
1.7253

> <Gold.PLP.Chemscore.CHOScore>
0.0000

> <Gold.PLP.Chemscore.Metal>
0.0000

> <Gold.Chemscore.Hbonds>
donor molecule, donor type, donor heavy atom, donor atom, acceptor molecule, acceptor atom, score
      L1  H     2    21       P1  7948  0.85
      P1  H  7997  8009       L1    16  0.84

> <Gold.PLP.Chemscore.Internal.Correction>
0.1020

> <Gold.Rescore>
     Score         DG    S(hbond)    S(metal)    S(lipo)     H(rot)  DE(clash)    DE(int)     intcor
     15.09     -17.13       1.55        0.00      77.23       1.00       0.31       1.74       ----

> <Gold.Chemscore.Fitness>
15.0851

> <Gold.Chemscore.DG>
-17.1343

> <Gold.Chemscore.ZeroCoef>
-5.4800

> <Gold.Chemscore.Hbond>
1.5505

> <Gold.Chemscore.Metal>
0.0000

> <Gold.Chemscore.Lipo>
77.2276

> <Gold.Chemscore.Internal_Hbond>
0.0000

> <Gold.Chemscore.DEClash>
0.3124

> <Gold.Chemscore.DEInternal>
1.7368

> <Gold.Chemscore.Rot>
1.0000

> <Gold.Chemscore.Internal.Correction>
   9.000000E+99

> <Gold.Chemscore.Hbonds>
donor molecule, donor type, donor heavy atom, donor atom, acceptor molecule, acceptor atom, score
      L1  H     2    21       P1  7948  0.85
      P1  H  7997  8009       L1    16  0.74

> <Gold.Chemscore.Hbond.Weighted>
-5.1787

> <Gold.Chemscore.Metal.Weighted>
-0.0000

> <Gold.Chemscore.Lipo.Weighted>
-9.0356

> <Gold.Chemscore.Internal_Hbond.Weighted>
0.0000

> <Gold.Chemscore.DEClash.Weighted>
0.3124

> <Gold.Chemscore.DEInternal.Weighted>
1.7368

> <Gold.Chemscore.Rot.Weighted>
2.5600

> <Gold.Chemscore.Internal.Correction.Weighted>
   9.000000E+99

> <Gold.Protein.RotatedTorsions>
[ 6907 6896 6895 6894 ] final  124.61 input  -60.11 | X-H torsion
[ 7974 7965 7964 7962 ] final -179.76 input  175.53 | X-H torsion
[ 8008 7997 7996 7995 ] final -165.35 input   59.86 | X-H torsion
[ 10167 10162 10161 10158 ] final  136.84 input  -65.29 | X-H torsion
[ 10718 10713 10712 10709 ] final   53.12 input   66.30 | X-H torsion
[ 10763 10752 10751 10750 ] final  116.88 input  -60.55 | X-H torsion
[ 11005 11000 10999 10996 ] final -176.45 input  -57.11 | X-H torsion

> <Gold.Protein.ActiveResidues>
 VAL166  LYS551  ARG553  GLY616  TRP617  ASP618  TYR619  PRO620  LYS621  CYS622 
 ASP623  PHE694  ASN695  SER759  ASP760  ASP761  ALA762  ILE779  LEU786  VAL792 
 PHE793  MET794  SER795  GLU796  ALA797  LYS798  CYS799  TRP800  GLU811  SER814 

> <Gold.Protein.RotatedAtoms>
  152.4063  133.6895  159.6359 H   0  0  0  0  0  0  0  0  0  0  0  0  # atno 6907 bound_to 6896
  150.7948  133.8702  159.3265 H   0  0  0  0  0  0  0  0  0  0  0  0  # atno 6908 bound_to 6896
  151.6456  135.1009  160.0201 H   0  0  0  0  0  0  0  0  0  0  0  0  # atno 6909 bound_to 6896
  144.7139  140.0669  143.6430 H   0  0  0  0  0  0  0  0  0  0  0  0  # atno 7974 bound_to 7965
  155.8485  140.0959  157.1690 H   0  0  0  0  0  0  0  0  0  0  0  0  # atno 8008 bound_to 7997
  154.3984  140.1387  156.3877 H   0  0  0  0  0  0  0  0  0  0  0  0  # atno 8009 bound_to 7997
  155.7987  140.3453  155.5393 H   0  0  0  0  0  0  0  0  0  0  0  0  # atno 8010 bound_to 7997
  139.5165  144.6443  151.5484 H   0  0  0  0  0  0  0  0  0  0  0  0  # atno 10167 bound_to 10162
  157.5138  130.8518  149.8469 H   0  0  0  0  0  0  0  0  0  0  0  0  # atno 10718 bound_to 10713
  153.5439  135.3553  155.2730 H   0  0  0  0  0  0  0  0  0  0  0  0  # atno 10763 bound_to 10752
  154.8714  135.4097  154.3013 H   0  0  0  0  0  0  0  0  0  0  0  0  # atno 10764 bound_to 10752
  153.3725  135.7065  153.6695 H   0  0  0  0  0  0  0  0  0  0  0  0  # atno 10765 bound_to 10752
  140.4519  134.6335  157.4805 H   0  0  0  0  0  0  0  0  0  0  0  0  # atno 11005 bound_to 11000
  145.9816  139.2945  143.1038 LP  0  0  0  0  0  0  0  0  0  0  0  0  # atno 17320 bound_to 7965
  145.9004  140.9246  143.0506 LP  0  0  0  0  0  0  0  0  0  0  0  0  # atno 17321 bound_to 7965
  140.6221  143.9238  150.6535 LP  0  0  0  0  0  0  0  0  0  0  0  0  # atno 17342 bound_to 10162
  140.2515  143.3590  152.1401 LP  0  0  0  0  0  0  0  0  0  0  0  0  # atno 17343 bound_to 10162
  156.0306  130.3766  150.1697 LP  0  0  0  0  0  0  0  0  0  0  0  0  # atno 17370 bound_to 10713
  156.9887  130.9886  151.3420 LP  0  0  0  0  0  0  0  0  0  0  0  0  # atno 17371 bound_to 10713
  140.0001  134.6850  155.9544 LP  0  0  0  0  0  0  0  0  0  0  0  0  # atno 17394 bound_to 11000
  141.1660  133.6537  156.4481 LP  0  0  0  0  0  0  0  0  0  0  0  0  # atno 17395 bound_to 11000

$$$$
