AV-unprocessed.smi:1803|AV-procd|sdf|7287|dock7
  -GOLD-   22720 8543D 1   1.00000     0.00000
 Structure written by MMmdl.
 35 37  0  0  0  0  0  0  0  0  3 V2000
  151.1016  141.1674  158.1962 O   0  0  0  0  0  0  0  0  0  0  0  0
  150.7575  142.2238  157.6681 C   0  0  0  0  0  0  0  0  0  0  0  0
  151.0740  143.4470  158.1671 N   0  5  0  0  0  0  0  0  0  0  0  0
  151.3885  143.6437  159.4610 C   0  0  0  0  0  0  0  0  0  0  0  0
  151.4985  142.6330  160.3383 N   0  0  0  0  0  0  0  0  0  0  0  0
  151.8375  143.0546  161.6166 N   0  0  0  0  0  0  0  0  0  0  0  0
  151.9607  144.3805  161.6746 C   0  0  0  0  0  0  0  0  0  0  0  0
  151.6857  145.2331  160.1701 S   0  0  0  0  0  0  0  0  0  0  0  0
  150.0306  142.1776  156.5359 N   0  0  0  0  0  0  0  0  0  0  0  0
  149.5835  140.9675  155.8573 C   0  0  2  0  0  0  0  0  0  0  0  0
  150.6623  139.8789  155.7424 C   0  0  0  0  0  0  0  0  0  0  0  0
  150.4819  139.2724  154.3371 C   0  0  0  0  0  0  0  0  0  0  0  0
  149.2883  139.9188  153.7445 N   0  3  1  0  0  0  0  0  0  0  0  0
  148.0641  139.0865  153.9020 C   0  0  0  0  0  0  0  0  0  0  0  0
  146.7920  139.8485  153.5076 C   0  0  0  0  0  0  0  0  0  0  0  0
  146.6566  141.1218  154.3466 C   0  0  0  0  0  0  0  0  0  0  0  0
  147.8957  142.0010  154.1458 C   0  0  0  0  0  0  0  0  0  0  0  0
  149.2216  141.2483  154.3969 C   0  0  1  0  0  0  0  0  0  0  0  0
  152.2170  144.8590  162.6079 H   0  0  0  0  0  0  0  0  0  0  0  0
  149.7686  143.0588  156.1185 H   0  0  0  0  0  0  0  0  0  0  0  0
  148.7139  140.5600  156.3754 H   0  0  0  0  0  0  0  0  0  0  0  0
  151.6656  140.2963  155.8407 H   0  0  0  0  0  0  0  0  0  0  0  0
  150.5419  139.1295  156.5254 H   0  0  0  0  0  0  0  0  0  0  0  0
  151.3461  139.5205  153.7199 H   0  0  0  0  0  0  0  0  0  0  0  0
  150.4027  138.1846  154.3583 H   0  0  0  0  0  0  0  0  0  0  0  0
  148.1636  138.1903  153.2888 H   0  0  0  0  0  0  0  0  0  0  0  0
  147.9754  138.7475  154.9356 H   0  0  0  0  0  0  0  0  0  0  0  0
  146.8213  140.1005  152.4465 H   0  0  0  0  0  0  0  0  0  0  0  0
  145.9182  139.2130  153.6535 H   0  0  0  0  0  0  0  0  0  0  0  0
  145.7586  141.6692  154.0593 H   0  0  0  0  0  0  0  0  0  0  0  0
  146.5414  140.8663  155.4005 H   0  0  0  0  0  0  0  0  0  0  0  0
  147.8942  142.3710  153.1197 H   0  0  0  0  0  0  0  0  0  0  0  0
  147.8376  142.8843  154.7825 H   0  0  0  0  0  0  0  0  0  0  0  0
  150.0254  141.8476  153.9640 H   0  0  0  0  0  0  0  0  0  0  0  0
  149.4362  140.0519  152.7545 H   0  0  0  0  0  0  0  0  0  0  0  0
  1  2  2  0  0  0  0
  2  3  1  0  0  0  0
  2  9  1  0  0  0  0
  3  4  1  0  0  0  0
  4  8  1  0  0  0  0
  4  5  2  0  0  0  0
  5  6  1  0  0  0  0
  6  7  2  0  0  0  0
  7  8  1  0  0  0  0
  7 19  1  0  0  0  0
  9 10  1  0  0  0  0
  9 20  1  0  0  0  0
 10 18  1  0  0  0  0
 10 11  1  0  0  0  0
 10 21  1  0  0  0  0
 11 12  1  0  0  0  0
 11 22  1  0  0  0  0
 11 23  1  0  0  0  0
 12 13  1  0  0  0  0
 12 24  1  0  0  0  0
 12 25  1  0  0  0  0
 13 18  1  0  0  0  0
 13 14  1  0  0  0  0
 13 35  1  0  0  0  0
 14 15  1  0  0  0  0
 14 26  1  0  0  0  0
 14 27  1  0  0  0  0
 15 16  1  0  0  0  0
 15 28  1  0  0  0  0
 15 29  1  0  0  0  0
 16 17  1  0  0  0  0
 16 30  1  0  0  0  0
 16 31  1  0  0  0  0
 17 18  1  0  0  0  0
 17 32  1  0  0  0  0
 17 33  1  0  0  0  0
 18 34  1  0  0  0  0
M  CHG  1   3  -1
M  CHG  1  13   1
M  END
> <s_m_source_file>
AV-unprocessed.smi

> <i_m_source_file_index>
1803

> <i_lp_mmshare_version>
43012

> <i_f3d_flags>
0

> <s_epik_input>
czFbY0hdbm5jMVtOSF1DKD1PKVtOSF1bQ0BIXShbQ0gyXVtDSDJdMilbQ0BASF0oTjIzKVtDSDJdW0NIMl1bQ0gyXVtDSDJdMw==

> <s_epik_cmdline>
J2VwaWtfcHl0aG9uJywgJy1waCcsICc3LjAnLCAnLXRuJywgJzgnLCAnLW1hJywgJzIwMCcsICctbWV0YWxfYmluZGluZycsICctaW1hZScsICc8aW5maWxlLm1hZT4nLCAnLW9tYWUnLCAnPG91dGZpbGUubWFlPic=

> <r_lp_tautomer_probability>
1

> <r_epik_Ionization_Penalty>
3.78828

> <r_epik_Ionization_Penalty_Charging>
3.7591

> <r_epik_Ionization_Penalty_Neutral>
0.0291838

> <r_epik_State_Penalty>
3.757

> <r_epik_Charging_Adjusted_Penalty>
7.51609

> <i_epik_Tot_Q>
0

> <i_epik_Tot_abs_Q>
2

> <r_epik_Metal_State_Penalty>
0.558016

> <b_epik_Metal_Only>
1

> <s_lp_Force_Field>
OPLS_2005

> <r_lp_Energy>
31.4386

> <b_lp_Chiralities_Consistent>
1

> <s_lp_Variant>
AV-unprocessed.smi:1803-9

> <Gold.Version>
5.8.1

> <Gold.Id.Protein>
6NUR|6NUR_protein|mol2

> <Gold.PLP.Fitness>
41.8634

> <Gold.PLP.PLP>
-36.5651

> <Gold.PLP.part.hbond>
-3.1126

> <Gold.PLP.part.metal>
0.0000

> <Gold.PLP.part.buried>
-3.4800

> <Gold.PLP.part.nonpolar>
-29.6207

> <Gold.PLP.part.repulsive>
0.4704

> <Gold.PLP.ligand.clash>
0.0000

> <Gold.PLP.ligand.torsion>
0.3557

> <Gold.PLP.Chemscore.Hbond>
2.0000

> <Gold.PLP.Chemscore.CHOScore>
0.0000

> <Gold.PLP.Chemscore.Metal>
0.0000

> <Gold.Chemscore.Hbonds>
donor molecule, donor type, donor heavy atom, donor atom, acceptor molecule, acceptor atom, score
      L1  H     9    20       P1  8028  1.00
      L1  H    13    35       P1  7957  1.00
      P1  H  6933  6945       L1     6  0.03

> <Gold.PLP.Chemscore.Internal.Correction>
0.0096

> <Gold.Rescore>
     Score         DG    S(hbond)    S(metal)    S(lipo)     H(rot)  DE(clash)    DE(int)     intcor
     15.17     -18.46       1.96        0.00      76.72       1.00       0.03       3.26       ----

> <Gold.Chemscore.Fitness>
15.1728

> <Gold.Chemscore.DG>
-18.4596

> <Gold.Chemscore.ZeroCoef>
-5.4800

> <Gold.Chemscore.Hbond>
1.9650

> <Gold.Chemscore.Metal>
0.0000

> <Gold.Chemscore.Lipo>
76.7229

> <Gold.Chemscore.Internal_Hbond>
0.0000

> <Gold.Chemscore.DEClash>
0.0318

> <Gold.Chemscore.DEInternal>
3.2550

> <Gold.Chemscore.Rot>
1.0000

> <Gold.Chemscore.Internal.Correction>
   9.000000E+99

> <Gold.Chemscore.Hbonds>
donor molecule, donor type, donor heavy atom, donor atom, acceptor molecule, acceptor atom, score
      L1  H     9    20       P1  8028  0.99
      L1  H    13    35       P1  7957  0.99

> <Gold.Chemscore.Hbond.Weighted>
-6.5630

> <Gold.Chemscore.Metal.Weighted>
-0.0000

> <Gold.Chemscore.Lipo.Weighted>
-8.9766

> <Gold.Chemscore.Internal_Hbond.Weighted>
0.0000

> <Gold.Chemscore.DEClash.Weighted>
0.0318

> <Gold.Chemscore.DEInternal.Weighted>
3.2550

> <Gold.Chemscore.Rot.Weighted>
2.5600

> <Gold.Chemscore.Internal.Correction.Weighted>
   9.000000E+99

> <Gold.Protein.RotatedTorsions>
[ 6907 6896 6895 6894 ] final   89.69 input  -60.11 | X-H torsion
[ 7974 7965 7964 7962 ] final -139.89 input  175.53 | X-H torsion
[ 8008 7997 7996 7995 ] final  -59.55 input   59.86 | X-H torsion
[ 10167 10162 10161 10158 ] final  -36.39 input  -65.29 | X-H torsion
[ 10718 10713 10712 10709 ] final   19.22 input   66.30 | X-H torsion
[ 10763 10752 10751 10750 ] final -104.50 input  -60.55 | X-H torsion
[ 11005 11000 10999 10996 ] final  121.68 input  -57.11 | X-H torsion

> <Gold.Protein.ActiveResidues>
 VAL166  LYS551  ARG553  GLY616  TRP617  ASP618  TYR619  PRO620  LYS621  CYS622 
 ASP623  PHE694  ASN695  SER759  ASP760  ASP761  ALA762  ILE779  LEU786  VAL792 
 PHE793  MET794  SER795  GLU796  ALA797  LYS798  CYS799  TRP800  GLU811  SER814 

> <Gold.Protein.RotatedAtoms>
  152.5438  134.1927  159.8680 H   0  0  0  0  0  0  0  0  0  0  0  0  # atno 6907 bound_to 6896
  151.1922  133.4654  159.2602 H   0  0  0  0  0  0  0  0  0  0  0  0  # atno 6908 bound_to 6896
  151.1072  135.0018  159.8532 H   0  0  0  0  0  0  0  0  0  0  0  0  # atno 6909 bound_to 6896
  144.8640  140.6264  143.5310 H   0  0  0  0  0  0  0  0  0  0  0  0  # atno 7974 bound_to 7965
  154.4358  140.1059  156.6134 H   0  0  0  0  0  0  0  0  0  0  0  0  # atno 8008 bound_to 7997
  155.5785  140.3490  155.4515 H   0  0  0  0  0  0  0  0  0  0  0  0  # atno 8009 bound_to 7997
  156.0336  140.1266  157.0221 H   0  0  0  0  0  0  0  0  0  0  0  0  # atno 8010 bound_to 7997
  140.7143  143.3412  151.2354 H   0  0  0  0  0  0  0  0  0  0  0  0  # atno 10167 bound_to 10162
  157.1074  130.6494  149.5888 H   0  0  0  0  0  0  0  0  0  0  0  0  # atno 10718 bound_to 10713
  154.7882  135.4784  153.9994 H   0  0  0  0  0  0  0  0  0  0  0  0  # atno 10763 bound_to 10752
  153.1592  135.6805  153.8774 H   0  0  0  0  0  0  0  0  0  0  0  0  # atno 10764 bound_to 10752
  153.8394  135.3181  155.3403 H   0  0  0  0  0  0  0  0  0  0  0  0  # atno 10765 bound_to 10752
  139.9236  134.9639  156.7994 H   0  0  0  0  0  0  0  0  0  0  0  0  # atno 11005 bound_to 11000
  145.4257  139.1557  143.4050 LP  0  0  0  0  0  0  0  0  0  0  0  0  # atno 17320 bound_to 7965
  146.2882  140.4370  142.8750 LP  0  0  0  0  0  0  0  0  0  0  0  0  # atno 17321 bound_to 7965
  139.6920  143.9677  152.2864 LP  0  0  0  0  0  0  0  0  0  0  0  0  # atno 17342 bound_to 10162
  139.9341  144.6723  150.8332 LP  0  0  0  0  0  0  0  0  0  0  0  0  # atno 17343 bound_to 10162
  155.9859  130.4891  150.7052 LP  0  0  0  0  0  0  0  0  0  0  0  0  # atno 17370 bound_to 10713
  157.4589  131.0881  151.0767 LP  0  0  0  0  0  0  0  0  0  0  0  0  # atno 17371 bound_to 10713
  140.6402  133.9825  155.7704 LP  0  0  0  0  0  0  0  0  0  0  0  0  # atno 17394 bound_to 11000
  141.0776  134.0111  157.3434 LP  0  0  0  0  0  0  0  0  0  0  0  0  # atno 17395 bound_to 11000

$$$$
