AV-unprocessed.smi:671|AV-procd|sdf|3281|dock1
  -GOLD-   22720 0243D 1   1.00000     0.00000
 Structure written by MMmdl.
 50 51  0  0  0  0  0  0  0  0  2 V2000
  147.1524  141.7027  154.0626 C   0  0  0  0  0  0  0  0  0  0  0  0
  148.4487  141.4154  154.7435 C   0  0  0  0  0  0  0  0  0  0  0  0
  149.0845  142.2760  155.5823 N   0  3  0  0  0  0  0  0  0  0  0  0
  150.2219  141.7282  156.0325 N   0  0  0  0  0  0  0  0  0  0  0  0
  151.0566  142.5024  156.9517 C   0  0  0  0  0  0  0  0  0  0  0  0
  150.3864  140.4808  155.5060 C   0  0  0  0  0  0  0  0  0  0  0  0
  151.5497  139.5892  155.7985 C   0  0  0  0  0  0  0  0  0  0  0  0
  149.2640  140.2791  154.6906 C   0  0  0  0  0  0  0  0  0  0  0  0
  148.9602  139.0502  153.8798 C   0  0  0  0  0  0  0  0  0  0  0  0
  147.5380  138.5017  154.1322 C   0  0  2  0  0  0  0  0  0  0  0  0
  147.2157  138.3676  155.6288 C   0  0  0  0  0  0  0  0  0  0  0  0
  147.3688  137.1941  153.4937 N   0  0  0  0  0  0  0  0  0  0  0  0
  146.2929  136.3859  153.5284 C   0  0  0  0  0  0  0  0  0  0  0  0
  145.2812  136.6813  154.1609 O   0  0  0  0  0  0  0  0  0  0  0  0
  146.4330  135.2397  152.8412 N   0  0  0  0  0  0  0  0  0  0  0  0
  145.4229  134.1949  152.7035 C   0  0  2  0  0  0  0  0  0  0  0  0
  146.0375  132.9280  152.0780 C   0  0  0  0  0  0  0  0  0  0  0  0
  145.4034  132.7836  150.6936 C   0  0  0  0  0  0  0  0  0  0  0  0
  144.0359  133.4427  150.8376 C   0  0  0  0  0  0  0  0  0  0  0  0
  144.2961  134.6453  151.7489 C   0  0  1  0  0  0  0  0  0  0  0  0
  143.0412  135.1546  152.4706 C   0  0  0  0  0  0  0  0  0  0  0  0
  146.3849  141.0073  154.4030 H   0  0  0  0  0  0  0  0  0  0  0  0
  147.2645  141.5961  152.9838 H   0  0  0  0  0  0  0  0  0  0  0  0
  146.8195  142.7188  154.2764 H   0  0  0  0  0  0  0  0  0  0  0  0
  151.7603  141.8411  157.4575 H   0  0  0  0  0  0  0  0  0  0  0  0
  150.4254  142.9896  157.6959 H   0  0  0  0  0  0  0  0  0  0  0  0
  151.6066  143.2549  156.3858 H   0  0  0  0  0  0  0  0  0  0  0  0
  151.4671  138.6437  155.2642 H   0  0  0  0  0  0  0  0  0  0  0  0
  151.5971  139.3737  156.8660 H   0  0  0  0  0  0  0  0  0  0  0  0
  152.4785  140.0747  155.4991 H   0  0  0  0  0  0  0  0  0  0  0  0
  149.0795  139.2926  152.8235 H   0  0  0  0  0  0  0  0  0  0  0  0
  149.6953  138.2681  154.0691 H   0  0  0  0  0  0  0  0  0  0  0  0
  146.8067  139.1901  153.7057 H   0  0  0  0  0  0  0  0  0  0  0  0
  147.2559  139.3328  156.1333 H   0  0  0  0  0  0  0  0  0  0  0  0
  147.9180  137.7000  156.1293 H   0  0  0  0  0  0  0  0  0  0  0  0
  146.2124  137.9668  155.7788 H   0  0  0  0  0  0  0  0  0  0  0  0
  148.1877  136.8247  153.0316 H   0  0  0  0  0  0  0  0  0  0  0  0
  147.3073  135.0854  152.3616 H   0  0  0  0  0  0  0  0  0  0  0  0
  145.0094  133.9242  153.6769 H   0  0  0  0  0  0  0  0  0  0  0  0
  147.1268  132.9545  152.0256 H   0  0  0  0  0  0  0  0  0  0  0  0
  145.7714  132.0634  152.6876 H   0  0  0  0  0  0  0  0  0  0  0  0
  145.9955  133.3267  149.9562 H   0  0  0  0  0  0  0  0  0  0  0  0
  145.3374  131.7447  150.3689 H   0  0  0  0  0  0  0  0  0  0  0  0
  143.6066  133.7298  149.8772 H   0  0  0  0  0  0  0  0  0  0  0  0
  143.3452  132.7473  151.3171 H   0  0  0  0  0  0  0  0  0  0  0  0
  144.6718  135.4494  151.1130 H   0  0  0  0  0  0  0  0  0  0  0  0
  142.6038  134.3806  153.1018 H   0  0  0  0  0  0  0  0  0  0  0  0
  142.2816  135.4722  151.7560 H   0  0  0  0  0  0  0  0  0  0  0  0
  143.2778  136.0083  153.1062 H   0  0  0  0  0  0  0  0  0  0  0  0
  148.8013  143.2045  155.8691 H   0  0  0  0  0  0  0  0  0  0  0  0
  1  2  1  0  0  0  0
  1 22  1  0  0  0  0
  1 23  1  0  0  0  0
  1 24  1  0  0  0  0
  2  8  1  0  0  0  0
  2  3  2  0  0  0  0
  3  4  1  0  0  0  0
  3 50  1  0  0  0  0
  4  5  1  0  0  0  0
  4  6  1  0  0  0  0
  5 25  1  0  0  0  0
  5 26  1  0  0  0  0
  5 27  1  0  0  0  0
  6  7  1  0  0  0  0
  6  8  2  0  0  0  0
  7 28  1  0  0  0  0
  7 29  1  0  0  0  0
  7 30  1  0  0  0  0
  8  9  1  0  0  0  0
  9 10  1  0  0  0  0
  9 31  1  0  0  0  0
  9 32  1  0  0  0  0
 10 11  1  0  0  0  0
 10 12  1  0  0  0  0
 10 33  1  0  0  0  0
 11 34  1  0  0  0  0
 11 35  1  0  0  0  0
 11 36  1  0  0  0  0
 12 13  1  0  0  0  0
 12 37  1  0  0  0  0
 13 14  2  0  0  0  0
 13 15  1  0  0  0  0
 15 16  1  0  0  0  0
 15 38  1  0  0  0  0
 16 20  1  0  0  0  0
 16 17  1  0  0  0  0
 16 39  1  0  0  0  0
 17 18  1  0  0  0  0
 17 40  1  0  0  0  0
 17 41  1  0  0  0  0
 18 19  1  0  0  0  0
 18 42  1  0  0  0  0
 18 43  1  0  0  0  0
 19 20  1  0  0  0  0
 19 44  1  0  0  0  0
 19 45  1  0  0  0  0
 20 21  1  0  0  0  0
 20 46  1  0  0  0  0
 21 47  1  0  0  0  0
 21 48  1  0  0  0  0
 21 49  1  0  0  0  0
M  CHG  1   3   1
M  END
> <s_m_source_file>
AV-unprocessed.smi

> <i_m_source_file_index>
671

> <i_lp_mmshare_version>
43012

> <i_f3d_flags>
0

> <s_epik_input>
W0NIM11jMW5uKFtDSDNdKWMoW0NIM10pYzFbQ0gyXVtDQEhdKFtDSDNdKVtOSF1DKD1PKVtOSF1bQ0BASF0yW0NIMl1bQ0gyXVtDSDJdW0NASF0yW0NIM10=

> <s_epik_cmdline>
J2VwaWtfcHl0aG9uJywgJy1waCcsICc3LjAnLCAnLXRuJywgJzgnLCAnLW1hJywgJzIwMCcsICctbWV0YWxfYmluZGluZycsICctaW1hZScsICc8aW5maWxlLm1hZT4nLCAnLW9tYWUnLCAnPG91dGZpbGUubWFlPic=

> <r_lp_tautomer_probability>
1

> <r_epik_Ionization_Penalty>
2.28705

> <r_epik_Ionization_Penalty_Charging>
2.28698

> <r_epik_Ionization_Penalty_Neutral>
6.23157e-05

> <r_epik_State_Penalty>
2.43671

> <r_epik_Charging_Adjusted_Penalty>
4.72369

> <i_epik_Tot_Q>
1

> <i_epik_Tot_abs_Q>
1

> <r_epik_Metal_State_Penalty>
2.44911

> <b_epik_Metal_Only>
0

> <s_lp_Force_Field>
OPLS_2005

> <r_lp_Energy>
34.9772

> <b_lp_Chiralities_Consistent>
1

> <s_lp_Variant>
AV-unprocessed.smi:671-9

> <Gold.Version>
5.8.1

> <Gold.Id.Protein>
6NUR|6NUR_protein|mol2

> <Gold.PLP.Fitness>
46.8769

> <Gold.PLP.PLP>
-36.1946

> <Gold.PLP.part.hbond>
-2.5599

> <Gold.PLP.part.metal>
0.0000

> <Gold.PLP.part.buried>
-4.5558

> <Gold.PLP.part.nonpolar>
-30.5135

> <Gold.PLP.part.repulsive>
0.2259

> <Gold.PLP.ligand.clash>
0.0000

> <Gold.PLP.ligand.torsion>
0.2806

> <Gold.PLP.Chemscore.Hbond>
3.7296

> <Gold.PLP.Chemscore.CHOScore>
0.0000

> <Gold.PLP.Chemscore.Metal>
0.0000

> <Gold.Chemscore.Hbonds>
donor molecule, donor type, donor heavy atom, donor atom, acceptor molecule, acceptor atom, score
      L1  H     3    50       P1  8028  1.93
      L1  H    12    37       P1  7948  0.98
      L1  H    15    38       P1  7948  0.75

> <Gold.PLP.Chemscore.Internal.Correction>
0.0547

> <Gold.Rescore>
     Score         DG    S(hbond)    S(metal)    S(lipo)     H(rot)  DE(clash)    DE(int)     intcor
     18.43     -20.04       2.54        0.00      84.81       1.51       0.24       1.37       ----

> <Gold.Chemscore.Fitness>
18.4330

> <Gold.Chemscore.DG>
-20.0436

> <Gold.Chemscore.ZeroCoef>
-5.4800

> <Gold.Chemscore.Hbond>
2.5435

> <Gold.Chemscore.Metal>
0.0000

> <Gold.Chemscore.Lipo>
84.8105

> <Gold.Chemscore.Internal_Hbond>
0.0000

> <Gold.Chemscore.DEClash>
0.2416

> <Gold.Chemscore.DEInternal>
1.3690

> <Gold.Chemscore.Rot>
1.5057

> <Gold.Chemscore.Internal.Correction>
   9.000000E+99

> <Gold.Chemscore.Hbonds>
donor molecule, donor type, donor heavy atom, donor atom, acceptor molecule, acceptor atom, score
      L1  H     3    50       P1  8028  0.86
      L1  H    12    37       P1  7948  0.89
      L1  H    15    38       P1  7948  0.70

> <Gold.Chemscore.Hbond.Weighted>
-8.4954

> <Gold.Chemscore.Metal.Weighted>
-0.0000

> <Gold.Chemscore.Lipo.Weighted>
-9.9228

> <Gold.Chemscore.Internal_Hbond.Weighted>
0.0000

> <Gold.Chemscore.DEClash.Weighted>
0.2416

> <Gold.Chemscore.DEInternal.Weighted>
1.3690

> <Gold.Chemscore.Rot.Weighted>
3.8547

> <Gold.Chemscore.Internal.Correction.Weighted>
   9.000000E+99

> <Gold.Protein.RotatedTorsions>
[ 6907 6896 6895 6894 ] final   84.90 input  -60.11 | X-H torsion
[ 7974 7965 7964 7962 ] final  -69.57 input  175.53 | X-H torsion
[ 8008 7997 7996 7995 ] final -146.16 input   59.86 | X-H torsion
[ 10167 10162 10161 10158 ] final   61.13 input  -65.29 | X-H torsion
[ 10718 10713 10712 10709 ] final  102.02 input   66.30 | X-H torsion
[ 10763 10752 10751 10750 ] final   78.12 input  -60.55 | X-H torsion
[ 11005 11000 10999 10996 ] final   38.60 input  -57.11 | X-H torsion

> <Gold.Protein.ActiveResidues>
 VAL166  LYS551  ARG553  GLY616  TRP617  ASP618  TYR619  PRO620  LYS621  CYS622 
 ASP623  PHE694  ASN695  SER759  ASP760  ASP761  ALA762  ILE779  LEU786  VAL792 
 PHE793  MET794  SER795  GLU796  ALA797  LYS798  CYS799  TRP800  GLU811  SER814 

> <Gold.Protein.RotatedAtoms>
  152.5363  134.2669  159.8956 H   0  0  0  0  0  0  0  0  0  0  0  0  # atno 6907 bound_to 6896
  151.2627  133.4287  159.2624 H   0  0  0  0  0  0  0  0  0  0  0  0  # atno 6908 bound_to 6896
  151.0438  134.9640  159.8232 H   0  0  0  0  0  0  0  0  0  0  0  0  # atno 6909 bound_to 6896
  145.7021  140.9112  143.0725 H   0  0  0  0  0  0  0  0  0  0  0  0  # atno 7974 bound_to 7965
  155.5548  140.0620  157.2842 H   0  0  0  0  0  0  0  0  0  0  0  0  # atno 8008 bound_to 7997
  154.4409  140.1896  156.0768 H   0  0  0  0  0  0  0  0  0  0  0  0  # atno 8009 bound_to 7997
  156.0490  140.3286  155.7333 H   0  0  0  0  0  0  0  0  0  0  0  0  # atno 8010 bound_to 7997
  140.1581  144.4397  150.6724 H   0  0  0  0  0  0  0  0  0  0  0  0  # atno 10167 bound_to 10162
  157.6814  131.0742  150.5340 H   0  0  0  0  0  0  0  0  0  0  0  0  # atno 10718 bound_to 10713
  153.0850  135.4889  154.8579 H   0  0  0  0  0  0  0  0  0  0  0  0  # atno 10763 bound_to 10752
  154.7199  135.3037  154.9066 H   0  0  0  0  0  0  0  0  0  0  0  0  # atno 10764 bound_to 10752
  153.9734  135.6798  153.4801 H   0  0  0  0  0  0  0  0  0  0  0  0  # atno 10765 bound_to 10752
  140.2111  134.3754  155.8049 H   0  0  0  0  0  0  0  0  0  0  0  0  # atno 11005 bound_to 11000
  144.6965  139.8961  143.7456 LP  0  0  0  0  0  0  0  0  0  0  0  0  # atno 17320 bound_to 7965
  146.0788  139.3776  143.0477 LP  0  0  0  0  0  0  0  0  0  0  0  0  # atno 17321 bound_to 7965
  140.6660  143.2268  151.5741 LP  0  0  0  0  0  0  0  0  0  0  0  0  # atno 17342 bound_to 10162
  139.5394  144.2690  152.1319 LP  0  0  0  0  0  0  0  0  0  0  0  0  # atno 17343 bound_to 10162
  156.5649  130.4265  149.6046 LP  0  0  0  0  0  0  0  0  0  0  0  0  # atno 17370 bound_to 10713
  156.2789  130.7060  151.1878 LP  0  0  0  0  0  0  0  0  0  0  0  0  # atno 17371 bound_to 10713
  141.2226  133.7143  156.8419 LP  0  0  0  0  0  0  0  0  0  0  0  0  # atno 17394 bound_to 11000
  140.1950  134.8938  157.3104 LP  0  0  0  0  0  0  0  0  0  0  0  0  # atno 17395 bound_to 11000

$$$$
