AV-unprocessed.smi:2647|AV-procd|sdf|10283|dock1
  -GOLD-   2272014293D 1   1.00000     0.00000
 Structure written by MMmdl.
 32 33  0  0  0  0  0  0  0  0  1 V2000
  148.0990  140.8492  158.1612 O   0  0  0  0  0  0  0  0  0  0  0  0
  148.3279  142.0245  157.8744 C   0  0  0  0  0  0  0  0  0  0  0  0
  149.3024  142.4041  157.0355 N   0  0  0  0  0  0  0  0  0  0  0  0
  150.2140  141.4971  156.3457 C   0  0  0  0  0  0  0  0  0  0  0  0
  151.3528  141.0061  157.2567 C   0  0  0  0  0  0  0  0  0  0  0  0
  151.0729  141.2097  158.7578 C   0  0  0  0  0  0  0  0  0  0  0  0
  152.3107  141.1589  159.5418 N   0  0  0  0  0  0  0  0  0  0  0  0
  152.5733  141.9598  160.5841 C   0  0  0  0  0  0  0  0  0  0  0  0
  151.8422  142.8468  161.0237 O   0  0  0  0  0  0  0  0  0  0  0  0
  153.9287  141.6332  161.1964 C   0  0  0  0  0  0  0  0  0  0  0  0
  154.4311  140.4754  160.3277 C   0  0  0  0  0  0  0  0  0  0  0  0
  153.3011  140.2816  159.3253 C   0  0  0  0  0  0  0  0  0  0  0  0
  153.3308  139.4170  158.4500 O   0  0  0  0  0  0  0  0  0  0  0  0
  147.6502  143.0867  158.3441 N   0  0  0  0  0  0  0  0  0  0  0  0
  146.5668  143.1043  159.2617 C   0  0  0  0  0  0  0  0  0  0  0  0
  146.5912  142.4908  160.4554 N   0  0  0  0  0  0  0  0  0  0  0  0
  145.4053  142.6696  161.1560 N   0  0  0  0  0  0  0  0  0  0  0  0
  144.5341  143.4093  160.4639 C   0  0  0  0  0  0  0  0  0  0  0  0
  145.0776  143.9604  158.8887 S   0  0  0  0  0  0  0  0  0  0  0  0
  149.4207  143.3905  156.8565 H   0  0  0  0  0  0  0  0  0  0  0  0
  149.6379  140.6459  155.9821 H   0  0  0  0  0  0  0  0  0  0  0  0
  150.6262  141.9879  155.4624 H   0  0  0  0  0  0  0  0  0  0  0  0
  151.5189  139.9459  157.0632 H   0  0  0  0  0  0  0  0  0  0  0  0
  152.2816  141.5096  156.9843 H   0  0  0  0  0  0  0  0  0  0  0  0
  150.5717  142.1647  158.9240 H   0  0  0  0  0  0  0  0  0  0  0  0
  150.3756  140.4482  159.1117 H   0  0  0  0  0  0  0  0  0  0  0  0
  154.5906  142.4982  161.1444 H   0  0  0  0  0  0  0  0  0  0  0  0
  153.8153  141.3384  162.2402 H   0  0  0  0  0  0  0  0  0  0  0  0
  155.3598  140.7258  159.8138 H   0  0  0  0  0  0  0  0  0  0  0  0
  154.5845  139.5668  160.9108 H   0  0  0  0  0  0  0  0  0  0  0  0
  147.9486  143.9911  158.0103 H   0  0  0  0  0  0  0  0  0  0  0  0
  143.5645  143.6322  160.8839 H   0  0  0  0  0  0  0  0  0  0  0  0
  1  2  2  0  0  0  0
  2  3  1  0  0  0  0
  2 14  1  0  0  0  0
  3  4  1  0  0  0  0
  3 20  1  0  0  0  0
  4  5  1  0  0  0  0
  4 21  1  0  0  0  0
  4 22  1  0  0  0  0
  5  6  1  0  0  0  0
  5 23  1  0  0  0  0
  5 24  1  0  0  0  0
  6  7  1  0  0  0  0
  6 25  1  0  0  0  0
  6 26  1  0  0  0  0
  7 12  1  0  0  0  0
  7  8  1  0  0  0  0
  8  9  2  0  0  0  0
  8 10  1  0  0  0  0
 10 11  1  0  0  0  0
 10 27  1  0  0  0  0
 10 28  1  0  0  0  0
 11 12  1  0  0  0  0
 11 29  1  0  0  0  0
 11 30  1  0  0  0  0
 12 13  2  0  0  0  0
 14 15  1  0  0  0  0
 14 31  1  0  0  0  0
 15 19  1  0  0  0  0
 15 16  2  0  0  0  0
 16 17  1  0  0  0  0
 17 18  2  0  0  0  0
 18 19  1  0  0  0  0
 18 32  1  0  0  0  0
M  END
> <s_m_source_file>
AV-unprocessed.smi

> <i_m_source_file_index>
2647

> <i_lp_mmshare_version>
43012

> <i_f3d_flags>
0

> <s_epik_input>
czFbY0hdbm5jMVtOSF1DKD1PKVtOSF1bQ0gyXVtDSDJdW0NIMl1OMkMoPU8pW0NIMl1bQ0gyXUMyPU8=

> <s_epik_cmdline>
J2VwaWtfcHl0aG9uJywgJy1waCcsICc3LjAnLCAnLXRuJywgJzgnLCAnLW1hJywgJzIwMCcsICctbWV0YWxfYmluZGluZycsICctaW1hZScsICc8aW5maWxlLm1hZT4nLCAnLW9tYWUnLCAnPG91dGZpbGUubWFlPic=

> <r_lp_tautomer_probability>
1

> <r_epik_Ionization_Penalty>
0.00175263

> <r_epik_Ionization_Penalty_Charging>
0

> <r_epik_Ionization_Penalty_Neutral>
0.00175263

> <r_epik_State_Penalty>
-0

> <r_epik_Charging_Adjusted_Penalty>
0

> <i_epik_Tot_Q>
0

> <i_epik_Tot_abs_Q>
0

> <r_epik_Metal_State_Penalty>
0.330668

> <b_epik_Metal_Only>
0

> <s_lp_Force_Field>
OPLS_2005

> <r_lp_Energy>
10.1998

> <b_lp_Chiralities_Consistent>
1

> <s_lp_Variant>
AV-unprocessed.smi:2647-1

> <Gold.Version>
5.8.1

> <Gold.Id.Protein>
6NUR|6NUR_protein|mol2

> <Gold.PLP.Fitness>
42.1277

> <Gold.PLP.PLP>
-31.7084

> <Gold.PLP.part.hbond>
-6.5735

> <Gold.PLP.part.metal>
0.0000

> <Gold.PLP.part.buried>
-4.9864

> <Gold.PLP.part.nonpolar>
-20.8627

> <Gold.PLP.part.repulsive>
0.2355

> <Gold.PLP.ligand.clash>
0.3475

> <Gold.PLP.ligand.torsion>
1.2583

> <Gold.PLP.Chemscore.Hbond>
4.4014

> <Gold.PLP.Chemscore.CHOScore>
0.0000

> <Gold.PLP.Chemscore.Metal>
0.0000

> <Gold.Chemscore.Hbonds>
donor molecule, donor type, donor heavy atom, donor atom, acceptor molecule, acceptor atom, score
      L1  H     3    20       P1  8028  0.83
      L1  H    14    31       P1  8029  0.70
      P1  H  6933  6944       L1    16  0.50
      P1  H  6933  6945       L1     9  0.01
      P1  H  6934  6946       L1    16  1.00
      P1  H  7997  8008       L1    13  1.00

> <Gold.PLP.Chemscore.Internal.Correction>
0.0791

> <Gold.Rescore>
     Score         DG    S(hbond)    S(metal)    S(lipo)     H(rot)  DE(clash)    DE(int)     intcor
     11.13     -13.70       2.86        0.00      40.38       2.36       0.00       2.57       ----

> <Gold.Chemscore.Fitness>
11.1343

> <Gold.Chemscore.DG>
-13.7028

> <Gold.Chemscore.ZeroCoef>
-5.4800

> <Gold.Chemscore.Hbond>
2.8586

> <Gold.Chemscore.Metal>
0.0000

> <Gold.Chemscore.Lipo>
40.3755

> <Gold.Chemscore.Internal_Hbond>
0.0000

> <Gold.Chemscore.DEClash>
0.0000

> <Gold.Chemscore.DEInternal>
2.5685

> <Gold.Chemscore.Rot>
2.3629

> <Gold.Chemscore.Internal.Correction>
   9.000000E+99

> <Gold.Chemscore.Hbonds>
donor molecule, donor type, donor heavy atom, donor atom, acceptor molecule, acceptor atom, score
      L1  H     3    20       P1  8028  0.81
      L1  H    14    31       P1  8029  0.10
      P1  H  6933  6944       L1    16  0.48
      P1  H  6933  6945       L1     9  0.02
      P1  H  6934  6946       L1    16  0.34
      P1  H  7997  8008       L1    13  0.63

> <Gold.Chemscore.Hbond.Weighted>
-9.5478

> <Gold.Chemscore.Metal.Weighted>
-0.0000

> <Gold.Chemscore.Lipo.Weighted>
-4.7239

> <Gold.Chemscore.Internal_Hbond.Weighted>
0.0000

> <Gold.Chemscore.DEClash.Weighted>
0.0000

> <Gold.Chemscore.DEInternal.Weighted>
2.5685

> <Gold.Chemscore.Rot.Weighted>
6.0490

> <Gold.Chemscore.Internal.Correction.Weighted>
   9.000000E+99

> <Gold.Protein.RotatedTorsions>
[ 6907 6896 6895 6894 ] final -146.25 input  -60.11 | X-H torsion
[ 7974 7965 7964 7962 ] final  100.39 input  175.53 | X-H torsion
[ 8008 7997 7996 7995 ] final  -84.69 input   59.86 | X-H torsion
[ 10167 10162 10161 10158 ] final   33.55 input  -65.29 | X-H torsion
[ 10718 10713 10712 10709 ] final  -37.68 input   66.30 | X-H torsion
[ 10763 10752 10751 10750 ] final   97.95 input  -60.55 | X-H torsion
[ 11005 11000 10999 10996 ] final    0.49 input  -57.11 | X-H torsion

> <Gold.Protein.ActiveResidues>
 VAL166  LYS551  ARG553  GLY616  TRP617  ASP618  TYR619  PRO620  LYS621  CYS622 
 ASP623  PHE694  ASN695  SER759  ASP760  ASP761  ALA762  ILE779  LEU786  VAL792 
 PHE793  MET794  SER795  GLU796  ALA797  LYS798  CYS799  TRP800  GLU811  SER814 

> <Gold.Protein.RotatedAtoms>
  151.1391  133.4984  159.2597 H   0  0  0  0  0  0  0  0  0  0  0  0  # atno 6907 bound_to 6896
  151.1675  135.0302  159.8747 H   0  0  0  0  0  0  0  0  0  0  0  0  # atno 6908 bound_to 6896
  152.5462  134.1258  159.8471 H   0  0  0  0  0  0  0  0  0  0  0  0  # atno 6909 bound_to 6896
  145.3863  139.2371  143.3376 H   0  0  0  0  0  0  0  0  0  0  0  0  # atno 7974 bound_to 7965
  154.6326  140.0601  156.9750 H   0  0  0  0  0  0  0  0  0  0  0  0  # atno 8008 bound_to 7997
  155.1642  140.3285  155.4387 H   0  0  0  0  0  0  0  0  0  0  0  0  # atno 8009 bound_to 7997
  156.2490  140.1925  156.6748 H   0  0  0  0  0  0  0  0  0  0  0  0  # atno 8010 bound_to 7997
  140.4397  144.1206  150.6172 H   0  0  0  0  0  0  0  0  0  0  0  0  # atno 10167 bound_to 10162
  156.3124  130.4254  149.8038 H   0  0  0  0  0  0  0  0  0  0  0  0  # atno 10718 bound_to 10713
  153.2832  135.4165  155.1098 H   0  0  0  0  0  0  0  0  0  0  0  0  # atno 10763 bound_to 10752
  154.8496  135.3500  154.6084 H   0  0  0  0  0  0  0  0  0  0  0  0  # atno 10764 bound_to 10752
  153.6505  135.7053  153.5268 H   0  0  0  0  0  0  0  0  0  0  0  0  # atno 10765 bound_to 10752
  140.6259  133.9619  155.8249 H   0  0  0  0  0  0  0  0  0  0  0  0  # atno 11005 bound_to 11000
  146.2819  140.4538  142.8773 LP  0  0  0  0  0  0  0  0  0  0  0  0  # atno 17320 bound_to 7965
  144.8472  140.6947  143.6191 LP  0  0  0  0  0  0  0  0  0  0  0  0  # atno 17321 bound_to 7965
  140.4333  143.2558  151.9568 LP  0  0  0  0  0  0  0  0  0  0  0  0  # atno 17342 bound_to 10162
  139.4789  144.5724  151.8067 LP  0  0  0  0  0  0  0  0  0  0  0  0  # atno 17343 bound_to 10162
  156.5376  130.8285  151.3258 LP  0  0  0  0  0  0  0  0  0  0  0  0  # atno 17370 bound_to 10713
  157.7394  130.9831  150.2311 LP  0  0  0  0  0  0  0  0  0  0  0  0  # atno 17371 bound_to 10713
  141.0709  134.0206  157.3527 LP  0  0  0  0  0  0  0  0  0  0  0  0  # atno 17394 bound_to 11000
  139.9135  135.0193  156.7787 LP  0  0  0  0  0  0  0  0  0  0  0  0  # atno 17395 bound_to 11000

$$$$
