AV-unprocessed.smi:1875|AV-procd|sdf|7613|dock9
  -GOLD-   22720 9333D 1   1.00000     0.00000
 Structure written by MMmdl.
 48 50  0  0  0  0  0  0  0  0  2 V2000
  144.8240  144.0042  158.5516 C   0  0  0  0  0  0  0  0  0  0  0  0
  144.6425  144.1132  157.0516 C   0  0  0  0  0  0  0  0  0  0  0  0
  143.7456  145.0030  156.6160 N   0  0  0  0  0  0  0  0  0  0  0  0
  143.5744  145.0966  155.2792 C   0  0  0  0  0  0  0  0  0  0  0  0
  144.3041  144.2923  154.3803 C   0  0  0  0  0  0  0  0  0  0  0  0
  145.2240  143.3917  154.9569 C   0  0  0  0  0  0  0  0  0  0  0  0
  146.0604  142.4620  154.1033 C   0  0  0  0  0  0  0  0  0  0  0  0
  147.3913  142.2706  154.7080 N   0  3  0  0  0  0  0  0  0  0  0  0
  148.3047  141.4368  153.9025 C   0  0  0  0  0  0  0  0  0  0  0  0
  149.4529  140.8752  154.7614 C   0  0  1  0  0  0  0  0  0  0  0  0
  150.3012  140.1101  153.9278 O   0  0  0  0  0  0  0  0  0  0  0  0
  150.2824  141.9658  155.4750 C   0  0  0  0  0  0  0  0  0  0  0  0
  151.1641  141.4501  156.5103 N   0  0  0  0  0  0  0  0  0  0  0  0
  151.9253  140.3400  156.4494 C   0  0  0  0  0  0  0  0  0  0  0  0
  152.6607  140.0447  157.5167 N   0  0  0  0  0  0  0  0  0  0  0  0
  152.3521  141.0929  158.3664 C   0  0  0  0  0  0  0  0  0  0  0  0
  152.8066  141.3777  159.6725 C   0  0  0  0  0  0  0  0  0  0  0  0
  152.3546  142.5244  160.3634 C   0  0  0  0  0  0  0  0  0  0  0  0
  152.8697  142.7922  161.7667 C   0  0  0  0  0  0  0  0  0  0  0  0
  151.4326  143.4076  159.7465 C   0  0  0  0  0  0  0  0  0  0  0  0
  150.9346  144.6470  160.4688 C   0  0  0  0  0  0  0  0  0  0  0  0
  150.9677  143.1377  158.4423 C   0  0  0  0  0  0  0  0  0  0  0  0
  151.4228  141.9921  157.7656 C   0  0  0  0  0  0  0  0  0  0  0  0
  145.3874  143.2995  156.2958 N   0  0  0  0  0  0  0  0  0  0  0  0
  144.5602  144.9383  159.0488 H   0  0  0  0  0  0  0  0  0  0  0  0
  145.8596  143.7718  158.8028 H   0  0  0  0  0  0  0  0  0  0  0  0
  144.1883  143.2128  158.9495 H   0  0  0  0  0  0  0  0  0  0  0  0
  142.8493  145.8142  154.9248 H   0  0  0  0  0  0  0  0  0  0  0  0
  144.1632  144.3675  153.3119 H   0  0  0  0  0  0  0  0  0  0  0  0
  145.5581  141.4989  154.0039 H   0  0  0  0  0  0  0  0  0  0  0  0
  146.1639  142.8790  153.1005 H   0  0  0  0  0  0  0  0  0  0  0  0
  147.8116  143.1789  154.8428 H   0  0  0  0  0  0  0  0  0  0  0  0
  147.7402  140.6292  153.4341 H   0  0  0  0  0  0  0  0  0  0  0  0
  148.7136  142.0509  153.0991 H   0  0  0  0  0  0  0  0  0  0  0  0
  149.0431  140.2086  155.5216 H   0  0  0  0  0  0  0  0  0  0  0  0
  149.8851  140.0086  153.0848 H   0  0  0  0  0  0  0  0  0  0  0  0
  150.8930  142.4986  154.7447 H   0  0  0  0  0  0  0  0  0  0  0  0
  149.6239  142.7122  155.9211 H   0  0  0  0  0  0  0  0  0  0  0  0
  151.9345  139.7076  155.5737 H   0  0  0  0  0  0  0  0  0  0  0  0
  153.5103  140.7056  160.1415 H   0  0  0  0  0  0  0  0  0  0  0  0
  153.3621  143.7637  161.8156 H   0  0  0  0  0  0  0  0  0  0  0  0
  153.5916  142.0362  162.0772 H   0  0  0  0  0  0  0  0  0  0  0  0
  152.0475  142.7839  162.4826 H   0  0  0  0  0  0  0  0  0  0  0  0
  150.2100  145.1948  159.8659 H   0  0  0  0  0  0  0  0  0  0  0  0
  151.7644  145.3194  160.6879 H   0  0  0  0  0  0  0  0  0  0  0  0
  150.4510  144.3751  161.4073 H   0  0  0  0  0  0  0  0  0  0  0  0
  150.2661  143.8033  157.9619 H   0  0  0  0  0  0  0  0  0  0  0  0
  147.2731  141.8334  155.6109 H   0  0  0  0  0  0  0  0  0  0  0  0
  1  2  1  0  0  0  0
  1 25  1  0  0  0  0
  1 26  1  0  0  0  0
  1 27  1  0  0  0  0
  2 24  1  0  0  0  0
  2  3  2  0  0  0  0
  3  4  1  0  0  0  0
  4  5  2  0  0  0  0
  4 28  1  0  0  0  0
  5  6  1  0  0  0  0
  5 29  1  0  0  0  0
  6  7  1  0  0  0  0
  6 24  2  0  0  0  0
  7  8  1  0  0  0  0
  7 30  1  0  0  0  0
  7 31  1  0  0  0  0
  8  9  1  0  0  0  0
  8 32  1  0  0  0  0
  8 48  1  0  0  0  0
  9 10  1  0  0  0  0
  9 33  1  0  0  0  0
  9 34  1  0  0  0  0
 10 11  1  0  0  0  0
 10 12  1  0  0  0  0
 10 35  1  0  0  0  0
 11 36  1  0  0  0  0
 12 13  1  0  0  0  0
 12 37  1  0  0  0  0
 12 38  1  0  0  0  0
 13 23  1  0  0  0  0
 13 14  1  0  0  0  0
 14 15  2  0  0  0  0
 14 39  1  0  0  0  0
 15 16  1  0  0  0  0
 16 23  2  0  0  0  0
 16 17  1  0  0  0  0
 17 18  2  0  0  0  0
 17 40  1  0  0  0  0
 18 19  1  0  0  0  0
 18 20  1  0  0  0  0
 19 41  1  0  0  0  0
 19 42  1  0  0  0  0
 19 43  1  0  0  0  0
 20 21  1  0  0  0  0
 20 22  2  0  0  0  0
 21 44  1  0  0  0  0
 21 45  1  0  0  0  0
 21 46  1  0  0  0  0
 22 23  1  0  0  0  0
 22 47  1  0  0  0  0
M  CHG  1   8   1
M  END
> <s_m_source_file>
AV-unprocessed.smi

> <i_m_source_file_index>
1875

> <i_lp_mmshare_version>
43012

> <i_f3d_flags>
0

> <s_epik_input>
W0NIM11jMW5bY0hdW2NIXWMobjEpW0NIMl1bTkhdW0NIMl1bQ0BIXShbT0hdKVtDSDJdbihbY0hdbjIpYyhjMjMpW2NIXWMoW0NIM10pYyhbY0hdMylbQ0gzXQ==

> <s_epik_cmdline>
J2VwaWtfcHl0aG9uJywgJy1waCcsICc3LjAnLCAnLXRuJywgJzgnLCAnLW1hJywgJzIwMCcsICctbWV0YWxfYmluZGluZycsICctaW1hZScsICc8aW5maWxlLm1hZT4nLCAnLW9tYWUnLCAnPG91dGZpbGUubWFlPic=

> <r_lp_tautomer_probability>
1

> <r_epik_Ionization_Penalty>
0.192455

> <r_epik_Ionization_Penalty_Charging>
0.102343

> <r_epik_Ionization_Penalty_Neutral>
0.0901122

> <r_epik_State_Penalty>
0.175389

> <r_epik_Charging_Adjusted_Penalty>
0.277732

> <i_epik_Tot_Q>
1

> <i_epik_Tot_abs_Q>
1

> <r_epik_Metal_State_Penalty>
0.167659

> <b_epik_Metal_Only>
0

> <s_epik_Chemistry_Notes>
This compound contains an electron-poor aromatic ring that is susceptible to covalent hydrolysis at low pH, typically resulting in measured values for nitrogen ring protonation that are around two units higher than predicted values.

> <s_lp_Force_Field>
OPLS_2005

> <r_lp_Energy>
1.49454

> <b_lp_Chiralities_Consistent>
1

> <s_lp_Variant>
AV-unprocessed.smi:1875-2

> <Gold.Version>
5.8.1

> <Gold.Id.Protein>
6NUR|6NUR_protein|mol2

> <Gold.PLP.Fitness>
64.5414

> <Gold.PLP.PLP>
-51.0127

> <Gold.PLP.part.hbond>
-4.0000

> <Gold.PLP.part.metal>
0.0000

> <Gold.PLP.part.buried>
-6.9245

> <Gold.PLP.part.nonpolar>
-40.0561

> <Gold.PLP.part.repulsive>
0.3285

> <Gold.PLP.ligand.clash>
0.0000

> <Gold.PLP.ligand.torsion>
0.7763

> <Gold.PLP.Chemscore.Hbond>
4.9920

> <Gold.PLP.Chemscore.CHOScore>
0.0000

> <Gold.PLP.Chemscore.Metal>
0.0000

> <Gold.Chemscore.Hbonds>
donor molecule, donor type, donor heavy atom, donor atom, acceptor molecule, acceptor atom, score
      L1  H     8    32       P1  8028  2.00
      L1  H    11    36       P1  7957  1.00
      P1  H  7989  7998       L1    11  0.90
      P1  H  7997  8009       L1    15  1.00

> <Gold.PLP.Chemscore.Internal.Correction>
0.1053

> <Gold.Rescore>
     Score         DG    S(hbond)    S(metal)    S(lipo)     H(rot)  DE(clash)    DE(int)     intcor
     18.72     -21.18       2.52        0.00     123.52       2.80       0.82       1.65       ----

> <Gold.Chemscore.Fitness>
18.7199

> <Gold.Chemscore.DG>
-21.1835

> <Gold.Chemscore.ZeroCoef>
-5.4800

> <Gold.Chemscore.Hbond>
2.5246

> <Gold.Chemscore.Metal>
0.0000

> <Gold.Chemscore.Lipo>
123.5171

> <Gold.Chemscore.Internal_Hbond>
0.0000

> <Gold.Chemscore.DEClash>
0.8181

> <Gold.Chemscore.DEInternal>
1.6454

> <Gold.Chemscore.Rot>
2.8047

> <Gold.Chemscore.Internal.Correction>
   9.000000E+99

> <Gold.Chemscore.Hbonds>
donor molecule, donor type, donor heavy atom, donor atom, acceptor molecule, acceptor atom, score
      L1  H     8    32       P1  8028  0.71
      L1  H    11    36       P1  7957  0.99
      P1  H  7989  7998       L1    11  0.17
      P1  H  7997  8009       L1    15  0.27

> <Gold.Chemscore.Hbond.Weighted>
-8.4321

> <Gold.Chemscore.Metal.Weighted>
-0.0000

> <Gold.Chemscore.Lipo.Weighted>
-14.4515

> <Gold.Chemscore.Internal_Hbond.Weighted>
0.0000

> <Gold.Chemscore.DEClash.Weighted>
0.8181

> <Gold.Chemscore.DEInternal.Weighted>
1.6454

> <Gold.Chemscore.Rot.Weighted>
7.1801

> <Gold.Chemscore.Internal.Correction.Weighted>
   9.000000E+99

> <Gold.Protein.RotatedTorsions>
[ 6907 6896 6895 6894 ] final  147.50 input  -60.11 | X-H torsion
[ 7974 7965 7964 7962 ] final  121.04 input  175.53 | X-H torsion
[ 8008 7997 7996 7995 ] final  172.97 input   59.86 | X-H torsion
[ 10167 10162 10161 10158 ] final  169.23 input  -65.29 | X-H torsion
[ 10718 10713 10712 10709 ] final  165.87 input   66.30 | X-H torsion
[ 10763 10752 10751 10750 ] final -160.19 input  -60.55 | X-H torsion
[ 11005 11000 10999 10996 ] final   -1.93 input  -57.11 | X-H torsion

> <Gold.Protein.ActiveResidues>
 VAL166  LYS551  ARG553  GLY616  TRP617  ASP618  TYR619  PRO620  LYS621  CYS622 
 ASP623  PHE694  ASN695  SER759  ASP760  ASP761  ALA762  ILE779  LEU786  VAL792 
 PHE793  MET794  SER795  GLU796  ALA797  LYS798  CYS799  TRP800  GLU811  SER814 

> <Gold.Protein.RotatedAtoms>
  152.1539  133.4539  159.4827 H   0  0  0  0  0  0  0  0  0  0  0  0  # atno 6907 bound_to 6896
  150.6899  134.2154  159.4385 H   0  0  0  0  0  0  0  0  0  0  0  0  # atno 6908 bound_to 6896
  152.0053  134.9906  160.0617 H   0  0  0  0  0  0  0  0  0  0  0  0  # atno 6909 bound_to 6896
  145.1241  139.3370  143.4699 H   0  0  0  0  0  0  0  0  0  0  0  0  # atno 7974 bound_to 7965
  156.1122  140.1472  156.9323 H   0  0  0  0  0  0  0  0  0  0  0  0  # atno 8008 bound_to 7997
  154.4775  140.0890  156.7340 H   0  0  0  0  0  0  0  0  0  0  0  0  # atno 8009 bound_to 7997
  155.4576  140.3437  155.4311 H   0  0  0  0  0  0  0  0  0  0  0  0  # atno 8010 bound_to 7997
  139.4987  144.3728  151.9706 H   0  0  0  0  0  0  0  0  0  0  0  0  # atno 10167 bound_to 10162
  157.0740  131.0374  151.2601 H   0  0  0  0  0  0  0  0  0  0  0  0  # atno 10718 bound_to 10713
  154.7412  135.3069  154.8725 H   0  0  0  0  0  0  0  0  0  0  0  0  # atno 10763 bound_to 10752
  153.9540  135.6760  153.4748 H   0  0  0  0  0  0  0  0  0  0  0  0  # atno 10764 bound_to 10752
  153.1010  135.4912  154.8792 H   0  0  0  0  0  0  0  0  0  0  0  0  # atno 10765 bound_to 10752
  140.6528  133.9390  155.8390 H   0  0  0  0  0  0  0  0  0  0  0  0  # atno 11005 bound_to 11000
  146.3519  140.1212  142.8600 LP  0  0  0  0  0  0  0  0  0  0  0  0  # atno 17320 bound_to 7965
  145.0708  140.9154  143.4883 LP  0  0  0  0  0  0  0  0  0  0  0  0  # atno 17321 bound_to 7965
  140.3164  144.3478  150.6020 LP  0  0  0  0  0  0  0  0  0  0  0  0  # atno 17342 bound_to 10162
  140.5758  143.2176  151.7518 LP  0  0  0  0  0  0  0  0  0  0  0  0  # atno 17343 bound_to 10162
  157.4855  130.7790  149.7455 LP  0  0  0  0  0  0  0  0  0  0  0  0  # atno 17370 bound_to 10713
  155.9942  130.3919  150.2868 LP  0  0  0  0  0  0  0  0  0  0  0  0  # atno 17371 bound_to 10713
  141.0524  134.0465  157.3766 LP  0  0  0  0  0  0  0  0  0  0  0  0  # atno 17394 bound_to 11000
  139.9040  135.0174  156.7401 LP  0  0  0  0  0  0  0  0  0  0  0  0  # atno 17395 bound_to 11000

$$$$
