#       Name:                AV-unprocessed.smi:1653
#       Creating user name   scv26
#       Creation time:       Fri Mar 27 07:34:20 2020


#       File generated by GOLD software.
#

@<TRIPOS>MOLECULE
AV-unprocessed.smi:1653
    48    49     1
SMALL
NO_CHARGES


@<TRIPOS>ATOM
      1 ****        -2.9037  -0.0663  -2.1964 N.1            1 S1                 0.0000
      2 ****        -2.3960  -0.4875  -1.2456 C.1            1 S1                 0.0000
      3 ****        -1.7488  -1.0261  -0.0330 C.3            1 S1                 0.0000
      4 ****        -0.3248  -0.6713  -0.0254 N.am           1 S1                 0.0000
      5 ****         0.2084   0.5540  -0.1599 C.2            1 S1                 0.0000
      6 ****        -0.4641   1.5767  -0.2918 O.2            1 S1                 0.0000
      7 ****         1.7407   0.6271  -0.1125 C.3            1 S1                 0.0000
      8 ****         2.2890   1.7518  -0.8895 N.am           1 S1                 0.0000
      9 ****         2.6391   2.9118  -0.1736 C.2            1 S1                 0.0000
     10 ****         3.1404   3.9958  -0.7825 C.2            1 S1                 0.0000
     11 ****         3.3244   3.9519  -2.2125 C.2            1 S1                 0.0000
     12 ****         2.9932   2.8487  -2.9224 C.2            1 S1                 0.0000
     13 ****         3.2094   2.8688  -4.3508 N.pl3          1 S1                 1.0000
     14 ****         3.6701   1.8698  -4.8946 O.2            1 S1                 0.0000
     15 ****         2.9369   3.8927  -4.9702 O.2            1 S1                -1.0000
     16 ****         2.4291   1.6607  -2.2488 C.2            1 S1                 0.0000
     17 ****         2.0915   0.6434  -2.8576 O.2            1 S1                 0.0000
     18 ****        -2.4856  -0.4599   1.2130 C.3            1 S1                 0.0000
     19 ****        -1.8255  -0.7568   2.5761 C.3            1 S1                 0.0000
     20 ****        -2.2081  -2.0981   3.2252 C.3            1 S1                 0.0000
     21 ****        -2.3454  -3.3075   2.2848 C.3            1 S1                 0.0000
     22 ****        -1.3539  -3.3508   1.1116 C.3            1 S1                 0.0000
     23 ****        -1.8527  -2.5649  -0.1165 C.3            1 S1                 0.0000
     24 ****         0.3188  -1.4415   0.0834 H              1 S1                 0.0000
     25 ****         2.0429   0.6980   0.9333 H              1 S1                 0.0000
     26 ****         2.1654  -0.3141  -0.4676 H              1 S1                 0.0000
     27 ****         2.4649   2.8670   0.8918 H              1 S1                 0.0000
     28 ****         3.3981   4.8796  -0.2177 H              1 S1                 0.0000
     29 ****         3.7420   4.8155  -2.7096 H              1 S1                 0.0000
     30 ****        -2.5456   0.6239   1.1078 H              1 S1                 0.0000
     31 ****        -3.5232  -0.7962   1.2228 H              1 S1                 0.0000
     32 ****        -0.7411  -0.6880   2.5022 H              1 S1                 0.0000
     33 ****        -2.1033   0.0339   3.2737 H              1 S1                 0.0000
     34 ****        -1.4648  -2.3255   3.9902 H              1 S1                 0.0000
     35 ****        -3.1495  -1.9795   3.7628 H              1 S1                 0.0000
     36 ****        -2.2263  -4.2114   2.8833 H              1 S1                 0.0000
     37 ****        -3.3647  -3.3544   1.8995 H              1 S1                 0.0000
     38 ****        -0.3595  -3.0295   1.4225 H              1 S1                 0.0000
     39 ****        -1.2447  -4.3929   0.8095 H              1 S1                 0.0000
     40 ****        -2.8852  -2.8493  -0.3252 H              1 S1                 0.0000
     41 ****        -1.2874  -2.8997  -0.9878 H              1 S1                 0.0000
     42 ****        -3.3424   0.2977  -3.0181 LP             1 S1                 0.0000
     43 ****        -1.4625   1.5207  -0.3028 LP             1 S1                 0.0000
     44 ****        -0.0120   2.4635  -0.3880 LP             1 S1                 0.0000
     45 ****         3.8891   1.0602  -4.3501 LP             1 S1                 0.0000
     46 ****         3.8265   1.8654  -5.8823 LP             1 S1                 0.0000
     47 ****         1.7078  -0.1337  -2.3588 LP             1 S1                 0.0000
     48 ****         2.2013   0.5952  -3.8504 LP             1 S1                 0.0000
@<TRIPOS>BOND
    1    1    2 3     
    2    2    3 1     
    3    3   23 1     
    4    3    4 1     
    5    3   18 1     
    6    4    5 am    
    7    4   24 1     
    8    5    6 2     
    9    5    7 1     
   10    7    8 1     
   11    7   25 1     
   12    7   26 1     
   13    8   16 am    
   14    8    9 1     
   15    9   10 2     
   16    9   27 1     
   17   10   11 1     
   18   10   28 1     
   19   11   12 2     
   20   11   29 1     
   21   12   13 1     
   22   12   16 1     
   23   13   14 2     
   24   13   15 1     
   25   16   17 2     
   26   18   19 1     
   27   18   30 1     
   28   18   31 1     
   29   19   20 1     
   30   19   32 1     
   31   19   33 1     
   32   20   21 1     
   33   20   34 1     
   34   20   35 1     
   35   21   22 1     
   36   21   36 1     
   37   21   37 1     
   38   22   23 1     
   39   22   38 1     
   40   22   39 1     
   41   23   40 1     
   42   23   41 1     
   43    1   42 1     
   44    6   43 1     
   45    6   44 1     
   46   14   45 1     
   47   14   46 1     
   48   17   47 1     
   49   17   48 1     
@<TRIPOS>SUBSTRUCTURE
      1 S1             1
@<TRIPOS>SET
LONE_PAIRS      STATIC     ATOMS    <user>   **** ""
8 42 43 44 45 46 15 47 48
DONOR_HYDROGENS      STATIC     ATOMS    <user>   **** ""
1 24
ATOM$BLUE        STATIC     ATOMS    COLORGROUP SYSTEM
8 42 43 44 45 46 15 47 48
ATOM$RED        STATIC     ATOMS    COLORGROUP SYSTEM
1 24
