AV-unprocessed.smi:327|AV-procd|sdf|2346|dock10
  -GOLD-   2262022253D 1   1.00000     0.00000
 Structure written by MMmdl.
 47 48  0  0  0  0  0  0  0  0  1 V2000
  146.1536  142.9258  153.8608 C   0  0  0  0  0  0  0  0  0  0  0  0
  147.1354  142.3140  154.6782 O   0  0  0  0  0  0  0  0  0  0  0  0
  147.9870  141.4459  153.9488 C   0  0  0  0  0  0  0  0  0  0  0  0
  149.2274  141.1008  154.7889 C   0  0  0  0  0  0  0  0  0  0  0  0
  149.5351  139.6667  154.7448 N   0  0  0  0  0  0  0  0  0  0  0  0
  148.4140  138.8531  154.7354 N   0  0  0  0  0  0  0  0  0  0  0  0
  148.5438  137.5658  154.7094 C   0  0  0  0  0  0  0  0  0  0  0  0
  147.3635  136.6576  154.7124 C   0  0  0  0  0  0  0  0  0  0  0  0
  146.4403  136.7929  155.5172 O   0  0  0  0  0  0  0  0  0  0  0  0
  147.3785  135.6951  153.7723 N   0  0  0  0  0  0  0  0  0  0  0  0
  146.3286  134.7060  153.5404 C   0  0  0  0  0  0  0  0  0  0  0  0
  146.8206  133.6876  152.4888 C   0  0  0  0  0  0  0  0  0  0  0  0
  145.7493  132.7250  151.9381 C   0  0  0  0  0  0  0  0  0  0  0  0
  145.2282  133.0844  150.5313 C   0  0  0  0  0  0  0  0  0  0  0  0
  144.3585  134.3526  150.4113 C   0  0  0  0  0  0  0  0  0  0  0  0
  145.1140  135.6785  150.6348 C   0  0  0  0  0  0  0  0  0  0  0  0
  144.9118  136.3293  152.0168 C   0  0  0  0  0  0  0  0  0  0  0  0
  144.9767  135.3961  153.2423 C   0  0  0  0  0  0  0  0  0  0  0  0
  149.8602  136.9513  154.6828 C   0  0  0  0  0  0  0  0  0  0  0  0
  150.9444  137.7571  154.6974 C   0  0  0  0  0  0  0  0  0  0  0  0
  150.8260  139.2156  154.7359 C   0  0  0  0  0  0  0  0  0  0  0  0
  151.8002  139.9671  154.7598 O   0  0  0  0  0  0  0  0  0  0  0  0
  145.5234  143.5744  154.4691 H   0  0  0  0  0  0  0  0  0  0  0  0
  145.5126  142.1802  153.3886 H   0  0  0  0  0  0  0  0  0  0  0  0
  146.6131  143.5366  153.0826 H   0  0  0  0  0  0  0  0  0  0  0  0
  147.4542  140.5368  153.6648 H   0  0  0  0  0  0  0  0  0  0  0  0
  148.3000  141.9381  153.0269 H   0  0  0  0  0  0  0  0  0  0  0  0
  150.0833  141.6562  154.4016 H   0  0  0  0  0  0  0  0  0  0  0  0
  149.0982  141.4546  155.8131 H   0  0  0  0  0  0  0  0  0  0  0  0
  148.1771  135.6583  153.1553 H   0  0  0  0  0  0  0  0  0  0  0  0
  146.1873  134.1400  154.4630 H   0  0  0  0  0  0  0  0  0  0  0  0
  147.3362  134.1849  151.6684 H   0  0  0  0  0  0  0  0  0  0  0  0
  147.5970  133.0874  152.9655 H   0  0  0  0  0  0  0  0  0  0  0  0
  146.2072  131.7382  151.8604 H   0  0  0  0  0  0  0  0  0  0  0  0
  144.9273  132.5953  152.6417 H   0  0  0  0  0  0  0  0  0  0  0  0
  146.0685  133.1542  149.8396 H   0  0  0  0  0  0  0  0  0  0  0  0
  144.6326  132.2428  150.1758 H   0  0  0  0  0  0  0  0  0  0  0  0
  143.9656  134.3691  149.3942 H   0  0  0  0  0  0  0  0  0  0  0  0
  143.4774  134.2854  151.0494 H   0  0  0  0  0  0  0  0  0  0  0  0
  146.1739  135.5573  150.4166 H   0  0  0  0  0  0  0  0  0  0  0  0
  144.7682  136.3971  149.8907 H   0  0  0  0  0  0  0  0  0  0  0  0
  145.6238  137.1468  152.1349 H   0  0  0  0  0  0  0  0  0  0  0  0
  143.9285  136.8009  152.0212 H   0  0  0  0  0  0  0  0  0  0  0  0
  144.1817  134.6545  153.1876 H   0  0  0  0  0  0  0  0  0  0  0  0
  144.7115  135.9945  154.1149 H   0  0  0  0  0  0  0  0  0  0  0  0
  149.9778  135.8776  154.6535 H   0  0  0  0  0  0  0  0  0  0  0  0
  151.9291  137.3136  154.6798 H   0  0  0  0  0  0  0  0  0  0  0  0
  1  2  1  0  0  0  0
  1 23  1  0  0  0  0
  1 24  1  0  0  0  0
  1 25  1  0  0  0  0
  2  3  1  0  0  0  0
  3  4  1  0  0  0  0
  3 26  1  0  0  0  0
  3 27  1  0  0  0  0
  4  5  1  0  0  0  0
  4 28  1  0  0  0  0
  4 29  1  0  0  0  0
  5 21  1  0  0  0  0
  5  6  1  0  0  0  0
  6  7  2  0  0  0  0
  7  8  1  0  0  0  0
  7 19  1  0  0  0  0
  8  9  2  0  0  0  0
  8 10  1  0  0  0  0
 10 11  1  0  0  0  0
 10 30  1  0  0  0  0
 11 18  1  0  0  0  0
 11 12  1  0  0  0  0
 11 31  1  0  0  0  0
 12 13  1  0  0  0  0
 12 32  1  0  0  0  0
 12 33  1  0  0  0  0
 13 14  1  0  0  0  0
 13 34  1  0  0  0  0
 13 35  1  0  0  0  0
 14 15  1  0  0  0  0
 14 36  1  0  0  0  0
 14 37  1  0  0  0  0
 15 16  1  0  0  0  0
 15 38  1  0  0  0  0
 15 39  1  0  0  0  0
 16 17  1  0  0  0  0
 16 40  1  0  0  0  0
 16 41  1  0  0  0  0
 17 18  1  0  0  0  0
 17 42  1  0  0  0  0
 17 43  1  0  0  0  0
 18 44  1  0  0  0  0
 18 45  1  0  0  0  0
 19 20  2  0  0  0  0
 19 46  1  0  0  0  0
 20 21  1  0  0  0  0
 20 47  1  0  0  0  0
 21 22  2  0  0  0  0
M  END
> <s_m_source_file>
AV-unprocessed.smi

> <i_m_source_file_index>
327

> <i_lp_mmshare_version>
43012

> <i_f3d_flags>
0

> <s_epik_input>
W0NIM11PW0NIMl1bQ0gyXW4xbmMoW2NIXVtjSF1jMT1PKUMoPU8pW05IXVtDSF0yW0NIMl1bQ0gyXVtDSDJdW0NIMl1bQ0gyXVtDSDJdW0NIMl0y

> <s_epik_cmdline>
J2VwaWtfcHl0aG9uJywgJy1waCcsICc3LjAnLCAnLXRuJywgJzgnLCAnLW1hJywgJzIwMCcsICctbWV0YWxfYmluZGluZycsICctaW1hZScsICc8aW5maWxlLm1hZT4nLCAnLW9tYWUnLCAnPG91dGZpbGUubWFlPic=

> <r_lp_tautomer_probability>
1

> <r_epik_Ionization_Penalty>
5.81787e-07

> <r_epik_Ionization_Penalty_Charging>
6.75108e-09

> <r_epik_Ionization_Penalty_Neutral>
5.75036e-07

> <r_epik_State_Penalty>
-0

> <r_epik_Charging_Adjusted_Penalty>
6.75108e-09

> <i_epik_Tot_Q>
0

> <i_epik_Tot_abs_Q>
0

> <r_epik_Metal_State_Penalty>
-0

> <b_epik_Metal_Only>
0

> <s_lp_Force_Field>
OPLS_2005

> <r_lp_Energy>
41.0284

> <b_lp_Chiralities_Consistent>
1

> <s_lp_Variant>
AV-unprocessed.smi:327-1

> <Gold.Version>
5.8.1

> <Gold.Id.Protein>
6NUR|6NUR_protein|mol2

> <Gold.PLP.Fitness>
38.6466

> <Gold.PLP.PLP>
-35.8605

> <Gold.PLP.part.hbond>
-1.7640

> <Gold.PLP.part.metal>
0.0000

> <Gold.PLP.part.buried>
-3.4909

> <Gold.PLP.part.nonpolar>
-31.3552

> <Gold.PLP.part.repulsive>
0.4026

> <Gold.PLP.ligand.clash>
0.0000

> <Gold.PLP.ligand.torsion>
1.5838

> <Gold.PLP.Chemscore.Hbond>
1.9680

> <Gold.PLP.Chemscore.CHOScore>
0.0000

> <Gold.PLP.Chemscore.Metal>
0.0000

> <Gold.Chemscore.Hbonds>
donor molecule, donor type, donor heavy atom, donor atom, acceptor molecule, acceptor atom, score
      L1  H    10    30       P1  7948  1.00
      P1  H  7989  7998       L1    22  0.99

> <Gold.PLP.Chemscore.Internal.Correction>
0.0498

> <Gold.Rescore>
     Score         DG    S(hbond)    S(metal)    S(lipo)     H(rot)  DE(clash)    DE(int)     intcor
     14.87     -16.51       1.75        0.00      77.83       1.53       0.11       1.54       ----

> <Gold.Chemscore.Fitness>
14.8654

> <Gold.Chemscore.DG>
-16.5136

> <Gold.Chemscore.ZeroCoef>
-5.4800

> <Gold.Chemscore.Hbond>
1.7486

> <Gold.Chemscore.Metal>
0.0000

> <Gold.Chemscore.Lipo>
77.8258

> <Gold.Chemscore.Internal_Hbond>
0.0000

> <Gold.Chemscore.DEClash>
0.1129

> <Gold.Chemscore.DEInternal>
1.5353

> <Gold.Chemscore.Rot>
1.5283

> <Gold.Chemscore.Internal.Correction>
   9.000000E+99

> <Gold.Chemscore.Hbonds>
donor molecule, donor type, donor heavy atom, donor atom, acceptor molecule, acceptor atom, score
      L1  H    10    30       P1  7948  0.93
      P1  H  7989  7998       L1    22  0.49

> <Gold.Chemscore.Hbond.Weighted>
-5.8404

> <Gold.Chemscore.Metal.Weighted>
-0.0000

> <Gold.Chemscore.Lipo.Weighted>
-9.1056

> <Gold.Chemscore.Internal_Hbond.Weighted>
0.0000

> <Gold.Chemscore.DEClash.Weighted>
0.1129

> <Gold.Chemscore.DEInternal.Weighted>
1.5353

> <Gold.Chemscore.Rot.Weighted>
3.9124

> <Gold.Chemscore.Internal.Correction.Weighted>
   9.000000E+99

> <Gold.Protein.RotatedTorsions>
[ 6907 6896 6895 6894 ] final  132.86 input  -60.11 | X-H torsion
[ 7974 7965 7964 7962 ] final -105.58 input  175.53 | X-H torsion
[ 8008 7997 7996 7995 ] final -164.44 input   59.86 | X-H torsion
[ 10167 10162 10161 10158 ] final  -99.00 input  -65.29 | X-H torsion
[ 10718 10713 10712 10709 ] final   72.93 input   66.30 | X-H torsion
[ 10763 10752 10751 10750 ] final  146.11 input  -60.55 | X-H torsion
[ 11005 11000 10999 10996 ] final -104.21 input  -57.11 | X-H torsion

> <Gold.Protein.ActiveResidues>
 VAL166  LYS551  ARG553  GLY616  TRP617  ASP618  TYR619  PRO620  LYS621  CYS622 
 ASP623  PHE694  ASN695  SER759  ASP760  ASP761  ALA762  ILE779  LEU786  VAL792 
 PHE793  MET794  SER795  GLU796  ALA797  LYS798  CYS799  TRP800  GLU811  SER814 

> <Gold.Protein.RotatedAtoms>
  152.3280  133.5927  159.5789 H   0  0  0  0  0  0  0  0  0  0  0  0  # atno 6907 bound_to 6896
  150.7407  133.9911  159.3616 H   0  0  0  0  0  0  0  0  0  0  0  0  # atno 6908 bound_to 6896
  151.7789  135.0767  160.0422 H   0  0  0  0  0  0  0  0  0  0  0  0  # atno 6909 bound_to 6896
  145.2286  140.9162  143.3217 H   0  0  0  0  0  0  0  0  0  0  0  0  # atno 7974 bound_to 7965
  155.8356  140.0940  157.1766 H   0  0  0  0  0  0  0  0  0  0  0  0  # atno 8008 bound_to 7997
  154.3980  140.1411  156.3727 H   0  0  0  0  0  0  0  0  0  0  0  0  # atno 8009 bound_to 7997
  155.8119  140.3449  155.5465 H   0  0  0  0  0  0  0  0  0  0  0  0  # atno 8010 bound_to 7997
  140.2670  143.3369  152.0571 H   0  0  0  0  0  0  0  0  0  0  0  0  # atno 10167 bound_to 10162
  157.6524  130.9603  150.0997 H   0  0  0  0  0  0  0  0  0  0  0  0  # atno 10718 bound_to 10713
  154.0165  135.2910  155.3386 H   0  0  0  0  0  0  0  0  0  0  0  0  # atno 10763 bound_to 10752
  154.7072  135.5164  153.8615 H   0  0  0  0  0  0  0  0  0  0  0  0  # atno 10764 bound_to 10752
  153.0700  135.6644  154.0391 H   0  0  0  0  0  0  0  0  0  0  0  0  # atno 10765 bound_to 10752
  141.1111  133.8704  157.1582 H   0  0  0  0  0  0  0  0  0  0  0  0  # atno 11005 bound_to 11000
  144.9697  139.3892  143.6315 LP  0  0  0  0  0  0  0  0  0  0  0  0  # atno 17320 bound_to 7965
  146.3358  139.8789  142.8827 LP  0  0  0  0  0  0  0  0  0  0  0  0  # atno 17321 bound_to 7965
  139.5000  144.6681  151.6308 LP  0  0  0  0  0  0  0  0  0  0  0  0  # atno 17342 bound_to 10162
  140.5920  143.9763  150.6330 LP  0  0  0  0  0  0  0  0  0  0  0  0  # atno 17343 bound_to 10162
  156.1923  130.3655  149.8894 LP  0  0  0  0  0  0  0  0  0  0  0  0  # atno 17370 bound_to 10713
  156.6819  130.8861  151.3577 LP  0  0  0  0  0  0  0  0  0  0  0  0  # atno 17371 bound_to 10713
  140.0005  135.0029  157.0180 LP  0  0  0  0  0  0  0  0  0  0  0  0  # atno 17394 bound_to 11000
  140.4773  134.1326  155.7211 LP  0  0  0  0  0  0  0  0  0  0  0  0  # atno 17395 bound_to 11000

$$$$
