AV-unprocessed.smi:1710|AV-procd|sdf|6899|dock6
  -GOLD-   22720 8103D 1   1.00000     0.00000
 Structure written by MMmdl.
 36 37  0  0  0  0  0  0  0  0  1 V2000
  150.9658  140.0401  157.7906 C   0  0  0  0  0  0  0  0  0  0  0  0
  150.7572  140.9121  156.1847 S   0  0  0  0  0  0  0  0  0  0  0  0
  150.9905  142.3472  156.4084 O   0  0  0  0  0  0  0  0  0  0  0  0
  151.5425  140.1956  155.1681 O   0  0  0  0  0  0  0  0  0  0  0  0
  149.0724  140.7001  155.8030 N   0  0  0  0  0  0  0  0  0  0  0  0
  148.5446  141.1705  154.5062 C   0  0  0  0  0  0  0  0  0  0  0  0
  148.3579  140.0113  153.5113 C   0  0  0  0  0  0  0  0  0  0  0  0
  147.4983  138.8882  154.1146 C   0  0  0  0  0  0  0  0  0  0  0  0
  147.3859  137.7662  153.1867 N   0  0  0  0  0  0  0  0  0  0  0  0
  146.2343  137.1990  152.7999 C   0  0  0  0  0  0  0  0  0  0  0  0
  145.1279  137.5664  153.1957 O   0  0  0  0  0  0  0  0  0  0  0  0
  146.4496  136.1975  151.9311 N   0  0  0  0  0  0  0  0  0  0  0  0
  145.4775  135.3649  151.3209 C   0  0  0  0  0  0  0  0  0  0  0  0
  145.6721  133.9940  150.9990 C   0  0  0  0  0  0  0  0  0  0  0  0
  144.5900  133.4699  150.4411 N   0  0  0  0  0  0  0  0  0  0  0  0
  143.7057  134.4921  150.4063 N   0  0  0  0  0  0  0  0  0  0  0  0
  144.2019  135.6646  150.9321 C   0  0  0  0  0  0  0  0  0  0  0  0
  148.1309  138.4187  155.4323 C   0  0  0  0  0  0  0  0  0  0  0  0
  148.3122  139.5907  156.4131 C   0  0  0  0  0  0  0  0  0  0  0  0
  142.7769  134.3752  150.0267 H   0  0  0  0  0  0  0  0  0  0  0  0
  152.0075  140.1144  158.1019 H   0  0  0  0  0  0  0  0  0  0  0  0
  150.7043  138.9895  157.6795 H   0  0  0  0  0  0  0  0  0  0  0  0
  150.3373  140.5042  158.5486 H   0  0  0  0  0  0  0  0  0  0  0  0
  147.5841  141.6559  154.6823 H   0  0  0  0  0  0  0  0  0  0  0  0
  149.1994  141.9312  154.0824 H   0  0  0  0  0  0  0  0  0  0  0  0
  147.8933  140.3902  152.6003 H   0  0  0  0  0  0  0  0  0  0  0  0
  149.3290  139.6163  153.2142 H   0  0  0  0  0  0  0  0  0  0  0  0
  146.5018  139.2777  154.3329 H   0  0  0  0  0  0  0  0  0  0  0  0
  148.2475  137.3994  152.8093 H   0  0  0  0  0  0  0  0  0  0  0  0
  147.4089  136.0120  151.6773 H   0  0  0  0  0  0  0  0  0  0  0  0
  146.5444  133.3749  151.1480 H   0  0  0  0  0  0  0  0  0  0  0  0
  143.6161  136.5704  150.9788 H   0  0  0  0  0  0  0  0  0  0  0  0
  147.5051  137.6538  155.8936 H   0  0  0  0  0  0  0  0  0  0  0  0
  149.0929  137.9464  155.2357 H   0  0  0  0  0  0  0  0  0  0  0  0
  148.8016  139.2505  157.3253 H   0  0  0  0  0  0  0  0  0  0  0  0
  147.3342  139.9691  156.7124 H   0  0  0  0  0  0  0  0  0  0  0  0
  1  2  1  0  0  0  0
  1 21  1  0  0  0  0
  1 22  1  0  0  0  0
  1 23  1  0  0  0  0
  2  3  2  0  0  0  0
  2  4  2  0  0  0  0
  2  5  1  0  0  0  0
  5 19  1  0  0  0  0
  5  6  1  0  0  0  0
  6  7  1  0  0  0  0
  6 24  1  0  0  0  0
  6 25  1  0  0  0  0
  7  8  1  0  0  0  0
  7 26  1  0  0  0  0
  7 27  1  0  0  0  0
  8  9  1  0  0  0  0
  8 18  1  0  0  0  0
  8 28  1  0  0  0  0
  9 10  1  0  0  0  0
  9 29  1  0  0  0  0
 10 11  2  0  0  0  0
 10 12  1  0  0  0  0
 12 13  1  0  0  0  0
 12 30  1  0  0  0  0
 13 17  2  0  0  0  0
 13 14  1  0  0  0  0
 14 15  2  0  0  0  0
 14 31  1  0  0  0  0
 15 16  1  0  0  0  0
 16 20  1  0  0  0  0
 16 17  1  0  0  0  0
 17 32  1  0  0  0  0
 18 19  1  0  0  0  0
 18 33  1  0  0  0  0
 18 34  1  0  0  0  0
 19 35  1  0  0  0  0
 19 36  1  0  0  0  0
M  END
> <s_m_source_file>
AV-unprocessed.smi

> <i_m_source_file_index>
1710

> <i_lp_mmshare_version>
43012

> <i_f3d_flags>
0

> <s_epik_input>
W0NIM11TKD1PKSg9TylOMVtDSDJdW0NIMl1bQ0hdKFtDSDJdW0NIMl0xKVtOSF1DKD1PKVtOSF1jMltjSF1uW25IXVtjSF0y

> <s_epik_cmdline>
J2VwaWtfcHl0aG9uJywgJy1waCcsICc3LjAnLCAnLXRuJywgJzgnLCAnLW1hJywgJzIwMCcsICctbWV0YWxfYmluZGluZycsICctaW1hZScsICc8aW5maWxlLm1hZT4nLCAnLW9tYWUnLCAnPG91dGZpbGUubWFlPic=

> <r_lp_tautomer_probability>
1

> <r_epik_Ionization_Penalty>
5.00334e-05

> <r_epik_Ionization_Penalty_Charging>
0

> <r_epik_Ionization_Penalty_Neutral>
5.00334e-05

> <r_epik_State_Penalty>
-0

> <r_epik_Charging_Adjusted_Penalty>
0

> <i_epik_Tot_Q>
0

> <i_epik_Tot_abs_Q>
0

> <r_epik_Metal_State_Penalty>
-0

> <b_epik_Metal_Only>
0

> <s_lp_Force_Field>
OPLS_2005

> <r_lp_Energy>
2.71919

> <b_lp_Chiralities_Consistent>
1

> <s_lp_Variant>
AV-unprocessed.smi:1710-1

> <Gold.Version>
5.8.1

> <Gold.Id.Protein>
6NUR|6NUR_protein|mol2

> <Gold.PLP.Fitness>
36.1905

> <Gold.PLP.PLP>
-22.3767

> <Gold.PLP.part.hbond>
-3.8131

> <Gold.PLP.part.metal>
0.0000

> <Gold.PLP.part.buried>
-0.4653

> <Gold.PLP.part.nonpolar>
-18.6882

> <Gold.PLP.part.repulsive>
0.5896

> <Gold.PLP.ligand.clash>
0.0000

> <Gold.PLP.ligand.torsion>
1.5228

> <Gold.PLP.Chemscore.Hbond>
3.9360

> <Gold.PLP.Chemscore.CHOScore>
1.0000

> <Gold.PLP.Chemscore.Metal>
0.0000

> <Gold.Chemscore.Hbonds>
donor molecule, donor type, donor heavy atom, donor atom, acceptor molecule, acceptor atom, score
      L1  H     9    29       P1  7948  0.94
      L1  H    12    30       P1  7948  1.00
      L1  H    16    20       P1 10186  1.00
      P1  H  7989  7998       L1     4  0.99
      L1  C    17    32       P1 10171  1.00

> <Gold.PLP.Chemscore.Internal.Correction>
2.0515

> <Gold.Rescore>
     Score         DG    S(hbond)    S(metal)    S(lipo)     H(rot)  DE(clash)    DE(int)     intcor
     17.69     -20.60       3.85        0.00      41.36       1.00       1.32       1.59       ----

> <Gold.Chemscore.Fitness>
17.6928

> <Gold.Chemscore.DG>
-20.6042

> <Gold.Chemscore.ZeroCoef>
-5.4800

> <Gold.Chemscore.Hbond>
3.8460

> <Gold.Chemscore.Metal>
0.0000

> <Gold.Chemscore.Lipo>
41.3564

> <Gold.Chemscore.Internal_Hbond>
0.0000

> <Gold.Chemscore.DEClash>
1.3245

> <Gold.Chemscore.DEInternal>
1.5870

> <Gold.Chemscore.Rot>
1.0000

> <Gold.Chemscore.Internal.Correction>
   9.000000E+99

> <Gold.Chemscore.Hbonds>
donor molecule, donor type, donor heavy atom, donor atom, acceptor molecule, acceptor atom, score
      L1  H     9    29       P1  7948  0.91
      L1  H    12    30       P1  7948  0.91
      L1  H    16    20       P1 10186  0.91
      P1  H  7989  7998       L1     4  0.90

> <Gold.Chemscore.Hbond.Weighted>
-12.8455

> <Gold.Chemscore.Metal.Weighted>
-0.0000

> <Gold.Chemscore.Lipo.Weighted>
-4.8387

> <Gold.Chemscore.Internal_Hbond.Weighted>
0.0000

> <Gold.Chemscore.DEClash.Weighted>
1.3245

> <Gold.Chemscore.DEInternal.Weighted>
1.5870

> <Gold.Chemscore.Rot.Weighted>
2.5600

> <Gold.Chemscore.Internal.Correction.Weighted>
   9.000000E+99

> <Gold.Protein.RotatedTorsions>
[ 6907 6896 6895 6894 ] final   46.40 input  -60.11 | X-H torsion
[ 7974 7965 7964 7962 ] final  -92.62 input  175.53 | X-H torsion
[ 8008 7997 7996 7995 ] final -143.03 input   59.86 | X-H torsion
[ 10167 10162 10161 10158 ] final  173.63 input  -65.29 | X-H torsion
[ 10718 10713 10712 10709 ] final  -80.05 input   66.30 | X-H torsion
[ 10763 10752 10751 10750 ] final  155.68 input  -60.55 | X-H torsion
[ 11005 11000 10999 10996 ] final -123.85 input  -57.11 | X-H torsion

> <Gold.Protein.ActiveResidues>
 VAL166  LYS551  ARG553  GLY616  TRP617  ASP618  TYR619  PRO620  LYS621  CYS622 
 ASP623  PHE694  ASN695  SER759  ASP760  ASP761  ALA762  ILE779  LEU786  VAL792 
 PHE793  MET794  SER795  GLU796  ALA797  LYS798  CYS799  TRP800  GLU811  SER814 

> <Gold.Protein.RotatedAtoms>
  152.2559  134.8084  160.0438 H   0  0  0  0  0  0  0  0  0  0  0  0  # atno 6907 bound_to 6896
  151.8747  133.3478  159.3755 H   0  0  0  0  0  0  0  0  0  0  0  0  # atno 6908 bound_to 6896
  150.7100  134.5004  159.5603 H   0  0  0  0  0  0  0  0  0  0  0  0  # atno 6909 bound_to 6896
  145.3974  140.9534  143.2306 H   0  0  0  0  0  0  0  0  0  0  0  0  # atno 7974 bound_to 7965
  155.5039  140.0578  157.2934 H   0  0  0  0  0  0  0  0  0  0  0  0  # atno 8008 bound_to 7997
  154.4577  140.1981  156.0283 H   0  0  0  0  0  0  0  0  0  0  0  0  # atno 8009 bound_to 7997
  156.0830  140.3244  155.7722 H   0  0  0  0  0  0  0  0  0  0  0  0  # atno 8010 bound_to 7997
  139.5115  144.3239  152.0176 H   0  0  0  0  0  0  0  0  0  0  0  0  # atno 10167 bound_to 10162
  156.0079  130.4563  150.3741 H   0  0  0  0  0  0  0  0  0  0  0  0  # atno 10718 bound_to 10713
  154.1723  135.2804  155.3077 H   0  0  0  0  0  0  0  0  0  0  0  0  # atno 10763 bound_to 10752
  154.6066  135.5512  153.7432 H   0  0  0  0  0  0  0  0  0  0  0  0  # atno 10764 bound_to 10752
  153.0161  135.6405  154.1863 H   0  0  0  0  0  0  0  0  0  0  0  0  # atno 10765 bound_to 10752
  140.9886  134.0570  157.3681 H   0  0  0  0  0  0  0  0  0  0  0  0  # atno 11005 bound_to 11000
  144.8397  139.5491  143.6906 LP  0  0  0  0  0  0  0  0  0  0  0  0  # atno 17320 bound_to 7965
  146.2768  139.6774  142.9257 LP  0  0  0  0  0  0  0  0  0  0  0  0  # atno 17321 bound_to 7965
  140.2680  144.3995  150.6161 LP  0  0  0  0  0  0  0  0  0  0  0  0  # atno 17342 bound_to 10162
  140.6109  143.2169  151.6887 LP  0  0  0  0  0  0  0  0  0  0  0  0  # atno 17343 bound_to 10162
  157.1824  131.0395  151.2742 LP  0  0  0  0  0  0  0  0  0  0  0  0  # atno 17370 bound_to 10713
  157.4134  130.7398  149.6857 LP  0  0  0  0  0  0  0  0  0  0  0  0  # atno 17371 bound_to 10713
  139.8982  135.0153  156.7137 LP  0  0  0  0  0  0  0  0  0  0  0  0  # atno 17394 bound_to 11000
  140.7075  133.9252  155.8063 LP  0  0  0  0  0  0  0  0  0  0  0  0  # atno 17395 bound_to 11000

$$$$
