AV-unprocessed.smi:513|AV-procd|sdf|2775|dock9
  -GOLD-   2262023243D 1   1.00000     0.00000
 Structure written by MMmdl.
 41 43  0  0  0  0  0  0  0  0  2 V2000
  150.4377  135.0705  154.9553 C   0  0  0  0  0  0  0  0  0  0  0  0
  151.2237  136.2373  154.7962 O   0  0  0  0  0  0  0  0  0  0  0  0
  150.8173  137.2915  155.6529 C   0  0  0  0  0  0  0  0  0  0  0  0
  151.0600  138.6503  154.9789 C   0  0  0  0  0  0  0  0  0  0  0  0
  150.8855  139.7665  155.9048 N   0  0  0  0  0  0  0  0  0  0  0  0
  149.8971  140.6952  155.8893 C   0  0  0  0  0  0  0  0  0  0  0  0
  148.8938  140.6512  154.9283 N   0  0  0  0  0  0  0  0  0  0  0  0
  148.6452  141.7018  153.9478 C   0  0  0  0  0  0  0  0  0  0  0  0
  147.1352  141.9500  153.7671 C   0  0  0  0  0  0  0  0  0  0  0  0
  146.4859  140.7259  153.3110 N   0  0  0  0  0  0  0  0  0  0  0  0
  146.6962  139.6906  154.3166 C   0  0  0  0  0  0  0  0  0  0  0  0
  148.2060  139.4389  154.4996 C   0  0  0  0  0  0  0  0  0  0  0  0
  149.9702  141.6177  156.8490 N   0  0  0  0  0  0  0  0  0  0  0  0
  151.1136  141.2410  157.5391 C   0  0  0  0  0  0  0  0  0  0  0  0
  151.6840  140.1334  156.9923 C   0  0  0  0  0  0  0  0  0  0  0  0
  152.9181  139.5044  157.5110 C   0  0  0  0  0  0  0  0  0  0  0  0
  153.3940  138.5032  156.9800 O   0  0  0  0  0  0  0  0  0  0  0  0
  153.4151  140.1681  158.6027 N   0  5  0  0  0  0  0  0  0  0  0  0
  152.8696  141.2907  159.1890 C   0  0  0  0  0  0  0  0  0  0  0  0
  153.3901  141.8209  160.1709 O   0  0  0  0  0  0  0  0  0  0  0  0
  151.7216  141.8378  158.6748 N   0  0  0  0  0  0  0  0  0  0  0  0
  151.0761  143.0255  159.2427 C   0  0  0  0  0  0  0  0  0  0  0  0
  150.7960  134.2935  154.2800 H   0  0  0  0  0  0  0  0  0  0  0  0
  149.3910  135.2664  154.7191 H   0  0  0  0  0  0  0  0  0  0  0  0
  150.5022  134.6868  155.9742 H   0  0  0  0  0  0  0  0  0  0  0  0
  149.7597  137.1805  155.8934 H   0  0  0  0  0  0  0  0  0  0  0  0
  151.3703  137.2428  156.5918 H   0  0  0  0  0  0  0  0  0  0  0  0
  152.0692  138.6829  154.5689 H   0  0  0  0  0  0  0  0  0  0  0  0
  150.4001  138.7788  154.1230 H   0  0  0  0  0  0  0  0  0  0  0  0
  149.1319  142.6202  154.2776 H   0  0  0  0  0  0  0  0  0  0  0  0
  149.1053  141.4271  152.9976 H   0  0  0  0  0  0  0  0  0  0  0  0
  146.6823  142.2872  154.7005 H   0  0  0  0  0  0  0  0  0  0  0  0
  146.9703  142.7347  153.0285 H   0  0  0  0  0  0  0  0  0  0  0  0
  145.4961  140.8905  153.1955 H   0  0  0  0  0  0  0  0  0  0  0  0
  146.2340  139.9893  155.2583 H   0  0  0  0  0  0  0  0  0  0  0  0
  146.2002  138.7759  153.9915 H   0  0  0  0  0  0  0  0  0  0  0  0
  148.6504  139.0795  153.5704 H   0  0  0  0  0  0  0  0  0  0  0  0
  148.3617  138.6571  155.2437 H   0  0  0  0  0  0  0  0  0  0  0  0
  151.5758  143.4343  160.1213 H   0  0  0  0  0  0  0  0  0  0  0  0
  150.0530  142.7867  159.5344 H   0  0  0  0  0  0  0  0  0  0  0  0
  151.0345  143.8175  158.4944 H   0  0  0  0  0  0  0  0  0  0  0  0
  1  2  1  0  0  0  0
  1 23  1  0  0  0  0
  1 24  1  0  0  0  0
  1 25  1  0  0  0  0
  2  3  1  0  0  0  0
  3  4  1  0  0  0  0
  3 26  1  0  0  0  0
  3 27  1  0  0  0  0
  4  5  1  0  0  0  0
  4 28  1  0  0  0  0
  4 29  1  0  0  0  0
  5 15  1  0  0  0  0
  5  6  1  0  0  0  0
  6  7  1  0  0  0  0
  6 13  2  0  0  0  0
  7 12  1  0  0  0  0
  7  8  1  0  0  0  0
  8  9  1  0  0  0  0
  8 30  1  0  0  0  0
  8 31  1  0  0  0  0
  9 10  1  0  0  0  0
  9 32  1  0  0  0  0
  9 33  1  0  0  0  0
 10 11  1  0  0  0  0
 10 34  1  0  0  0  0
 11 12  1  0  0  0  0
 11 35  1  0  0  0  0
 11 36  1  0  0  0  0
 12 37  1  0  0  0  0
 12 38  1  0  0  0  0
 13 14  1  0  0  0  0
 14 21  1  0  0  0  0
 14 15  2  0  0  0  0
 15 16  1  0  0  0  0
 16 17  2  0  0  0  0
 16 18  1  0  0  0  0
 18 19  1  0  0  0  0
 19 20  2  0  0  0  0
 19 21  1  0  0  0  0
 21 22  1  0  0  0  0
 22 39  1  0  0  0  0
 22 40  1  0  0  0  0
 22 41  1  0  0  0  0
M  CHG  1  18  -1
M  END
> <s_m_source_file>
AV-unprocessed.smi

> <i_m_source_file_index>
513

> <i_lp_mmshare_version>
43012

> <i_f3d_flags>
0

> <s_epik_input>
W0NIM11uMWMoPU8pW25IXWMoPU8pYyhjMTIpbihbQ0gyXVtDSDJdT1tDSDNdKWMobjIpTjNbQ0gyXVtDSDJdW05IXVtDSDJdW0NIMl0z

> <s_epik_cmdline>
J2VwaWtfcHl0aG9uJywgJy1waCcsICc3LjAnLCAnLXRuJywgJzgnLCAnLW1hJywgJzIwMCcsICctbWV0YWxfYmluZGluZycsICctaW1hZScsICc8aW5maWxlLm1hZT4nLCAnLW9tYWUnLCAnPG91dGZpbGUubWFlPic=

> <r_epik_Ionization_Penalty>
8.82084

> <r_epik_Ionization_Penalty_Charging>
0.08198

> <r_epik_Ionization_Penalty_Neutral>
8.73886

> <r_epik_State_Penalty>
8.90453

> <r_epik_Charging_Adjusted_Penalty>
8.98651

> <i_epik_Tot_Q>
-1

> <i_epik_Tot_abs_Q>
1

> <r_epik_Metal_State_Penalty>
4.85612

> <b_epik_Metal_Only>
1

> <s_lp_Force_Field>
OPLS_2005

> <r_lp_Energy>
54.8501

> <b_lp_Chiralities_Consistent>
1

> <s_lp_Variant>
AV-unprocessed.smi:513-4

> <Gold.Version>
5.8.1

> <Gold.Id.Protein>
6NUR|6NUR_protein|mol2

> <Gold.PLP.Fitness>
36.1897

> <Gold.PLP.PLP>
-31.6997

> <Gold.PLP.part.hbond>
-4.0000

> <Gold.PLP.part.metal>
0.0000

> <Gold.PLP.part.buried>
-1.3279

> <Gold.PLP.part.nonpolar>
-26.5167

> <Gold.PLP.part.repulsive>
0.2502

> <Gold.PLP.ligand.clash>
0.0178

> <Gold.PLP.ligand.torsion>
1.2504

> <Gold.PLP.Chemscore.Hbond>
2.0000

> <Gold.PLP.Chemscore.CHOScore>
0.0000

> <Gold.PLP.Chemscore.Metal>
0.0000

> <Gold.Chemscore.Hbonds>
donor molecule, donor type, donor heavy atom, donor atom, acceptor molecule, acceptor atom, score
      L1  H    10    34       P1 10175  1.00
      P1  H 10752 10764       L1     2  1.00

> <Gold.PLP.Chemscore.Internal.Correction>
1.0086

> <Gold.Rescore>
     Score         DG    S(hbond)    S(metal)    S(lipo)     H(rot)  DE(clash)    DE(int)     intcor
     11.52     -14.09       1.96        0.00      51.27       1.53       0.22       2.36       ----

> <Gold.Chemscore.Fitness>
11.5179

> <Gold.Chemscore.DG>
-14.0904

> <Gold.Chemscore.ZeroCoef>
-5.4800

> <Gold.Chemscore.Hbond>
1.9582

> <Gold.Chemscore.Metal>
0.0000

> <Gold.Chemscore.Lipo>
51.2748

> <Gold.Chemscore.Internal_Hbond>
0.0000

> <Gold.Chemscore.DEClash>
0.2174

> <Gold.Chemscore.DEInternal>
2.3551

> <Gold.Chemscore.Rot>
1.5348

> <Gold.Chemscore.Internal.Correction>
   9.000000E+99

> <Gold.Chemscore.Hbonds>
donor molecule, donor type, donor heavy atom, donor atom, acceptor molecule, acceptor atom, score
      L1  H    10    34       P1 10175  0.53
      P1  H 10752 10764       L1     2  0.40

> <Gold.Chemscore.Hbond.Weighted>
-6.5403

> <Gold.Chemscore.Metal.Weighted>
-0.0000

> <Gold.Chemscore.Lipo.Weighted>
-5.9992

> <Gold.Chemscore.Internal_Hbond.Weighted>
0.0000

> <Gold.Chemscore.DEClash.Weighted>
0.2174

> <Gold.Chemscore.DEInternal.Weighted>
2.3551

> <Gold.Chemscore.Rot.Weighted>
3.9290

> <Gold.Chemscore.Internal.Correction.Weighted>
   9.000000E+99

> <Gold.Protein.RotatedTorsions>
[ 6907 6896 6895 6894 ] final  -29.11 input  -60.11 | X-H torsion
[ 7974 7965 7964 7962 ] final  -69.16 input  175.53 | X-H torsion
[ 8008 7997 7996 7995 ] final  132.99 input   59.86 | X-H torsion
[ 10167 10162 10161 10158 ] final   85.50 input  -65.29 | X-H torsion
[ 10718 10713 10712 10709 ] final -126.96 input   66.30 | X-H torsion
[ 10763 10752 10751 10750 ] final  -53.04 input  -60.55 | X-H torsion
[ 11005 11000 10999 10996 ] final    8.08 input  -57.11 | X-H torsion

> <Gold.Protein.ActiveResidues>
 VAL166  LYS551  ARG553  GLY616  TRP617  ASP618  TYR619  PRO620  LYS621  CYS622 
 ASP623  PHE694  ASN695  SER759  ASP760  ASP761  ALA762  ILE779  LEU786  VAL792 
 PHE793  MET794  SER795  GLU796  ALA797  LYS798  CYS799  TRP800  GLU811  SER814 

> <Gold.Protein.RotatedAtoms>
  151.1237  135.0093  159.8550 H   0  0  0  0  0  0  0  0  0  0  0  0  # atno 6907 bound_to 6896
  152.5449  134.1692  159.8600 H   0  0  0  0  0  0  0  0  0  0  0  0  # atno 6908 bound_to 6896
  151.1753  133.4714  159.2627 H   0  0  0  0  0  0  0  0  0  0  0  0  # atno 6909 bound_to 6896
  145.7073  140.9092  143.0699 H   0  0  0  0  0  0  0  0  0  0  0  0  # atno 7974 bound_to 7965
  156.2988  140.2532  156.3180 H   0  0  0  0  0  0  0  0  0  0  0  0  # atno 8008 bound_to 7997
  154.9262  140.0399  157.2043 H   0  0  0  0  0  0  0  0  0  0  0  0  # atno 8009 bound_to 7997
  154.8262  140.2868  155.5757 H   0  0  0  0  0  0  0  0  0  0  0  0  # atno 8010 bound_to 7997
  139.8971  144.6351  150.8676 H   0  0  0  0  0  0  0  0  0  0  0  0  # atno 10167 bound_to 10162
  156.1813  130.6734  151.0308 H   0  0  0  0  0  0  0  0  0  0  0  0  # atno 10718 bound_to 10713
  154.1524  135.6488  153.4966 H   0  0  0  0  0  0  0  0  0  0  0  0  # atno 10763 bound_to 10752
  153.0134  135.5341  154.6794 H   0  0  0  0  0  0  0  0  0  0  0  0  # atno 10764 bound_to 10752
  154.6086  135.2951  155.0429 H   0  0  0  0  0  0  0  0  0  0  0  0  # atno 10765 bound_to 10752
  140.5410  134.0374  155.7904 H   0  0  0  0  0  0  0  0  0  0  0  0  # atno 11005 bound_to 11000
  144.6951  139.9028  143.7459 LP  0  0  0  0  0  0  0  0  0  0  0  0  # atno 17320 bound_to 7965
  146.0744  139.3732  143.0503 LP  0  0  0  0  0  0  0  0  0  0  0  0  # atno 17321 bound_to 7965
  140.7714  143.3465  151.2101 LP  0  0  0  0  0  0  0  0  0  0  0  0  # atno 17342 bound_to 10162
  139.7058  143.9458  152.2926 LP  0  0  0  0  0  0  0  0  0  0  0  0  # atno 17343 bound_to 10162
  157.6870  131.0822  150.7215 LP  0  0  0  0  0  0  0  0  0  0  0  0  # atno 17370 bound_to 10713
  156.7272  130.4698  149.5508 LP  0  0  0  0  0  0  0  0  0  0  0  0  # atno 17371 bound_to 10713
  141.1227  133.9434  157.2697 LP  0  0  0  0  0  0  0  0  0  0  0  0  # atno 17394 bound_to 11000
  139.9504  135.0176  156.8977 LP  0  0  0  0  0  0  0  0  0  0  0  0  # atno 17395 bound_to 11000

$$$$
