AV-unprocessed.smi:3105|AV-procd|sdf|11820|dock8
  -GOLD-   2272017193D 1   1.00000     0.00000
 Structure written by MMmdl.
 34 34  0  0  0  0  0  0  0  0  2 V2000
  147.6950  137.3602  154.9085 C   0  0  0  0  0  0  0  0  0  0  0  0
  149.2197  137.2512  155.1240 C   0  0  1  0  0  0  0  0  0  0  0  0
  149.6827  135.8760  154.8247 N   0  3  0  0  0  0  0  0  0  0  0  0
  149.0986  134.8112  155.6673 C   0  0  0  0  0  0  0  0  0  0  0  0
  150.0462  134.4467  156.8238 C   0  0  0  0  0  0  0  0  0  0  0  0
  150.5142  132.9879  156.7883 C   0  0  0  0  0  0  0  0  0  0  0  0
  150.0763  132.2427  155.7708 N   0  0  0  0  0  0  0  0  0  0  0  0
  151.2583  132.5352  157.6560 O   0  0  0  0  0  0  0  0  0  0  0  0
  150.0226  138.2702  154.2706 C   0  0  2  0  0  0  0  0  0  0  0  0
  151.5399  138.1927  154.5295 C   0  0  0  0  0  0  0  0  0  0  0  0
  149.5567  139.6389  154.4582 N   0  0  0  0  0  0  0  0  0  0  0  0
  148.3354  140.1808  154.1128 C   0  0  0  0  0  0  0  0  0  0  0  0
  148.3548  141.4966  154.4767 C   0  0  0  0  0  0  0  0  0  0  0  0
  149.6487  141.6730  155.0407 C   0  0  0  0  0  0  0  0  0  0  0  0
  150.3659  140.5612  155.0271 N   0  0  0  0  0  0  0  0  0  0  0  0
  147.3164  138.3450  155.1818 H   0  0  0  0  0  0  0  0  0  0  0  0
  147.1467  136.6414  155.5165 H   0  0  0  0  0  0  0  0  0  0  0  0
  147.4307  137.1823  153.8658 H   0  0  0  0  0  0  0  0  0  0  0  0
  149.4301  137.4579  156.1748 H   0  0  0  0  0  0  0  0  0  0  0  0
  149.5020  135.6731  153.8520 H   0  0  0  0  0  0  0  0  0  0  0  0
  148.1420  135.1576  156.0619 H   0  0  0  0  0  0  0  0  0  0  0  0
  148.8987  133.9281  155.0600 H   0  0  0  0  0  0  0  0  0  0  0  0
  150.9233  135.0952  156.7957 H   0  0  0  0  0  0  0  0  0  0  0  0
  149.5525  134.6255  157.7800 H   0  0  0  0  0  0  0  0  0  0  0  0
  150.3494  131.2734  155.6951 H   0  0  0  0  0  0  0  0  0  0  0  0
  149.4677  132.6527  155.0767 H   0  0  0  0  0  0  0  0  0  0  0  0
  149.8568  138.0290  153.2192 H   0  0  0  0  0  0  0  0  0  0  0  0
  151.9430  137.2135  154.2717 H   0  0  0  0  0  0  0  0  0  0  0  0
  151.7781  138.3830  155.5766 H   0  0  0  0  0  0  0  0  0  0  0  0
  152.0758  138.9292  153.9297 H   0  0  0  0  0  0  0  0  0  0  0  0
  147.5612  139.5924  153.6425 H   0  0  0  0  0  0  0  0  0  0  0  0
  147.5651  142.2235  154.3564 H   0  0  0  0  0  0  0  0  0  0  0  0
  150.0852  142.5694  155.4561 H   0  0  0  0  0  0  0  0  0  0  0  0
  150.6812  135.8559  154.9753 H   0  0  0  0  0  0  0  0  0  0  0  0
  1  2  1  0  0  0  0
  1 16  1  0  0  0  0
  1 17  1  0  0  0  0
  1 18  1  0  0  0  0
  2  3  1  0  0  0  0
  2  9  1  0  0  0  0
  2 19  1  0  0  0  0
  3  4  1  0  0  0  0
  3 20  1  0  0  0  0
  3 34  1  0  0  0  0
  4  5  1  0  0  0  0
  4 21  1  0  0  0  0
  4 22  1  0  0  0  0
  5  6  1  0  0  0  0
  5 23  1  0  0  0  0
  5 24  1  0  0  0  0
  6  7  1  0  0  0  0
  6  8  2  0  0  0  0
  7 25  1  0  0  0  0
  7 26  1  0  0  0  0
  9 10  1  0  0  0  0
  9 11  1  0  0  0  0
  9 27  1  0  0  0  0
 10 28  1  0  0  0  0
 10 29  1  0  0  0  0
 10 30  1  0  0  0  0
 11 15  1  0  0  0  0
 11 12  1  0  0  0  0
 12 13  2  0  0  0  0
 12 31  1  0  0  0  0
 13 14  1  0  0  0  0
 13 32  1  0  0  0  0
 14 15  2  0  0  0  0
 14 33  1  0  0  0  0
M  CHG  1   3   1
M  END
> <s_m_source_file>
AV-unprocessed.smi

> <i_m_source_file_index>
3105

> <i_lp_mmshare_version>
43012

> <i_f3d_flags>
0

> <s_epik_input>
W05IMl1DKD1PKVtDSDJdW0NIMl1bTkhdW0NAQEhdKFtDSDNdKVtDQEhdKFtDSDNdKW4xW2NIXVtjSF1bY0hdbjE=

> <s_epik_cmdline>
J2VwaWtfcHl0aG9uJywgJy1waCcsICc3LjAnLCAnLXRuJywgJzgnLCAnLW1hJywgJzIwMCcsICctbWV0YWxfYmluZGluZycsICctaW1hZScsICc8aW5maWxlLm1hZT4nLCAnLW9tYWUnLCAnPG91dGZpbGUubWFlPic=

> <r_lp_tautomer_probability>
1

> <r_epik_Ionization_Penalty>
0.00475669

> <r_epik_Ionization_Penalty_Charging>
0.00474654

> <r_epik_Ionization_Penalty_Neutral>
1.01546e-05

> <r_epik_State_Penalty>
-0

> <r_epik_Charging_Adjusted_Penalty>
0.00474654

> <i_epik_Tot_Q>
1

> <i_epik_Tot_abs_Q>
1

> <r_epik_Metal_State_Penalty>
-0

> <b_epik_Metal_Only>
0

> <s_lp_Force_Field>
OPLS_2005

> <r_lp_Energy>
9.05092

> <b_lp_Chiralities_Consistent>
1

> <s_lp_Variant>
AV-unprocessed.smi:3105-2

> <Gold.Version>
5.8.1

> <Gold.Id.Protein>
6NUR|6NUR_protein|mol2

> <Gold.PLP.Fitness>
38.0486

> <Gold.PLP.PLP>
-25.0397

> <Gold.PLP.part.hbond>
-3.0000

> <Gold.PLP.part.metal>
0.0000

> <Gold.PLP.part.buried>
-2.5434

> <Gold.PLP.part.nonpolar>
-19.8655

> <Gold.PLP.part.repulsive>
0.1445

> <Gold.PLP.ligand.clash>
0.0063

> <Gold.PLP.ligand.torsion>
0.8169

> <Gold.PLP.Chemscore.Hbond>
3.9440

> <Gold.PLP.Chemscore.CHOScore>
0.9067

> <Gold.PLP.Chemscore.Metal>
0.0000

> <Gold.Chemscore.Hbonds>
donor molecule, donor type, donor heavy atom, donor atom, acceptor molecule, acceptor atom, score
      L1  H     3    20       P1  7948  1.62
      P1  H  6896  6907       L1     8  1.00
      P1  H  7989  7998       L1    15  0.96
      L1  C    14    33       P1  8028  0.88

> <Gold.PLP.Chemscore.Internal.Correction>
0.0969

> <Gold.Rescore>
     Score         DG    S(hbond)    S(metal)    S(lipo)     H(rot)  DE(clash)    DE(int)     intcor
      9.51     -11.34       2.28        0.00      47.34       2.85       0.01       1.82       ----

> <Gold.Chemscore.Fitness>
9.5126

> <Gold.Chemscore.DG>
-11.3417

> <Gold.Chemscore.ZeroCoef>
-5.4800

> <Gold.Chemscore.Hbond>
2.2790

> <Gold.Chemscore.Metal>
0.0000

> <Gold.Chemscore.Lipo>
47.3424

> <Gold.Chemscore.Internal_Hbond>
0.0000

> <Gold.Chemscore.DEClash>
0.0126

> <Gold.Chemscore.DEInternal>
1.8165

> <Gold.Chemscore.Rot>
2.8473

> <Gold.Chemscore.Internal.Correction>
   9.000000E+99

> <Gold.Chemscore.Hbonds>
donor molecule, donor type, donor heavy atom, donor atom, acceptor molecule, acceptor atom, score
      L1  H     3    20       P1  7948  0.27
      P1  H  6896  6907       L1     8  0.98
      P1  H  7989  7998       L1    15  0.08

> <Gold.Chemscore.Hbond.Weighted>
-7.6118

> <Gold.Chemscore.Metal.Weighted>
-0.0000

> <Gold.Chemscore.Lipo.Weighted>
-5.5391

> <Gold.Chemscore.Internal_Hbond.Weighted>
0.0000

> <Gold.Chemscore.DEClash.Weighted>
0.0126

> <Gold.Chemscore.DEInternal.Weighted>
1.8165

> <Gold.Chemscore.Rot.Weighted>
7.2892

> <Gold.Chemscore.Internal.Correction.Weighted>
   9.000000E+99

> <Gold.Protein.RotatedTorsions>
[ 6907 6896 6895 6894 ] final -173.71 input  -60.11 | X-H torsion
[ 7974 7965 7964 7962 ] final   -3.81 input  175.53 | X-H torsion
[ 8008 7997 7996 7995 ] final -103.16 input   59.86 | X-H torsion
[ 10167 10162 10161 10158 ] final  -55.78 input  -65.29 | X-H torsion
[ 10718 10713 10712 10709 ] final -138.15 input   66.30 | X-H torsion
[ 10763 10752 10751 10750 ] final  -71.51 input  -60.55 | X-H torsion
[ 11005 11000 10999 10996 ] final   50.72 input  -57.11 | X-H torsion

> <Gold.Protein.ActiveResidues>
 VAL166  LYS551  ARG553  GLY616  TRP617  ASP618  TYR619  PRO620  LYS621  CYS622 
 ASP623  PHE694  ASN695  SER759  ASP760  ASP761  ALA762  ILE779  LEU786  VAL792 
 PHE793  MET794  SER795  GLU796  ALA797  LYS798  CYS799  TRP800  GLU811  SER814 

> <Gold.Protein.RotatedAtoms>
  151.5606  133.3404  159.2970 H   0  0  0  0  0  0  0  0  0  0  0  0  # atno 6907 bound_to 6896
  150.8425  134.7724  159.6955 H   0  0  0  0  0  0  0  0  0  0  0  0  # atno 6908 bound_to 6896
  152.4489  134.5443  159.9899 H   0  0  0  0  0  0  0  0  0  0  0  0  # atno 6909 bound_to 6896
  146.2383  140.1777  142.8332 H   0  0  0  0  0  0  0  0  0  0  0  0  # atno 7974 bound_to 7965
  154.8669  140.0424  157.1700 H   0  0  0  0  0  0  0  0  0  0  0  0  # atno 8008 bound_to 7997
  154.8780  140.2968  155.5421 H   0  0  0  0  0  0  0  0  0  0  0  0  # atno 8009 bound_to 7997
  156.2999  140.2416  156.3778 H   0  0  0  0  0  0  0  0  0  0  0  0  # atno 8010 bound_to 7997
  140.6355  143.2480  151.5130 H   0  0  0  0  0  0  0  0  0  0  0  0  # atno 10167 bound_to 10162
  156.2962  130.7403  151.1442 H   0  0  0  0  0  0  0  0  0  0  0  0  # atno 10718 bound_to 10713
  154.4328  135.5960  153.6079 H   0  0  0  0  0  0  0  0  0  0  0  0  # atno 10763 bound_to 10752
  152.9800  135.5979  154.3818 H   0  0  0  0  0  0  0  0  0  0  0  0  # atno 10764 bound_to 10752
  154.3658  135.2841  155.2273 H   0  0  0  0  0  0  0  0  0  0  0  0  # atno 10765 bound_to 10752
  140.0993  134.5103  155.8777 H   0  0  0  0  0  0  0  0  0  0  0  0  # atno 11005 bound_to 11000
  144.9960  140.8589  143.5310 LP  0  0  0  0  0  0  0  0  0  0  0  0  # atno 17320 bound_to 7965
  145.1789  139.2362  143.5302 LP  0  0  0  0  0  0  0  0  0  0  0  0  # atno 17321 bound_to 7965
  139.5565  144.2261  152.1621 LP  0  0  0  0  0  0  0  0  0  0  0  0  # atno 17342 bound_to 10162
  140.1517  144.5108  150.6684 LP  0  0  0  0  0  0  0  0  0  0  0  0  # atno 17343 bound_to 10162
  157.7356  131.0571  150.5462 LP  0  0  0  0  0  0  0  0  0  0  0  0  # atno 17370 bound_to 10713
  156.5584  130.4249  149.6074 LP  0  0  0  0  0  0  0  0  0  0  0  0  # atno 17371 bound_to 10713
  141.2101  133.6691  156.6486 LP  0  0  0  0  0  0  0  0  0  0  0  0  # atno 17394 bound_to 11000
  140.3242  134.7982  157.4276 LP  0  0  0  0  0  0  0  0  0  0  0  0  # atno 17395 bound_to 11000

$$$$
