AV-unprocessed.smi:546|AV-procd|sdf|2888|dock9
  -GOLD-   2262023383D 1   1.00000     0.00000
 Structure written by MMmdl.
 51 53  0  0  0  0  0  0  0  0  2 V2000
  147.1570  142.4815  154.0785 C   0  0  0  0  0  0  0  0  0  0  0  0
  146.5043  141.9219  155.3442 C   0  0  0  0  0  0  0  0  0  0  0  0
  147.1223  142.5188  156.4693 O   0  0  0  0  0  0  0  0  0  0  0  0
  148.1194  141.7016  157.0586 C   0  0  0  0  0  0  0  0  0  0  0  0
  149.5033  142.3234  156.8204 C   0  0  0  0  0  0  0  0  0  0  0  0
  150.5627  141.3231  156.9125 N   0  0  0  0  0  0  0  0  0  0  0  0
  151.6296  141.3154  157.7564 C   0  0  0  0  0  0  0  0  0  0  0  0
  151.8858  142.3557  158.6536 N   0  0  0  0  0  0  0  0  0  0  0  0
  151.9898  143.7650  158.2617 C   0  0  0  0  0  0  0  0  0  0  0  0
  151.5094  144.7582  159.3459 C   0  0  1  0  0  0  0  0  0  0  0  0
  149.9797  144.8224  159.4826 C   0  0  0  0  0  0  0  0  0  0  0  0
  152.2083  144.4759  160.6861 C   0  0  0  0  0  0  0  0  0  0  0  0
  152.1062  142.9888  161.0593 C   0  0  2  0  0  0  0  0  0  0  0  0
  152.8612  142.6822  162.3594 C   0  0  0  0  0  0  0  0  0  0  0  0
  152.6260  142.1286  159.8945 C   0  0  0  0  0  0  0  0  0  0  0  0
  152.3914  140.2225  157.6772 N   0  0  0  0  0  0  0  0  0  0  0  0
  151.7715  139.4796  156.6850 C   0  0  0  0  0  0  0  0  0  0  0  0
  150.6699  140.1182  156.2069 C   0  0  0  0  0  0  0  0  0  0  0  0
  149.7875  139.5558  155.1581 C   0  0  0  0  0  0  0  0  0  0  0  0
  148.7926  140.1623  154.7667 O   0  0  0  0  0  0  0  0  0  0  0  0
  150.2213  138.3325  154.7176 N   0  5  0  0  0  0  0  0  0  0  0  0
  151.3315  137.6544  155.1716 C   0  0  0  0  0  0  0  0  0  0  0  0
  151.6523  136.5551  154.7180 O   0  0  0  0  0  0  0  0  0  0  0  0
  152.1107  138.2053  156.1543 N   0  0  0  0  0  0  0  0  0  0  0  0
  153.2916  137.5024  156.6639 C   0  0  0  0  0  0  0  0  0  0  0  0
  146.7107  142.0472  153.1839 H   0  0  0  0  0  0  0  0  0  0  0  0
  148.2251  142.2627  154.0612 H   0  0  0  0  0  0  0  0  0  0  0  0
  147.0370  143.5636  154.0225 H   0  0  0  0  0  0  0  0  0  0  0  0
  145.4351  142.1374  155.3427 H   0  0  0  0  0  0  0  0  0  0  0  0
  146.6259  140.8383  155.3779 H   0  0  0  0  0  0  0  0  0  0  0  0
  147.9358  141.5963  158.1287 H   0  0  0  0  0  0  0  0  0  0  0  0
  148.0822  140.7037  156.6193 H   0  0  0  0  0  0  0  0  0  0  0  0
  149.5415  142.8167  155.8518 H   0  0  0  0  0  0  0  0  0  0  0  0
  149.6857  143.1163  157.5381 H   0  0  0  0  0  0  0  0  0  0  0  0
  153.0388  143.9645  158.0394 H   0  0  0  0  0  0  0  0  0  0  0  0
  151.4596  143.9390  157.3259 H   0  0  0  0  0  0  0  0  0  0  0  0
  151.8203  145.7534  159.0255 H   0  0  0  0  0  0  0  0  0  0  0  0
  149.5590  143.8680  159.7947 H   0  0  0  0  0  0  0  0  0  0  0  0
  149.5132  145.1023  158.5381 H   0  0  0  0  0  0  0  0  0  0  0  0
  149.6856  145.5677  160.2219 H   0  0  0  0  0  0  0  0  0  0  0  0
  153.2603  144.7529  160.6031 H   0  0  0  0  0  0  0  0  0  0  0  0
  151.7892  145.1009  161.4756 H   0  0  0  0  0  0  0  0  0  0  0  0
  151.0574  142.7397  161.2257 H   0  0  0  0  0  0  0  0  0  0  0  0
  153.9264  142.8935  162.2599 H   0  0  0  0  0  0  0  0  0  0  0  0
  152.7546  141.6328  162.6360 H   0  0  0  0  0  0  0  0  0  0  0  0
  152.4779  143.2812  163.1858 H   0  0  0  0  0  0  0  0  0  0  0  0
  152.5488  141.0743  160.1637 H   0  0  0  0  0  0  0  0  0  0  0  0
  153.6844  142.3255  159.7184 H   0  0  0  0  0  0  0  0  0  0  0  0
  154.0320  137.3808  155.8726 H   0  0  0  0  0  0  0  0  0  0  0  0
  153.0205  136.5121  157.0327 H   0  0  0  0  0  0  0  0  0  0  0  0
  153.7741  138.0308  157.4855 H   0  0  0  0  0  0  0  0  0  0  0  0
  1  2  1  0  0  0  0
  1 26  1  0  0  0  0
  1 27  1  0  0  0  0
  1 28  1  0  0  0  0
  2  3  1  0  0  0  0
  2 29  1  0  0  0  0
  2 30  1  0  0  0  0
  3  4  1  0  0  0  0
  4  5  1  0  0  0  0
  4 31  1  0  0  0  0
  4 32  1  0  0  0  0
  5  6  1  0  0  0  0
  5 33  1  0  0  0  0
  5 34  1  0  0  0  0
  6 18  1  0  0  0  0
  6  7  1  0  0  0  0
  7  8  1  0  0  0  0
  7 16  2  0  0  0  0
  8 15  1  0  0  0  0
  8  9  1  0  0  0  0
  9 10  1  0  0  0  0
  9 35  1  0  0  0  0
  9 36  1  0  0  0  0
 10 11  1  0  0  0  0
 10 12  1  0  0  0  0
 10 37  1  0  0  0  0
 11 38  1  0  0  0  0
 11 39  1  0  0  0  0
 11 40  1  0  0  0  0
 12 13  1  0  0  0  0
 12 41  1  0  0  0  0
 12 42  1  0  0  0  0
 13 14  1  0  0  0  0
 13 15  1  0  0  0  0
 13 43  1  0  0  0  0
 14 44  1  0  0  0  0
 14 45  1  0  0  0  0
 14 46  1  0  0  0  0
 15 47  1  0  0  0  0
 15 48  1  0  0  0  0
 16 17  1  0  0  0  0
 17 24  1  0  0  0  0
 17 18  2  0  0  0  0
 18 19  1  0  0  0  0
 19 20  2  0  0  0  0
 19 21  1  0  0  0  0
 21 22  1  0  0  0  0
 22 23  2  0  0  0  0
 22 24  1  0  0  0  0
 24 25  1  0  0  0  0
 25 49  1  0  0  0  0
 25 50  1  0  0  0  0
 25 51  1  0  0  0  0
M  CHG  1  21  -1
M  END
> <s_m_source_file>
AV-unprocessed.smi

> <i_m_source_file_index>
546

> <i_lp_mmshare_version>
43012

> <i_f3d_flags>
0

> <s_epik_input>
W0NIM11uMWMoPU8pW25IXWMoPU8pYyhjMTIpbihbQ0gyXVtDSDJdT1tDSDJdW0NIM10pYyhuMilOM1tDSDJdW0NAQEhdKFtDSDNdKVtDSDJdW0NAQEhdKFtDSDNdKVtDSDJdMw==

> <s_epik_cmdline>
J2VwaWtfcHl0aG9uJywgJy1waCcsICc3LjAnLCAnLXRuJywgJzgnLCAnLW1hJywgJzIwMCcsICctbWV0YWxfYmluZGluZycsICctaW1hZScsICc8aW5maWxlLm1hZT4nLCAnLW9tYWUnLCAnPG91dGZpbGUubWFlPic=

> <r_lp_tautomer_probability>
1

> <r_epik_Ionization_Penalty>
5.12825

> <r_epik_Ionization_Penalty_Charging>
0.0743105

> <r_epik_Ionization_Penalty_Neutral>
5.05394

> <r_epik_State_Penalty>
5.04406

> <r_epik_Charging_Adjusted_Penalty>
5.11837

> <i_epik_Tot_Q>
-1

> <i_epik_Tot_abs_Q>
1

> <r_epik_Metal_State_Penalty>
1.15122

> <b_epik_Metal_Only>
1

> <s_lp_Force_Field>
OPLS_2005

> <r_lp_Energy>
44.0722

> <b_lp_Chiralities_Consistent>
1

> <s_lp_Variant>
AV-unprocessed.smi:546-6

> <Gold.Version>
5.8.1

> <Gold.Id.Protein>
6NUR|6NUR_protein|mol2

> <Gold.PLP.Fitness>
50.6149

> <Gold.PLP.PLP>
-48.6492

> <Gold.PLP.part.hbond>
-2.0000

> <Gold.PLP.part.metal>
0.0000

> <Gold.PLP.part.buried>
-0.4474

> <Gold.PLP.part.nonpolar>
-47.8278

> <Gold.PLP.part.repulsive>
2.7757

> <Gold.PLP.ligand.clash>
0.0000

> <Gold.PLP.ligand.torsion>
1.3752

> <Gold.PLP.Chemscore.Hbond>
1.3790

> <Gold.PLP.Chemscore.CHOScore>
0.0000

> <Gold.PLP.Chemscore.Metal>
0.0000

> <Gold.Chemscore.Hbonds>
donor molecule, donor type, donor heavy atom, donor atom, acceptor molecule, acceptor atom, score
      P1  H  7997  8010       L1    16  0.08
      P1  H 10752 10763       L1    23  0.53

> <Gold.PLP.Chemscore.Internal.Correction>
0.5792

> <Gold.Rescore>
     Score         DG    S(hbond)    S(metal)    S(lipo)     H(rot)  DE(clash)    DE(int)     intcor
     12.53     -16.22       0.76        0.00     103.49       1.52       0.90       2.78       ----

> <Gold.Chemscore.Fitness>
12.5327

> <Gold.Chemscore.DG>
-16.2199

> <Gold.Chemscore.ZeroCoef>
-5.4800

> <Gold.Chemscore.Hbond>
0.7558

> <Gold.Chemscore.Metal>
0.0000

> <Gold.Chemscore.Lipo>
103.4889

> <Gold.Chemscore.Internal_Hbond>
0.0000

> <Gold.Chemscore.DEClash>
0.9023

> <Gold.Chemscore.DEInternal>
2.7848

> <Gold.Chemscore.Rot>
1.5206

> <Gold.Chemscore.Internal.Correction>
   9.000000E+99

> <Gold.Chemscore.Hbonds>
donor molecule, donor type, donor heavy atom, donor atom, acceptor molecule, acceptor atom, score
      P1  H 10752 10763       L1    23  0.52

> <Gold.Chemscore.Hbond.Weighted>
-2.5243

> <Gold.Chemscore.Metal.Weighted>
-0.0000

> <Gold.Chemscore.Lipo.Weighted>
-12.1082

> <Gold.Chemscore.Internal_Hbond.Weighted>
0.0000

> <Gold.Chemscore.DEClash.Weighted>
0.9023

> <Gold.Chemscore.DEInternal.Weighted>
2.7848

> <Gold.Chemscore.Rot.Weighted>
3.8926

> <Gold.Chemscore.Internal.Correction.Weighted>
   9.000000E+99

> <Gold.Protein.RotatedTorsions>
[ 6907 6896 6895 6894 ] final   66.32 input  -60.11 | X-H torsion
[ 7974 7965 7964 7962 ] final -166.01 input  175.53 | X-H torsion
[ 8008 7997 7996 7995 ] final   74.24 input   59.86 | X-H torsion
[ 10167 10162 10161 10158 ] final  -90.47 input  -65.29 | X-H torsion
[ 10718 10713 10712 10709 ] final  151.84 input   66.30 | X-H torsion
[ 10763 10752 10751 10750 ] final   14.35 input  -60.55 | X-H torsion
[ 11005 11000 10999 10996 ] final  -97.76 input  -57.11 | X-H torsion

> <Gold.Protein.ActiveResidues>
 VAL166  LYS551  ARG553  GLY616  TRP617  ASP618  TYR619  PRO620  LYS621  CYS622 
 ASP623  PHE694  ASN695  SER759  ASP760  ASP761  ALA762  ILE779  LEU786  VAL792 
 PHE793  MET794  SER795  GLU796  ALA797  LYS798  CYS799  TRP800  GLU811  SER814 

> <Gold.Protein.RotatedAtoms>
  152.4473  134.5469  159.9855 H   0  0  0  0  0  0  0  0  0  0  0  0  # atno 6907 bound_to 6896
  151.5551  133.3406  159.2968 H   0  0  0  0  0  0  0  0  0  0  0  0  # atno 6908 bound_to 6896
  150.8392  134.7709  159.6981 H   0  0  0  0  0  0  0  0  0  0  0  0  # atno 6909 bound_to 6896
  144.7255  140.2729  143.6248 H   0  0  0  0  0  0  0  0  0  0  0  0  # atno 7974 bound_to 7965
  155.7954  140.3478  155.5373 H   0  0  0  0  0  0  0  0  0  0  0  0  # atno 8008 bound_to 7997
  155.8591  140.0968  157.1645 H   0  0  0  0  0  0  0  0  0  0  0  0  # atno 8009 bound_to 7997
  154.4011  140.1362  156.3926 H   0  0  0  0  0  0  0  0  0  0  0  0  # atno 8010 bound_to 7997
  140.3545  143.2873  151.9687 H   0  0  0  0  0  0  0  0  0  0  0  0  # atno 10167 bound_to 10162
  157.2655  131.0806  151.1636 H   0  0  0  0  0  0  0  0  0  0  0  0  # atno 10718 bound_to 10713
  153.1631  135.6799  153.8714 H   0  0  0  0  0  0  0  0  0  0  0  0  # atno 10763 bound_to 10752
  153.8103  135.3144  155.3401 H   0  0  0  0  0  0  0  0  0  0  0  0  # atno 10764 bound_to 10752
  154.7946  135.4814  154.0221 H   0  0  0  0  0  0  0  0  0  0  0  0  # atno 10765 bound_to 10752
  141.1368  133.8194  157.0748 H   0  0  0  0  0  0  0  0  0  0  0  0  # atno 11005 bound_to 11000
  145.8025  139.1970  143.2040 LP  0  0  0  0  0  0  0  0  0  0  0  0  # atno 17320 bound_to 7965
  146.0665  140.7915  142.9709 LP  0  0  0  0  0  0  0  0  0  0  0  0  # atno 17321 bound_to 7965
  139.4822  144.6047  151.7543 LP  0  0  0  0  0  0  0  0  0  0  0  0  # atno 17342 bound_to 10162
  140.5186  144.0913  150.6016 LP  0  0  0  0  0  0  0  0  0  0  0  0  # atno 17343 bound_to 10162
  157.3128  130.6898  149.6225 LP  0  0  0  0  0  0  0  0  0  0  0  0  # atno 17370 bound_to 10713
  155.9663  130.4358  150.5108 LP  0  0  0  0  0  0  0  0  0  0  0  0  # atno 17371 bound_to 10713
  140.0488  134.9816  157.1098 LP  0  0  0  0  0  0  0  0  0  0  0  0  # atno 17394 bound_to 11000
  140.4021  134.2071  155.7163 LP  0  0  0  0  0  0  0  0  0  0  0  0  # atno 17395 bound_to 11000

$$$$
