AV-unprocessed.smi:1762|AV-procd|sdf|7119|dock9
  -GOLD-   22720 8353D 1   1.00000     0.00000
 Structure written by MMmdl.
 52 53  0  0  0  0  0  0  0  0  3 V2000
  144.6145  134.5621  151.2201 C   0  0  0  0  0  0  0  0  0  0  0  0
  145.5977  135.5528  151.8537 C   0  0  2  0  0  0  0  0  0  0  0  0
  146.1843  135.0185  153.1736 C   0  0  0  0  0  0  0  0  0  0  0  0
  147.0675  136.0310  153.8136 N   0  3  2  0  0  0  0  0  0  0  0  0
  147.7677  135.5733  155.0611 C   0  0  2  0  0  0  0  0  0  0  0  0
  148.7987  136.6308  155.5271 C   0  0  0  0  0  0  0  0  0  0  0  0
  149.7175  136.9394  154.7603 O   0  0  0  0  0  0  0  0  0  0  0  0
  148.4932  137.1028  156.7657 N   0  5  0  0  0  0  0  0  0  0  0  0
  148.2587  136.2568  157.9345 C   0  0  0  0  0  0  0  0  0  0  0  0
  148.3208  137.1009  159.2288 C   0  0  0  0  0  0  0  0  0  0  0  0
  147.9892  136.3484  160.5158 C   0  0  0  0  0  0  0  0  0  0  0  0
  147.7690  134.9520  160.4963 C   0  0  0  0  0  0  0  0  0  0  0  0
  147.4545  134.3003  161.7039 C   0  0  0  0  0  0  0  0  0  0  0  0
  147.3626  135.0641  162.8829 C   0  0  0  0  0  0  0  0  0  0  0  0
  147.5906  136.4519  162.8006 C   0  0  0  0  0  0  0  0  0  0  0  0
  147.8927  137.0873  161.6482 N   0  0  0  0  0  0  0  0  0  0  0  0
  148.4208  134.1521  154.9652 C   0  0  0  0  0  0  0  0  0  0  0  0
  148.5164  133.4437  156.3311 C   0  0  0  0  0  0  0  0  0  0  0  0
  149.7913  134.1220  154.2561 C   0  0  0  0  0  0  0  0  0  0  0  0
  146.2910  137.2895  154.0106 C   0  0  0  0  0  0  0  0  0  0  0  0
  145.6796  137.7947  152.6919 C   0  0  1  0  0  0  0  0  0  0  0  0
  146.7174  138.3876  151.7221 C   0  0  0  0  0  0  0  0  0  0  0  0
  144.8953  136.7669  152.0924 O   0  0  0  0  0  0  0  0  0  0  0  0
  145.1016  133.6127  150.9960 H   0  0  0  0  0  0  0  0  0  0  0  0
  144.2118  134.9562  150.2866 H   0  0  0  0  0  0  0  0  0  0  0  0
  143.7746  134.3588  151.8853 H   0  0  0  0  0  0  0  0  0  0  0  0
  146.4036  135.7276  151.1405 H   0  0  0  0  0  0  0  0  0  0  0  0
  145.3863  134.7435  153.8653 H   0  0  0  0  0  0  0  0  0  0  0  0
  146.7299  134.1083  152.9344 H   0  0  0  0  0  0  0  0  0  0  0  0
  146.9797  135.4862  155.8139 H   0  0  0  0  0  0  0  0  0  0  0  0
  147.2946  135.7508  157.8774 H   0  0  0  0  0  0  0  0  0  0  0  0
  149.0028  135.4631  158.0149 H   0  0  0  0  0  0  0  0  0  0  0  0
  149.3241  137.5172  159.3292 H   0  0  0  0  0  0  0  0  0  0  0  0
  147.6558  137.9611  159.1397 H   0  0  0  0  0  0  0  0  0  0  0  0
  147.8498  134.3931  159.5755 H   0  0  0  0  0  0  0  0  0  0  0  0
  147.2867  133.2337  161.7248 H   0  0  0  0  0  0  0  0  0  0  0  0
  147.1228  134.5984  163.8271 H   0  0  0  0  0  0  0  0  0  0  0  0
  147.5267  137.0693  163.6843 H   0  0  0  0  0  0  0  0  0  0  0  0
  147.7460  133.5200  154.3897 H   0  0  0  0  0  0  0  0  0  0  0  0
  149.2410  133.9228  156.9901 H   0  0  0  0  0  0  0  0  0  0  0  0
  148.8247  132.4048  156.2117 H   0  0  0  0  0  0  0  0  0  0  0  0
  147.5531  133.4423  156.8421 H   0  0  0  0  0  0  0  0  0  0  0  0
  150.5666  134.6007  154.8540 H   0  0  0  0  0  0  0  0  0  0  0  0
  149.7653  134.6223  153.2886 H   0  0  0  0  0  0  0  0  0  0  0  0
  150.1116  133.0947  154.0812 H   0  0  0  0  0  0  0  0  0  0  0  0
  145.4955  137.1033  154.7339 H   0  0  0  0  0  0  0  0  0  0  0  0
  146.9047  138.0866  154.4293 H   0  0  0  0  0  0  0  0  0  0  0  0
  144.9836  138.5977  152.9364 H   0  0  0  0  0  0  0  0  0  0  0  0
  147.2023  139.2591  152.1628 H   0  0  0  0  0  0  0  0  0  0  0  0
  146.2441  138.7087  150.7943 H   0  0  0  0  0  0  0  0  0  0  0  0
  147.5036  137.6764  151.4697 H   0  0  0  0  0  0  0  0  0  0  0  0
  147.7995  136.2397  153.1498 H   0  0  0  0  0  0  0  0  0  0  0  0
  1  2  1  0  0  0  0
  1 24  1  0  0  0  0
  1 25  1  0  0  0  0
  1 26  1  0  0  0  0
  2 23  1  0  0  0  0
  2  3  1  0  0  0  0
  2 27  1  0  0  0  0
  3  4  1  0  0  0  0
  3 28  1  0  0  0  0
  3 29  1  0  0  0  0
  4  5  1  0  0  0  0
  4 20  1  0  0  0  0
  4 52  1  0  0  0  0
  5  6  1  0  0  0  0
  5 17  1  0  0  0  0
  5 30  1  0  0  0  0
  6  7  2  0  0  0  0
  6  8  1  0  0  0  0
  8  9  1  0  0  0  0
  9 10  1  0  0  0  0
  9 31  1  0  0  0  0
  9 32  1  0  0  0  0
 10 11  1  0  0  0  0
 10 33  1  0  0  0  0
 10 34  1  0  0  0  0
 11 16  1  0  0  0  0
 11 12  2  0  0  0  0
 12 13  1  0  0  0  0
 12 35  1  0  0  0  0
 13 14  2  0  0  0  0
 13 36  1  0  0  0  0
 14 15  1  0  0  0  0
 14 37  1  0  0  0  0
 15 16  2  0  0  0  0
 15 38  1  0  0  0  0
 17 18  1  0  0  0  0
 17 19  1  0  0  0  0
 17 39  1  0  0  0  0
 18 40  1  0  0  0  0
 18 41  1  0  0  0  0
 18 42  1  0  0  0  0
 19 43  1  0  0  0  0
 19 44  1  0  0  0  0
 19 45  1  0  0  0  0
 20 21  1  0  0  0  0
 20 46  1  0  0  0  0
 20 47  1  0  0  0  0
 21 22  1  0  0  0  0
 21 23  1  0  0  0  0
 21 48  1  0  0  0  0
 22 49  1  0  0  0  0
 22 50  1  0  0  0  0
 22 51  1  0  0  0  0
M  CHG  1   4   1
M  CHG  1   8  -1
M  END
> <s_m_source_file>
AV-unprocessed.smi

> <i_m_source_file_index>
1762

> <i_lp_mmshare_version>
43012

> <i_f3d_flags>
0

> <s_epik_input>
W0NIM11bQ0BASF0xW0NIMl1OKFtDSDJdW0NASF0oTzEpW0NIM10pW0NAQEhdKFtDSF0oW0NIM10pW0NIM10pQyg9TylbTkhdW0NIMl1bQ0gyXWMyW2NIXVtjSF1bY0hdW2NIXW4y

> <s_epik_cmdline>
J2VwaWtfcHl0aG9uJywgJy1waCcsICc3LjAnLCAnLXRuJywgJzgnLCAnLW1hJywgJzIwMCcsICctbWV0YWxfYmluZGluZycsICctaW1hZScsICc8aW5maWxlLm1hZT4nLCAnLW9tYWUnLCAnPG91dGZpbGUubWFlPic=

> <r_epik_Ionization_Penalty>
7.82966

> <r_epik_Ionization_Penalty_Charging>
7.7461

> <r_epik_Ionization_Penalty_Neutral>
0.0835571

> <r_epik_State_Penalty>
8.52273

> <r_epik_Charging_Adjusted_Penalty>
16.2688

> <i_epik_Tot_Q>
0

> <i_epik_Tot_abs_Q>
2

> <r_epik_Metal_State_Penalty>
4.47451

> <b_epik_Metal_Only>
1

> <s_lp_Force_Field>
OPLS_2005

> <r_lp_Energy>
24.7252

> <b_lp_Chiralities_Consistent>
1

> <s_lp_Variant>
AV-unprocessed.smi:1762-21

> <Gold.Version>
5.8.1

> <Gold.Id.Protein>
6NUR|6NUR_protein|mol2

> <Gold.PLP.Fitness>
44.4242

> <Gold.PLP.PLP>
-35.2655

> <Gold.PLP.part.hbond>
-3.0000

> <Gold.PLP.part.metal>
0.0000

> <Gold.PLP.part.buried>
-2.8271

> <Gold.PLP.part.nonpolar>
-30.2447

> <Gold.PLP.part.repulsive>
0.9854

> <Gold.PLP.ligand.clash>
0.0000

> <Gold.PLP.ligand.torsion>
1.1675

> <Gold.PLP.Chemscore.Hbond>
3.7137

> <Gold.PLP.Chemscore.CHOScore>
0.0000

> <Gold.PLP.Chemscore.Metal>
0.0000

> <Gold.Chemscore.Hbonds>
donor molecule, donor type, donor heavy atom, donor atom, acceptor molecule, acceptor atom, score
      L1  H     4    52       P1  7948  2.00
      P1  H  6931  6943       L1    16  1.00
      P1  H  6934  6947       L1    16  0.43

> <Gold.PLP.Chemscore.Internal.Correction>
0.3526

> <Gold.Rescore>
     Score         DG    S(hbond)    S(metal)    S(lipo)     H(rot)  DE(clash)    DE(int)     intcor
     15.77     -18.24       1.88        0.00      90.50       1.60       0.07       2.40       ----

> <Gold.Chemscore.Fitness>
15.7654

> <Gold.Chemscore.DG>
-18.2383

> <Gold.Chemscore.ZeroCoef>
-5.4800

> <Gold.Chemscore.Hbond>
1.8769

> <Gold.Chemscore.Metal>
0.0000

> <Gold.Chemscore.Lipo>
90.4999

> <Gold.Chemscore.Internal_Hbond>
0.0000

> <Gold.Chemscore.DEClash>
0.0743

> <Gold.Chemscore.DEInternal>
2.3985

> <Gold.Chemscore.Rot>
1.6012

> <Gold.Chemscore.Internal.Correction>
   9.000000E+99

> <Gold.Chemscore.Hbonds>
donor molecule, donor type, donor heavy atom, donor atom, acceptor molecule, acceptor atom, score
      L1  H     4    52       P1  7948  1.00
      P1  H  6931  6943       L1    16  0.70
      P1  H  6934  6947       L1    16  0.20

> <Gold.Chemscore.Hbond.Weighted>
-6.2687

> <Gold.Chemscore.Metal.Weighted>
-0.0000

> <Gold.Chemscore.Lipo.Weighted>
-10.5885

> <Gold.Chemscore.Internal_Hbond.Weighted>
0.0000

> <Gold.Chemscore.DEClash.Weighted>
0.0743

> <Gold.Chemscore.DEInternal.Weighted>
2.3985

> <Gold.Chemscore.Rot.Weighted>
4.0990

> <Gold.Chemscore.Internal.Correction.Weighted>
   9.000000E+99

> <Gold.Protein.RotatedTorsions>
[ 6907 6896 6895 6894 ] final  -44.55 input  -60.11 | X-H torsion
[ 7974 7965 7964 7962 ] final -138.46 input  175.53 | X-H torsion
[ 8008 7997 7996 7995 ] final  -96.45 input   59.86 | X-H torsion
[ 10167 10162 10161 10158 ] final  154.81 input  -65.29 | X-H torsion
[ 10718 10713 10712 10709 ] final  -59.10 input   66.30 | X-H torsion
[ 10763 10752 10751 10750 ] final -162.62 input  -60.55 | X-H torsion
[ 11005 11000 10999 10996 ] final  -70.79 input  -57.11 | X-H torsion

> <Gold.Protein.ActiveResidues>
 VAL166  LYS551  ARG553  GLY616  TRP617  ASP618  TYR619  PRO620  LYS621  CYS622 
 ASP623  PHE694  ASN695  SER759  ASP760  ASP761  ALA762  ILE779  LEU786  VAL792 
 PHE793  MET794  SER795  GLU796  ALA797  LYS798  CYS799  TRP800  GLU811  SER814 

> <Gold.Protein.RotatedAtoms>
  150.9316  134.8730  159.7554 H   0  0  0  0  0  0  0  0  0  0  0  0  # atno 6907 bound_to 6896
  152.5040  134.4071  159.9446 H   0  0  0  0  0  0  0  0  0  0  0  0  # atno 6908 bound_to 6896
  151.4098  133.3691  159.2777 H   0  0  0  0  0  0  0  0  0  0  0  0  # atno 6909 bound_to 6896
  144.8757  140.6433  143.5238 H   0  0  0  0  0  0  0  0  0  0  0  0  # atno 7974 bound_to 7965
  154.7746  140.0471  157.1078 H   0  0  0  0  0  0  0  0  0  0  0  0  # atno 8008 bound_to 7997
  154.9779  140.3098  155.4940 H   0  0  0  0  0  0  0  0  0  0  0  0  # atno 8009 bound_to 7997
  156.2927  140.2241  156.4876 H   0  0  0  0  0  0  0  0  0  0  0  0  # atno 8010 bound_to 7997
  139.4822  144.5154  151.7960 H   0  0  0  0  0  0  0  0  0  0  0  0  # atno 10167 bound_to 10162
  156.1086  130.4177  150.0668 H   0  0  0  0  0  0  0  0  0  0  0  0  # atno 10718 bound_to 10713
  154.7198  135.3023  154.9066 H   0  0  0  0  0  0  0  0  0  0  0  0  # atno 10763 bound_to 10752
  153.9942  135.6715  153.4759 H   0  0  0  0  0  0  0  0  0  0  0  0  # atno 10764 bound_to 10752
  153.0824  135.5002  154.8446 H   0  0  0  0  0  0  0  0  0  0  0  0  # atno 10765 bound_to 10752
  141.1580  133.6799  156.6806 H   0  0  0  0  0  0  0  0  0  0  0  0  # atno 11005 bound_to 11000
  145.4048  139.1591  143.4158 LP  0  0  0  0  0  0  0  0  0  0  0  0  # atno 17320 bound_to 7965
  146.2961  140.4147  142.8721 LP  0  0  0  0  0  0  0  0  0  0  0  0  # atno 17321 bound_to 7965
  140.4661  144.1653  150.5912 LP  0  0  0  0  0  0  0  0  0  0  0  0  # atno 17342 bound_to 10162
  140.4432  143.2517  151.9445 LP  0  0  0  0  0  0  0  0  0  0  0  0  # atno 17343 bound_to 10162
  156.8637  130.9500  151.3615 LP  0  0  0  0  0  0  0  0  0  0  0  0  # atno 17370 bound_to 10713
  157.6266  130.8696  149.9199 LP  0  0  0  0  0  0  0  0  0  0  0  0  # atno 17371 bound_to 10713
  140.3105  134.8090  157.4172 LP  0  0  0  0  0  0  0  0  0  0  0  0  # atno 17394 bound_to 11000
  140.1183  134.5254  155.8206 LP  0  0  0  0  0  0  0  0  0  0  0  0  # atno 17395 bound_to 11000

$$$$
