#       Name:                AV-unprocessed.smi:39
#       Creating user name   scv26
#       Creation time:       Thu Mar 26 16:19:37 2020


#       File generated by GOLD software.
#

@<TRIPOS>MOLECULE
AV-unprocessed.smi:39
    42    43     1
SMALL
NO_CHARGES


@<TRIPOS>ATOM
      1 ****        -3.4794   1.5807  -1.0616 C.3            1 S1                 0.0000
      2 ****        -2.7562   0.2887  -0.7181 C.2            1 S1                 0.0000
      3 ****        -1.4121   0.1500  -0.8510 C.2            1 S1                 0.0000
      4 ****        -0.7203  -1.0155  -0.5395 N.am           1 S1                 0.0000
      5 ****         0.7804  -1.1493  -0.7204 C.3            1 S1                 0.0000
      6 ****         1.4859  -1.4455   0.6139 C.3            1 S1                 0.0000
      7 ****         2.7164  -0.5682   0.5172 C.3            1 S1                 0.0000
      8 ****         3.3192  -0.2870   1.8231 N.2            1 S1                 0.0000
      9 ****         4.4237   0.2724   1.8109 N.1            1 S1                 1.0000
     10 ****         5.3752   0.8959   1.7806 N.1            1 S1                -1.0000
     11 ****         2.1752   0.6615  -0.2281 C.3            1 S1                 0.0000
     12 ****         1.3731   1.6614   0.6365 C.3            1 S1                 0.0000
     13 ****         1.1597   2.8544  -0.0866 O.3            1 S1                 0.0000
     14 ****         1.3159   0.0565  -1.1950 O.3            1 S1                 0.0000
     15 ****        -1.4458  -2.1478  -0.1127 C.2            1 S1                 0.0000
     16 ****        -0.9117  -3.2297   0.1284 O.2            1 S1                 0.0000
     17 ****        -2.8245  -2.0046   0.0291 N.am           1 S1                 0.0000
     18 ****        -3.5525  -0.8431  -0.2370 C.2            1 S1                 0.0000
     19 ****        -4.7704  -0.8367  -0.0662 O.2            1 S1                 0.0000
     20 ****         0.9141  -1.9276  -1.4742 H              1 S1                 0.0000
     21 ****         3.4364  -1.0750  -0.1292 H              1 S1                 0.0000
     22 ****         2.9934   1.1817  -0.7281 H              1 S1                 0.0000
     23 ****        -3.3430  -2.8115   0.3446 H              1 S1                 0.0000
     24 ****        -2.7899   2.3538  -1.4022 H              1 S1                 0.0000
     25 ****        -4.0067   1.9663  -0.1884 H              1 S1                 0.0000
     26 ****        -4.2081   1.4096  -1.8547 H              1 S1                 0.0000
     27 ****        -0.8682   1.0047  -1.2228 H              1 S1                 0.0000
     28 ****         0.8533  -1.1390   1.4489 H              1 S1                 0.0000
     29 ****         1.7168  -2.5066   0.7122 H              1 S1                 0.0000
     30 ****         0.4237   1.2491   0.9757 H              1 S1                 0.0000
     31 ****         1.9337   1.9374   1.5290 H              1 S1                 0.0000
     32 ****         0.6926   3.4617   0.4667 H              1 S1                 0.0000
     33 ****         2.8630  -0.5336   2.6781 LP             1 S1                 0.0000
     34 ****         6.2113   1.4438   1.7539 LP             1 S1                 0.0000
     35 ****         0.6195   2.6603  -0.9055 LP             1 S1                 0.0000
     36 ****         2.0391   3.2490  -0.3532 LP             1 S1                 0.0000
     37 ****         0.5669   0.6855  -1.4034 LP             1 S1                 0.0000
     38 ****         1.8397  -0.1253  -2.0272 LP             1 S1                 0.0000
     39 ****         0.0774  -3.3332   0.0240 LP             1 S1                 0.0000
     40 ****        -1.4667  -4.0054   0.4286 LP             1 S1                 0.0000
     41 ****        -5.2982  -0.0097  -0.2602 LP             1 S1                 0.0000
     42 ****        -5.2329  -1.6584   0.2667 LP             1 S1                 0.0000
@<TRIPOS>BOND
    1    1    2 1     
    2    1   24 1     
    3    1   25 1     
    4    1   26 1     
    5    2   18 1     
    6    2    3 2     
    7    3    4 1     
    8    3   27 1     
    9    4    5 1     
   10    4   15 1     
   11    5   20 1     
   12    5   14 1     
   13    5    6 1     
   14    6    7 1     
   15    6   28 1     
   16    6   29 1     
   17    7   21 1     
   18    7    8 1     
   19    7   11 1     
   20    8    9 2     
   21    9   10 2     
   22   11   22 1     
   23   11   12 1     
   24   11   14 1     
   25   12   13 1     
   26   12   30 1     
   27   12   31 1     
   28   13   32 1     
   29   15   16 2     
   30   15   17 1     
   31   17   23 1     
   32   17   18 1     
   33   18   19 2     
   34    8   33 1     
   35   10   34 1     
   36   13   35 1     
   37   13   36 1     
   38   14   37 1     
   39   14   38 1     
   40   16   39 1     
   41   16   40 1     
   42   19   41 1     
   43   19   42 1     
@<TRIPOS>SUBSTRUCTURE
      1 S1             1
@<TRIPOS>SET
LONE_PAIRS      STATIC     ATOMS    <user>   **** ""
10 33 34 35 36 37 38 39 40 41 42
DONOR_HYDROGENS      STATIC     ATOMS    <user>   **** ""
2 32 23
ATOM$BLUE        STATIC     ATOMS    COLORGROUP SYSTEM
10 33 34 35 36 37 38 39 40 41 42
ATOM$RED        STATIC     ATOMS    COLORGROUP SYSTEM
2 32 23
