AV-unprocessed.smi:3078|AV-procd|sdf|11732|dock9
  -GOLD-   2272017133D 1   1.00000     0.00000
 Structure written by MMmdl.
 23 23  0  0  0  0  0  0  0  0  2 V2000
  152.7581  138.2725  154.5860 C   0  0  0  0  0  0  0  0  0  0  0  0
  151.3981  138.7588  154.4925 N   0  0  0  0  0  0  0  0  0  0  0  0
  150.2731  138.0925  154.0576 C   0  0  0  0  0  0  0  0  0  0  0  0
  149.2195  138.9609  154.1468 C   0  0  0  0  0  0  0  0  0  0  0  0
  147.7677  138.7399  153.8117 C   0  0  1  0  0  0  0  0  0  0  0  0
  147.6020  138.5259  152.3850 N   0  0  0  0  0  0  0  0  0  0  0  0
  147.2148  137.5172  154.5659 C   0  0  0  0  0  0  0  0  0  0  0  0
  147.8180  136.2609  154.0886 N   0  3  0  0  0  0  0  0  0  0  0  0
  149.8170  140.1477  154.6606 C   0  0  0  0  0  0  0  0  0  0  0  0
  151.1181  140.0244  154.8636 N   0  0  0  0  0  0  0  0  0  0  0  0
  152.7960  137.2140  154.3274 H   0  0  0  0  0  0  0  0  0  0  0  0
  153.1283  138.4017  155.6037 H   0  0  0  0  0  0  0  0  0  0  0  0
  153.3962  138.8290  153.8991 H   0  0  0  0  0  0  0  0  0  0  0  0
  150.3132  137.0656  153.7249 H   0  0  0  0  0  0  0  0  0  0  0  0
  147.1850  139.6213  154.0831 H   0  0  0  0  0  0  0  0  0  0  0  0
  148.3042  139.0453  151.8769 H   0  0  0  0  0  0  0  0  0  0  0  0
  147.7583  137.5510  152.1692 H   0  0  0  0  0  0  0  0  0  0  0  0
  147.3757  137.6125  155.6410 H   0  0  0  0  0  0  0  0  0  0  0  0
  146.1375  137.4426  154.4124 H   0  0  0  0  0  0  0  0  0  0  0  0
  148.3615  135.8437  154.8305 H   0  0  0  0  0  0  0  0  0  0  0  0
  148.4184  136.4605  153.3012 H   0  0  0  0  0  0  0  0  0  0  0  0
  149.3446  141.0912  154.8911 H   0  0  0  0  0  0  0  0  0  0  0  0
  147.0889  135.6231  153.8034 H   0  0  0  0  0  0  0  0  0  0  0  0
  1  2  1  0  0  0  0
  1 11  1  0  0  0  0
  1 12  1  0  0  0  0
  1 13  1  0  0  0  0
  2 10  1  0  0  0  0
  2  3  1  0  0  0  0
  3  4  2  0  0  0  0
  3 14  1  0  0  0  0
  4  5  1  0  0  0  0
  4  9  1  0  0  0  0
  5  6  1  0  0  0  0
  5  7  1  0  0  0  0
  5 15  1  0  0  0  0
  6 16  1  0  0  0  0
  6 17  1  0  0  0  0
  7  8  1  0  0  0  0
  7 18  1  0  0  0  0
  7 19  1  0  0  0  0
  8 20  1  0  0  0  0
  8 21  1  0  0  0  0
  8 23  1  0  0  0  0
  9 10  2  0  0  0  0
  9 22  1  0  0  0  0
M  CHG  1   8   1
M  END
> <s_m_source_file>
AV-unprocessed.smi

> <i_m_source_file_index>
3078

> <i_lp_mmshare_version>
43012

> <i_f3d_flags>
0

> <s_epik_input>
W0NIM11uMVtjSF1jKFtjSF1uMSlbQ0BIXShbTkgyXSlbQ0gyXVtOSDJd

> <s_epik_cmdline>
J2VwaWtfcHl0aG9uJywgJy1waCcsICc3LjAnLCAnLXRuJywgJzgnLCAnLW1hJywgJzIwMCcsICctbWV0YWxfYmluZGluZycsICctaW1hZScsICc8aW5maWxlLm1hZT4nLCAnLW9tYWUnLCAnPG91dGZpbGUubWFlPic=

> <r_lp_tautomer_probability>
1

> <r_epik_Ionization_Penalty>
0.0498714

> <r_epik_Ionization_Penalty_Charging>
0.00651912

> <r_epik_Ionization_Penalty_Neutral>
0.0433523

> <r_epik_State_Penalty>
0.141593

> <r_epik_Charging_Adjusted_Penalty>
0.148112

> <i_epik_Tot_Q>
1

> <i_epik_Tot_abs_Q>
1

> <r_epik_Metal_State_Penalty>
0.141584

> <b_epik_Metal_Only>
0

> <s_lp_Force_Field>
OPLS_2005

> <r_lp_Energy>
-1.23381

> <b_lp_Chiralities_Consistent>
1

> <s_lp_Variant>
AV-unprocessed.smi:3078-2

> <Gold.Version>
5.8.1

> <Gold.Id.Protein>
6NUR|6NUR_protein|mol2

> <Gold.PLP.Fitness>
37.6915

> <Gold.PLP.PLP>
-20.4347

> <Gold.PLP.part.hbond>
-3.8668

> <Gold.PLP.part.metal>
0.0000

> <Gold.PLP.part.buried>
-1.5315

> <Gold.PLP.part.nonpolar>
-15.1676

> <Gold.PLP.part.repulsive>
0.0595

> <Gold.PLP.ligand.clash>
0.0000

> <Gold.PLP.ligand.torsion>
0.0815

> <Gold.PLP.Chemscore.Hbond>
4.8500

> <Gold.PLP.Chemscore.CHOScore>
0.9558

> <Gold.PLP.Chemscore.Metal>
0.0000

> <Gold.Chemscore.Hbonds>
donor molecule, donor type, donor heavy atom, donor atom, acceptor molecule, acceptor atom, score
      L1  H     6    16       P1  7957  1.00
      L1  H     6    17       P1  7948  0.94
      L1  H     8    21       P1  7948  2.00
      P1  H  7989  7998       L1    10  0.90
      L1  C     3    14       P1  7948  0.71
      L1  C     3    14       P1  7949  0.26

> <Gold.PLP.Chemscore.Internal.Correction>
0.0025

> <Gold.Rescore>
     Score         DG    S(hbond)    S(metal)    S(lipo)     H(rot)  DE(clash)    DE(int)     intcor
     15.73     -15.85       2.91        0.00      36.48       1.41       0.00       0.12       ----

> <Gold.Chemscore.Fitness>
15.7301

> <Gold.Chemscore.DG>
-15.8492

> <Gold.Chemscore.ZeroCoef>
-5.4800

> <Gold.Chemscore.Hbond>
2.9092

> <Gold.Chemscore.Metal>
0.0000

> <Gold.Chemscore.Lipo>
36.4763

> <Gold.Chemscore.Internal_Hbond>
0.0000

> <Gold.Chemscore.DEClash>
0.0000

> <Gold.Chemscore.DEInternal>
0.1191

> <Gold.Chemscore.Rot>
1.4123

> <Gold.Chemscore.Internal.Correction>
   9.000000E+99

> <Gold.Chemscore.Hbonds>
donor molecule, donor type, donor heavy atom, donor atom, acceptor molecule, acceptor atom, score
      L1  H     6    16       P1  7957  0.97
      L1  H     6    17       P1  7948  0.91
      L1  H     8    21       P1  7948  0.93
      P1  H  7989  7998       L1    10  0.05

> <Gold.Chemscore.Hbond.Weighted>
-9.7169

> <Gold.Chemscore.Metal.Weighted>
-0.0000

> <Gold.Chemscore.Lipo.Weighted>
-4.2677

> <Gold.Chemscore.Internal_Hbond.Weighted>
0.0000

> <Gold.Chemscore.DEClash.Weighted>
0.0000

> <Gold.Chemscore.DEInternal.Weighted>
0.1191

> <Gold.Chemscore.Rot.Weighted>
3.6154

> <Gold.Chemscore.Internal.Correction.Weighted>
   9.000000E+99

> <Gold.Protein.RotatedTorsions>
[ 6907 6896 6895 6894 ] final -153.02 input  -60.11 | X-H torsion
[ 7974 7965 7964 7962 ] final  -94.65 input  175.53 | X-H torsion
[ 8008 7997 7996 7995 ] final  -86.45 input   59.86 | X-H torsion
[ 10167 10162 10161 10158 ] final  143.98 input  -65.29 | X-H torsion
[ 10718 10713 10712 10709 ] final -123.53 input   66.30 | X-H torsion
[ 10763 10752 10751 10750 ] final -135.21 input  -60.55 | X-H torsion
[ 11005 11000 10999 10996 ] final   59.54 input  -57.11 | X-H torsion

> <Gold.Protein.ActiveResidues>
 VAL166  LYS551  ARG553  GLY616  TRP617  ASP618  TYR619  PRO620  LYS621  CYS622 
 ASP623  PHE694  ASN695  SER759  ASP760  ASP761  ALA762  ILE779  LEU786  VAL792 
 PHE793  MET794  SER795  GLU796  ALA797  LYS798  CYS799  TRP800  GLU811  SER814 

> <Gold.Protein.RotatedAtoms>
  151.2364  133.4423  159.2605 H   0  0  0  0  0  0  0  0  0  0  0  0  # atno 6907 bound_to 6896
  151.0746  134.9820  159.8336 H   0  0  0  0  0  0  0  0  0  0  0  0  # atno 6908 bound_to 6896
  152.5416  134.2307  159.8876 H   0  0  0  0  0  0  0  0  0  0  0  0  # atno 6909 bound_to 6896
  145.3705  140.9505  143.2450 H   0  0  0  0  0  0  0  0  0  0  0  0  # atno 7974 bound_to 7965
  154.6521  140.0578  156.9967 H   0  0  0  0  0  0  0  0  0  0  0  0  # atno 8008 bound_to 7997
  155.1356  140.3260  155.4445 H   0  0  0  0  0  0  0  0  0  0  0  0  # atno 8009 bound_to 7997
  156.2580  140.1973  156.6473 H   0  0  0  0  0  0  0  0  0  0  0  0  # atno 8010 bound_to 7997
  139.4957  144.6003  151.6495 H   0  0  0  0  0  0  0  0  0  0  0  0  # atno 10167 bound_to 10162
  156.1510  130.6534  150.9913 H   0  0  0  0  0  0  0  0  0  0  0  0  # atno 10718 bound_to 10713
  154.8707  135.3710  154.4861 H   0  0  0  0  0  0  0  0  0  0  0  0  # atno 10763 bound_to 10752
  153.5511  135.7025  153.5596 H   0  0  0  0  0  0  0  0  0  0  0  0  # atno 10764 bound_to 10752
  153.3714  135.4020  155.1755 H   0  0  0  0  0  0  0  0  0  0  0  0  # atno 10765 bound_to 10752
  140.0297  134.6031  155.9524 H   0  0  0  0  0  0  0  0  0  0  0  0  # atno 11005 bound_to 11000
  144.8580  139.5221  143.6825 LP  0  0  0  0  0  0  0  0  0  0  0  0  # atno 17320 bound_to 7965
  146.2887  139.7078  142.9176 LP  0  0  0  0  0  0  0  0  0  0  0  0  # atno 17321 bound_to 7965
  140.5651  144.0203  150.6188 LP  0  0  0  0  0  0  0  0  0  0  0  0  # atno 17342 bound_to 10162
  140.3302  143.3082  152.0695 LP  0  0  0  0  0  0  0  0  0  0  0  0  # atno 17343 bound_to 10162
  157.6656  131.0872  150.7735 LP  0  0  0  0  0  0  0  0  0  0  0  0  # atno 17370 bound_to 10713
  156.7804  130.4857  149.5402 LP  0  0  0  0  0  0  0  0  0  0  0  0  # atno 17371 bound_to 10713
  141.1823  133.6549  156.5073 LP  0  0  0  0  0  0  0  0  0  0  0  0  # atno 17394 bound_to 11000
  140.4247  134.7155  157.4909 LP  0  0  0  0  0  0  0  0  0  0  0  0  # atno 17395 bound_to 11000

$$$$
