AV-unprocessed.smi:2526|AV-procd|sdf|9935|dock4
  -GOLD-   2272013583D 1   1.00000     0.00000
 Structure written by MMmdl.
 29 30  0  0  0  0  0  0  0  0  2 V2000
  143.4334  132.6814  147.9442 C   0  0  0  0  0  0  0  0  0  0  0  0
  144.2890  132.6163  149.1098 N   0  0  0  0  0  0  0  0  0  0  0  0
  144.0170  133.0140  150.4004 C   0  0  0  0  0  0  0  0  0  0  0  0
  145.1257  132.7502  151.1589 C   0  0  0  0  0  0  0  0  0  0  0  0
  145.3629  132.9795  152.6382 C   0  0  1  0  0  0  0  0  0  0  0  0
  145.5899  131.7089  153.3322 N   0  0  0  0  0  0  0  0  0  0  0  0
  146.7817  131.1759  153.6611 C   0  0  0  0  0  0  0  0  0  0  0  0
  146.8675  130.0472  154.1377 O   0  0  0  0  0  0  0  0  0  0  0  0
  148.0569  132.0177  153.4844 C   0  0  0  0  0  0  0  0  0  0  0  0
  147.8734  133.2774  152.6183 C   0  0  0  0  0  0  0  0  0  0  0  0
  146.5301  133.9595  152.9103 C   0  0  1  0  0  0  0  0  0  0  0  0
  146.3888  135.2288  152.1727 N   0  3  0  0  0  0  0  0  0  0  0  0
  146.0373  132.1964  150.2132 C   0  0  0  0  0  0  0  0  0  0  0  0
  145.5330  132.1106  148.9943 N   0  0  0  0  0  0  0  0  0  0  0  0
  142.4606  133.0914  148.2164 H   0  0  0  0  0  0  0  0  0  0  0  0
  143.2933  131.6816  147.5320 H   0  0  0  0  0  0  0  0  0  0  0  0
  143.8884  133.3214  147.1876 H   0  0  0  0  0  0  0  0  0  0  0  0
  143.0630  133.4424  150.6720 H   0  0  0  0  0  0  0  0  0  0  0  0
  144.4621  133.4064  153.0809 H   0  0  0  0  0  0  0  0  0  0  0  0
  144.7713  131.1433  153.5070 H   0  0  0  0  0  0  0  0  0  0  0  0
  148.3830  132.3148  154.4815 H   0  0  0  0  0  0  0  0  0  0  0  0
  148.8518  131.3946  153.0737 H   0  0  0  0  0  0  0  0  0  0  0  0
  148.6943  133.9688  152.8112 H   0  0  0  0  0  0  0  0  0  0  0  0
  147.9426  133.0117  151.5624 H   0  0  0  0  0  0  0  0  0  0  0  0
  146.5147  134.2223  153.9693 H   0  0  0  0  0  0  0  0  0  0  0  0
  145.8063  135.8612  152.7030 H   0  0  0  0  0  0  0  0  0  0  0  0
  145.9620  135.0517  151.2744 H   0  0  0  0  0  0  0  0  0  0  0  0
  147.0463  131.8488  150.3796 H   0  0  0  0  0  0  0  0  0  0  0  0
  147.2992  135.6443  152.0364 H   0  0  0  0  0  0  0  0  0  0  0  0
  1  2  1  0  0  0  0
  1 15  1  0  0  0  0
  1 16  1  0  0  0  0
  1 17  1  0  0  0  0
  2 14  1  0  0  0  0
  2  3  1  0  0  0  0
  3  4  2  0  0  0  0
  3 18  1  0  0  0  0
  4  5  1  0  0  0  0
  4 13  1  0  0  0  0
  5 11  1  0  0  0  0
  5  6  1  0  0  0  0
  5 19  1  0  0  0  0
  6  7  1  0  0  0  0
  6 20  1  0  0  0  0
  7  8  2  0  0  0  0
  7  9  1  0  0  0  0
  9 10  1  0  0  0  0
  9 21  1  0  0  0  0
  9 22  1  0  0  0  0
 10 11  1  0  0  0  0
 10 23  1  0  0  0  0
 10 24  1  0  0  0  0
 11 12  1  0  0  0  0
 11 25  1  0  0  0  0
 12 26  1  0  0  0  0
 12 27  1  0  0  0  0
 12 29  1  0  0  0  0
 13 14  2  0  0  0  0
 13 28  1  0  0  0  0
M  CHG  1  12   1
M  END
> <s_m_source_file>
AV-unprocessed.smi

> <i_m_source_file_index>
2526

> <i_lp_mmshare_version>
43012

> <i_f3d_flags>
0

> <s_epik_input>
W0NIM11uMVtjSF1jKFtjSF1uMSlbQ0BASF0yW05IXUMoPU8pW0NIMl1bQ0gyXVtDQEhdMltOSDJd

> <s_epik_cmdline>
J2VwaWtfcHl0aG9uJywgJy1waCcsICc3LjAnLCAnLXRuJywgJzgnLCAnLW1hJywgJzIwMCcsICctbWV0YWxfYmluZGluZycsICctaW1hZScsICc8aW5maWxlLm1hZT4nLCAnLW9tYWUnLCAnPG91dGZpbGUubWFlPic=

> <r_lp_tautomer_probability>
1

> <r_epik_Ionization_Penalty>
0.00878543

> <r_epik_Ionization_Penalty_Charging>
0.00874185

> <r_epik_Ionization_Penalty_Neutral>
4.35793e-05

> <r_epik_State_Penalty>
0.00660351

> <r_epik_Charging_Adjusted_Penalty>
0.0153454

> <i_epik_Tot_Q>
1

> <i_epik_Tot_abs_Q>
1

> <r_epik_Metal_State_Penalty>
0.00660727

> <b_epik_Metal_Only>
0

> <s_lp_Force_Field>
OPLS_2005

> <r_lp_Energy>
11.1602

> <b_lp_Chiralities_Consistent>
1

> <s_lp_Variant>
AV-unprocessed.smi:2526-2

> <Gold.Version>
5.8.1

> <Gold.Id.Protein>
6NUR|6NUR_protein|mol2

> <Gold.PLP.Fitness>
37.2495

> <Gold.PLP.PLP>
-25.2520

> <Gold.PLP.part.hbond>
-1.6055

> <Gold.PLP.part.metal>
0.0000

> <Gold.PLP.part.buried>
-0.7386

> <Gold.PLP.part.nonpolar>
-23.2254

> <Gold.PLP.part.repulsive>
0.6793

> <Gold.PLP.ligand.clash>
0.0000

> <Gold.PLP.ligand.torsion>
0.0106

> <Gold.PLP.Chemscore.Hbond>
2.0000

> <Gold.PLP.Chemscore.CHOScore>
2.0000

> <Gold.PLP.Chemscore.Metal>
0.0000

> <Gold.Chemscore.Hbonds>
donor molecule, donor type, donor heavy atom, donor atom, acceptor molecule, acceptor atom, score
      L1  H    12    29       P1  7948  2.00
      L1  C     3    18       P1 10186  0.99
      L1  C    13    28       P1 10747  1.00

> <Gold.PLP.Chemscore.Internal.Correction>
0.0187

> <Gold.Rescore>
     Score         DG    S(hbond)    S(metal)    S(lipo)     H(rot)  DE(clash)    DE(int)     intcor
     13.29     -13.56       1.00        0.00      62.43       1.00       0.25       0.02       ----

> <Gold.Chemscore.Fitness>
13.2923

> <Gold.Chemscore.DG>
-13.5622

> <Gold.Chemscore.ZeroCoef>
-5.4800

> <Gold.Chemscore.Hbond>
0.9992

> <Gold.Chemscore.Metal>
0.0000

> <Gold.Chemscore.Lipo>
62.4350

> <Gold.Chemscore.Internal_Hbond>
0.0000

> <Gold.Chemscore.DEClash>
0.2548

> <Gold.Chemscore.DEInternal>
0.0151

> <Gold.Chemscore.Rot>
1.0000

> <Gold.Chemscore.Internal.Correction>
   9.000000E+99

> <Gold.Chemscore.Hbonds>
donor molecule, donor type, donor heavy atom, donor atom, acceptor molecule, acceptor atom, score
      L1  H    12    29       P1  7948  1.00

> <Gold.Chemscore.Hbond.Weighted>
-3.3373

> <Gold.Chemscore.Metal.Weighted>
-0.0000

> <Gold.Chemscore.Lipo.Weighted>
-7.3049

> <Gold.Chemscore.Internal_Hbond.Weighted>
0.0000

> <Gold.Chemscore.DEClash.Weighted>
0.2548

> <Gold.Chemscore.DEInternal.Weighted>
0.0151

> <Gold.Chemscore.Rot.Weighted>
2.5600

> <Gold.Chemscore.Internal.Correction.Weighted>
   9.000000E+99

> <Gold.Protein.RotatedTorsions>
[ 6907 6896 6895 6894 ] final -179.39 input  -60.11 | X-H torsion
[ 7974 7965 7964 7962 ] final   93.96 input  175.53 | X-H torsion
[ 8008 7997 7996 7995 ] final  152.99 input   59.86 | X-H torsion
[ 10167 10162 10161 10158 ] final  -95.74 input  -65.29 | X-H torsion
[ 10718 10713 10712 10709 ] final  -71.16 input   66.30 | X-H torsion
[ 10763 10752 10751 10750 ] final -106.76 input  -60.55 | X-H torsion
[ 11005 11000 10999 10996 ] final  -15.53 input  -57.11 | X-H torsion

> <Gold.Protein.ActiveResidues>
 VAL166  LYS551  ARG553  GLY616  TRP617  ASP618  TYR619  PRO620  LYS621  CYS622 
 ASP623  PHE694  ASN695  SER759  ASP760  ASP761  ALA762  ILE779  LEU786  VAL792 
 PHE793  MET794  SER795  GLU796  ALA797  LYS798  CYS799  TRP800  GLU811  SER814 

> <Gold.Protein.RotatedAtoms>
  151.6527  133.3320  159.3155 H   0  0  0  0  0  0  0  0  0  0  0  0  # atno 6907 bound_to 6896
  150.7952  134.7011  159.6560 H   0  0  0  0  0  0  0  0  0  0  0  0  # atno 6908 bound_to 6896
  152.4038  134.6245  160.0111 H   0  0  0  0  0  0  0  0  0  0  0  0  # atno 6909 bound_to 6896
  145.4719  139.2281  143.2930 H   0  0  0  0  0  0  0  0  0  0  0  0  # atno 7974 bound_to 7965
  156.2603  140.2006  156.6420 H   0  0  0  0  0  0  0  0  0  0  0  0  # atno 8008 bound_to 7997
  154.6602  140.0561  157.0078 H   0  0  0  0  0  0  0  0  0  0  0  0  # atno 8009 bound_to 7997
  155.1287  140.3231  155.4482 H   0  0  0  0  0  0  0  0  0  0  0  0  # atno 8010 bound_to 7997
  140.3010  143.3162  152.0248 H   0  0  0  0  0  0  0  0  0  0  0  0  # atno 10167 bound_to 10162
  156.0375  130.4346  150.2403 H   0  0  0  0  0  0  0  0  0  0  0  0  # atno 10718 bound_to 10713
  154.8033  135.4700  154.0329 H   0  0  0  0  0  0  0  0  0  0  0  0  # atno 10763 bound_to 10752
  153.1818  135.6841  153.8475 H   0  0  0  0  0  0  0  0  0  0  0  0  # atno 10764 bound_to 10752
  153.8023  135.3228  155.3369 H   0  0  0  0  0  0  0  0  0  0  0  0  # atno 10765 bound_to 10752
  140.7975  133.8239  155.9438 H   0  0  0  0  0  0  0  0  0  0  0  0  # atno 11005 bound_to 11000
  146.2391  140.5498  142.8942 LP  0  0  0  0  0  0  0  0  0  0  0  0  # atno 17320 bound_to 7965
  144.7940  140.6087  143.6522 LP  0  0  0  0  0  0  0  0  0  0  0  0  # atno 17321 bound_to 7965
  139.4915  144.6455  151.6786 LP  0  0  0  0  0  0  0  0  0  0  0  0  # atno 17342 bound_to 10162
  140.5651  144.0204  150.6188 LP  0  0  0  0  0  0  0  0  0  0  0  0  # atno 17343 bound_to 10162
  157.0501  131.0060  151.3256 LP  0  0  0  0  0  0  0  0  0  0  0  0  # atno 17370 bound_to 10713
  157.5146  130.7960  149.7742 LP  0  0  0  0  0  0  0  0  0  0  0  0  # atno 17371 bound_to 10713
  140.9328  134.2000  157.4852 LP  0  0  0  0  0  0  0  0  0  0  0  0  # atno 17394 bound_to 11000
  139.8725  134.9840  156.5220 LP  0  0  0  0  0  0  0  0  0  0  0  0  # atno 17395 bound_to 11000

$$$$
