AV-unprocessed.smi:1236|AV-procd|sdf|5181|dock9
  -GOLD-   22720 4263D 1   1.00000     0.00000
 Structure written by MMmdl.
 40 41  0  0  0  0  0  0  0  0  2 V2000
  149.2109  139.8117  154.0511 C   0  0  0  0  0  0  0  0  0  0  0  0
  148.1413  140.6959  154.7065 C   0  0  2  0  0  0  0  0  0  0  0  0
  147.1450  141.2409  153.6562 C   0  0  0  0  0  0  0  0  0  0  0  0
  145.8626  141.6967  154.2501 N   0  3  0  0  0  0  0  0  0  0  0  0
  145.5325  141.0133  155.5220 C   0  0  0  0  0  0  0  0  0  0  0  0
  144.1544  141.4726  156.0287 C   0  0  0  0  0  0  0  0  0  0  0  0
  144.1452  142.8872  156.1790 O   0  0  0  0  0  0  0  0  0  0  0  0
  144.3856  143.5566  154.9469 C   0  0  0  0  0  0  0  0  0  0  0  0
  145.7747  143.1677  154.4153 C   0  0  0  0  0  0  0  0  0  0  0  0
  148.8019  141.7816  155.4337 N   0  0  0  0  0  0  0  0  0  0  0  0
  149.7119  141.6372  156.4094 C   0  0  0  0  0  0  0  0  0  0  0  0
  150.0861  140.5418  156.8291 O   0  0  0  0  0  0  0  0  0  0  0  0
  150.1371  142.8295  156.8621 N   0  0  0  0  0  0  0  0  0  0  0  0
  151.0437  143.0899  157.9243 C   0  0  0  0  0  0  0  0  0  0  0  0
  151.5812  144.3966  157.9466 C   0  0  0  0  0  0  0  0  0  0  0  0
  152.4863  144.7564  158.9639 C   0  0  0  0  0  0  0  0  0  0  0  0
  152.8306  143.7985  159.9341 C   0  0  0  0  0  0  0  0  0  0  0  0
  152.2497  142.5205  159.8400 C   0  0  0  0  0  0  0  0  0  0  0  0
  151.3805  142.1743  158.8669 N   0  0  0  0  0  0  0  0  0  0  0  0
  148.7566  138.9643  153.5367 H   0  0  0  0  0  0  0  0  0  0  0  0
  149.9006  139.4115  154.7951 H   0  0  0  0  0  0  0  0  0  0  0  0
  149.7967  140.3696  153.3196 H   0  0  0  0  0  0  0  0  0  0  0  0
  147.6059  140.0655  155.4178 H   0  0  0  0  0  0  0  0  0  0  0  0
  147.6193  142.0799  153.1443 H   0  0  0  0  0  0  0  0  0  0  0  0
  146.9453  140.4926  152.8877 H   0  0  0  0  0  0  0  0  0  0  0  0
  145.5248  139.9328  155.3731 H   0  0  0  0  0  0  0  0  0  0  0  0
  146.3004  141.2312  156.2660 H   0  0  0  0  0  0  0  0  0  0  0  0
  143.3648  141.1634  155.3418 H   0  0  0  0  0  0  0  0  0  0  0  0
  143.9363  141.0135  156.9929 H   0  0  0  0  0  0  0  0  0  0  0  0
  143.6075  143.3070  154.2235 H   0  0  0  0  0  0  0  0  0  0  0  0
  144.3339  144.6326  155.1125 H   0  0  0  0  0  0  0  0  0  0  0  0
  146.5481  143.5087  155.1051 H   0  0  0  0  0  0  0  0  0  0  0  0
  145.9517  143.6693  153.4643 H   0  0  0  0  0  0  0  0  0  0  0  0
  148.5578  142.7210  155.1549 H   0  0  0  0  0  0  0  0  0  0  0  0
  149.7574  143.6465  156.4067 H   0  0  0  0  0  0  0  0  0  0  0  0
  151.3064  145.1207  157.1932 H   0  0  0  0  0  0  0  0  0  0  0  0
  152.9081  145.7500  158.9984 H   0  0  0  0  0  0  0  0  0  0  0  0
  153.5216  144.0370  160.7291 H   0  0  0  0  0  0  0  0  0  0  0  0
  152.4874  141.7564  160.5649 H   0  0  0  0  0  0  0  0  0  0  0  0
  145.1396  141.4348  153.5948 H   0  0  0  0  0  0  0  0  0  0  0  0
  1  2  1  0  0  0  0
  1 20  1  0  0  0  0
  1 21  1  0  0  0  0
  1 22  1  0  0  0  0
  2  3  1  0  0  0  0
  2 10  1  0  0  0  0
  2 23  1  0  0  0  0
  3  4  1  0  0  0  0
  3 24  1  0  0  0  0
  3 25  1  0  0  0  0
  4  9  1  0  0  0  0
  4  5  1  0  0  0  0
  4 40  1  0  0  0  0
  5  6  1  0  0  0  0
  5 26  1  0  0  0  0
  5 27  1  0  0  0  0
  6  7  1  0  0  0  0
  6 28  1  0  0  0  0
  6 29  1  0  0  0  0
  7  8  1  0  0  0  0
  8  9  1  0  0  0  0
  8 30  1  0  0  0  0
  8 31  1  0  0  0  0
  9 32  1  0  0  0  0
  9 33  1  0  0  0  0
 10 11  1  0  0  0  0
 10 34  1  0  0  0  0
 11 12  2  0  0  0  0
 11 13  1  0  0  0  0
 13 14  1  0  0  0  0
 13 35  1  0  0  0  0
 14 19  1  0  0  0  0
 14 15  2  0  0  0  0
 15 16  1  0  0  0  0
 15 36  1  0  0  0  0
 16 17  2  0  0  0  0
 16 37  1  0  0  0  0
 17 18  1  0  0  0  0
 17 38  1  0  0  0  0
 18 19  2  0  0  0  0
 18 39  1  0  0  0  0
M  CHG  1   4   1
M  END
> <s_m_source_file>
AV-unprocessed.smi

> <i_m_source_file_index>
1236

> <i_lp_mmshare_version>
43012

> <i_f3d_flags>
0

> <s_epik_input>
W0NIMl0xW0NIMl1PW0NIMl1bQ0gyXU4xW0NIMl1bQ0BASF0oW0NIM10pW05IXUMoPU8pW05IXWMyW2NIXVtjSF1bY0hdW2NIXW4y

> <s_epik_cmdline>
J2VwaWtfcHl0aG9uJywgJy1waCcsICc3LjAnLCAnLXRuJywgJzgnLCAnLW1hJywgJzIwMCcsICctbWV0YWxfYmluZGluZycsICctaW1hZScsICc8aW5maWxlLm1hZT4nLCAnLW9tYWUnLCAnPG91dGZpbGUubWFlPic=

> <r_epik_Ionization_Penalty>
0.602564

> <r_epik_Ionization_Penalty_Charging>
0.602531

> <r_epik_Ionization_Penalty_Neutral>
3.36306e-05

> <r_epik_State_Penalty>
0.617039

> <r_epik_Charging_Adjusted_Penalty>
1.21957

> <i_epik_Tot_Q>
1

> <i_epik_Tot_abs_Q>
1

> <r_epik_Metal_State_Penalty>
0.617041

> <b_epik_Metal_Only>
0

> <s_lp_Force_Field>
OPLS_2005

> <r_lp_Energy>
24.2739

> <b_lp_Chiralities_Consistent>
1

> <s_lp_Variant>
AV-unprocessed.smi:1236-3

> <Gold.Version>
5.8.1

> <Gold.Id.Protein>
6NUR|6NUR_protein|mol2

> <Gold.PLP.Fitness>
46.1484

> <Gold.PLP.PLP>
-36.4323

> <Gold.PLP.part.hbond>
-2.9832

> <Gold.PLP.part.metal>
0.0000

> <Gold.PLP.part.buried>
-3.9617

> <Gold.PLP.part.nonpolar>
-31.1945

> <Gold.PLP.part.repulsive>
0.2691

> <Gold.PLP.ligand.clash>
0.0000

> <Gold.PLP.ligand.torsion>
0.7414

> <Gold.PLP.Chemscore.Hbond>
3.7266

> <Gold.PLP.Chemscore.CHOScore>
0.0000

> <Gold.PLP.Chemscore.Metal>
0.0000

> <Gold.Chemscore.Hbonds>
donor molecule, donor type, donor heavy atom, donor atom, acceptor molecule, acceptor atom, score
      L1  H     4    40       P1 10175  1.70
      L1  H    10    34       P1  8028  0.77
      L1  H    13    35       P1  8028  1.00

> <Gold.PLP.Chemscore.Internal.Correction>
0.0191

> <Gold.Rescore>
     Score         DG    S(hbond)    S(metal)    S(lipo)     H(rot)  DE(clash)    DE(int)     intcor
     15.98     -19.32       2.51        0.00      80.85       1.56       0.13       3.21       ----

> <Gold.Chemscore.Fitness>
15.9803

> <Gold.Chemscore.DG>
-19.3183

> <Gold.Chemscore.ZeroCoef>
-5.4800

> <Gold.Chemscore.Hbond>
2.5054

> <Gold.Chemscore.Metal>
0.0000

> <Gold.Chemscore.Lipo>
80.8533

> <Gold.Chemscore.Internal_Hbond>
0.0000

> <Gold.Chemscore.DEClash>
0.1252

> <Gold.Chemscore.DEInternal>
3.2127

> <Gold.Chemscore.Rot>
1.5584

> <Gold.Chemscore.Internal.Correction>
   9.000000E+99

> <Gold.Chemscore.Hbonds>
donor molecule, donor type, donor heavy atom, donor atom, acceptor molecule, acceptor atom, score
      L1  H     4    40       P1 10175  0.16
      L1  H    10    34       P1  8028  0.74
      L1  H    13    35       P1  8028  0.97

> <Gold.Chemscore.Hbond.Weighted>
-8.3680

> <Gold.Chemscore.Metal.Weighted>
-0.0000

> <Gold.Chemscore.Lipo.Weighted>
-9.4598

> <Gold.Chemscore.Internal_Hbond.Weighted>
0.0000

> <Gold.Chemscore.DEClash.Weighted>
0.1252

> <Gold.Chemscore.DEInternal.Weighted>
3.2127

> <Gold.Chemscore.Rot.Weighted>
3.9896

> <Gold.Chemscore.Internal.Correction.Weighted>
   9.000000E+99

> <Gold.Protein.RotatedTorsions>
[ 6907 6896 6895 6894 ] final   61.26 input  -60.11 | X-H torsion
[ 7974 7965 7964 7962 ] final  -55.87 input  175.53 | X-H torsion
[ 8008 7997 7996 7995 ] final  129.47 input   59.86 | X-H torsion
[ 10167 10162 10161 10158 ] final   54.68 input  -65.29 | X-H torsion
[ 10718 10713 10712 10709 ] final -128.06 input   66.30 | X-H torsion
[ 10763 10752 10751 10750 ] final   55.25 input  -60.55 | X-H torsion
[ 11005 11000 10999 10996 ] final   11.40 input  -57.11 | X-H torsion

> <Gold.Protein.ActiveResidues>
 VAL166  LYS551  ARG553  GLY616  TRP617  ASP618  TYR619  PRO620  LYS621  CYS622 
 ASP623  PHE694  ASN695  SER759  ASP760  ASP761  ALA762  ILE779  LEU786  VAL792 
 PHE793  MET794  SER795  GLU796  ALA797  LYS798  CYS799  TRP800  GLU811  SER814 

> <Gold.Protein.RotatedAtoms>
  152.4074  134.6184  160.0044 H   0  0  0  0  0  0  0  0  0  0  0  0  # atno 6907 bound_to 6896
  151.6371  133.3322  159.3130 H   0  0  0  0  0  0  0  0  0  0  0  0  # atno 6908 bound_to 6896
  150.7967  134.7073  159.6629 H   0  0  0  0  0  0  0  0  0  0  0  0  # atno 6909 bound_to 6896
  145.8692  140.8229  142.9897 H   0  0  0  0  0  0  0  0  0  0  0  0  # atno 7974 bound_to 7965
  156.2936  140.2620  156.2603 H   0  0  0  0  0  0  0  0  0  0  0  0  # atno 8008 bound_to 7997
  154.9795  140.0390  157.2289 H   0  0  0  0  0  0  0  0  0  0  0  0  # atno 8009 bound_to 7997
  154.7785  140.2791  155.6087 H   0  0  0  0  0  0  0  0  0  0  0  0  # atno 8010 bound_to 7997
  140.2275  144.3722  150.6427 H   0  0  0  0  0  0  0  0  0  0  0  0  # atno 10167 bound_to 10162
  156.1915  130.6798  151.0430 H   0  0  0  0  0  0  0  0  0  0  0  0  # atno 10718 bound_to 10713
  152.9814  135.5717  154.5037 H   0  0  0  0  0  0  0  0  0  0  0  0  # atno 10763 bound_to 10752
  154.4552  135.2779  155.1755 H   0  0  0  0  0  0  0  0  0  0  0  0  # atno 10764 bound_to 10752
  154.3366  135.6238  153.5630 H   0  0  0  0  0  0  0  0  0  0  0  0  # atno 10765 bound_to 10752
  140.5036  134.0721  155.7800 H   0  0  0  0  0  0  0  0  0  0  0  0  # atno 11005 bound_to 11000
  144.6726  140.1213  143.7449 LP  0  0  0  0  0  0  0  0  0  0  0  0  # atno 17320 bound_to 7965
  145.9157  139.2514  143.1411 LP  0  0  0  0  0  0  0  0  0  0  0  0  # atno 17321 bound_to 7965
  140.6209  143.2176  151.6695 LP  0  0  0  0  0  0  0  0  0  0  0  0  # atno 17342 bound_to 10162
  139.5122  144.3485  152.0674 LP  0  0  0  0  0  0  0  0  0  0  0  0  # atno 17343 bound_to 10162
  157.6932  131.0803  150.7047 LP  0  0  0  0  0  0  0  0  0  0  0  0  # atno 17370 bound_to 10713
  156.7104  130.4650  149.5549 LP  0  0  0  0  0  0  0  0  0  0  0  0  # atno 17371 bound_to 10713
  141.1423  133.9117  157.2298 LP  0  0  0  0  0  0  0  0  0  0  0  0  # atno 17394 bound_to 11000
  139.9699  135.0131  156.9485 LP  0  0  0  0  0  0  0  0  0  0  0  0  # atno 17395 bound_to 11000

$$$$
