#       Name:                AV-unprocessed.smi:1006
#       Creating user name   scv26
#       Creation time:       Fri Mar 27 02:32:18 2020


#       File generated by GOLD software.
#

@<TRIPOS>MOLECULE
AV-unprocessed.smi:1006
    50    52     1
SMALL
NO_CHARGES


@<TRIPOS>ATOM
      1 ****        -7.5767   2.3720   0.2971 C.3            1 S1                 0.0000
      2 ****        -6.3191   1.8000  -0.3222 C.ar           1 S1                 0.0000
      3 ****        -6.2582   1.4222  -1.6791 C.ar           1 S1                 0.0000
      4 ****        -5.0345   0.9053  -2.1392 C.ar           1 S1                 0.0000
      5 ****        -4.8782   0.5085  -3.4647 N.pl3          1 S1                 0.0000
      6 ****        -3.9722   0.7764  -1.3201 N.ar           1 S1                 0.0000
      7 ****        -4.0981   1.1539  -0.0410 C.ar           1 S1                 0.0000
      8 ****        -2.7012   1.0123   1.0595 S.3            1 S1                 0.0000
      9 ****        -1.6010  -0.1232   0.1573 C.3            1 S1                 0.0000
     10 ****        -0.3153  -0.4255   0.9437 C.3            1 S1                 0.0000
     11 ****         0.4479   0.7613   1.0510 O.3            1 S1                 0.0000
     12 ****         0.5270  -1.5255   0.2695 C.3            1 S1                 0.0000
     13 ****         1.7539  -1.8102   0.9928 N.pl3          1 S1                 0.0000
     14 ****         1.8854  -2.5658   2.1000 C.2            1 S1                 0.0000
     15 ****         3.1079  -2.6973   2.6065 N.2            1 S1                 0.0000
     16 ****         3.8582  -1.9396   1.7235 C.ar           1 S1                 0.0000
     17 ****         5.2438  -1.6684   1.6967 C.ar           1 S1                 0.0000
     18 ****         5.8044  -0.8570   0.6846 C.ar           1 S1                 0.0000
     19 ****         7.2999  -0.5934   0.6928 C.3            1 S1                 0.0000
     20 ****         4.9737  -0.3013  -0.3215 C.ar           1 S1                 0.0000
     21 ****         5.5536   0.5722  -1.4199 C.3            1 S1                 0.0000
     22 ****         3.5871  -0.5607  -0.3086 C.ar           1 S1                 0.0000
     23 ****         3.0415  -1.3715   0.7023 C.ar           1 S1                 0.0000
     24 ****        -5.2286   1.6594   0.4727 N.pl3          1 S1                 1.0000
     25 ****        -8.4276   2.2687  -0.3769 H              1 S1                 0.0000
     26 ****        -7.4418   3.4312   0.5177 H              1 S1                 0.0000
     27 ****        -7.8159   1.8539   1.2263 H              1 S1                 0.0000
     28 ****        -7.1113   1.5262  -2.3345 H              1 S1                 0.0000
     29 ****        -5.6326   0.5789  -4.1322 H              1 S1                 0.0000
     30 ****        -3.9971   0.1532  -3.8077 H              1 S1                 0.0000
     31 ****        -2.1476  -1.0490  -0.0259 H              1 S1                 0.0000
     32 ****        -1.3517   0.3010  -0.8161 H              1 S1                 0.0000
     33 ****        -0.5790  -0.7504   1.9512 H              1 S1                 0.0000
     34 ****        -0.0587   1.4033   1.5247 H              1 S1                 0.0000
     35 ****        -0.0478  -2.4496   0.1989 H              1 S1                 0.0000
     36 ****         0.7811  -1.2394  -0.7520 H              1 S1                 0.0000
     37 ****         1.0344  -3.0453   2.5611 H              1 S1                 0.0000
     38 ****         5.8759  -2.0919   2.4633 H              1 S1                 0.0000
     39 ****         7.7591  -0.9769  -0.2185 H              1 S1                 0.0000
     40 ****         7.7850  -1.0766   1.5413 H              1 S1                 0.0000
     41 ****         7.4999   0.4763   0.7586 H              1 S1                 0.0000
     42 ****         4.7779   0.9199  -2.1027 H              1 S1                 0.0000
     43 ****         6.2876   0.0152  -2.0028 H              1 S1                 0.0000
     44 ****         6.0416   1.4492  -0.9941 H              1 S1                 0.0000
     45 ****         2.9429  -0.1414  -1.0673 H              1 S1                 0.0000
     46 ****        -5.2769   1.9376   1.4530 H              1 S1                 0.0000
     47 ****        -3.1076   0.4066  -1.6602 LP             1 S1                 0.0000
     48 ****         0.6621   1.1080   0.1378 LP             1 S1                 0.0000
     49 ****         1.2975   0.5723   1.5434 LP             1 S1                 0.0000
     50 ****         3.4065  -3.2085   3.4124 LP             1 S1                 0.0000
@<TRIPOS>BOND
    1    1    2 1     
    2    1   25 1     
    3    1   26 1     
    4    1   27 1     
    5    2   24 ar    
    6    2    3 ar    
    7    3    4 ar    
    8    3   28 1     
    9    4    5 1     
   10    4    6 ar    
   11    5   29 1     
   12    5   30 1     
   13    6    7 ar    
   14    7    8 1     
   15    7   24 ar    
   16    8    9 1     
   17    9   10 1     
   18    9   31 1     
   19    9   32 1     
   20   10   11 1     
   21   10   12 1     
   22   10   33 1     
   23   11   34 1     
   24   12   13 1     
   25   12   35 1     
   26   12   36 1     
   27   13   23 1     
   28   13   14 1     
   29   14   15 2     
   30   14   37 1     
   31   15   16 1     
   32   16   23 ar    
   33   16   17 ar    
   34   17   18 ar    
   35   17   38 1     
   36   18   19 1     
   37   18   20 ar    
   38   19   39 1     
   39   19   40 1     
   40   19   41 1     
   41   20   21 1     
   42   20   22 ar    
   43   21   42 1     
   44   21   43 1     
   45   21   44 1     
   46   22   23 ar    
   47   22   45 1     
   48   24   46 1     
   49    6   47 1     
   50   11   48 1     
   51   11   49 1     
   52   15   50 1     
@<TRIPOS>SUBSTRUCTURE
      1 S1             1
@<TRIPOS>SET
LONE_PAIRS      STATIC     ATOMS    <user>   **** ""
4 47 48 49 50
DONOR_HYDROGENS      STATIC     ATOMS    <user>   **** ""
4 29 30 34 46
ATOM$BLUE        STATIC     ATOMS    COLORGROUP SYSTEM
4 47 48 49 50
ATOM$RED        STATIC     ATOMS    COLORGROUP SYSTEM
4 29 30 34 46
