AV-unprocessed.smi:1768|AV-procd|sdf|7150|dock3
  -GOLD-   22720 8393D 1   1.00000     0.00000
 Structure written by MMmdl.
 32 33  0  0  0  0  0  0  0  0  2 V2000
  151.0708  134.9841  154.8737 C   0  0  0  0  0  0  0  0  0  0  0  0
  151.7708  136.2206  155.3228 C   0  0  0  0  0  0  0  0  0  0  0  0
  153.0374  136.2194  155.7452 N   0  0  0  0  0  0  0  0  0  0  0  0
  153.4686  137.4872  156.1081 N   0  0  0  0  0  0  0  0  0  0  0  0
  152.5226  138.4260  155.9631 C   0  0  0  0  0  0  0  0  0  0  0  0
  152.7395  139.7184  156.2578 N   0  5  0  0  0  0  0  0  0  0  0  0
  151.7101  140.5957  156.2489 C   0  0  0  0  0  0  0  0  0  0  0  0
  150.7755  140.6140  155.4448 O   0  0  0  0  0  0  0  0  0  0  0  0
  151.7759  141.5111  157.2272 N   0  0  0  0  0  0  0  0  0  0  0  0
  150.8269  142.5952  157.4791 C   0  0  1  0  0  0  0  0  0  0  0  0
  149.4446  141.9858  157.7551 C   0  0  0  0  0  0  0  0  0  0  0  0
  151.3090  143.4718  158.6536 C   0  0  1  0  0  0  0  0  0  0  0  0
  152.1272  144.7010  158.2566 C   0  0  0  0  0  0  0  0  0  0  0  0
  151.9690  145.6243  159.4519 C   0  0  0  0  0  0  0  0  0  0  0  0
  150.7083  145.1091  160.1527 C   0  0  0  0  0  0  0  0  0  0  0  0
  150.2088  144.0646  159.3268 O   0  0  0  0  0  0  0  0  0  0  0  0
  151.0004  137.7979  155.3316 S   0  0  0  0  0  0  0  0  0  0  0  0
  151.2377  134.1768  155.5871 H   0  0  0  0  0  0  0  0  0  0  0  0
  151.4481  134.6760  153.8985 H   0  0  0  0  0  0  0  0  0  0  0  0
  149.9984  135.1627  154.7945 H   0  0  0  0  0  0  0  0  0  0  0  0
  152.5626  141.4482  157.8562 H   0  0  0  0  0  0  0  0  0  0  0  0
  150.7352  143.2229  156.5911 H   0  0  0  0  0  0  0  0  0  0  0  0
  148.6958  142.7621  157.9135 H   0  0  0  0  0  0  0  0  0  0  0  0
  149.4594  141.3517  158.6424 H   0  0  0  0  0  0  0  0  0  0  0  0
  149.1106  141.3759  156.9150 H   0  0  0  0  0  0  0  0  0  0  0  0
  151.8744  142.8697  159.3678 H   0  0  0  0  0  0  0  0  0  0  0  0
  153.1689  144.4656  158.0360 H   0  0  0  0  0  0  0  0  0  0  0  0
  151.6935  145.1708  157.3727 H   0  0  0  0  0  0  0  0  0  0  0  0
  152.8291  145.5496  160.1184 H   0  0  0  0  0  0  0  0  0  0  0  0
  151.8729  146.6652  159.1418 H   0  0  0  0  0  0  0  0  0  0  0  0
  150.9536  144.7068  161.1365 H   0  0  0  0  0  0  0  0  0  0  0  0
  149.9566  145.8879  160.2821 H   0  0  0  0  0  0  0  0  0  0  0  0
  1  2  1  0  0  0  0
  1 18  1  0  0  0  0
  1 19  1  0  0  0  0
  1 20  1  0  0  0  0
  2 17  1  0  0  0  0
  2  3  2  0  0  0  0
  3  4  1  0  0  0  0
  4  5  2  0  0  0  0
  5  6  1  0  0  0  0
  5 17  1  0  0  0  0
  6  7  1  0  0  0  0
  7  8  2  0  0  0  0
  7  9  1  0  0  0  0
  9 10  1  0  0  0  0
  9 21  1  0  0  0  0
 10 11  1  0  0  0  0
 10 12  1  0  0  0  0
 10 22  1  0  0  0  0
 11 23  1  0  0  0  0
 11 24  1  0  0  0  0
 11 25  1  0  0  0  0
 12 16  1  0  0  0  0
 12 13  1  0  0  0  0
 12 26  1  0  0  0  0
 13 14  1  0  0  0  0
 13 27  1  0  0  0  0
 13 28  1  0  0  0  0
 14 15  1  0  0  0  0
 14 29  1  0  0  0  0
 14 30  1  0  0  0  0
 15 16  1  0  0  0  0
 15 31  1  0  0  0  0
 15 32  1  0  0  0  0
M  CHG  1   6  -1
M  END
> <s_m_source_file>
AV-unprocessed.smi

> <i_m_source_file_index>
1768

> <i_lp_mmshare_version>
43012

> <i_f3d_flags>
0

> <s_epik_input>
W0NIM11jMW5uYyhzMSlbTkhdQyg9TylbTkhdW0NASF0oW0NIM10pW0NAQEhdMltDSDJdW0NIMl1bQ0gyXU8y

> <s_epik_cmdline>
J2VwaWtfcHl0aG9uJywgJy1waCcsICc3LjAnLCAnLXRuJywgJzgnLCAnLW1hJywgJzIwMCcsICctbWV0YWxfYmluZGluZycsICctaW1hZScsICc8aW5maWxlLm1hZT4nLCAnLW9tYWUnLCAnPG91dGZpbGUubWFlPic=

> <r_lp_tautomer_probability>
1

> <r_epik_Ionization_Penalty>
4.3376

> <r_epik_Ionization_Penalty_Charging>
4.19392

> <r_epik_Ionization_Penalty_Neutral>
0.143681

> <r_epik_State_Penalty>
4.19342

> <r_epik_Charging_Adjusted_Penalty>
8.38735

> <i_epik_Tot_Q>
-1

> <i_epik_Tot_abs_Q>
1

> <r_epik_Metal_State_Penalty>
0.686065

> <b_epik_Metal_Only>
1

> <s_lp_Force_Field>
OPLS_2005

> <r_lp_Energy>
15.6479

> <b_lp_Chiralities_Consistent>
1

> <s_lp_Variant>
AV-unprocessed.smi:1768-8

> <Gold.Version>
5.8.1

> <Gold.Id.Protein>
6NUR|6NUR_protein|mol2

> <Gold.PLP.Fitness>
38.8835

> <Gold.PLP.PLP>
-29.6454

> <Gold.PLP.part.hbond>
-3.7227

> <Gold.PLP.part.metal>
0.0000

> <Gold.PLP.part.buried>
-1.2834

> <Gold.PLP.part.nonpolar>
-23.7582

> <Gold.PLP.part.repulsive>
0.3233

> <Gold.PLP.ligand.clash>
0.0000

> <Gold.PLP.ligand.torsion>
1.1207

> <Gold.PLP.Chemscore.Hbond>
3.8132

> <Gold.PLP.Chemscore.CHOScore>
0.0000

> <Gold.PLP.Chemscore.Metal>
0.0000

> <Gold.Chemscore.Hbonds>
donor molecule, donor type, donor heavy atom, donor atom, acceptor molecule, acceptor atom, score
      P1  H  7989  7998       L1     8  0.67
      P1  H  7997  8010       L1     6  2.00

> <Gold.PLP.Chemscore.Internal.Correction>
0.0401

> <Gold.Rescore>
     Score         DG    S(hbond)    S(metal)    S(lipo)     H(rot)  DE(clash)    DE(int)     intcor
     10.46     -14.59       0.99        0.00      77.43       1.28       0.12       4.00       ----

> <Gold.Chemscore.Fitness>
10.4602

> <Gold.Chemscore.DG>
-14.5890

> <Gold.Chemscore.ZeroCoef>
-5.4800

> <Gold.Chemscore.Hbond>
0.9941

> <Gold.Chemscore.Metal>
0.0000

> <Gold.Chemscore.Lipo>
77.4287

> <Gold.Chemscore.Internal_Hbond>
0.0000

> <Gold.Chemscore.DEClash>
0.1248

> <Gold.Chemscore.DEInternal>
4.0039

> <Gold.Chemscore.Rot>
1.2776

> <Gold.Chemscore.Internal.Correction>
   9.000000E+99

> <Gold.Chemscore.Hbonds>
donor molecule, donor type, donor heavy atom, donor atom, acceptor molecule, acceptor atom, score
      P1  H  7989  7998       L1     8  0.39
      P1  H  7997  8010       L1     6  0.85

> <Gold.Chemscore.Hbond.Weighted>
-3.3204

> <Gold.Chemscore.Metal.Weighted>
-0.0000

> <Gold.Chemscore.Lipo.Weighted>
-9.0592

> <Gold.Chemscore.Internal_Hbond.Weighted>
0.0000

> <Gold.Chemscore.DEClash.Weighted>
0.1248

> <Gold.Chemscore.DEInternal.Weighted>
4.0039

> <Gold.Chemscore.Rot.Weighted>
3.2706

> <Gold.Chemscore.Internal.Correction.Weighted>
   9.000000E+99

> <Gold.Protein.RotatedTorsions>
[ 6907 6896 6895 6894 ] final  109.30 input  -60.11 | X-H torsion
[ 7974 7965 7964 7962 ] final  118.86 input  175.53 | X-H torsion
[ 8008 7997 7996 7995 ] final   86.03 input   59.86 | X-H torsion
[ 10167 10162 10161 10158 ] final  -32.87 input  -65.29 | X-H torsion
[ 10718 10713 10712 10709 ] final  -64.93 input   66.30 | X-H torsion
[ 10763 10752 10751 10750 ] final   79.36 input  -60.55 | X-H torsion
[ 11005 11000 10999 10996 ] final   14.42 input  -57.11 | X-H torsion

> <Gold.Protein.ActiveResidues>
 VAL166  LYS551  ARG553  GLY616  TRP617  ASP618  TYR619  PRO620  LYS621  CYS622 
 ASP623  PHE694  ASN695  SER759  ASP760  ASP761  ALA762  ILE779  LEU786  VAL792 
 PHE793  MET794  SER795  GLU796  ALA797  LYS798  CYS799  TRP800  GLU811  SER814 

> <Gold.Protein.RotatedAtoms>
  152.5073  133.8963  159.7418 H   0  0  0  0  0  0  0  0  0  0  0  0  # atno 6907 bound_to 6896
  150.9390  133.6670  159.2801 H   0  0  0  0  0  0  0  0  0  0  0  0  # atno 6908 bound_to 6896
  151.3988  135.0972  159.9602 H   0  0  0  0  0  0  0  0  0  0  0  0  # atno 6909 bound_to 6896
  145.1501  139.3216  143.4571 H   0  0  0  0  0  0  0  0  0  0  0  0  # atno 7974 bound_to 7965
  155.9576  140.3396  155.6462 H   0  0  0  0  0  0  0  0  0  0  0  0  # atno 8008 bound_to 7997
  155.6839  140.0741  157.2492 H   0  0  0  0  0  0  0  0  0  0  0  0  # atno 8009 bound_to 7997
  154.4136  140.1669  156.2000 H   0  0  0  0  0  0  0  0  0  0  0  0  # atno 8010 bound_to 7997
  140.7214  143.3662  151.1865 H   0  0  0  0  0  0  0  0  0  0  0  0  # atno 10167 bound_to 10162
  156.0699  130.4240  150.1491 H   0  0  0  0  0  0  0  0  0  0  0  0  # atno 10718 bound_to 10713
  153.0946  135.4843  154.8755 H   0  0  0  0  0  0  0  0  0  0  0  0  # atno 10763 bound_to 10752
  154.7310  135.3060  154.8894 H   0  0  0  0  0  0  0  0  0  0  0  0  # atno 10764 bound_to 10752
  153.9530  135.6821  153.4797 H   0  0  0  0  0  0  0  0  0  0  0  0  # atno 10765 bound_to 10752
  140.4697  134.1043  155.7730 H   0  0  0  0  0  0  0  0  0  0  0  0  # atno 11005 bound_to 11000
  146.3495  140.1572  142.8591 LP  0  0  0  0  0  0  0  0  0  0  0  0  # atno 17320 bound_to 7965
  145.0440  140.8967  143.5035 LP  0  0  0  0  0  0  0  0  0  0  0  0  # atno 17321 bound_to 7965
  139.7225  143.9201  152.2990 LP  0  0  0  0  0  0  0  0  0  0  0  0  # atno 17342 bound_to 10162
  139.8963  144.6937  150.8715 LP  0  0  0  0  0  0  0  0  0  0  0  0  # atno 17343 bound_to 10162
  156.9544  130.9785  151.3492 LP  0  0  0  0  0  0  0  0  0  0  0  0  # atno 17370 bound_to 10713
  157.5764  130.8346  149.8462 LP  0  0  0  0  0  0  0  0  0  0  0  0  # atno 17371 bound_to 10713
  141.1583  133.8842  157.1918 LP  0  0  0  0  0  0  0  0  0  0  0  0  # atno 17394 bound_to 11000
  139.9893  135.0070  156.9937 LP  0  0  0  0  0  0  0  0  0  0  0  0  # atno 17395 bound_to 11000

$$$$
