AV-unprocessed.smi:2386|AV-procd|sdf|9468|dock1
  -GOLD-   2272013 93D 1   1.00000     0.00000
 Structure written by MMmdl.
 42 43  0  0  0  0  0  0  0  0  1 V2000
  153.3710  141.3153  160.5163 C   0  0  0  0  0  0  0  0  0  0  0  0
  152.6439  142.4760  159.8706 C   0  0  0  0  0  0  0  0  0  0  0  0
  152.7531  143.7794  160.3927 C   0  0  0  0  0  0  0  0  0  0  0  0
  152.0547  144.8136  159.7442 C   0  0  0  0  0  0  0  0  0  0  0  0
  151.2824  144.5041  158.6080 C   0  0  0  0  0  0  0  0  0  0  0  0
  151.2281  143.1696  158.1467 C   0  0  0  0  0  0  0  0  0  0  0  0
  150.4254  142.9628  156.9932 N   0  0  0  0  0  0  0  0  0  0  0  0
  150.2904  141.8402  156.2653 C   0  0  0  0  0  0  0  0  0  0  0  0
  150.8497  140.7680  156.4980 O   0  0  0  0  0  0  0  0  0  0  0  0
  149.4602  142.0297  155.2293 N   0  0  0  0  0  0  0  0  0  0  0  0
  149.1201  141.0178  154.2354 C   0  0  0  0  0  0  0  0  0  0  0  0
  147.6037  140.7739  154.1751 C   0  0  0  0  0  0  0  0  0  0  0  0
  146.8525  141.9459  153.5214 C   0  0  0  0  0  0  0  0  0  0  0  0
  145.7746  142.5178  154.3270 N   0  0  0  0  0  0  0  0  0  0  0  0
  146.1380  142.6583  155.7358 C   0  0  0  0  0  0  0  0  0  0  0  0
  145.0058  143.2942  156.5616 C   0  0  0  0  0  0  0  0  0  0  0  0
  144.6496  144.5529  155.9996 O   0  0  0  0  0  0  0  0  0  0  0  0
  144.2415  144.4494  154.6399 C   0  0  0  0  0  0  0  0  0  0  0  0
  145.3744  143.8219  153.8097 C   0  0  0  0  0  0  0  0  0  0  0  0
  151.9049  142.1792  158.7799 N   0  0  0  0  0  0  0  0  0  0  0  0
  153.7295  141.5798  161.5114 H   0  0  0  0  0  0  0  0  0  0  0  0
  154.2285  141.0241  159.9095 H   0  0  0  0  0  0  0  0  0  0  0  0
  152.7096  140.4537  160.6131 H   0  0  0  0  0  0  0  0  0  0  0  0
  153.3552  143.9842  161.2656 H   0  0  0  0  0  0  0  0  0  0  0  0
  152.1104  145.8277  160.1111 H   0  0  0  0  0  0  0  0  0  0  0  0
  150.7402  145.2872  158.0983 H   0  0  0  0  0  0  0  0  0  0  0  0
  149.9031  143.7669  156.6789 H   0  0  0  0  0  0  0  0  0  0  0  0
  149.0414  142.9407  155.1128 H   0  0  0  0  0  0  0  0  0  0  0  0
  149.4997  141.3116  153.2552 H   0  0  0  0  0  0  0  0  0  0  0  0
  149.6346  140.0946  154.5031 H   0  0  0  0  0  0  0  0  0  0  0  0
  147.4058  139.8583  153.6164 H   0  0  0  0  0  0  0  0  0  0  0  0
  147.2295  140.6093  155.1855 H   0  0  0  0  0  0  0  0  0  0  0  0
  147.5637  142.7269  153.2478 H   0  0  0  0  0  0  0  0  0  0  0  0
  146.4301  141.5842  152.5830 H   0  0  0  0  0  0  0  0  0  0  0  0
  146.3743  141.6854  156.1654 H   0  0  0  0  0  0  0  0  0  0  0  0
  147.0375  143.2687  155.8273 H   0  0  0  0  0  0  0  0  0  0  0  0
  144.1330  142.6400  156.5876 H   0  0  0  0  0  0  0  0  0  0  0  0
  145.3261  143.4422  157.5930 H   0  0  0  0  0  0  0  0  0  0  0  0
  143.3327  143.8500  154.5693 H   0  0  0  0  0  0  0  0  0  0  0  0
  144.0004  145.4434  154.2633 H   0  0  0  0  0  0  0  0  0  0  0  0
  146.2319  144.4965  153.8047 H   0  0  0  0  0  0  0  0  0  0  0  0
  145.0487  143.7249  152.7735 H   0  0  0  0  0  0  0  0  0  0  0  0
  1  2  1  0  0  0  0
  1 21  1  0  0  0  0
  1 22  1  0  0  0  0
  1 23  1  0  0  0  0
  2 20  1  0  0  0  0
  2  3  2  0  0  0  0
  3  4  1  0  0  0  0
  3 24  1  0  0  0  0
  4  5  2  0  0  0  0
  4 25  1  0  0  0  0
  5  6  1  0  0  0  0
  5 26  1  0  0  0  0
  6  7  1  0  0  0  0
  6 20  2  0  0  0  0
  7  8  1  0  0  0  0
  7 27  1  0  0  0  0
  8  9  2  0  0  0  0
  8 10  1  0  0  0  0
 10 11  1  0  0  0  0
 10 28  1  0  0  0  0
 11 12  1  0  0  0  0
 11 29  1  0  0  0  0
 11 30  1  0  0  0  0
 12 13  1  0  0  0  0
 12 31  1  0  0  0  0
 12 32  1  0  0  0  0
 13 14  1  0  0  0  0
 13 33  1  0  0  0  0
 13 34  1  0  0  0  0
 14 19  1  0  0  0  0
 14 15  1  0  0  0  0
 15 16  1  0  0  0  0
 15 35  1  0  0  0  0
 15 36  1  0  0  0  0
 16 17  1  0  0  0  0
 16 37  1  0  0  0  0
 16 38  1  0  0  0  0
 17 18  1  0  0  0  0
 18 19  1  0  0  0  0
 18 39  1  0  0  0  0
 18 40  1  0  0  0  0
 19 41  1  0  0  0  0
 19 42  1  0  0  0  0
M  END
> <s_m_source_file>
AV-unprocessed.smi

> <i_m_source_file_index>
2386

> <i_lp_mmshare_version>
43012

> <i_f3d_flags>
0

> <s_epik_input>
W0NIM11jMVtjSF1bY0hdW2NIXWMobjEpW05IXUMoPU8pW05IXVtDSDJdW0NIMl1bQ0gyXU4yW0NIMl1bQ0gyXU9bQ0gyXVtDSDJdMg==

> <s_epik_cmdline>
J2VwaWtfcHl0aG9uJywgJy1waCcsICc3LjAnLCAnLXRuJywgJzgnLCAnLW1hJywgJzIwMCcsICctbWV0YWxfYmluZGluZycsICctaW1hZScsICc8aW5maWxlLm1hZT4nLCAnLW9tYWUnLCAnPG91dGZpbGUubWFlPic=

> <r_epik_Ionization_Penalty>
0.594745

> <r_epik_Ionization_Penalty_Charging>
0

> <r_epik_Ionization_Penalty_Neutral>
0.594745

> <r_epik_State_Penalty>
0.608529

> <r_epik_Charging_Adjusted_Penalty>
0.608529

> <i_epik_Tot_Q>
0

> <i_epik_Tot_abs_Q>
0

> <r_epik_Metal_State_Penalty>
0.608525

> <b_epik_Metal_Only>
0

> <s_lp_Force_Field>
OPLS_2005

> <r_lp_Energy>
23.5162

> <b_lp_Chiralities_Consistent>
1

> <s_lp_Variant>
AV-unprocessed.smi:2386-2

> <Gold.Version>
5.8.1

> <Gold.Id.Protein>
6NUR|6NUR_protein|mol2

> <Gold.PLP.Fitness>
48.1281

> <Gold.PLP.PLP>
-43.2206

> <Gold.PLP.part.hbond>
-2.0000

> <Gold.PLP.part.metal>
0.0000

> <Gold.PLP.part.buried>
-7.6936

> <Gold.PLP.part.nonpolar>
-34.1231

> <Gold.PLP.part.repulsive>
0.5553

> <Gold.PLP.ligand.clash>
0.0000

> <Gold.PLP.ligand.torsion>
0.5565

> <Gold.PLP.Chemscore.Hbond>
2.0000

> <Gold.PLP.Chemscore.CHOScore>
0.0000

> <Gold.PLP.Chemscore.Metal>
0.0000

> <Gold.Chemscore.Hbonds>
donor molecule, donor type, donor heavy atom, donor atom, acceptor molecule, acceptor atom, score
      L1  H     7    27       P1  8028  1.00
      L1  H    10    28       P1  8028  1.00

> <Gold.PLP.Chemscore.Internal.Correction>
0.0206

> <Gold.Rescore>
     Score         DG    S(hbond)    S(metal)    S(lipo)     H(rot)  DE(clash)    DE(int)     intcor
     17.54     -19.37       1.95        0.00     100.07       1.69       0.11       1.72       ----

> <Gold.Chemscore.Fitness>
17.5402

> <Gold.Chemscore.DG>
-19.3719

> <Gold.Chemscore.ZeroCoef>
-5.4800

> <Gold.Chemscore.Hbond>
1.9486

> <Gold.Chemscore.Metal>
0.0000

> <Gold.Chemscore.Lipo>
100.0675

> <Gold.Chemscore.Internal_Hbond>
0.0000

> <Gold.Chemscore.DEClash>
0.1095

> <Gold.Chemscore.DEInternal>
1.7222

> <Gold.Chemscore.Rot>
1.6892

> <Gold.Chemscore.Internal.Correction>
   9.000000E+99

> <Gold.Chemscore.Hbonds>
donor molecule, donor type, donor heavy atom, donor atom, acceptor molecule, acceptor atom, score
      L1  H     7    27       P1  8028  0.99
      L1  H    10    28       P1  8028  0.94

> <Gold.Chemscore.Hbond.Weighted>
-6.5084

> <Gold.Chemscore.Metal.Weighted>
-0.0000

> <Gold.Chemscore.Lipo.Weighted>
-11.7079

> <Gold.Chemscore.Internal_Hbond.Weighted>
0.0000

> <Gold.Chemscore.DEClash.Weighted>
0.1095

> <Gold.Chemscore.DEInternal.Weighted>
1.7222

> <Gold.Chemscore.Rot.Weighted>
4.3243

> <Gold.Chemscore.Internal.Correction.Weighted>
   9.000000E+99

> <Gold.Protein.RotatedTorsions>
[ 6907 6896 6895 6894 ] final  157.82 input  -60.11 | X-H torsion
[ 7974 7965 7964 7962 ] final  145.21 input  175.53 | X-H torsion
[ 8008 7997 7996 7995 ] final  171.34 input   59.86 | X-H torsion
[ 10167 10162 10161 10158 ] final  150.62 input  -65.29 | X-H torsion
[ 10718 10713 10712 10709 ] final  -38.64 input   66.30 | X-H torsion
[ 10763 10752 10751 10750 ] final   95.22 input  -60.55 | X-H torsion
[ 11005 11000 10999 10996 ] final  111.82 input  -57.11 | X-H torsion

> <Gold.Protein.ActiveResidues>
 VAL166  LYS551  ARG553  GLY616  TRP617  ASP618  TYR619  PRO620  LYS621  CYS622 
 ASP623  PHE694  ASN695  SER759  ASP760  ASP761  ALA762  ILE779  LEU786  VAL792 
 PHE793  MET794  SER795  GLU796  ALA797  LYS798  CYS799  TRP800  GLU811  SER814 

> <Gold.Protein.RotatedAtoms>
  152.0094  133.3856  159.4213 H   0  0  0  0  0  0  0  0  0  0  0  0  # atno 6907 bound_to 6896
  150.6901  134.3746  159.5016 H   0  0  0  0  0  0  0  0  0  0  0  0  # atno 6908 bound_to 6896
  152.1505  134.8991  160.0599 H   0  0  0  0  0  0  0  0  0  0  0  0  # atno 6909 bound_to 6896
  144.8771  139.5755  143.5860 H   0  0  0  0  0  0  0  0  0  0  0  0  # atno 7974 bound_to 7965
  156.1281  140.1514  156.9107 H   0  0  0  0  0  0  0  0  0  0  0  0  # atno 8008 bound_to 7997
  154.4887  140.0857  156.7586 H   0  0  0  0  0  0  0  0  0  0  0  0  # atno 8009 bound_to 7997
  155.4307  140.3427  155.4282 H   0  0  0  0  0  0  0  0  0  0  0  0  # atno 8010 bound_to 7997
  139.4848  144.5507  151.7405 H   0  0  0  0  0  0  0  0  0  0  0  0  # atno 10167 bound_to 10162
  156.3014  130.4240  149.8139 H   0  0  0  0  0  0  0  0  0  0  0  0  # atno 10718 bound_to 10713
  153.2506  135.4262  155.0793 H   0  0  0  0  0  0  0  0  0  0  0  0  # atno 10763 bound_to 10752
  154.8380  135.3425  154.6518 H   0  0  0  0  0  0  0  0  0  0  0  0  # atno 10764 bound_to 10752
  153.6939  135.7032  153.5139 H   0  0  0  0  0  0  0  0  0  0  0  0  # atno 10765 bound_to 10752
  139.8912  134.9516  156.6491 H   0  0  0  0  0  0  0  0  0  0  0  0  # atno 11005 bound_to 11000
  146.2970  139.7309  142.9119 LP  0  0  0  0  0  0  0  0  0  0  0  0  # atno 17320 bound_to 7965
  145.4022  141.0386  143.3064 LP  0  0  0  0  0  0  0  0  0  0  0  0  # atno 17321 bound_to 7965
  140.5061  144.1096  150.5983 LP  0  0  0  0  0  0  0  0  0  0  0  0  # atno 17342 bound_to 10162
  140.4006  143.2706  151.9953 LP  0  0  0  0  0  0  0  0  0  0  0  0  # atno 17343 bound_to 10162
  156.5516  130.8344  151.3301 LP  0  0  0  0  0  0  0  0  0  0  0  0  # atno 17370 bound_to 10713
  157.7369  130.9786  150.2161 LP  0  0  0  0  0  0  0  0  0  0  0  0  # atno 17371 bound_to 10713
  140.7534  133.8878  155.8364 LP  0  0  0  0  0  0  0  0  0  0  0  0  # atno 17394 bound_to 11000
  140.9982  134.1187  157.4343 LP  0  0  0  0  0  0  0  0  0  0  0  0  # atno 17395 bound_to 11000

$$$$
