#       Name:                AV-unprocessed.smi:2005
#       Creating user name   scv26
#       Creation time:       Fri Mar 27 10:36:12 2020


#       File generated by GOLD software.
#

@<TRIPOS>MOLECULE
AV-unprocessed.smi:2005
    45    46     1
SMALL
NO_CHARGES


@<TRIPOS>ATOM
      1 ****        -6.7374  -1.2123   0.5887 C.3            1 S1                 0.0000
      2 ****        -5.9825  -0.5340  -0.5634 C.3            1 S1                 0.0000
      3 ****        -6.3625  -1.0915  -1.9430 C.3            1 S1                 0.0000
      4 ****        -4.5014  -0.5309  -0.3451 C.2            1 S1                 0.0000
      5 ****        -3.7684  -1.6516  -0.2980 N.2            1 S1                 0.0000
      6 ****        -2.4203  -1.3933  -0.0942 N.2            1 S1                 0.0000
      7 ****        -2.1731  -0.0805   0.0084 C.2            1 S1                 0.0000
      8 ****        -0.8785   0.4647   0.2162 N.am           1 S1                 0.0000
      9 ****         0.2985  -0.1828   0.2775 C.2            1 S1                 0.0000
     10 ****         0.4483  -1.4003   0.1696 O.2            1 S1                 0.0000
     11 ****         1.3134   0.6734   0.4663 N.am           1 S1                 0.0000
     12 ****         2.7233   0.3042   0.5533 C.3            1 S1                 0.0000
     13 ****         3.4786   1.3441   1.4028 C.3            1 S1                 0.0000
     14 ****         4.9834   1.0357   1.4648 C.3            1 S1                 0.0000
     15 ****         5.5867   0.9376   0.0534 C.3            1 S1                 0.0000
     16 ****         6.9521   0.5903   0.1454 O.3            1 S1                 0.0000
     17 ****         4.8448  -0.1109  -0.7924 C.3            1 S1                 0.0000
     18 ****         3.3397   0.1944  -0.8569 C.3            1 S1                 0.0000
     19 ****        -3.5827   0.9558  -0.1303 S.3            1 S1                 0.0000
     20 ****        -6.5074  -0.7363   1.5424 H              1 S1                 0.0000
     21 ****        -6.4734  -2.2672   0.6699 H              1 S1                 0.0000
     22 ****        -7.8160  -1.1508   0.4410 H              1 S1                 0.0000
     23 ****        -6.2953   0.5109  -0.5600 H              1 S1                 0.0000
     24 ****        -5.8732  -0.5323  -2.7409 H              1 S1                 0.0000
     25 ****        -7.4383  -1.0304  -2.1086 H              1 S1                 0.0000
     26 ****        -6.0711  -2.1377  -2.0423 H              1 S1                 0.0000
     27 ****        -0.8429   1.4686   0.3126 H              1 S1                 0.0000
     28 ****         1.0974   1.6565   0.5436 H              1 S1                 0.0000
     29 ****         2.8100  -0.6636   1.0513 H              1 S1                 0.0000
     30 ****         3.3332   2.3411   0.9844 H              1 S1                 0.0000
     31 ****         3.0686   1.3702   2.4131 H              1 S1                 0.0000
     32 ****         5.4950   1.8088   2.0393 H              1 S1                 0.0000
     33 ****         5.1378   0.0980   2.0008 H              1 S1                 0.0000
     34 ****         5.5211   1.9099  -0.4364 H              1 S1                 0.0000
     35 ****         7.0201  -0.2541   0.5644 H              1 S1                 0.0000
     36 ****         5.2585  -0.1406  -1.8010 H              1 S1                 0.0000
     37 ****         4.9933  -1.1046  -0.3672 H              1 S1                 0.0000
     38 ****         2.8348  -0.5846  -1.4293 H              1 S1                 0.0000
     39 ****         3.1843   1.1266  -1.4017 H              1 S1                 0.0000
     40 ****        -4.1498  -2.5705  -0.3984 LP             1 S1                 0.0000
     41 ****        -1.7176  -2.1020  -0.0314 LP             1 S1                 0.0000
     42 ****        -0.3454  -1.9907   0.0236 LP             1 S1                 0.0000
     43 ****         1.3637  -1.7986   0.2281 LP             1 S1                 0.0000
     44 ****         7.4385   1.2757   0.6874 LP             1 S1                 0.0000
     45 ****         7.3509   0.5452  -0.7705 LP             1 S1                 0.0000
@<TRIPOS>BOND
    1    1    2 1     
    2    1   20 1     
    3    1   21 1     
    4    1   22 1     
    5    2    3 1     
    6    2    4 1     
    7    2   23 1     
    8    3   24 1     
    9    3   25 1     
   10    3   26 1     
   11    4   19 1     
   12    4    5 2     
   13    5    6 1     
   14    6    7 2     
   15    7    8 1     
   16    7   19 1     
   17    8    9 am    
   18    8   27 1     
   19    9   10 2     
   20    9   11 am    
   21   11   12 1     
   22   11   28 1     
   23   12   18 1     
   24   12   13 1     
   25   12   29 1     
   26   13   14 1     
   27   13   30 1     
   28   13   31 1     
   29   14   15 1     
   30   14   32 1     
   31   14   33 1     
   32   15   16 1     
   33   15   17 1     
   34   15   34 1     
   35   16   35 1     
   36   17   18 1     
   37   17   36 1     
   38   17   37 1     
   39   18   38 1     
   40   18   39 1     
   41    5   40 1     
   42    6   41 1     
   43   10   42 1     
   44   10   43 1     
   45   16   44 1     
   46   16   45 1     
@<TRIPOS>SUBSTRUCTURE
      1 S1             1
@<TRIPOS>SET
LONE_PAIRS      STATIC     ATOMS    <user>   **** ""
6 40 41 42 43 44 45
DONOR_HYDROGENS      STATIC     ATOMS    <user>   **** ""
3 27 28 35
ATOM$BLUE        STATIC     ATOMS    COLORGROUP SYSTEM
6 40 41 42 43 44 45
ATOM$RED        STATIC     ATOMS    COLORGROUP SYSTEM
3 27 28 35
