AV-unprocessed.smi:2591|AV-procd|sdf|10153|dock7
  -GOLD-   2272014163D 1   1.00000     0.00000
 Structure written by MMmdl.
 35 36  0  0  0  0  0  0  0  0  2 V2000
  147.6675  135.6915  154.9226 C   0  0  0  0  0  0  0  0  0  0  0  0
  148.0121  136.9947  154.3154 N   0  3  1  0  0  0  0  0  0  0  0  0
  146.8195  137.7483  153.8682 C   0  0  0  0  0  0  0  0  0  0  0  0
  147.2430  139.0701  153.2095 C   0  0  0  0  0  0  0  0  0  0  0  0
  148.0213  139.8284  154.1269 O   0  0  0  0  0  0  0  0  0  0  0  0
  149.2260  139.1626  154.5056 C   0  0  1  0  0  0  0  0  0  0  0  0
  150.0445  140.0929  155.4149 C   0  0  0  0  0  0  0  0  0  0  0  0
  150.3158  141.2328  155.0359 O   0  0  0  0  0  0  0  0  0  0  0  0
  150.4018  139.5869  156.6115 N   0  0  0  0  0  0  0  0  0  0  0  0
  151.1562  140.2077  157.6422 C   0  0  0  0  0  0  0  0  0  0  0  0
  150.9768  141.6040  157.7563 C   0  0  0  0  0  0  0  0  0  0  0  0
  151.6764  142.3212  158.7499 C   0  0  0  0  0  0  0  0  0  0  0  0
  151.4910  143.8251  158.8790 C   0  0  0  0  0  0  0  0  0  0  0  0
  152.2232  144.3295  159.8727 F   0  0  0  0  0  0  0  0  0  0  0  0
  151.8538  144.4138  157.7400 F   0  0  0  0  0  0  0  0  0  0  0  0
  150.2092  144.1023  159.1167 F   0  0  0  0  0  0  0  0  0  0  0  0
  152.5462  141.6086  159.6009 C   0  0  0  0  0  0  0  0  0  0  0  0
  152.6666  140.2189  159.4195 C   0  0  0  0  0  0  0  0  0  0  0  0
  151.9933  139.5362  158.4706 N   0  0  0  0  0  0  0  0  0  0  0  0
  148.8654  137.8255  155.1956 C   0  0  0  0  0  0  0  0  0  0  0  0
  147.0741  135.8252  155.8280 H   0  0  0  0  0  0  0  0  0  0  0  0
  148.5704  135.1387  155.1835 H   0  0  0  0  0  0  0  0  0  0  0  0
  147.0936  135.0819  154.2240 H   0  0  0  0  0  0  0  0  0  0  0  0
  146.2466  137.1476  153.1609 H   0  0  0  0  0  0  0  0  0  0  0  0
  146.1695  137.9481  154.7218 H   0  0  0  0  0  0  0  0  0  0  0  0
  147.8093  138.8885  152.2947 H   0  0  0  0  0  0  0  0  0  0  0  0
  146.3629  139.6494  152.9300 H   0  0  0  0  0  0  0  0  0  0  0  0
  149.8240  138.9690  153.6133 H   0  0  0  0  0  0  0  0  0  0  0  0
  150.1085  138.6394  156.7989 H   0  0  0  0  0  0  0  0  0  0  0  0
  150.3078  142.1274  157.0882 H   0  0  0  0  0  0  0  0  0  0  0  0
  153.1106  142.1059  160.3756 H   0  0  0  0  0  0  0  0  0  0  0  0
  153.3223  139.6395  160.0524 H   0  0  0  0  0  0  0  0  0  0  0  0
  148.3423  138.0123  156.1354 H   0  0  0  0  0  0  0  0  0  0  0  0
  149.7716  137.2678  155.4378 H   0  0  0  0  0  0  0  0  0  0  0  0
  148.5567  136.7939  153.4885 H   0  0  0  0  0  0  0  0  0  0  0  0
  1  2  1  0  0  0  0
  1 21  1  0  0  0  0
  1 22  1  0  0  0  0
  1 23  1  0  0  0  0
  2 20  1  0  0  0  0
  2  3  1  0  0  0  0
  2 35  1  0  0  0  0
  3  4  1  0  0  0  0
  3 24  1  0  0  0  0
  3 25  1  0  0  0  0
  4  5  1  0  0  0  0
  4 26  1  0  0  0  0
  4 27  1  0  0  0  0
  5  6  1  0  0  0  0
  6  7  1  0  0  0  0
  6 20  1  0  0  0  0
  6 28  1  0  0  0  0
  7  8  2  0  0  0  0
  7  9  1  0  0  0  0
  9 10  1  0  0  0  0
  9 29  1  0  0  0  0
 10 19  1  0  0  0  0
 10 11  2  0  0  0  0
 11 12  1  0  0  0  0
 11 30  1  0  0  0  0
 12 13  1  0  0  0  0
 12 17  2  0  0  0  0
 13 14  1  0  0  0  0
 13 15  1  0  0  0  0
 13 16  1  0  0  0  0
 17 18  1  0  0  0  0
 17 31  1  0  0  0  0
 18 19  2  0  0  0  0
 18 32  1  0  0  0  0
 20 33  1  0  0  0  0
 20 34  1  0  0  0  0
M  CHG  1   2   1
M  END
> <s_m_source_file>
AV-unprocessed.smi

> <i_m_source_file_index>
2591

> <i_lp_mmshare_version>
43012

> <i_f3d_flags>
0

> <s_epik_input>
W0NIM11OMVtDSDJdW0NIMl1PW0NASF0oW0NIMl0xKUMoPU8pW05IXWMyW2NIXWMoQyhGKShGKUYpW2NIXVtjSF1uMg==

> <s_epik_cmdline>
J2VwaWtfcHl0aG9uJywgJy1waCcsICc3LjAnLCAnLXRuJywgJzgnLCAnLW1hJywgJzIwMCcsICctbWV0YWxfYmluZGluZycsICctaW1hZScsICc8aW5maWxlLm1hZT4nLCAnLW9tYWUnLCAnPG91dGZpbGUubWFlPic=

> <r_epik_Ionization_Penalty>
0.314028

> <r_epik_Ionization_Penalty_Charging>
0.314023

> <r_epik_Ionization_Penalty_Neutral>
5.2303e-06

> <r_epik_State_Penalty>
0.308208

> <r_epik_Charging_Adjusted_Penalty>
0.62223

> <i_epik_Tot_Q>
1

> <i_epik_Tot_abs_Q>
1

> <r_epik_Metal_State_Penalty>
0.308209

> <b_epik_Metal_Only>
0

> <s_lp_Force_Field>
OPLS_2005

> <r_lp_Energy>
17.8582

> <b_lp_Chiralities_Consistent>
1

> <s_lp_Variant>
AV-unprocessed.smi:2591-1

> <Gold.Version>
5.8.1

> <Gold.Id.Protein>
6NUR|6NUR_protein|mol2

> <Gold.PLP.Fitness>
40.4797

> <Gold.PLP.PLP>
-33.8885

> <Gold.PLP.part.hbond>
-2.0000

> <Gold.PLP.part.metal>
0.0000

> <Gold.PLP.part.buried>
-4.2788

> <Gold.PLP.part.nonpolar>
-28.4369

> <Gold.PLP.part.repulsive>
0.2736

> <Gold.PLP.ligand.clash>
0.6266

> <Gold.PLP.ligand.torsion>
0.2808

> <Gold.PLP.Chemscore.Hbond>
2.5920

> <Gold.PLP.Chemscore.CHOScore>
0.0000

> <Gold.PLP.Chemscore.Metal>
0.0000

> <Gold.Chemscore.Hbonds>
donor molecule, donor type, donor heavy atom, donor atom, acceptor molecule, acceptor atom, score
      L1  H     2    35       P1  7948  2.00
      P1  H  7989  7998       L1     8  0.58

> <Gold.PLP.Chemscore.Internal.Correction>
0.0034

> <Gold.Rescore>
     Score         DG    S(hbond)    S(metal)    S(lipo)     H(rot)  DE(clash)    DE(int)     intcor
     14.30     -15.99       1.86        0.00      58.59       1.00       0.07       1.62       ----

> <Gold.Chemscore.Fitness>
14.3041

> <Gold.Chemscore.DG>
-15.9914

> <Gold.Chemscore.ZeroCoef>
-5.4800

> <Gold.Chemscore.Hbond>
1.8612

> <Gold.Chemscore.Metal>
0.0000

> <Gold.Chemscore.Lipo>
58.5889

> <Gold.Chemscore.Internal_Hbond>
0.0000

> <Gold.Chemscore.DEClash>
0.0667

> <Gold.Chemscore.DEInternal>
1.6206

> <Gold.Chemscore.Rot>
1.0000

> <Gold.Chemscore.Internal.Correction>
   9.000000E+99

> <Gold.Chemscore.Hbonds>
donor molecule, donor type, donor heavy atom, donor atom, acceptor molecule, acceptor atom, score
      L1  H     2    35       P1  7948  1.00
      P1  H  7989  7998       L1     8  0.21

> <Gold.Chemscore.Hbond.Weighted>
-6.2165

> <Gold.Chemscore.Metal.Weighted>
-0.0000

> <Gold.Chemscore.Lipo.Weighted>
-6.8549

> <Gold.Chemscore.Internal_Hbond.Weighted>
0.0000

> <Gold.Chemscore.DEClash.Weighted>
0.0667

> <Gold.Chemscore.DEInternal.Weighted>
1.6206

> <Gold.Chemscore.Rot.Weighted>
2.5600

> <Gold.Chemscore.Internal.Correction.Weighted>
   9.000000E+99

> <Gold.Protein.RotatedTorsions>
[ 6907 6896 6895 6894 ] final   45.06 input  -60.11 | X-H torsion
[ 7974 7965 7964 7962 ] final -108.12 input  175.53 | X-H torsion
[ 8008 7997 7996 7995 ] final -121.06 input   59.86 | X-H torsion
[ 10167 10162 10161 10158 ] final  -94.38 input  -65.29 | X-H torsion
[ 10718 10713 10712 10709 ] final   73.91 input   66.30 | X-H torsion
[ 10763 10752 10751 10750 ] final  -37.98 input  -60.55 | X-H torsion
[ 11005 11000 10999 10996 ] final  -38.38 input  -57.11 | X-H torsion

> <Gold.Protein.ActiveResidues>
 VAL166  LYS551  ARG553  GLY616  TRP617  ASP618  TYR619  PRO620  LYS621  CYS622 
 ASP623  PHE694  ASN695  SER759  ASP760  ASP761  ALA762  ILE779  LEU786  VAL792 
 PHE793  MET794  SER795  GLU796  ALA797  LYS798  CYS799  TRP800  GLU811  SER814 

> <Gold.Protein.RotatedAtoms>
  152.2400  134.8238  160.0461 H   0  0  0  0  0  0  0  0  0  0  0  0  # atno 6907 bound_to 6896
  151.8956  133.3521  159.3821 H   0  0  0  0  0  0  0  0  0  0  0  0  # atno 6908 bound_to 6896
  150.7051  134.4806  159.5512 H   0  0  0  0  0  0  0  0  0  0  0  0  # atno 6909 bound_to 6896
  145.1969  140.9039  143.3392 H   0  0  0  0  0  0  0  0  0  0  0  0  # atno 7974 bound_to 7965
  155.1419  140.0402  157.2800 H   0  0  0  0  0  0  0  0  0  0  0  0  # atno 8008 bound_to 7997
  154.6467  140.2559  155.7234 H   0  0  0  0  0  0  0  0  0  0  0  0  # atno 8009 bound_to 7997
  156.2558  140.2844  156.0883 H   0  0  0  0  0  0  0  0  0  0  0  0  # atno 8010 bound_to 7997
  140.3150  143.3082  152.0108 H   0  0  0  0  0  0  0  0  0  0  0  0  # atno 10167 bound_to 10162
  157.6569  130.9652  150.1136 H   0  0  0  0  0  0  0  0  0  0  0  0  # atno 10718 bound_to 10713
  153.9053  135.6798  153.4753 H   0  0  0  0  0  0  0  0  0  0  0  0  # atno 10763 bound_to 10752
  153.1107  135.4784  154.9028 H   0  0  0  0  0  0  0  0  0  0  0  0  # atno 10764 bound_to 10752
  154.7555  135.3196  154.8433 H   0  0  0  0  0  0  0  0  0  0  0  0  # atno 10765 bound_to 10752
  141.0023  133.6949  156.2046 H   0  0  0  0  0  0  0  0  0  0  0  0  # atno 11005 bound_to 11000
  144.9986  139.3620  143.6179 LP  0  0  0  0  0  0  0  0  0  0  0  0  # atno 17320 bound_to 7965
  146.3425  139.9200  142.8768 LP  0  0  0  0  0  0  0  0  0  0  0  0  # atno 17321 bound_to 7965
  139.4886  144.6355  151.6983 LP  0  0  0  0  0  0  0  0  0  0  0  0  # atno 17342 bound_to 10162
  140.5534  144.0387  150.6137 LP  0  0  0  0  0  0  0  0  0  0  0  0  # atno 17343 bound_to 10162
  156.2026  130.3661  149.8769 LP  0  0  0  0  0  0  0  0  0  0  0  0  # atno 17370 bound_to 10713
  156.6669  130.8804  151.3556 LP  0  0  0  0  0  0  0  0  0  0  0  0  # atno 17371 bound_to 10713
  140.6869  134.4708  157.5589 LP  0  0  0  0  0  0  0  0  0  0  0  0  # atno 17394 bound_to 11000
  139.9045  134.8480  156.1760 LP  0  0  0  0  0  0  0  0  0  0  0  0  # atno 17395 bound_to 11000

$$$$
