AV-unprocessed.smi:3088|AV-procd|sdf|11768|dock3
  -GOLD-   2272017153D 1   1.00000     0.00000
 Structure written by MMmdl.
 29 30  0  0  0  0  0  0  0  0  2 V2000
  148.8965  138.6135  153.2076 N   0  3  0  0  0  0  0  0  0  0  0  0
  149.3729  138.8912  154.5730 C   0  0  0  0  0  0  0  0  0  0  0  0
  150.5868  139.8306  154.5623 C   0  0  0  0  0  0  0  0  0  0  0  0
  151.0714  140.1468  155.9447 C   0  0  0  0  0  0  0  0  0  0  0  0
  151.4569  139.2483  156.9088 C   0  0  0  0  0  0  0  0  0  0  0  0
  151.9545  140.0427  158.3777 S   0  0  0  0  0  0  0  0  0  0  0  0
  151.6140  141.5926  157.6138 C   0  0  0  0  0  0  0  0  0  0  0  0
  151.8024  142.8011  158.2779 N   0  0  0  0  0  0  0  0  0  0  0  0
  151.6387  144.1400  157.7190 C   0  0  0  0  0  0  0  0  0  0  0  0
  152.2206  145.1370  158.7181 C   0  0  0  0  0  0  0  0  0  0  0  0
  151.9950  144.4344  160.0427 C   0  0  0  0  0  0  0  0  0  0  0  0
  152.2071  142.9693  159.6703 C   0  0  0  0  0  0  0  0  0  0  0  0
  151.1678  141.4785  156.3599 N   0  0  0  0  0  0  0  0  0  0  0  0
  149.2377  139.3282  152.5807 H   0  0  0  0  0  0  0  0  0  0  0  0
  147.8865  138.6118  153.1963 H   0  0  0  0  0  0  0  0  0  0  0  0
  148.5568  139.3330  155.1455 H   0  0  0  0  0  0  0  0  0  0  0  0
  149.6273  137.9451  155.0522 H   0  0  0  0  0  0  0  0  0  0  0  0
  151.3934  139.3777  153.9841 H   0  0  0  0  0  0  0  0  0  0  0  0
  150.3278  140.7534  154.0415 H   0  0  0  0  0  0  0  0  0  0  0  0
  151.4788  138.1703  156.8467 H   0  0  0  0  0  0  0  0  0  0  0  0
  152.1285  144.2254  156.7485 H   0  0  0  0  0  0  0  0  0  0  0  0
  150.5742  144.3259  157.5722 H   0  0  0  0  0  0  0  0  0  0  0  0
  153.2899  145.2619  158.5413 H   0  0  0  0  0  0  0  0  0  0  0  0
  151.7486  146.1185  158.6651 H   0  0  0  0  0  0  0  0  0  0  0  0
  152.6672  144.7749  160.8304 H   0  0  0  0  0  0  0  0  0  0  0  0
  150.9686  144.5907  160.3775 H   0  0  0  0  0  0  0  0  0  0  0  0
  151.6418  142.3082  160.3279 H   0  0  0  0  0  0  0  0  0  0  0  0
  153.2610  142.7031  159.7571 H   0  0  0  0  0  0  0  0  0  0  0  0
  149.2380  137.7118  152.9069 H   0  0  0  0  0  0  0  0  0  0  0  0
  1  2  1  0  0  0  0
  1 14  1  0  0  0  0
  1 15  1  0  0  0  0
  1 29  1  0  0  0  0
  2  3  1  0  0  0  0
  2 16  1  0  0  0  0
  2 17  1  0  0  0  0
  3  4  1  0  0  0  0
  3 18  1  0  0  0  0
  3 19  1  0  0  0  0
  4 13  1  0  0  0  0
  4  5  2  0  0  0  0
  5  6  1  0  0  0  0
  5 20  1  0  0  0  0
  6  7  1  0  0  0  0
  7  8  1  0  0  0  0
  7 13  2  0  0  0  0
  8 12  1  0  0  0  0
  8  9  1  0  0  0  0
  9 10  1  0  0  0  0
  9 21  1  0  0  0  0
  9 22  1  0  0  0  0
 10 11  1  0  0  0  0
 10 23  1  0  0  0  0
 10 24  1  0  0  0  0
 11 12  1  0  0  0  0
 11 25  1  0  0  0  0
 11 26  1  0  0  0  0
 12 27  1  0  0  0  0
 12 28  1  0  0  0  0
M  CHG  1   1   1
M  END
> <s_m_source_file>
AV-unprocessed.smi

> <i_m_source_file_index>
3088

> <i_lp_mmshare_version>
43012

> <i_f3d_flags>
0

> <s_epik_input>
W05IMl1bQ0gyXVtDSDJdYzFbY0hdc2MobjEpTjJbQ0gyXVtDSDJdW0NIMl1bQ0gyXTI=

> <s_epik_cmdline>
J2VwaWtfcHl0aG9uJywgJy1waCcsICc3LjAnLCAnLXRuJywgJzgnLCAnLW1hJywgJzIwMCcsICctbWV0YWxfYmluZGluZycsICctaW1hZScsICc8aW5maWxlLm1hZT4nLCAnLW9tYWUnLCAnPG91dGZpbGUubWFlPic=

> <r_epik_Ionization_Penalty>
0.0059221

> <r_epik_Ionization_Penalty_Charging>
0.00199846

> <r_epik_Ionization_Penalty_Neutral>
0.00392364

> <r_epik_State_Penalty>
0.00774005

> <r_epik_Charging_Adjusted_Penalty>
0.00973852

> <i_epik_Tot_Q>
1

> <i_epik_Tot_abs_Q>
1

> <r_epik_Metal_State_Penalty>
7.11937e-06

> <b_epik_Metal_Only>
0

> <s_lp_Force_Field>
OPLS_2005

> <r_lp_Energy>
15.4389

> <b_lp_Chiralities_Consistent>
1

> <s_lp_Variant>
AV-unprocessed.smi:3088-1

> <Gold.Version>
5.8.1

> <Gold.Id.Protein>
6NUR|6NUR_protein|mol2

> <Gold.PLP.Fitness>
41.3385

> <Gold.PLP.PLP>
-32.3821

> <Gold.PLP.part.hbond>
-2.0000

> <Gold.PLP.part.metal>
0.0000

> <Gold.PLP.part.buried>
-2.0168

> <Gold.PLP.part.nonpolar>
-29.0903

> <Gold.PLP.part.repulsive>
0.1240

> <Gold.PLP.ligand.clash>
0.0000

> <Gold.PLP.ligand.torsion>
0.0229

> <Gold.PLP.Chemscore.Hbond>
3.0000

> <Gold.PLP.Chemscore.CHOScore>
0.0000

> <Gold.PLP.Chemscore.Metal>
0.0000

> <Gold.Chemscore.Hbonds>
donor molecule, donor type, donor heavy atom, donor atom, acceptor molecule, acceptor atom, score
      L1  H     1    14       P1  7957  1.00
      L1  H     1    29       P1  7948  1.92

> <Gold.PLP.Chemscore.Internal.Correction>
0.0022

> <Gold.Rescore>
     Score         DG    S(hbond)    S(metal)    S(lipo)     H(rot)  DE(clash)    DE(int)     intcor
     17.58     -17.83       1.92        0.00      79.50       1.32       0.24       0.02       ----

> <Gold.Chemscore.Fitness>
17.5750

> <Gold.Chemscore.DG>
-17.8327

> <Gold.Chemscore.ZeroCoef>
-5.4800

> <Gold.Chemscore.Hbond>
1.9224

> <Gold.Chemscore.Metal>
0.0000

> <Gold.Chemscore.Lipo>
79.5048

> <Gold.Chemscore.Internal_Hbond>
0.0000

> <Gold.Chemscore.DEClash>
0.2386

> <Gold.Chemscore.DEInternal>
0.0191

> <Gold.Chemscore.Rot>
1.3164

> <Gold.Chemscore.Internal.Correction>
   9.000000E+99

> <Gold.Chemscore.Hbonds>
donor molecule, donor type, donor heavy atom, donor atom, acceptor molecule, acceptor atom, score
      L1  H     1    14       P1  7957  0.98
      L1  H     1    29       P1  7948  0.90

> <Gold.Chemscore.Hbond.Weighted>
-6.4207

> <Gold.Chemscore.Metal.Weighted>
-0.0000

> <Gold.Chemscore.Lipo.Weighted>
-9.3021

> <Gold.Chemscore.Internal_Hbond.Weighted>
0.0000

> <Gold.Chemscore.DEClash.Weighted>
0.2386

> <Gold.Chemscore.DEInternal.Weighted>
0.0191

> <Gold.Chemscore.Rot.Weighted>
3.3700

> <Gold.Chemscore.Internal.Correction.Weighted>
   9.000000E+99

> <Gold.Protein.RotatedTorsions>
[ 6907 6896 6895 6894 ] final -165.23 input  -60.11 | X-H torsion
[ 7974 7965 7964 7962 ] final -170.46 input  175.53 | X-H torsion
[ 8008 7997 7996 7995 ] final  126.89 input   59.86 | X-H torsion
[ 10167 10162 10161 10158 ] final   -4.05 input  -65.29 | X-H torsion
[ 10718 10713 10712 10709 ] final -177.20 input   66.30 | X-H torsion
[ 10763 10752 10751 10750 ] final   99.19 input  -60.55 | X-H torsion
[ 11005 11000 10999 10996 ] final  -16.50 input  -57.11 | X-H torsion

> <Gold.Protein.ActiveResidues>
 VAL166  LYS551  ARG553  GLY616  TRP617  ASP618  TYR619  PRO620  LYS621  CYS622 
 ASP623  PHE694  ASN695  SER759  ASP760  ASP761  ALA762  ILE779  LEU786  VAL792 
 PHE793  MET794  SER795  GLU796  ALA797  LYS798  CYS799  TRP800  GLU811  SER814 

> <Gold.Protein.RotatedAtoms>
  151.4244  133.3688  159.2760 H   0  0  0  0  0  0  0  0  0  0  0  0  # atno 6907 bound_to 6896
  150.9270  134.8688  159.7537 H   0  0  0  0  0  0  0  0  0  0  0  0  # atno 6908 bound_to 6896
  152.5010  134.4186  159.9525 H   0  0  0  0  0  0  0  0  0  0  0  0  # atno 6909 bound_to 6896
  144.7170  140.2069  143.6332 H   0  0  0  0  0  0  0  0  0  0  0  0  # atno 7974 bound_to 7965
  156.2876  140.2682  156.2185 H   0  0  0  0  0  0  0  0  0  0  0  0  # atno 8008 bound_to 7997
  155.0192  140.0386  157.2448 H   0  0  0  0  0  0  0  0  0  0  0  0  # atno 8009 bound_to 7997
  154.7450  140.2732  155.6345 H   0  0  0  0  0  0  0  0  0  0  0  0  # atno 8010 bound_to 7997
  140.6913  143.6469  150.8385 H   0  0  0  0  0  0  0  0  0  0  0  0  # atno 10167 bound_to 10162
  156.8260  130.9636  151.3109 H   0  0  0  0  0  0  0  0  0  0  0  0  # atno 10718 bound_to 10713
  153.2984  135.4122  155.1230 H   0  0  0  0  0  0  0  0  0  0  0  0  # atno 10763 bound_to 10752
  154.8542  135.3535  154.5885 H   0  0  0  0  0  0  0  0  0  0  0  0  # atno 10764 bound_to 10752
  153.6310  135.7061  153.5334 H   0  0  0  0  0  0  0  0  0  0  0  0  # atno 10765 bound_to 10752
  140.8074  133.8167  155.9529 H   0  0  0  0  0  0  0  0  0  0  0  0  # atno 11005 bound_to 11000
  145.8627  139.2231  143.1707 LP  0  0  0  0  0  0  0  0  0  0  0  0  # atno 17320 bound_to 7965
  146.0158  140.8394  142.9948 LP  0  0  0  0  0  0  0  0  0  0  0  0  # atno 17321 bound_to 7965
  140.0182  143.5570  152.2811 LP  0  0  0  0  0  0  0  0  0  0  0  0  # atno 17342 bound_to 10162
  139.6319  144.7645  151.2519 LP  0  0  0  0  0  0  0  0  0  0  0  0  # atno 17343 bound_to 10162
  157.6432  130.8822  149.9488 LP  0  0  0  0  0  0  0  0  0  0  0  0  # atno 17370 bound_to 10713
  156.0961  130.3659  150.0303 LP  0  0  0  0  0  0  0  0  0  0  0  0  # atno 17371 bound_to 10713
  140.9233  134.2114  157.4912 LP  0  0  0  0  0  0  0  0  0  0  0  0  # atno 17394 bound_to 11000
  139.8716  134.9801  156.5065 LP  0  0  0  0  0  0  0  0  0  0  0  0  # atno 17395 bound_to 11000

$$$$
