AV-unprocessed.smi:888|AV-procd|sdf|4055|dock4
  -GOLD-   22720 1543D 1   1.00000     0.00000
 Structure written by MMmdl.
 45 46  0  0  0  0  0  0  0  0  1 V2000
  150.3100  140.6739  157.3720 C   0  0  0  0  0  0  0  0  0  0  0  0
  151.5832  140.5984  156.5227 C   0  0  0  0  0  0  0  0  0  0  0  0
  151.7278  139.2862  155.8158 C   0  0  0  0  0  0  0  0  0  0  0  0
  152.7715  138.4666  155.9917 N   0  0  0  0  0  0  0  0  0  0  0  0
  152.5253  137.3716  155.1873 N   0  0  0  0  0  0  0  0  0  0  0  0
  151.3529  137.6355  154.6123 C   0  0  0  0  0  0  0  0  0  0  0  0
  150.7988  138.8063  154.9622 N   0  0  0  0  0  0  0  0  0  0  0  0
  149.5381  139.3725  154.5194 C   0  0  0  0  0  0  0  0  0  0  0  0
  148.3427  138.5817  155.0669 C   0  0  0  0  0  0  0  0  0  0  0  0
  147.9962  137.4897  154.1621 N   0  0  0  0  0  0  0  0  0  0  0  0
  146.8736  136.7513  154.1741 C   0  0  0  0  0  0  0  0  0  0  0  0
  145.9846  136.9355  155.0031 O   0  0  0  0  0  0  0  0  0  0  0  0
  146.8197  135.8067  153.2190 N   0  0  0  0  0  0  0  0  0  0  0  0
  145.7194  134.8654  153.0018 C   0  0  1  0  0  0  0  0  0  0  0  0
  144.5624  135.6005  152.3002 C   0  0  0  0  0  0  0  0  0  0  0  0
  144.6106  135.1979  150.8197 C   0  0  0  0  0  0  0  0  0  0  0  0
  145.8336  134.2893  150.6630 C   0  0  0  0  0  0  0  0  0  0  0  0
  146.1016  133.6965  152.0557 C   0  0  0  0  0  0  0  0  0  0  0  0
  147.5603  133.2080  152.1899 C   0  0  0  0  0  0  0  0  0  0  0  0
  145.1644  132.4946  152.3046 C   0  0  0  0  0  0  0  0  0  0  0  0
  150.2371  141.6375  157.8765 H   0  0  0  0  0  0  0  0  0  0  0  0
  150.3003  139.8957  158.1358 H   0  0  0  0  0  0  0  0  0  0  0  0
  149.4182  140.5513  156.7572 H   0  0  0  0  0  0  0  0  0  0  0  0
  151.5990  141.4120  155.7977 H   0  0  0  0  0  0  0  0  0  0  0  0
  152.4556  140.7455  157.1602 H   0  0  0  0  0  0  0  0  0  0  0  0
  150.8838  136.9540  153.9177 H   0  0  0  0  0  0  0  0  0  0  0  0
  149.4905  140.4101  154.8529 H   0  0  0  0  0  0  0  0  0  0  0  0
  149.5230  139.3933  153.4291 H   0  0  0  0  0  0  0  0  0  0  0  0
  148.5811  138.1766  156.0517 H   0  0  0  0  0  0  0  0  0  0  0  0
  147.4827  139.2428  155.1864 H   0  0  0  0  0  0  0  0  0  0  0  0
  148.6798  137.2658  153.4532 H   0  0  0  0  0  0  0  0  0  0  0  0
  147.6048  135.7325  152.5889 H   0  0  0  0  0  0  0  0  0  0  0  0
  145.3766  134.4854  153.9662 H   0  0  0  0  0  0  0  0  0  0  0  0
  143.6094  135.2884  152.7292 H   0  0  0  0  0  0  0  0  0  0  0  0
  144.6209  136.6829  152.4246 H   0  0  0  0  0  0  0  0  0  0  0  0
  143.7027  134.6548  150.5549 H   0  0  0  0  0  0  0  0  0  0  0  0
  144.6731  136.0658  150.1627 H   0  0  0  0  0  0  0  0  0  0  0  0
  145.6886  133.5271  149.8965 H   0  0  0  0  0  0  0  0  0  0  0  0
  146.6839  134.8978  150.3511 H   0  0  0  0  0  0  0  0  0  0  0  0
  147.7565  132.3712  151.5188 H   0  0  0  0  0  0  0  0  0  0  0  0
  147.7704  132.8709  153.2055 H   0  0  0  0  0  0  0  0  0  0  0  0
  148.2817  133.9875  151.9434 H   0  0  0  0  0  0  0  0  0  0  0  0
  145.3518  131.6914  151.5911 H   0  0  0  0  0  0  0  0  0  0  0  0
  144.1125  132.7677  152.2170 H   0  0  0  0  0  0  0  0  0  0  0  0
  145.3104  132.0837  153.3041 H   0  0  0  0  0  0  0  0  0  0  0  0
  1  2  1  0  0  0  0
  1 21  1  0  0  0  0
  1 22  1  0  0  0  0
  1 23  1  0  0  0  0
  2  3  1  0  0  0  0
  2 24  1  0  0  0  0
  2 25  1  0  0  0  0
  3  7  1  0  0  0  0
  3  4  2  0  0  0  0
  4  5  1  0  0  0  0
  5  6  2  0  0  0  0
  6  7  1  0  0  0  0
  6 26  1  0  0  0  0
  7  8  1  0  0  0  0
  8  9  1  0  0  0  0
  8 27  1  0  0  0  0
  8 28  1  0  0  0  0
  9 10  1  0  0  0  0
  9 29  1  0  0  0  0
  9 30  1  0  0  0  0
 10 11  1  0  0  0  0
 10 31  1  0  0  0  0
 11 12  2  0  0  0  0
 11 13  1  0  0  0  0
 13 14  1  0  0  0  0
 13 32  1  0  0  0  0
 14 18  1  0  0  0  0
 14 15  1  0  0  0  0
 14 33  1  0  0  0  0
 15 16  1  0  0  0  0
 15 34  1  0  0  0  0
 15 35  1  0  0  0  0
 16 17  1  0  0  0  0
 16 36  1  0  0  0  0
 16 37  1  0  0  0  0
 17 18  1  0  0  0  0
 17 38  1  0  0  0  0
 17 39  1  0  0  0  0
 18 19  1  0  0  0  0
 18 20  1  0  0  0  0
 19 40  1  0  0  0  0
 19 41  1  0  0  0  0
 19 42  1  0  0  0  0
 20 43  1  0  0  0  0
 20 44  1  0  0  0  0
 20 45  1  0  0  0  0
M  END
> <s_m_source_file>
AV-unprocessed.smi

> <i_m_source_file_index>
888

> <i_lp_mmshare_version>
43012

> <i_f3d_flags>
0

> <s_epik_input>
W0NIM11bQ0gyXWMxbm5bY0hdbjFbQ0gyXVtDSDJdW05IXUMoPU8pW05IXVtDQEBIXShDMihbQ0gzXSlbQ0gzXSlbQ0gyXVtDSDJdW0NIMl0y

> <s_epik_cmdline>
J2VwaWtfcHl0aG9uJywgJy1waCcsICc3LjAnLCAnLXRuJywgJzgnLCAnLW1hJywgJzIwMCcsICctbWV0YWxfYmluZGluZycsICctaW1hZScsICc8aW5maWxlLm1hZT4nLCAnLW9tYWUnLCAnPG91dGZpbGUubWFlPic=

> <r_lp_tautomer_probability>
1

> <r_epik_Ionization_Penalty>
0.000379534

> <r_epik_Ionization_Penalty_Charging>
0

> <r_epik_Ionization_Penalty_Neutral>
0.000379534

> <r_epik_State_Penalty>
-0

> <r_epik_Charging_Adjusted_Penalty>
0

> <i_epik_Tot_Q>
0

> <i_epik_Tot_abs_Q>
0

> <r_epik_Metal_State_Penalty>
-0

> <b_epik_Metal_Only>
0

> <s_lp_Force_Field>
OPLS_2005

> <r_lp_Energy>
32.1677

> <b_lp_Chiralities_Consistent>
1

> <s_lp_Variant>
AV-unprocessed.smi:888-2

> <Gold.Version>
5.8.1

> <Gold.Id.Protein>
6NUR|6NUR_protein|mol2

> <Gold.PLP.Fitness>
44.8745

> <Gold.PLP.PLP>
-32.9893

> <Gold.PLP.part.hbond>
-3.8381

> <Gold.PLP.part.metal>
0.0000

> <Gold.PLP.part.buried>
-3.2535

> <Gold.PLP.part.nonpolar>
-25.9769

> <Gold.PLP.part.repulsive>
0.0820

> <Gold.PLP.ligand.clash>
0.0000

> <Gold.PLP.ligand.torsion>
0.5237

> <Gold.PLP.Chemscore.Hbond>
3.2333

> <Gold.PLP.Chemscore.CHOScore>
1.0695

> <Gold.PLP.Chemscore.Metal>
0.0000

> <Gold.Chemscore.Hbonds>
donor molecule, donor type, donor heavy atom, donor atom, acceptor molecule, acceptor atom, score
      L1  H    10    31       P1  7948  0.88
      L1  H    13    32       P1  7948  1.00
      P1  H  7997  8008       L1     4  0.26
      P1  H 10752 10763       L1     5  0.59
      L1  C     6    26       P1  7948  0.08
      L1  C     6    26       P1  7949  0.72

> <Gold.PLP.Chemscore.Internal.Correction>
0.0242

> <Gold.Rescore>
     Score         DG    S(hbond)    S(metal)    S(lipo)     H(rot)  DE(clash)    DE(int)     intcor
     15.38     -16.08       2.87        0.00      53.03       2.03       0.26       0.44       ----

> <Gold.Chemscore.Fitness>
15.3827

> <Gold.Chemscore.DG>
-16.0833

> <Gold.Chemscore.ZeroCoef>
-5.4800

> <Gold.Chemscore.Hbond>
2.8724

> <Gold.Chemscore.Metal>
0.0000

> <Gold.Chemscore.Lipo>
53.0291

> <Gold.Chemscore.Internal_Hbond>
0.0000

> <Gold.Chemscore.DEClash>
0.2598

> <Gold.Chemscore.DEInternal>
0.4409

> <Gold.Chemscore.Rot>
2.0293

> <Gold.Chemscore.Internal.Correction>
   9.000000E+99

> <Gold.Chemscore.Hbonds>
donor molecule, donor type, donor heavy atom, donor atom, acceptor molecule, acceptor atom, score
      L1  H    10    31       P1  7948  0.86
      L1  H    13    32       P1  7948  0.97
      P1  H  7997  8008       L1     4  0.04
      P1  H 10752 10763       L1     5  0.26

> <Gold.Chemscore.Hbond.Weighted>
-9.5940

> <Gold.Chemscore.Metal.Weighted>
-0.0000

> <Gold.Chemscore.Lipo.Weighted>
-6.2044

> <Gold.Chemscore.Internal_Hbond.Weighted>
0.0000

> <Gold.Chemscore.DEClash.Weighted>
0.2598

> <Gold.Chemscore.DEInternal.Weighted>
0.4409

> <Gold.Chemscore.Rot.Weighted>
5.1950

> <Gold.Chemscore.Internal.Correction.Weighted>
   9.000000E+99

> <Gold.Protein.RotatedTorsions>
[ 6907 6896 6895 6894 ] final -151.94 input  -60.11 | X-H torsion
[ 7974 7965 7964 7962 ] final  -30.76 input  175.53 | X-H torsion
[ 8008 7997 7996 7995 ] final  -35.80 input   59.86 | X-H torsion
[ 10167 10162 10161 10158 ] final   68.97 input  -65.29 | X-H torsion
[ 10718 10713 10712 10709 ] final  -75.56 input   66.30 | X-H torsion
[ 10763 10752 10751 10750 ] final   56.86 input  -60.55 | X-H torsion
[ 11005 11000 10999 10996 ] final  -23.36 input  -57.11 | X-H torsion

> <Gold.Protein.ActiveResidues>
 VAL166  LYS551  ARG553  GLY616  TRP617  ASP618  TYR619  PRO620  LYS621  CYS622 
 ASP623  PHE694  ASN695  SER759  ASP760  ASP761  ALA762  ILE779  LEU786  VAL792 
 PHE793  MET794  SER795  GLU796  ALA797  LYS798  CYS799  TRP800  GLU811  SER814 

> <Gold.Protein.RotatedAtoms>
  151.2204  133.4505  159.2600 H   0  0  0  0  0  0  0  0  0  0  0  0  # atno 6907 bound_to 6896
  151.0890  134.9904  159.8403 H   0  0  0  0  0  0  0  0  0  0  0  0  # atno 6908 bound_to 6896
  152.5432  134.2139  159.8814 H   0  0  0  0  0  0  0  0  0  0  0  0  # atno 6909 bound_to 6896
  146.1118  140.5582  142.8774 H   0  0  0  0  0  0  0  0  0  0  0  0  # atno 7974 bound_to 7965
  154.4087  140.1647  156.2270 H   0  0  0  0  0  0  0  0  0  0  0  0  # atno 8008 bound_to 7997
  155.9315  140.3414  155.6230 H   0  0  0  0  0  0  0  0  0  0  0  0  # atno 8009 bound_to 7997
  155.7101  140.0755  157.2365 H   0  0  0  0  0  0  0  0  0  0  0  0  # atno 8010 bound_to 7997
  140.0729  144.5137  150.7215 H   0  0  0  0  0  0  0  0  0  0  0  0  # atno 10167 bound_to 10162
  156.0203  130.4444  150.3061 H   0  0  0  0  0  0  0  0  0  0  0  0  # atno 10718 bound_to 10713
  152.9839  135.5661  154.5297 H   0  0  0  0  0  0  0  0  0  0  0  0  # atno 10763 bound_to 10752
  154.4771  135.2787  155.1601 H   0  0  0  0  0  0  0  0  0  0  0  0  # atno 10764 bound_to 10752
  154.3125  135.6285  153.5525 H   0  0  0  0  0  0  0  0  0  0  0  0  # atno 10765 bound_to 10752
  140.8744  133.7697  156.0226 H   0  0  0  0  0  0  0  0  0  0  0  0  # atno 11005 bound_to 11000
  144.7518  140.5210  143.6796 LP  0  0  0  0  0  0  0  0  0  0  0  0  # atno 17320 bound_to 7965
  145.5647  139.1481  143.3321 LP  0  0  0  0  0  0  0  0  0  0  0  0  # atno 17321 bound_to 7965
  140.7117  143.2510  151.4562 LP  0  0  0  0  0  0  0  0  0  0  0  0  # atno 17342 bound_to 10162
  139.5825  144.1677  152.1987 LP  0  0  0  0  0  0  0  0  0  0  0  0  # atno 17343 bound_to 10162
  157.1163  131.0235  151.3027 LP  0  0  0  0  0  0  0  0  0  0  0  0  # atno 17370 bound_to 10713
  157.4664  130.7683  149.7283 LP  0  0  0  0  0  0  0  0  0  0  0  0  # atno 17371 bound_to 10713
  140.8535  134.2926  157.5265 LP  0  0  0  0  0  0  0  0  0  0  0  0  # atno 17394 bound_to 11000
  139.8714  134.9480  156.3984 LP  0  0  0  0  0  0  0  0  0  0  0  0  # atno 17395 bound_to 11000

$$$$
