AV-unprocessed.smi:1601|AV-procd|sdf|6437|dock3
  -GOLD-   22720 7 83D 1   1.00000     0.00000
 Structure written by MMmdl.
 42 43  0  0  0  0  0  0  0  0  2 V2000
  144.4594  137.2751  152.8561 C   0  0  0  0  0  0  0  0  0  0  0  0
  146.0069  137.2375  152.8194 C   0  0  2  0  0  0  0  0  0  0  0  0
  146.5481  138.3675  151.8963 C   0  0  0  0  0  0  0  0  0  0  0  0
  147.6175  139.1513  152.5091 N   0  0  0  0  0  0  0  0  0  0  0  0
  147.4989  139.8607  153.6430 C   0  0  0  0  0  0  0  0  0  0  0  0
  146.4538  139.9138  154.2922 O   0  0  0  0  0  0  0  0  0  0  0  0
  148.7481  140.6297  154.1012 C   0  0  1  0  0  0  0  0  0  0  0  0
  148.4225  141.7176  155.1451 C   0  0  0  0  0  0  0  0  0  0  0  0
  149.7733  139.7030  154.5681 N   0  0  0  0  0  0  0  0  0  0  0  0
  150.3154  138.6281  153.8931 C   0  0  0  0  0  0  0  0  0  0  0  0
  151.2134  138.0280  154.7283 C   0  0  0  0  0  0  0  0  0  0  0  0
  151.1435  138.8078  155.9158 C   0  0  0  0  0  0  0  0  0  0  0  0
  150.2757  139.8014  155.8213 N   0  0  0  0  0  0  0  0  0  0  0  0
  146.5048  135.8744  152.4332 N   0  3  0  0  0  0  0  0  0  0  0  0
  146.4919  134.8733  153.5372 C   0  0  0  0  0  0  0  0  0  0  0  0
  147.0078  133.5028  153.0658 C   0  0  0  0  0  0  0  0  0  0  0  0
  146.2382  133.0489  151.9643 O   0  0  0  0  0  0  0  0  0  0  0  0
  146.3536  133.9316  150.8602 C   0  0  0  0  0  0  0  0  0  0  0  0
  145.8010  135.3135  151.2452 C   0  0  0  0  0  0  0  0  0  0  0  0
  144.0778  138.2700  153.0826 H   0  0  0  0  0  0  0  0  0  0  0  0
  144.0431  136.6301  153.6279 H   0  0  0  0  0  0  0  0  0  0  0  0
  144.0348  136.9729  151.8983 H   0  0  0  0  0  0  0  0  0  0  0  0
  146.3715  137.4362  153.8285 H   0  0  0  0  0  0  0  0  0  0  0  0
  146.9488  137.9703  150.9637 H   0  0  0  0  0  0  0  0  0  0  0  0
  145.7409  139.0489  151.6260 H   0  0  0  0  0  0  0  0  0  0  0  0
  148.5096  139.1581  152.0358 H   0  0  0  0  0  0  0  0  0  0  0  0
  149.1545  141.1406  153.2265 H   0  0  0  0  0  0  0  0  0  0  0  0
  147.6949  142.4306  154.7556 H   0  0  0  0  0  0  0  0  0  0  0  0
  149.3181  142.2790  155.4122 H   0  0  0  0  0  0  0  0  0  0  0  0
  148.0111  141.2971  156.0637 H   0  0  0  0  0  0  0  0  0  0  0  0
  150.0214  138.3828  152.8832 H   0  0  0  0  0  0  0  0  0  0  0  0
  151.8252  137.1619  154.5240 H   0  0  0  0  0  0  0  0  0  0  0  0
  151.6909  138.6800  156.8379 H   0  0  0  0  0  0  0  0  0  0  0  0
  147.1362  135.1872  154.3569 H   0  0  0  0  0  0  0  0  0  0  0  0
  145.4794  134.7776  153.9324 H   0  0  0  0  0  0  0  0  0  0  0  0
  148.0629  133.5564  152.7919 H   0  0  0  0  0  0  0  0  0  0  0  0
  146.9280  132.7748  153.8734 H   0  0  0  0  0  0  0  0  0  0  0  0
  147.3935  134.0023  150.5367 H   0  0  0  0  0  0  0  0  0  0  0  0
  145.7879  133.5227  150.0229 H   0  0  0  0  0  0  0  0  0  0  0  0
  144.7328  135.2391  151.4554 H   0  0  0  0  0  0  0  0  0  0  0  0
  145.9123  135.9612  150.3782 H   0  0  0  0  0  0  0  0  0  0  0  0
  147.4733  135.9877  152.1701 H   0  0  0  0  0  0  0  0  0  0  0  0
  1  2  1  0  0  0  0
  1 20  1  0  0  0  0
  1 21  1  0  0  0  0
  1 22  1  0  0  0  0
  2  3  1  0  0  0  0
  2 14  1  0  0  0  0
  2 23  1  0  0  0  0
  3  4  1  0  0  0  0
  3 24  1  0  0  0  0
  3 25  1  0  0  0  0
  4  5  1  0  0  0  0
  4 26  1  0  0  0  0
  5  6  2  0  0  0  0
  5  7  1  0  0  0  0
  7  8  1  0  0  0  0
  7  9  1  0  0  0  0
  7 27  1  0  0  0  0
  8 28  1  0  0  0  0
  8 29  1  0  0  0  0
  8 30  1  0  0  0  0
  9 13  1  0  0  0  0
  9 10  1  0  0  0  0
 10 11  2  0  0  0  0
 10 31  1  0  0  0  0
 11 12  1  0  0  0  0
 11 32  1  0  0  0  0
 12 13  2  0  0  0  0
 12 33  1  0  0  0  0
 14 19  1  0  0  0  0
 14 15  1  0  0  0  0
 14 42  1  0  0  0  0
 15 16  1  0  0  0  0
 15 34  1  0  0  0  0
 15 35  1  0  0  0  0
 16 17  1  0  0  0  0
 16 36  1  0  0  0  0
 16 37  1  0  0  0  0
 17 18  1  0  0  0  0
 18 19  1  0  0  0  0
 18 38  1  0  0  0  0
 18 39  1  0  0  0  0
 19 40  1  0  0  0  0
 19 41  1  0  0  0  0
M  CHG  1  14   1
M  END
> <s_m_source_file>
AV-unprocessed.smi

> <i_m_source_file_index>
1601

> <i_lp_mmshare_version>
43012

> <i_f3d_flags>
0

> <s_epik_input>
W0NIMl0xW0NIMl1PW0NIMl1bQ0gyXU4xW0NASF0oW0NIM10pW0NIMl1bTkhdQyg9TylbQ0BIXShbQ0gzXSluMltjSF1bY0hdW2NIXW4y

> <s_epik_cmdline>
J2VwaWtfcHl0aG9uJywgJy1waCcsICc3LjAnLCAnLXRuJywgJzgnLCAnLW1hJywgJzIwMCcsICctbWV0YWxfYmluZGluZycsICctaW1hZScsICc8aW5maWxlLm1hZT4nLCAnLW9tYWUnLCAnPG91dGZpbGUubWFlPic=

> <r_lp_tautomer_probability>
1

> <r_epik_Ionization_Penalty>
0.732551

> <r_epik_Ionization_Penalty_Charging>
0.732531

> <r_epik_Ionization_Penalty_Neutral>
2.04647e-05

> <r_epik_State_Penalty>
0.757939

> <r_epik_Charging_Adjusted_Penalty>
1.49047

> <i_epik_Tot_Q>
1

> <i_epik_Tot_abs_Q>
1

> <r_epik_Metal_State_Penalty>
0.757952

> <b_epik_Metal_Only>
0

> <s_lp_Force_Field>
OPLS_2005

> <r_lp_Energy>
24.7345

> <b_lp_Chiralities_Consistent>
1

> <s_lp_Variant>
AV-unprocessed.smi:1601-7

> <Gold.Version>
5.8.1

> <Gold.Id.Protein>
6NUR|6NUR_protein|mol2

> <Gold.PLP.Fitness>
43.6440

> <Gold.PLP.PLP>
-31.4937

> <Gold.PLP.part.hbond>
-2.2513

> <Gold.PLP.part.metal>
0.0000

> <Gold.PLP.part.buried>
-0.7262

> <Gold.PLP.part.nonpolar>
-28.2938

> <Gold.PLP.part.repulsive>
0.3403

> <Gold.PLP.ligand.clash>
0.0000

> <Gold.PLP.ligand.torsion>
1.3157

> <Gold.PLP.Chemscore.Hbond>
2.9920

> <Gold.PLP.Chemscore.CHOScore>
1.8820

> <Gold.PLP.Chemscore.Metal>
0.0000

> <Gold.Chemscore.Hbonds>
donor molecule, donor type, donor heavy atom, donor atom, acceptor molecule, acceptor atom, score
      L1  H     4    26       P1  7957  0.94
      L1  H    14    42       P1  7948  1.92
      L1  C    10    31       P1  7948  0.93
      L1  C    10    31       P1  7957  0.89

> <Gold.PLP.Chemscore.Internal.Correction>
0.1597

> <Gold.Rescore>
     Score         DG    S(hbond)    S(metal)    S(lipo)     H(rot)  DE(clash)    DE(int)     intcor
     14.65     -15.89       1.96        0.00      73.79       1.86       0.11       1.13       ----

> <Gold.Chemscore.Fitness>
14.6529

> <Gold.Chemscore.DG>
-15.8883

> <Gold.Chemscore.ZeroCoef>
-5.4800

> <Gold.Chemscore.Hbond>
1.9593

> <Gold.Chemscore.Metal>
0.0000

> <Gold.Chemscore.Lipo>
73.7946

> <Gold.Chemscore.Internal_Hbond>
0.0000

> <Gold.Chemscore.DEClash>
0.1080

> <Gold.Chemscore.DEInternal>
1.1273

> <Gold.Chemscore.Rot>
1.8631

> <Gold.Chemscore.Internal.Correction>
   9.000000E+99

> <Gold.Chemscore.Hbonds>
donor molecule, donor type, donor heavy atom, donor atom, acceptor molecule, acceptor atom, score
      L1  H     4    26       P1  7957  0.90
      L1  H    14    42       P1  7948  0.90

> <Gold.Chemscore.Hbond.Weighted>
-6.5440

> <Gold.Chemscore.Metal.Weighted>
-0.0000

> <Gold.Chemscore.Lipo.Weighted>
-8.6340

> <Gold.Chemscore.Internal_Hbond.Weighted>
0.0000

> <Gold.Chemscore.DEClash.Weighted>
0.1080

> <Gold.Chemscore.DEInternal.Weighted>
1.1273

> <Gold.Chemscore.Rot.Weighted>
4.7697

> <Gold.Chemscore.Internal.Correction.Weighted>
   9.000000E+99

> <Gold.Protein.RotatedTorsions>
[ 6907 6896 6895 6894 ] final -176.51 input  -60.11 | X-H torsion
[ 7974 7965 7964 7962 ] final  131.07 input  175.53 | X-H torsion
[ 8008 7997 7996 7995 ] final  -78.90 input   59.86 | X-H torsion
[ 10167 10162 10161 10158 ] final  -52.33 input  -65.29 | X-H torsion
[ 10718 10713 10712 10709 ] final -103.73 input   66.30 | X-H torsion
[ 10763 10752 10751 10750 ] final  -93.24 input  -60.55 | X-H torsion
[ 11005 11000 10999 10996 ] final  159.58 input  -57.11 | X-H torsion

> <Gold.Protein.ActiveResidues>
 VAL166  LYS551  ARG553  GLY616  TRP617  ASP618  TYR619  PRO620  LYS621  CYS622 
 ASP623  PHE694  ASN695  SER759  ASP760  ASP761  ALA762  ILE779  LEU786  VAL792 
 PHE793  MET794  SER795  GLU796  ALA797  LYS798  CYS799  TRP800  GLU811  SER814 

> <Gold.Protein.RotatedAtoms>
  151.6060  133.3352  159.3057 H   0  0  0  0  0  0  0  0  0  0  0  0  # atno 6907 bound_to 6896
  150.8182  134.7379  159.6760 H   0  0  0  0  0  0  0  0  0  0  0  0  # atno 6908 bound_to 6896
  152.4277  134.5842  160.0008 H   0  0  0  0  0  0  0  0  0  0  0  0  # atno 6909 bound_to 6896
  145.0112  139.4218  143.5244 H   0  0  0  0  0  0  0  0  0  0  0  0  # atno 7974 bound_to 7965
  154.5733  140.0687  156.8997 H   0  0  0  0  0  0  0  0  0  0  0  0  # atno 8008 bound_to 7997
  155.2595  140.3357  155.4256 H   0  0  0  0  0  0  0  0  0  0  0  0  # atno 8009 bound_to 7997
  156.2135  140.1769  156.7627 H   0  0  0  0  0  0  0  0  0  0  0  0  # atno 8010 bound_to 7997
  140.6543  143.2588  151.4632 H   0  0  0  0  0  0  0  0  0  0  0  0  # atno 10167 bound_to 10162
  156.0277  130.5481  150.7295 H   0  0  0  0  0  0  0  0  0  0  0  0  # atno 10718 bound_to 10713
  154.6940  135.5201  153.8432 H   0  0  0  0  0  0  0  0  0  0  0  0  # atno 10763 bound_to 10752
  153.0653  135.6583  154.0378 H   0  0  0  0  0  0  0  0  0  0  0  0  # atno 10764 bound_to 10752
  154.0247  135.2990  155.3356 H   0  0  0  0  0  0  0  0  0  0  0  0  # atno 10765 bound_to 10752
  140.1975  134.8362  157.2981 H   0  0  0  0  0  0  0  0  0  0  0  0  # atno 11005 bound_to 11000
  146.3470  139.9557  142.8723 LP  0  0  0  0  0  0  0  0  0  0  0  0  # atno 17320 bound_to 7965
  145.2020  140.9859  143.4150 LP  0  0  0  0  0  0  0  0  0  0  0  0  # atno 17321 bound_to 7965
  139.5763  144.1812  152.1907 LP  0  0  0  0  0  0  0  0  0  0  0  0  # atno 17342 bound_to 10162
  140.1123  144.5446  150.6916 LP  0  0  0  0  0  0  0  0  0  0  0  0  # atno 17343 bound_to 10162
  157.4891  131.0909  151.0448 LP  0  0  0  0  0  0  0  0  0  0  0  0  # atno 17370 bound_to 10713
  157.0860  130.5922  149.5430 LP  0  0  0  0  0  0  0  0  0  0  0  0  # atno 17371 bound_to 10713
  140.2091  134.4161  155.7622 LP  0  0  0  0  0  0  0  0  0  0  0  0  # atno 17394 bound_to 11000
  141.2227  133.7109  156.8308 LP  0  0  0  0  0  0  0  0  0  0  0  0  # atno 17395 bound_to 11000

$$$$
