AV-unprocessed.smi:1033|AV-procd|sdf|4492|dock7
  -GOLD-   22720 2473D 1   1.00000     0.00000
 Structure written by MMmdl.
 56 58  0  0  0  0  0  0  0  0  2 V2000
  153.5533  142.4019  160.0849 C   0  0  0  0  0  0  0  0  0  0  0  0
  152.4365  142.0860  159.1058 C   0  0  0  0  0  0  0  0  0  0  0  0
  152.0699  140.7379  158.8932 C   0  0  0  0  0  0  0  0  0  0  0  0
  151.0412  140.4016  157.9865 C   0  0  0  0  0  0  0  0  0  0  0  0
  150.5304  139.1672  157.6237 N   0  0  0  0  0  0  0  0  0  0  0  0
  149.6013  139.5109  156.7370 C   0  0  0  0  0  0  0  0  0  0  0  0
  149.4510  140.8243  156.4790 N   0  0  0  0  0  0  0  0  0  0  0  0
  148.5189  141.4277  155.5428 C   0  0  0  0  0  0  0  0  0  0  0  0
  148.4581  140.6629  154.2065 C   0  0  2  0  0  0  0  0  0  0  0  0
  149.5272  141.0799  153.3787 O   0  0  0  0  0  0  0  0  0  0  0  0
  147.1334  140.9112  153.4582 C   0  0  0  0  0  0  0  0  0  0  0  0
  146.2822  139.6964  153.3850 N   0  3  0  0  0  0  0  0  0  0  0  0
  145.9887  139.1232  154.7237 C   0  0  0  0  0  0  0  0  0  0  0  0
  145.0319  137.9194  154.5950 C   0  0  0  0  0  0  0  0  0  0  0  0
  145.5372  136.8700  153.7098 N   0  0  0  0  0  0  0  0  0  0  0  0
  146.6530  136.1168  154.3003 C   0  0  0  0  0  0  0  0  0  0  0  0
  146.8737  134.6791  153.7782 C   0  0  1  0  0  0  0  0  0  0  0  0
  145.7472  133.6918  154.1218 C   0  0  0  0  0  0  0  0  0  0  0  0
  147.1202  134.6850  152.3869 O   0  0  0  0  0  0  0  0  0  0  0  0
  145.8194  137.4657  152.4014 C   0  0  0  0  0  0  0  0  0  0  0  0
  146.8059  138.6476  152.4699 C   0  0  0  0  0  0  0  0  0  0  0  0
  150.3838  141.4593  157.2926 C   0  0  0  0  0  0  0  0  0  0  0  0
  150.7361  142.8048  157.4994 C   0  0  0  0  0  0  0  0  0  0  0  0
  151.7666  143.1232  158.4084 C   0  0  0  0  0  0  0  0  0  0  0  0
  152.1428  144.5789  158.6215 C   0  0  0  0  0  0  0  0  0  0  0  0
  153.9613  141.4942  160.5307 H   0  0  0  0  0  0  0  0  0  0  0  0
  153.1862  143.0354  160.8926 H   0  0  0  0  0  0  0  0  0  0  0  0
  154.3682  142.9209  159.5796 H   0  0  0  0  0  0  0  0  0  0  0  0
  152.5803  139.9476  159.4240 H   0  0  0  0  0  0  0  0  0  0  0  0
  148.9986  138.7641  156.2410 H   0  0  0  0  0  0  0  0  0  0  0  0
  147.5330  141.4469  156.0096 H   0  0  0  0  0  0  0  0  0  0  0  0
  148.8070  142.4677  155.3820 H   0  0  0  0  0  0  0  0  0  0  0  0
  148.5828  139.6009  154.4151 H   0  0  0  0  0  0  0  0  0  0  0  0
  149.7018  140.3980  152.7468 H   0  0  0  0  0  0  0  0  0  0  0  0
  146.5706  141.7182  153.9299 H   0  0  0  0  0  0  0  0  0  0  0  0
  147.3669  141.2523  152.4480 H   0  0  0  0  0  0  0  0  0  0  0  0
  146.9171  138.8345  155.2180 H   0  0  0  0  0  0  0  0  0  0  0  0
  145.5225  139.8837  155.3511 H   0  0  0  0  0  0  0  0  0  0  0  0
  144.8226  137.5045  155.5817 H   0  0  0  0  0  0  0  0  0  0  0  0
  144.0725  138.2719  154.2138 H   0  0  0  0  0  0  0  0  0  0  0  0
  147.5844  136.6787  154.2323 H   0  0  0  0  0  0  0  0  0  0  0  0
  146.4552  136.0251  155.3692 H   0  0  0  0  0  0  0  0  0  0  0  0
  147.7910  134.3050  154.2344 H   0  0  0  0  0  0  0  0  0  0  0  0
  145.5615  133.6704  155.1958 H   0  0  0  0  0  0  0  0  0  0  0  0
  146.0079  132.6793  153.8119 H   0  0  0  0  0  0  0  0  0  0  0  0
  144.8118  133.9547  153.6272 H   0  0  0  0  0  0  0  0  0  0  0  0
  147.8568  135.2509  152.2142 H   0  0  0  0  0  0  0  0  0  0  0  0
  146.1853  136.7115  151.7067 H   0  0  0  0  0  0  0  0  0  0  0  0
  144.8831  137.8202  151.9682 H   0  0  0  0  0  0  0  0  0  0  0  0
  146.9359  139.0504  151.4664 H   0  0  0  0  0  0  0  0  0  0  0  0
  147.7898  138.3151  152.8028 H   0  0  0  0  0  0  0  0  0  0  0  0
  150.2204  143.5849  156.9590 H   0  0  0  0  0  0  0  0  0  0  0  0
  151.5340  145.2416  158.0058 H   0  0  0  0  0  0  0  0  0  0  0  0
  153.1879  144.7465  158.3599 H   0  0  0  0  0  0  0  0  0  0  0  0
  151.9964  144.8628  159.6639 H   0  0  0  0  0  0  0  0  0  0  0  0
  145.3938  139.9976  153.0095 H   0  0  0  0  0  0  0  0  0  0  0  0
  1  2  1  0  0  0  0
  1 26  1  0  0  0  0
  1 27  1  0  0  0  0
  1 28  1  0  0  0  0
  2 24  1  0  0  0  0
  2  3  2  0  0  0  0
  3  4  1  0  0  0  0
  3 29  1  0  0  0  0
  4 22  2  0  0  0  0
  4  5  1  0  0  0  0
  5  6  2  0  0  0  0
  6  7  1  0  0  0  0
  6 30  1  0  0  0  0
  7  8  1  0  0  0  0
  7 22  1  0  0  0  0
  8  9  1  0  0  0  0
  8 31  1  0  0  0  0
  8 32  1  0  0  0  0
  9 10  1  0  0  0  0
  9 11  1  0  0  0  0
  9 33  1  0  0  0  0
 10 34  1  0  0  0  0
 11 12  1  0  0  0  0
 11 35  1  0  0  0  0
 11 36  1  0  0  0  0
 12 21  1  0  0  0  0
 12 13  1  0  0  0  0
 12 56  1  0  0  0  0
 13 14  1  0  0  0  0
 13 37  1  0  0  0  0
 13 38  1  0  0  0  0
 14 15  1  0  0  0  0
 14 39  1  0  0  0  0
 14 40  1  0  0  0  0
 15 16  1  0  0  0  0
 15 20  1  0  0  0  0
 16 17  1  0  0  0  0
 16 41  1  0  0  0  0
 16 42  1  0  0  0  0
 17 18  1  0  0  0  0
 17 19  1  0  0  0  0
 17 43  1  0  0  0  0
 18 44  1  0  0  0  0
 18 45  1  0  0  0  0
 18 46  1  0  0  0  0
 19 47  1  0  0  0  0
 20 21  1  0  0  0  0
 20 48  1  0  0  0  0
 20 49  1  0  0  0  0
 21 50  1  0  0  0  0
 21 51  1  0  0  0  0
 22 23  1  0  0  0  0
 23 24  2  0  0  0  0
 23 52  1  0  0  0  0
 24 25  1  0  0  0  0
 25 53  1  0  0  0  0
 25 54  1  0  0  0  0
 25 55  1  0  0  0  0
M  CHG  1  12   1
M  END
> <s_m_source_file>
AV-unprocessed.smi

> <i_m_source_file_index>
1033

> <i_lp_mmshare_version>
43012

> <i_f3d_flags>
0

> <s_epik_input>
W0NIM11jKFtjSF0xKWMoW0NIM10pW2NIXWMoYzEyKW4oW2NIXW4yKVtDSDJdW0NASF0oW09IXSlbQ0gyXU4zW0NIMl1bQ0gyXU4oW0NIMl1bQ0gyXTMpW0NIMl1bQ0BIXShbQ0gzXSlbT0hd

> <s_epik_cmdline>
J2VwaWtfcHl0aG9uJywgJy1waCcsICc3LjAnLCAnLXRuJywgJzgnLCAnLW1hJywgJzIwMCcsICctbWV0YWxfYmluZGluZycsICctaW1hZScsICc8aW5maWxlLm1hZT4nLCAnLW9tYWUnLCAnPG91dGZpbGUubWFlPic=

> <r_epik_Ionization_Penalty>
0.131893

> <r_epik_Ionization_Penalty_Charging>
0.00208556

> <r_epik_Ionization_Penalty_Neutral>
0.129808

> <r_epik_State_Penalty>
0.452125

> <r_epik_Charging_Adjusted_Penalty>
0.454211

> <i_epik_Tot_Q>
1

> <i_epik_Tot_abs_Q>
1

> <r_epik_Metal_State_Penalty>
0.376389

> <b_epik_Metal_Only>
0

> <s_lp_Force_Field>
OPLS_2005

> <r_lp_Energy>
36.4064

> <b_lp_Chiralities_Consistent>
1

> <s_lp_Variant>
AV-unprocessed.smi:1033-3

> <Gold.Version>
5.8.1

> <Gold.Id.Protein>
6NUR|6NUR_protein|mol2

> <Gold.PLP.Fitness>
55.3202

> <Gold.PLP.PLP>
-43.3886

> <Gold.PLP.part.hbond>
-4.3740

> <Gold.PLP.part.metal>
0.0000

> <Gold.PLP.part.buried>
-4.1036

> <Gold.PLP.part.nonpolar>
-35.6955

> <Gold.PLP.part.repulsive>
0.1175

> <Gold.PLP.ligand.clash>
0.0000

> <Gold.PLP.ligand.torsion>
1.4591

> <Gold.PLP.Chemscore.Hbond>
4.8800

> <Gold.PLP.Chemscore.CHOScore>
0.0000

> <Gold.PLP.Chemscore.Metal>
0.0000

> <Gold.Chemscore.Hbonds>
donor molecule, donor type, donor heavy atom, donor atom, acceptor molecule, acceptor atom, score
      L1  H    10    34       P1  7957  0.85
      L1  H    12    56       P1 10175  2.00
      L1  H    19    47       P1  7948  0.86
      P1  H  8011  8017       L1    10  0.85

> <Gold.PLP.Chemscore.Internal.Correction>
0.2098

> <Gold.Rescore>
     Score         DG    S(hbond)    S(metal)    S(lipo)     H(rot)  DE(clash)    DE(int)     intcor
     21.36     -23.28       3.33        0.00     124.27       3.07       0.39       1.53       ----

> <Gold.Chemscore.Fitness>
21.3595

> <Gold.Chemscore.DG>
-23.2846

> <Gold.Chemscore.ZeroCoef>
-5.4800

> <Gold.Chemscore.Hbond>
3.3268

> <Gold.Chemscore.Metal>
0.0000

> <Gold.Chemscore.Lipo>
124.2689

> <Gold.Chemscore.Internal_Hbond>
0.0000

> <Gold.Chemscore.DEClash>
0.3940

> <Gold.Chemscore.DEInternal>
1.5311

> <Gold.Chemscore.Rot>
3.0650

> <Gold.Chemscore.Internal.Correction>
   9.000000E+99

> <Gold.Chemscore.Hbonds>
donor molecule, donor type, donor heavy atom, donor atom, acceptor molecule, acceptor atom, score
      L1  H    10    34       P1  7957  0.84
      L1  H    12    56       P1 10175  1.00
      L1  H    19    47       P1  7948  0.81
      P1  H  8011  8017       L1    10  0.14

> <Gold.Chemscore.Hbond.Weighted>
-11.1117

> <Gold.Chemscore.Metal.Weighted>
-0.0000

> <Gold.Chemscore.Lipo.Weighted>
-14.5395

> <Gold.Chemscore.Internal_Hbond.Weighted>
0.0000

> <Gold.Chemscore.DEClash.Weighted>
0.3940

> <Gold.Chemscore.DEInternal.Weighted>
1.5311

> <Gold.Chemscore.Rot.Weighted>
7.8465

> <Gold.Chemscore.Internal.Correction.Weighted>
   9.000000E+99

> <Gold.Protein.RotatedTorsions>
[ 6907 6896 6895 6894 ] final   40.97 input  -60.11 | X-H torsion
[ 7974 7965 7964 7962 ] final   39.67 input  175.53 | X-H torsion
[ 8008 7997 7996 7995 ] final  149.05 input   59.86 | X-H torsion
[ 10167 10162 10161 10158 ] final  163.40 input  -65.29 | X-H torsion
[ 10718 10713 10712 10709 ] final -155.64 input   66.30 | X-H torsion
[ 10763 10752 10751 10750 ] final -177.34 input  -60.55 | X-H torsion
[ 11005 11000 10999 10996 ] final  -31.75 input  -57.11 | X-H torsion

> <Gold.Protein.ActiveResidues>
 VAL166  LYS551  ARG553  GLY616  TRP617  ASP618  TYR619  PRO620  LYS621  CYS622 
 ASP623  PHE694  ASN695  SER759  ASP760  ASP761  ALA762  ILE779  LEU786  VAL792 
 PHE793  MET794  SER795  GLU796  ALA797  LYS798  CYS799  TRP800  GLU811  SER814 

> <Gold.Protein.RotatedAtoms>
  152.1893  134.8686  160.0518 H   0  0  0  0  0  0  0  0  0  0  0  0  # atno 6907 bound_to 6896
  151.9581  133.3681  159.4033 H   0  0  0  0  0  0  0  0  0  0  0  0  # atno 6908 bound_to 6896
  150.6932  134.4193  159.5242 H   0  0  0  0  0  0  0  0  0  0  0  0  # atno 6909 bound_to 6896
  146.0966  139.5624  142.9441 H   0  0  0  0  0  0  0  0  0  0  0  0  # atno 7974 bound_to 7965
  156.2769  140.2112  156.5795 H   0  0  0  0  0  0  0  0  0  0  0  0  # atno 8008 bound_to 7997
  154.7070  140.0515  157.0536 H   0  0  0  0  0  0  0  0  0  0  0  0  # atno 8009 bound_to 7997
  155.0657  140.3171  155.4649 H   0  0  0  0  0  0  0  0  0  0  0  0  # atno 8010 bound_to 7997
  139.4873  144.4341  151.9034 H   0  0  0  0  0  0  0  0  0  0  0  0  # atno 10167 bound_to 10162
  156.5156  130.8455  151.2663 H   0  0  0  0  0  0  0  0  0  0  0  0  # atno 10718 bound_to 10713
  154.5614  135.2820  155.0916 H   0  0  0  0  0  0  0  0  0  0  0  0  # atno 10763 bound_to 10752
  154.2323  135.6372  153.5183 H   0  0  0  0  0  0  0  0  0  0  0  0  # atno 10764 bound_to 10752
  153.0030  135.5540  154.6209 H   0  0  0  0  0  0  0  0  0  0  0  0  # atno 10765 bound_to 10752
  140.9494  133.7230  156.1197 H   0  0  0  0  0  0  0  0  0  0  0  0  # atno 11005 bound_to 11000
  145.5936  141.0366  143.2056 LP  0  0  0  0  0  0  0  0  0  0  0  0  # atno 17320 bound_to 7965
  144.7400  139.7476  143.7314 LP  0  0  0  0  0  0  0  0  0  0  0  0  # atno 17321 bound_to 7965
  140.3790  144.2760  150.5911 LP  0  0  0  0  0  0  0  0  0  0  0  0  # atno 17342 bound_to 10162
  140.5251  143.2256  151.8328 LP  0  0  0  0  0  0  0  0  0  0  0  0  # atno 17343 bound_to 10162
  157.7444  130.9935  150.2673 LP  0  0  0  0  0  0  0  0  0  0  0  0  # atno 17370 bound_to 10713
  156.3198  130.3784  149.7585 LP  0  0  0  0  0  0  0  0  0  0  0  0  # atno 17371 bound_to 10713
  140.7623  134.3925  157.5523 LP  0  0  0  0  0  0  0  0  0  0  0  0  # atno 17394 bound_to 11000
  139.8843  134.8969  156.2712 LP  0  0  0  0  0  0  0  0  0  0  0  0  # atno 17395 bound_to 11000

$$$$
