#       Name:                AV-unprocessed.smi:907
#       Creating user name   scv26
#       Creation time:       Fri Mar 27 02:00:47 2020


#       File generated by GOLD software.
#

@<TRIPOS>MOLECULE
AV-unprocessed.smi:907
    56    59     1
SMALL
NO_CHARGES


@<TRIPOS>ATOM
      1 ****         1.2052   1.2603  -2.5598 O.2            1 S1                 0.0000
      2 ****         0.7594   0.2515  -2.0124 C.2            1 S1                 0.0000
      3 ****         1.5330  -0.8131  -1.7443 N.am           1 S1                 0.0000
      4 ****         2.9534  -0.9005  -2.0550 C.3            1 S1                 0.0000
      5 ****         3.5611  -2.1789  -1.4616 C.3            1 S1                 0.0000
      6 ****         5.0356  -2.3206  -1.7881 C.ar           1 S1                 0.0000
      7 ****         5.4988  -3.1747  -2.8124 C.ar           1 S1                 0.0000
      8 ****         6.8837  -3.2575  -3.0672 C.ar           1 S1                 0.0000
      9 ****         7.7750  -2.4840  -2.2950 C.ar           1 S1                 0.0000
     10 ****         7.2581  -1.6464  -1.2857 C.ar           1 S1                 0.0000
     11 ****         5.9249  -1.5956  -1.0712 N.pl3          1 S1                 1.0000
     12 ****        -0.5469   0.1057  -1.6756 N.am           1 S1                 0.0000
     13 ****        -1.1117  -0.9244  -0.7958 C.3            1 S1                 0.0000
     14 ****        -1.5067  -0.2864   0.5502 C.3            1 S1                 0.0000
     15 ****        -2.4285   0.8758   0.3774 N.4            1 S1                 1.0000
     16 ****        -2.7938   1.5684   1.6521 C.3            1 S1                 0.0000
     17 ****        -3.9988   2.5291   1.4653 C.3            1 S1                 0.0000
     18 ****        -4.9919   2.0841   2.5514 C.3            1 S1                 0.0000
     19 ****        -4.4402   2.4536   3.9383 C.3            1 S1                 0.0000
     20 ****        -3.2909   1.4468   4.1171 C.3            1 S1                 0.0000
     21 ****        -3.3158   0.6523   2.7960 C.3            1 S1                 0.0000
     22 ****        -4.8134   0.5722   2.5218 C.3            1 S1                 0.0000
     23 ****        -1.9257   1.8387  -0.6480 C.3            1 S1                 0.0000
     24 ****        -1.5458   1.1361  -1.9621 C.3            1 S1                 0.0000
     25 ****         1.1046  -1.6188  -1.3125 H              1 S1                 0.0000
     26 ****         3.0819  -0.8912  -3.1386 H              1 S1                 0.0000
     27 ****         3.4690  -0.0232  -1.6604 H              1 S1                 0.0000
     28 ****         3.4373  -2.1846  -0.3776 H              1 S1                 0.0000
     29 ****         3.0289  -3.0541  -1.8372 H              1 S1                 0.0000
     30 ****         4.8038  -3.7597  -3.3974 H              1 S1                 0.0000
     31 ****         7.2577  -3.9063  -3.8457 H              1 S1                 0.0000
     32 ****         8.8392  -2.5325  -2.4747 H              1 S1                 0.0000
     33 ****         7.8656  -1.0206  -0.6483 H              1 S1                 0.0000
     34 ****        -1.9936  -1.3526  -1.2750 H              1 S1                 0.0000
     35 ****        -0.4449  -1.7676  -0.6165 H              1 S1                 0.0000
     36 ****        -1.9767  -1.0663   1.1456 H              1 S1                 0.0000
     37 ****        -0.6125   0.0371   1.0851 H              1 S1                 0.0000
     38 ****        -1.9151   2.1157   1.9978 H              1 S1                 0.0000
     39 ****        -3.7137   3.5771   1.5663 H              1 S1                 0.0000
     40 ****        -4.4703   2.4078   0.4891 H              1 S1                 0.0000
     41 ****        -6.0114   2.4313   2.3800 H              1 S1                 0.0000
     42 ****        -4.1004   3.4889   3.9859 H              1 S1                 0.0000
     43 ****        -5.1976   2.3128   4.7107 H              1 S1                 0.0000
     44 ****        -2.3317   1.9348   4.2942 H              1 S1                 0.0000
     45 ****        -3.4898   0.7907   4.9657 H              1 S1                 0.0000
     46 ****        -2.8194  -0.3081   2.9128 H              1 S1                 0.0000
     47 ****        -5.3708   0.0562   3.3058 H              1 S1                 0.0000
     48 ****        -5.0542   0.1237   1.5564 H              1 S1                 0.0000
     49 ****        -2.6736   2.6007  -0.8635 H              1 S1                 0.0000
     50 ****        -1.0540   2.3625  -0.2523 H              1 S1                 0.0000
     51 ****        -1.1969   1.8700  -2.6901 H              1 S1                 0.0000
     52 ****        -2.4269   0.6741  -2.4100 H              1 S1                 0.0000
     53 ****        -3.2861   0.4915   0.0070 H              1 S1                 0.0000
     54 ****         5.5742  -0.9818  -0.3355 H              1 S1                 0.0000
     55 ****         2.1701   1.3037  -2.8187 LP             1 S1                 0.0000
     56 ****         0.6023   2.0362  -2.7455 LP             1 S1                 0.0000
@<TRIPOS>BOND
    1    1    2 2     
    2    2    3 am    
    3    2   12 am    
    4    3    4 1     
    5    3   25 1     
    6    4    5 1     
    7    4   26 1     
    8    4   27 1     
    9    5    6 1     
   10    5   28 1     
   11    5   29 1     
   12    6   11 ar    
   13    6    7 ar    
   14    7    8 ar    
   15    7   30 1     
   16    8    9 ar    
   17    8   31 1     
   18    9   10 ar    
   19    9   32 1     
   20   10   11 ar    
   21   10   33 1     
   22   11   54 1     
   23   12   24 1     
   24   12   13 1     
   25   13   14 1     
   26   13   34 1     
   27   13   35 1     
   28   14   15 1     
   29   14   36 1     
   30   14   37 1     
   31   15   16 1     
   32   15   23 1     
   33   15   53 1     
   34   16   21 1     
   35   16   17 1     
   36   16   38 1     
   37   17   18 1     
   38   17   39 1     
   39   17   40 1     
   40   18   22 1     
   41   18   19 1     
   42   18   41 1     
   43   19   20 1     
   44   19   42 1     
   45   19   43 1     
   46   20   21 1     
   47   20   44 1     
   48   20   45 1     
   49   21   22 1     
   50   21   46 1     
   51   22   47 1     
   52   22   48 1     
   53   23   24 1     
   54   23   49 1     
   55   23   50 1     
   56   24   51 1     
   57   24   52 1     
   58    1   55 1     
   59    1   56 1     
@<TRIPOS>SUBSTRUCTURE
      1 S1             1
@<TRIPOS>SET
LONE_PAIRS      STATIC     ATOMS    <user>   **** ""
2 55 56
DONOR_HYDROGENS      STATIC     ATOMS    <user>   **** ""
3 25 54 53
ATOM$BLUE        STATIC     ATOMS    COLORGROUP SYSTEM
2 55 56
ATOM$RED        STATIC     ATOMS    COLORGROUP SYSTEM
3 25 54 53
