AV-unprocessed.smi:1812|AV-procd|sdf|7337|dock1
  -GOLD-   22720 8593D 1   1.00000     0.00000
 Structure written by MMmdl.
 34 36  0  0  0  0  0  0  0  0  1 V2000
  145.4822  138.4560  153.6755 O   0  0  0  0  0  0  0  0  0  0  0  0
  146.4309  137.9111  153.1103 C   0  0  0  0  0  0  0  0  0  0  0  0
  146.2929  136.8746  152.2713 N   0  0  0  0  0  0  0  0  0  0  0  0
  145.0227  136.2544  151.9118 C   0  0  0  0  0  0  0  0  0  0  0  0
  145.2028  135.1899  150.8178 C   0  0  1  0  0  0  0  0  0  0  0  0
  146.1493  134.0599  151.2081 C   0  0  0  0  0  0  0  0  0  0  0  0
  145.7451  132.9510  150.2555 C   0  0  0  0  0  0  0  0  0  0  0  0
  144.2823  133.2678  149.9274 C   0  0  0  0  0  0  0  0  0  0  0  0
  143.9866  134.4960  150.5842 O   0  0  0  0  0  0  0  0  0  0  0  0
  147.7222  138.2612  153.2447 N   0  0  0  0  0  0  0  0  0  0  0  0
  148.2699  139.3261  154.0082 C   0  0  0  0  0  0  0  0  0  0  0  0
  147.5518  140.3614  154.4644 N   0  0  0  0  0  0  0  0  0  0  0  0
  148.3342  141.2624  155.1728 N   0  0  0  0  0  0  0  0  0  0  0  0
  149.6170  140.8853  155.2318 C   0  0  0  0  0  0  0  0  0  0  0  0
  150.6526  141.6967  155.9370 C   0  0  0  0  0  0  0  0  0  0  0  0
  151.4691  141.0989  157.0597 C   0  0  0  0  0  0  0  0  0  0  0  0
  150.4559  142.1737  157.3593 C   0  0  0  0  0  0  0  0  0  0  0  0
  149.9769  139.3673  154.4152 S   0  0  0  0  0  0  0  0  0  0  0  0
  147.1239  136.4819  151.8541 H   0  0  0  0  0  0  0  0  0  0  0  0
  144.5644  135.8108  152.7972 H   0  0  0  0  0  0  0  0  0  0  0  0
  144.3418  137.0340  151.5698 H   0  0  0  0  0  0  0  0  0  0  0  0
  145.5408  135.6431  149.8838 H   0  0  0  0  0  0  0  0  0  0  0  0
  147.2004  134.3359  151.1196 H   0  0  0  0  0  0  0  0  0  0  0  0
  145.9640  133.7489  152.2373 H   0  0  0  0  0  0  0  0  0  0  0  0
  146.3484  132.9924  149.3479 H   0  0  0  0  0  0  0  0  0  0  0  0
  145.8710  131.9625  150.6981 H   0  0  0  0  0  0  0  0  0  0  0  0
  144.1426  133.3806  148.8517 H   0  0  0  0  0  0  0  0  0  0  0  0
  143.6058  132.4875  150.2768 H   0  0  0  0  0  0  0  0  0  0  0  0
  148.3914  137.7114  152.7266 H   0  0  0  0  0  0  0  0  0  0  0  0
  151.1556  142.3654  155.2415 H   0  0  0  0  0  0  0  0  0  0  0  0
  151.2311  140.0843  157.3736 H   0  0  0  0  0  0  0  0  0  0  0  0
  152.5213  141.3700  157.1155 H   0  0  0  0  0  0  0  0  0  0  0  0
  150.8325  143.1626  157.6122 H   0  0  0  0  0  0  0  0  0  0  0  0
  149.5527  141.8716  157.8850 H   0  0  0  0  0  0  0  0  0  0  0  0
  1  2  2  0  0  0  0
  2  3  1  0  0  0  0
  2 10  1  0  0  0  0
  3  4  1  0  0  0  0
  3 19  1  0  0  0  0
  4  5  1  0  0  0  0
  4 20  1  0  0  0  0
  4 21  1  0  0  0  0
  5  9  1  0  0  0  0
  5  6  1  0  0  0  0
  5 22  1  0  0  0  0
  6  7  1  0  0  0  0
  6 23  1  0  0  0  0
  6 24  1  0  0  0  0
  7  8  1  0  0  0  0
  7 25  1  0  0  0  0
  7 26  1  0  0  0  0
  8  9  1  0  0  0  0
  8 27  1  0  0  0  0
  8 28  1  0  0  0  0
 10 11  1  0  0  0  0
 10 29  1  0  0  0  0
 11 18  1  0  0  0  0
 11 12  2  0  0  0  0
 12 13  1  0  0  0  0
 13 14  2  0  0  0  0
 14 15  1  0  0  0  0
 14 18  1  0  0  0  0
 15 17  1  0  0  0  0
 15 16  1  0  0  0  0
 15 30  1  0  0  0  0
 16 17  1  0  0  0  0
 16 31  1  0  0  0  0
 16 32  1  0  0  0  0
 17 33  1  0  0  0  0
 17 34  1  0  0  0  0
M  END
> <s_m_source_file>
AV-unprocessed.smi

> <i_m_source_file_index>
1812

> <i_lp_mmshare_version>
43012

> <i_f3d_flags>
0

> <s_epik_input>
TzFbQ0gyXVtDSDJdW0NIMl1bQ0BIXTFbQ0gyXVtOSF1DKD1PKVtOSF1jMm5uYyhzMilbQ0hdM1tDSDJdW0NIMl0z

> <s_epik_cmdline>
J2VwaWtfcHl0aG9uJywgJy1waCcsICc3LjAnLCAnLXRuJywgJzgnLCAnLW1hJywgJzIwMCcsICctbWV0YWxfYmluZGluZycsICctaW1hZScsICc8aW5maWxlLm1hZT4nLCAnLW9tYWUnLCAnPG91dGZpbGUubWFlPic=

> <r_lp_tautomer_probability>
1

> <r_epik_Ionization_Penalty>
0.000281817

> <r_epik_Ionization_Penalty_Charging>
0

> <r_epik_Ionization_Penalty_Neutral>
0.000281817

> <r_epik_State_Penalty>
-0

> <r_epik_Charging_Adjusted_Penalty>
0

> <i_epik_Tot_Q>
0

> <i_epik_Tot_abs_Q>
0

> <r_epik_Metal_State_Penalty>
0.157535

> <b_epik_Metal_Only>
0

> <s_lp_Force_Field>
OPLS_2005

> <r_lp_Energy>
14.4176

> <b_lp_Chiralities_Consistent>
1

> <s_lp_Variant>
AV-unprocessed.smi:1812-2

> <Gold.Version>
5.8.1

> <Gold.Id.Protein>
6NUR|6NUR_protein|mol2

> <Gold.PLP.Fitness>
36.2136

> <Gold.PLP.PLP>
-30.4138

> <Gold.PLP.part.hbond>
-2.2114

> <Gold.PLP.part.metal>
0.0000

> <Gold.PLP.part.buried>
-3.8682

> <Gold.PLP.part.nonpolar>
-23.7596

> <Gold.PLP.part.repulsive>
1.0938

> <Gold.PLP.ligand.clash>
0.0000

> <Gold.PLP.ligand.torsion>
0.1749

> <Gold.PLP.Chemscore.Hbond>
2.0000

> <Gold.PLP.Chemscore.CHOScore>
0.0000

> <Gold.PLP.Chemscore.Metal>
0.0000

> <Gold.Chemscore.Hbonds>
donor molecule, donor type, donor heavy atom, donor atom, acceptor molecule, acceptor atom, score
      L1  H     3    19       P1  7948  1.00
      L1  H    10    29       P1  7948  1.00

> <Gold.PLP.Chemscore.Internal.Correction>
0.1496

> <Gold.Rescore>
     Score         DG    S(hbond)    S(metal)    S(lipo)     H(rot)  DE(clash)    DE(int)     intcor
     14.61     -16.13       1.93        0.00      68.06       1.47       0.12       1.41       ----

> <Gold.Chemscore.Fitness>
14.6071

> <Gold.Chemscore.DG>
-16.1339

> <Gold.Chemscore.ZeroCoef>
-5.4800

> <Gold.Chemscore.Hbond>
1.9342

> <Gold.Chemscore.Metal>
0.0000

> <Gold.Chemscore.Lipo>
68.0612

> <Gold.Chemscore.Internal_Hbond>
0.0000

> <Gold.Chemscore.DEClash>
0.1201

> <Gold.Chemscore.DEInternal>
1.4067

> <Gold.Chemscore.Rot>
1.4725

> <Gold.Chemscore.Internal.Correction>
   9.000000E+99

> <Gold.Chemscore.Hbonds>
donor molecule, donor type, donor heavy atom, donor atom, acceptor molecule, acceptor atom, score
      L1  H     3    19       P1  7948  0.96
      L1  H    10    29       P1  7948  0.98

> <Gold.Chemscore.Hbond.Weighted>
-6.4602

> <Gold.Chemscore.Metal.Weighted>
-0.0000

> <Gold.Chemscore.Lipo.Weighted>
-7.9632

> <Gold.Chemscore.Internal_Hbond.Weighted>
0.0000

> <Gold.Chemscore.DEClash.Weighted>
0.1201

> <Gold.Chemscore.DEInternal.Weighted>
1.4067

> <Gold.Chemscore.Rot.Weighted>
3.7695

> <Gold.Chemscore.Internal.Correction.Weighted>
   9.000000E+99

> <Gold.Protein.RotatedTorsions>
[ 6907 6896 6895 6894 ] final   82.08 input  -60.11 | X-H torsion
[ 7974 7965 7964 7962 ] final   28.57 input  175.53 | X-H torsion
[ 8008 7997 7996 7995 ] final -137.69 input   59.86 | X-H torsion
[ 10167 10162 10161 10158 ] final  147.38 input  -65.29 | X-H torsion
[ 10718 10713 10712 10709 ] final   76.71 input   66.30 | X-H torsion
[ 10763 10752 10751 10750 ] final   25.98 input  -60.55 | X-H torsion
[ 11005 11000 10999 10996 ] final  144.87 input  -57.11 | X-H torsion

> <Gold.Protein.ActiveResidues>
 VAL166  LYS551  ARG553  GLY616  TRP617  ASP618  TYR619  PRO620  LYS621  CYS622 
 ASP623  PHE694  ASN695  SER759  ASP760  ASP761  ALA762  ILE779  LEU786  VAL792 
 PHE793  MET794  SER795  GLU796  ALA797  LYS798  CYS799  TRP800  GLU811  SER814 

> <Gold.Protein.RotatedAtoms>
  152.5288  134.3105  159.9111 H   0  0  0  0  0  0  0  0  0  0  0  0  # atno 6907 bound_to 6896
  151.3054  133.4097  159.2650 H   0  0  0  0  0  0  0  0  0  0  0  0  # atno 6908 bound_to 6896
  151.0083  134.9393  159.8050 H   0  0  0  0  0  0  0  0  0  0  0  0  # atno 6909 bound_to 6896
  146.1721  139.7038  142.8960 H   0  0  0  0  0  0  0  0  0  0  0  0  # atno 7974 bound_to 7965
  155.4160  140.0515  157.3029 H   0  0  0  0  0  0  0  0  0  0  0  0  # atno 8008 bound_to 7997
  154.4924  140.2125  155.9479 H   0  0  0  0  0  0  0  0  0  0  0  0  # atno 8009 bound_to 7997
  156.1360  140.3163  155.8427 H   0  0  0  0  0  0  0  0  0  0  0  0  # atno 8010 bound_to 7997
  139.4891  144.5759  151.6965 H   0  0  0  0  0  0  0  0  0  0  0  0  # atno 10167 bound_to 10162
  157.6684  130.9787  150.1536 H   0  0  0  0  0  0  0  0  0  0  0  0  # atno 10718 bound_to 10713
  153.0654  135.6570  154.0367 H   0  0  0  0  0  0  0  0  0  0  0  0  # atno 10763 bound_to 10752
  154.0025  135.2936  155.3402 H   0  0  0  0  0  0  0  0  0  0  0  0  # atno 10764 bound_to 10752
  154.7009  135.5245  153.8594 H   0  0  0  0  0  0  0  0  0  0  0  0  # atno 10765 bound_to 10752
  140.0666  134.9175  157.1275 H   0  0  0  0  0  0  0  0  0  0  0  0  # atno 11005 bound_to 11000
  145.4312  141.0415  143.2910 LP  0  0  0  0  0  0  0  0  0  0  0  0  # atno 17320 bound_to 7965
  144.8179  139.5844  143.7000 LP  0  0  0  0  0  0  0  0  0  0  0  0  # atno 17321 bound_to 7965
  140.5356  144.0662  150.6069 LP  0  0  0  0  0  0  0  0  0  0  0  0  # atno 17342 bound_to 10162
  140.3666  143.2878  152.0324 LP  0  0  0  0  0  0  0  0  0  0  0  0  # atno 17343 bound_to 10162
  156.2329  130.3684  149.8424 LP  0  0  0  0  0  0  0  0  0  0  0  0  # atno 17370 bound_to 10713
  156.6245  130.8640  151.3482 LP  0  0  0  0  0  0  0  0  0  0  0  0  # atno 17371 bound_to 10713
  140.3689  134.2412  155.7180 LP  0  0  0  0  0  0  0  0  0  0  0  0  # atno 17394 bound_to 11000
  141.1995  133.8009  157.0532 LP  0  0  0  0  0  0  0  0  0  0  0  0  # atno 17395 bound_to 11000

$$$$
