AV-unprocessed.smi:1754|AV-procd|sdf|7066|dock2
  -GOLD-   22720 8283D 1   1.00000     0.00000
 Structure written by MMmdl.
 44 45  0  0  0  0  0  0  0  0  1 V2000
  145.5174  132.0582  149.5821 C   0  0  0  0  0  0  0  0  0  0  0  0
  146.2181  133.0723  150.5000 C   0  0  0  0  0  0  0  0  0  0  0  0
  145.6339  133.1327  151.8421 N   0  0  0  0  0  0  0  0  0  0  0  0
  146.3841  132.4912  152.9216 C   0  0  0  0  0  0  0  0  0  0  0  0
  147.8984  132.4634  152.6632 C   0  0  0  0  0  0  0  0  0  0  0  0
  144.9312  134.2978  152.2235 C   0  0  0  0  0  0  0  0  0  0  0  0
  144.0311  134.2554  153.3134 C   0  0  0  0  0  0  0  0  0  0  0  0
  143.3488  135.4276  153.6911 C   0  0  0  0  0  0  0  0  0  0  0  0
  143.5788  136.6186  152.9637 C   0  0  0  0  0  0  0  0  0  0  0  0
  142.9695  137.8715  153.2462 N   0  0  0  0  0  0  0  0  0  0  0  0
  141.9322  138.1504  154.0604 C   0  0  0  0  0  0  0  0  0  0  0  0
  141.3030  137.3171  154.7080 O   0  0  0  0  0  0  0  0  0  0  0  0
  141.6009  139.4535  154.1040 N   0  0  0  0  0  0  0  0  0  0  0  0
  140.5360  140.0954  154.8766 C   0  0  2  0  0  0  0  0  0  0  0  0
  139.2614  140.2552  154.0264 C   0  0  0  0  0  0  0  0  0  0  0  0
  138.3170  141.2378  154.7301 C   0  0  0  0  0  0  0  0  0  0  0  0
  139.3899  142.4079  155.6469 S   0  0  0  0  0  0  0  0  0  0  0  0
  139.4501  143.6902  154.9293 O   0  0  0  0  0  0  0  0  0  0  0  0
  139.0413  142.3540  157.0748 O   0  0  0  0  0  0  0  0  0  0  0  0
  140.9515  141.4921  155.3675 C   0  0  0  0  0  0  0  0  0  0  0  0
  144.5026  136.5642  151.9010 C   0  0  0  0  0  0  0  0  0  0  0  0
  145.1587  135.4433  151.5361 N   0  0  0  0  0  0  0  0  0  0  0  0
  146.0111  132.0160  148.6114 H   0  0  0  0  0  0  0  0  0  0  0  0
  144.4732  132.3150  149.4052 H   0  0  0  0  0  0  0  0  0  0  0  0
  145.5474  131.0565  150.0116 H   0  0  0  0  0  0  0  0  0  0  0  0
  147.2691  132.7950  150.5859 H   0  0  0  0  0  0  0  0  0  0  0  0
  146.2054  134.0632  150.0445 H   0  0  0  0  0  0  0  0  0  0  0  0
  146.1832  132.9779  153.8753 H   0  0  0  0  0  0  0  0  0  0  0  0
  146.0201  131.4695  153.0344 H   0  0  0  0  0  0  0  0  0  0  0  0
  148.4179  131.9629  153.4803 H   0  0  0  0  0  0  0  0  0  0  0  0
  148.3072  133.4711  152.5816 H   0  0  0  0  0  0  0  0  0  0  0  0
  148.1367  131.9286  151.7435 H   0  0  0  0  0  0  0  0  0  0  0  0
  143.8529  133.3385  153.8553 H   0  0  0  0  0  0  0  0  0  0  0  0
  142.6766  135.3847  154.5332 H   0  0  0  0  0  0  0  0  0  0  0  0
  143.3424  138.6545  152.7295 H   0  0  0  0  0  0  0  0  0  0  0  0
  142.1470  140.0705  153.5200 H   0  0  0  0  0  0  0  0  0  0  0  0
  140.2753  139.4802  155.7398 H   0  0  0  0  0  0  0  0  0  0  0  0
  139.5288  140.6681  153.0525 H   0  0  0  0  0  0  0  0  0  0  0  0
  138.7743  139.2971  153.8417 H   0  0  0  0  0  0  0  0  0  0  0  0
  137.6729  141.7792  154.0369 H   0  0  0  0  0  0  0  0  0  0  0  0
  137.6898  140.7190  155.4552 H   0  0  0  0  0  0  0  0  0  0  0  0
  141.5418  141.4699  156.2838 H   0  0  0  0  0  0  0  0  0  0  0  0
  141.5168  142.0272  154.6036 H   0  0  0  0  0  0  0  0  0  0  0  0
  144.7226  137.4484  151.3207 H   0  0  0  0  0  0  0  0  0  0  0  0
  1  2  1  0  0  0  0
  1 23  1  0  0  0  0
  1 24  1  0  0  0  0
  1 25  1  0  0  0  0
  2  3  1  0  0  0  0
  2 26  1  0  0  0  0
  2 27  1  0  0  0  0
  3  4  1  0  0  0  0
  3  6  1  0  0  0  0
  4  5  1  0  0  0  0
  4 28  1  0  0  0  0
  4 29  1  0  0  0  0
  5 30  1  0  0  0  0
  5 31  1  0  0  0  0
  5 32  1  0  0  0  0
  6 22  1  0  0  0  0
  6  7  2  0  0  0  0
  7  8  1  0  0  0  0
  7 33  1  0  0  0  0
  8  9  2  0  0  0  0
  8 34  1  0  0  0  0
  9 10  1  0  0  0  0
  9 21  1  0  0  0  0
 10 11  1  0  0  0  0
 10 35  1  0  0  0  0
 11 12  2  0  0  0  0
 11 13  1  0  0  0  0
 13 14  1  0  0  0  0
 13 36  1  0  0  0  0
 14 20  1  0  0  0  0
 14 15  1  0  0  0  0
 14 37  1  0  0  0  0
 15 16  1  0  0  0  0
 15 38  1  0  0  0  0
 15 39  1  0  0  0  0
 16 17  1  0  0  0  0
 16 40  1  0  0  0  0
 16 41  1  0  0  0  0
 17 18  2  0  0  0  0
 17 19  2  0  0  0  0
 17 20  1  0  0  0  0
 20 42  1  0  0  0  0
 20 43  1  0  0  0  0
 21 22  2  0  0  0  0
 21 44  1  0  0  0  0
M  END
> <s_m_source_file>
AV-unprocessed.smi

> <i_m_source_file_index>
1754

> <i_lp_mmshare_version>
43012

> <i_f3d_flags>
0

> <s_epik_input>
W0NIM11bQ0gyXU4oW0NIMl1bQ0gzXSljMVtjSF1bY0hdYyhbY0hdbjEpW05IXUMoPU8pW05IXVtDQEBIXShbQ0gyXTIpW0NIMl1bQ0gyXVMyKD1PKT1P

> <s_epik_cmdline>
J2VwaWtfcHl0aG9uJywgJy1waCcsICc3LjAnLCAnLXRuJywgJzgnLCAnLW1hJywgJzIwMCcsICctbWV0YWxfYmluZGluZycsICctaW1hZScsICc8aW5maWxlLm1hZT4nLCAnLW9tYWUnLCAnPG91dGZpbGUubWFlPic=

> <r_lp_tautomer_probability>
1

> <r_epik_Ionization_Penalty>
0.615754

> <r_epik_Ionization_Penalty_Charging>
0

> <r_epik_Ionization_Penalty_Neutral>
0.615754

> <r_epik_State_Penalty>
2.08676

> <r_epik_Charging_Adjusted_Penalty>
2.08676

> <i_epik_Tot_Q>
0

> <i_epik_Tot_abs_Q>
0

> <r_epik_Metal_State_Penalty>
1.53042

> <b_epik_Metal_Only>
0

> <s_lp_Force_Field>
OPLS_2005

> <r_lp_Energy>
24.3589

> <b_lp_Chiralities_Consistent>
1

> <s_lp_Variant>
AV-unprocessed.smi:1754-3

> <Gold.Version>
5.8.1

> <Gold.Id.Protein>
6NUR|6NUR_protein|mol2

> <Gold.PLP.Fitness>
42.9428

> <Gold.PLP.PLP>
-32.6305

> <Gold.PLP.part.hbond>
-4.0000

> <Gold.PLP.part.metal>
0.0000

> <Gold.PLP.part.buried>
-1.1189

> <Gold.PLP.part.nonpolar>
-28.8074

> <Gold.PLP.part.repulsive>
0.3696

> <Gold.PLP.ligand.clash>
0.0000

> <Gold.PLP.ligand.torsion>
1.2766

> <Gold.PLP.Chemscore.Hbond>
3.0000

> <Gold.PLP.Chemscore.CHOScore>
0.9990

> <Gold.PLP.Chemscore.Metal>
0.0000

> <Gold.Chemscore.Hbonds>
donor molecule, donor type, donor heavy atom, donor atom, acceptor molecule, acceptor atom, score
      L1  H    10    35       P1 10175  1.00
      L1  H    13    36       P1 10175  1.00
      L1  C    21    44       P1 10171  1.00

> <Gold.PLP.Chemscore.Internal.Correction>
0.8685

> <Gold.Rescore>
     Score         DG    S(hbond)    S(metal)    S(lipo)     H(rot)  DE(clash)    DE(int)     intcor
     14.92     -19.11       2.72        0.00      69.10       1.39       1.53       2.67       ----

> <Gold.Chemscore.Fitness>
14.9195

> <Gold.Chemscore.DG>
-19.1119

> <Gold.Chemscore.ZeroCoef>
-5.4800

> <Gold.Chemscore.Hbond>
2.7243

> <Gold.Chemscore.Metal>
0.0000

> <Gold.Chemscore.Lipo>
69.1028

> <Gold.Chemscore.Internal_Hbond>
0.0000

> <Gold.Chemscore.DEClash>
1.5253

> <Gold.Chemscore.DEInternal>
2.6671

> <Gold.Chemscore.Rot>
1.3876

> <Gold.Chemscore.Internal.Correction>
   9.000000E+99

> <Gold.Chemscore.Hbonds>
donor molecule, donor type, donor heavy atom, donor atom, acceptor molecule, acceptor atom, score
      L1  H    10    35       P1 10175  0.97
      L1  H    13    36       P1 10175  0.68

> <Gold.Chemscore.Hbond.Weighted>
-9.0992

> <Gold.Chemscore.Metal.Weighted>
-0.0000

> <Gold.Chemscore.Lipo.Weighted>
-8.0850

> <Gold.Chemscore.Internal_Hbond.Weighted>
0.0000

> <Gold.Chemscore.DEClash.Weighted>
1.5253

> <Gold.Chemscore.DEInternal.Weighted>
2.6671

> <Gold.Chemscore.Rot.Weighted>
3.5524

> <Gold.Chemscore.Internal.Correction.Weighted>
   9.000000E+99

> <Gold.Protein.RotatedTorsions>
[ 6907 6896 6895 6894 ] final  150.60 input  -60.11 | X-H torsion
[ 7974 7965 7964 7962 ] final   57.17 input  175.53 | X-H torsion
[ 8008 7997 7996 7995 ] final -110.21 input   59.86 | X-H torsion
[ 10167 10162 10161 10158 ] final -155.60 input  -65.29 | X-H torsion
[ 10718 10713 10712 10709 ] final -129.63 input   66.30 | X-H torsion
[ 10763 10752 10751 10750 ] final   79.39 input  -60.55 | X-H torsion
[ 11005 11000 10999 10996 ] final   12.94 input  -57.11 | X-H torsion

> <Gold.Protein.ActiveResidues>
 VAL166  LYS551  ARG553  GLY616  TRP617  ASP618  TYR619  PRO620  LYS621  CYS622 
 ASP623  PHE694  ASN695  SER759  ASP760  ASP761  ALA762  ILE779  LEU786  VAL792 
 PHE793  MET794  SER795  GLU796  ALA797  LYS798  CYS799  TRP800  GLU811  SER814 

> <Gold.Protein.RotatedAtoms>
  152.1122  133.4307  159.4636 H   0  0  0  0  0  0  0  0  0  0  0  0  # atno 6907 bound_to 6896
  150.6868  134.2634  159.4568 H   0  0  0  0  0  0  0  0  0  0  0  0  # atno 6908 bound_to 6896
  152.0504  134.9656  160.0625 H   0  0  0  0  0  0  0  0  0  0  0  0  # atno 6909 bound_to 6896
  145.9320  139.3815  143.0415 H   0  0  0  0  0  0  0  0  0  0  0  0  # atno 7974 bound_to 7965
  154.9711  140.0397  157.2235 H   0  0  0  0  0  0  0  0  0  0  0  0  # atno 8008 bound_to 7997
  154.7800  140.2817  155.6049 H   0  0  0  0  0  0  0  0  0  0  0  0  # atno 8009 bound_to 7997
  156.2935  140.2593  156.2623 H   0  0  0  0  0  0  0  0  0  0  0  0  # atno 8010 bound_to 7997
  139.6918  143.9407  152.2388 H   0  0  0  0  0  0  0  0  0  0  0  0  # atno 10167 bound_to 10162
  156.2065  130.6891  151.0601 H   0  0  0  0  0  0  0  0  0  0  0  0  # atno 10718 bound_to 10713
  153.0949  135.4841  154.8759 H   0  0  0  0  0  0  0  0  0  0  0  0  # atno 10763 bound_to 10752
  154.7312  135.3060  154.8890 H   0  0  0  0  0  0  0  0  0  0  0  0  # atno 10764 bound_to 10752
  153.9525  135.6821  153.4797 H   0  0  0  0  0  0  0  0  0  0  0  0  # atno 10765 bound_to 10752
  140.4863  134.0885  155.7761 H   0  0  0  0  0  0  0  0  0  0  0  0  # atno 11005 bound_to 11000
  145.8414  140.9578  143.0797 LP  0  0  0  0  0  0  0  0  0  0  0  0  # atno 17320 bound_to 7965
  144.6766  140.0289  143.7483 LP  0  0  0  0  0  0  0  0  0  0  0  0  # atno 17321 bound_to 7965
  139.9226  144.6790  150.8446 LP  0  0  0  0  0  0  0  0  0  0  0  0  # atno 17342 bound_to 10162
  140.7685  143.3364  151.2299 LP  0  0  0  0  0  0  0  0  0  0  0  0  # atno 17343 bound_to 10162
  157.7015  131.0774  150.6804 LP  0  0  0  0  0  0  0  0  0  0  0  0  # atno 17370 bound_to 10713
  156.6863  130.4582  149.5613 LP  0  0  0  0  0  0  0  0  0  0  0  0  # atno 17371 bound_to 10713
  141.1506  133.8975  157.2107 LP  0  0  0  0  0  0  0  0  0  0  0  0  # atno 17394 bound_to 11000
  139.9796  135.0102  156.9716 LP  0  0  0  0  0  0  0  0  0  0  0  0  # atno 17395 bound_to 11000

$$$$
