#       Name:                AV-unprocessed.smi:1554
#       Creating user name   scv26
#       Creation time:       Fri Mar 27 06:44:31 2020


#       File generated by GOLD software.
#

@<TRIPOS>MOLECULE
AV-unprocessed.smi:1554
    53    55     1
SMALL
NO_CHARGES


@<TRIPOS>ATOM
      1 ****        -2.9045   4.7559   2.1628 C.3            1 S1                 0.0000
      2 ****        -2.6191   3.6211   1.1937 C.ar           1 S1                 0.0000
      3 ****        -2.9652   3.7920  -0.1659 C.ar           1 S1                 0.0000
      4 ****        -2.6871   2.7383  -1.0285 C.ar           1 S1                 0.0000
      5 ****        -2.8994   2.5976  -2.4017 N.pl3          1 S1                 1.0000
      6 ****        -2.4550   1.3761  -2.8081 C.2            1 S1                 0.0000
      7 ****        -1.9594   0.7355  -1.7141 N.pl3          1 S1                 0.0000
      8 ****        -1.3511  -0.5959  -1.5891 C.3            1 S1                 0.0000
      9 ****         0.1883  -0.5424  -1.5283 C.3            1 S1                 0.0000
     10 ****         0.6788   0.0353  -2.7230 O.3            1 S1                 0.0000
     11 ****         0.8103  -1.9424  -1.3549 C.3            1 S1                 0.0000
     12 ****         2.2817  -1.8877  -1.1369 N.4            1 S1                 1.0000
     13 ****         2.9911  -3.1265  -1.5398 C.3            1 S1                 0.0000
     14 ****         2.8289  -4.2303  -0.4796 C.3            1 S1                 0.0000
     15 ****         3.3019  -3.7538   0.7745 O.3            1 S1                 0.0000
     16 ****         2.5660  -2.6293   1.2439 C.3            1 S1                 0.0000
     17 ****         3.1103  -2.2451   2.6240 C.3            1 S1                 0.0000
     18 ****         2.6975  -1.4729   0.2284 C.3            1 S1                 0.0000
     19 ****        -2.0874   1.5454  -0.5808 C.ar           1 S1                 0.0000
     20 ****        -1.7437   1.3586   0.7558 C.ar           1 S1                 0.0000
     21 ****        -2.0171   2.4192   1.6487 C.ar           1 S1                 0.0000
     22 ****        -1.6512   2.2454   3.1130 C.3            1 S1                 0.0000
     23 ****        -3.3788   5.5997   1.6610 H              1 S1                 0.0000
     24 ****        -1.9792   5.1144   2.6145 H              1 S1                 0.0000
     25 ****        -3.5720   4.4228   2.9577 H              1 S1                 0.0000
     26 ****        -3.4244   4.7039  -0.5190 H              1 S1                 0.0000
     27 ****        -2.4856   0.9895  -3.8167 H              1 S1                 0.0000
     28 ****        -1.7619  -1.0763  -0.7001 H              1 S1                 0.0000
     29 ****        -1.6801  -1.1906  -2.4427 H              1 S1                 0.0000
     30 ****         0.4797   0.1032  -0.7012 H              1 S1                 0.0000
     31 ****         0.3920  -0.4899  -3.4548 H              1 S1                 0.0000
     32 ****         0.3315  -2.4683  -0.5289 H              1 S1                 0.0000
     33 ****         0.5914  -2.5287  -2.2486 H              1 S1                 0.0000
     34 ****         2.6474  -3.4700  -2.5161 H              1 S1                 0.0000
     35 ****         4.0504  -2.8927  -1.6550 H              1 S1                 0.0000
     36 ****         1.7896  -4.5515  -0.3963 H              1 S1                 0.0000
     37 ****         3.4098  -5.1082  -0.7625 H              1 S1                 0.0000
     38 ****         1.5193  -2.9126   1.3611 H              1 S1                 0.0000
     39 ****         2.5668  -1.3951   3.0376 H              1 S1                 0.0000
     40 ****         4.1655  -1.9751   2.5727 H              1 S1                 0.0000
     41 ****         3.0128  -3.0740   3.3254 H              1 S1                 0.0000
     42 ****         3.7403  -1.1566   0.1763 H              1 S1                 0.0000
     43 ****         2.1361  -0.6025   0.5652 H              1 S1                 0.0000
     44 ****        -1.2852   0.4443   1.1018 H              1 S1                 0.0000
     45 ****        -1.1882   1.2753   3.2965 H              1 S1                 0.0000
     46 ****        -2.5405   2.3136   3.7401 H              1 S1                 0.0000
     47 ****        -0.9457   3.0153   3.4264 H              1 S1                 0.0000
     48 ****         2.6078  -1.1689  -1.7679 H              1 S1                 0.0000
     49 ****        -3.3149   3.2840  -3.0188 H              1 S1                 0.0000
     50 ****         1.6782   0.0608  -2.6986 LP             1 S1                 0.0000
     51 ****         0.3239   0.9655  -2.8172 LP             1 S1                 0.0000
     52 ****         4.2616  -3.4905   0.6761 LP             1 S1                 0.0000
     53 ****         3.2256  -4.4902   1.4467 LP             1 S1                 0.0000
@<TRIPOS>BOND
    1    1    2 1     
    2    1   23 1     
    3    1   24 1     
    4    1   25 1     
    5    2   21 ar    
    6    2    3 ar    
    7    3    4 ar    
    8    3   26 1     
    9    4   19 ar    
   10    4    5 1     
   11    5    6 2     
   12    5   49 1     
   13    6    7 1     
   14    6   27 1     
   15    7    8 1     
   16    7   19 1     
   17    8    9 1     
   18    8   28 1     
   19    8   29 1     
   20    9   10 1     
   21    9   11 1     
   22    9   30 1     
   23   10   31 1     
   24   11   12 1     
   25   11   32 1     
   26   11   33 1     
   27   12   18 1     
   28   12   13 1     
   29   12   48 1     
   30   13   14 1     
   31   13   34 1     
   32   13   35 1     
   33   14   15 1     
   34   14   36 1     
   35   14   37 1     
   36   15   16 1     
   37   16   17 1     
   38   16   18 1     
   39   16   38 1     
   40   17   39 1     
   41   17   40 1     
   42   17   41 1     
   43   18   42 1     
   44   18   43 1     
   45   19   20 ar    
   46   20   21 ar    
   47   20   44 1     
   48   21   22 1     
   49   22   45 1     
   50   22   46 1     
   51   22   47 1     
   52   10   50 1     
   53   10   51 1     
   54   15   52 1     
   55   15   53 1     
@<TRIPOS>SUBSTRUCTURE
      1 S1             1
@<TRIPOS>SET
LONE_PAIRS      STATIC     ATOMS    <user>   **** ""
4 50 51 52 53
DONOR_HYDROGENS      STATIC     ATOMS    <user>   **** ""
3 49 31 48
ATOM$BLUE        STATIC     ATOMS    COLORGROUP SYSTEM
4 50 51 52 53
ATOM$RED        STATIC     ATOMS    COLORGROUP SYSTEM
3 49 31 48
