AV-unprocessed.smi:1762|AV-procd|sdf|7111|dock5
  -GOLD-   22720 8333D 1   1.00000     0.00000
 Structure written by MMmdl.
 53 54  0  0  0  0  0  0  0  0  2 V2000
  145.7926  132.3140  149.9127 C   0  0  0  0  0  0  0  0  0  0  0  0
  146.0996  133.6060  150.6785 C   0  0  2  0  0  0  0  0  0  0  0  0
  146.3524  133.3428  152.1747 C   0  0  0  0  0  0  0  0  0  0  0  0
  146.5659  134.6178  152.9128 N   0  3  2  0  0  0  0  0  0  0  0  0
  146.9188  134.4685  154.3669 C   0  0  2  0  0  0  0  0  0  0  0  0
  147.2869  135.8329  154.9889 C   0  0  0  0  0  0  0  0  0  0  0  0
  146.7981  136.1743  156.0666 O   0  0  0  0  0  0  0  0  0  0  0  0
  148.1504  136.5965  154.3029 N   0  0  0  0  0  0  0  0  0  0  0  0
  148.6179  137.9046  154.7404 C   0  0  0  0  0  0  0  0  0  0  0  0
  150.0565  138.1537  154.2668 C   0  0  0  0  0  0  0  0  0  0  0  0
  150.7378  139.2523  155.0606 C   0  0  0  0  0  0  0  0  0  0  0  0
  151.8731  138.9733  155.8511 C   0  0  0  0  0  0  0  0  0  0  0  0
  152.4732  140.0321  156.5597 C   0  0  0  0  0  0  0  0  0  0  0  0
  151.9190  141.3220  156.4501 C   0  0  0  0  0  0  0  0  0  0  0  0
  150.7834  141.4964  155.6345 C   0  0  0  0  0  0  0  0  0  0  0  0
  150.1998  140.4880  154.9513 N   0  0  0  0  0  0  0  0  0  0  0  0
  148.0391  133.4118  154.6538 C   0  0  0  0  0  0  0  0  0  0  0  0
  148.1594  133.0421  156.1456 C   0  0  0  0  0  0  0  0  0  0  0  0
  149.4242  133.7948  154.0912 C   0  0  0  0  0  0  0  0  0  0  0  0
  145.3879  135.5049  152.6877 C   0  0  0  0  0  0  0  0  0  0  0  0
  145.1231  135.7321  151.1884 C   0  0  1  0  0  0  0  0  0  0  0  0
  146.1571  136.6516  150.5143 C   0  0  0  0  0  0  0  0  0  0  0  0
  144.9877  134.4798  150.5223 O   0  0  0  0  0  0  0  0  0  0  0  0
  146.6187  131.6062  149.9875 H   0  0  0  0  0  0  0  0  0  0  0  0
  145.6267  132.5180  148.8546 H   0  0  0  0  0  0  0  0  0  0  0  0
  144.8982  131.8267  150.3014 H   0  0  0  0  0  0  0  0  0  0  0  0
  146.9870  134.0559  150.2329 H   0  0  0  0  0  0  0  0  0  0  0  0
  145.5145  132.8013  152.6171 H   0  0  0  0  0  0  0  0  0  0  0  0
  147.2239  132.6946  152.2371 H   0  0  0  0  0  0  0  0  0  0  0  0
  146.0135  134.1127  154.8633 H   0  0  0  0  0  0  0  0  0  0  0  0
  148.5069  136.2509  153.4235 H   0  0  0  0  0  0  0  0  0  0  0  0
  147.9534  138.6741  154.3446 H   0  0  0  0  0  0  0  0  0  0  0  0
  148.5695  137.9647  155.8294 H   0  0  0  0  0  0  0  0  0  0  0  0
  150.6445  137.2389  154.3565 H   0  0  0  0  0  0  0  0  0  0  0  0
  150.0613  138.4198  153.2088 H   0  0  0  0  0  0  0  0  0  0  0  0
  152.2773  137.9736  155.9126 H   0  0  0  0  0  0  0  0  0  0  0  0
  153.3432  139.8580  157.1750 H   0  0  0  0  0  0  0  0  0  0  0  0
  152.3542  142.1579  156.9775 H   0  0  0  0  0  0  0  0  0  0  0  0
  150.3328  142.4720  155.5269 H   0  0  0  0  0  0  0  0  0  0  0  0
  147.7420  132.4769  154.1809 H   0  0  0  0  0  0  0  0  0  0  0  0
  148.5617  133.8620  156.7413 H   0  0  0  0  0  0  0  0  0  0  0  0
  148.8259  132.1896  156.2808 H   0  0  0  0  0  0  0  0  0  0  0  0
  147.1906  132.7673  156.5638 H   0  0  0  0  0  0  0  0  0  0  0  0
  149.8468  134.6547  154.6112 H   0  0  0  0  0  0  0  0  0  0  0  0
  149.3832  134.0398  153.0304 H   0  0  0  0  0  0  0  0  0  0  0  0
  150.1293  132.9710  154.2048 H   0  0  0  0  0  0  0  0  0  0  0  0
  144.5098  135.0472  153.1461 H   0  0  0  0  0  0  0  0  0  0  0  0
  145.5112  136.4768  153.1647 H   0  0  0  0  0  0  0  0  0  0  0  0
  144.1555  136.2263  151.0948 H   0  0  0  0  0  0  0  0  0  0  0  0
  146.1353  137.6468  150.9591 H   0  0  0  0  0  0  0  0  0  0  0  0
  145.9443  136.7623  149.4509 H   0  0  0  0  0  0  0  0  0  0  0  0
  147.1751  136.2764  150.6158 H   0  0  0  0  0  0  0  0  0  0  0  0
  147.3590  135.0696  152.4797 H   0  0  0  0  0  0  0  0  0  0  0  0
  1  2  1  0  0  0  0
  1 24  1  0  0  0  0
  1 25  1  0  0  0  0
  1 26  1  0  0  0  0
  2 23  1  0  0  0  0
  2  3  1  0  0  0  0
  2 27  1  0  0  0  0
  3  4  1  0  0  0  0
  3 28  1  0  0  0  0
  3 29  1  0  0  0  0
  4  5  1  0  0  0  0
  4 20  1  0  0  0  0
  4 53  1  0  0  0  0
  5  6  1  0  0  0  0
  5 17  1  0  0  0  0
  5 30  1  0  0  0  0
  6  7  2  0  0  0  0
  6  8  1  0  0  0  0
  8  9  1  0  0  0  0
  8 31  1  0  0  0  0
  9 10  1  0  0  0  0
  9 32  1  0  0  0  0
  9 33  1  0  0  0  0
 10 11  1  0  0  0  0
 10 34  1  0  0  0  0
 10 35  1  0  0  0  0
 11 16  1  0  0  0  0
 11 12  2  0  0  0  0
 12 13  1  0  0  0  0
 12 36  1  0  0  0  0
 13 14  2  0  0  0  0
 13 37  1  0  0  0  0
 14 15  1  0  0  0  0
 14 38  1  0  0  0  0
 15 16  2  0  0  0  0
 15 39  1  0  0  0  0
 17 18  1  0  0  0  0
 17 19  1  0  0  0  0
 17 40  1  0  0  0  0
 18 41  1  0  0  0  0
 18 42  1  0  0  0  0
 18 43  1  0  0  0  0
 19 44  1  0  0  0  0
 19 45  1  0  0  0  0
 19 46  1  0  0  0  0
 20 21  1  0  0  0  0
 20 47  1  0  0  0  0
 20 48  1  0  0  0  0
 21 22  1  0  0  0  0
 21 23  1  0  0  0  0
 21 49  1  0  0  0  0
 22 50  1  0  0  0  0
 22 51  1  0  0  0  0
 22 52  1  0  0  0  0
M  CHG  1   4   1
M  END
> <s_m_source_file>
AV-unprocessed.smi

> <i_m_source_file_index>
1762

> <i_lp_mmshare_version>
43012

> <i_f3d_flags>
0

> <s_epik_input>
W0NIM11bQ0BASF0xW0NIMl1OKFtDSDJdW0NASF0oTzEpW0NIM10pW0NAQEhdKFtDSF0oW0NIM10pW0NIM10pQyg9TylbTkhdW0NIMl1bQ0gyXWMyW2NIXVtjSF1bY0hdW2NIXW4y

> <s_epik_cmdline>
J2VwaWtfcHl0aG9uJywgJy1waCcsICc3LjAnLCAnLXRuJywgJzgnLCAnLW1hJywgJzIwMCcsICctbWV0YWxfYmluZGluZycsICctaW1hZScsICc8aW5maWxlLm1hZT4nLCAnLW9tYWUnLCAnPG91dGZpbGUubWFlPic=

> <r_epik_Ionization_Penalty>
2.27005

> <r_epik_Ionization_Penalty_Charging>
2.24983

> <r_epik_Ionization_Penalty_Neutral>
0.0202209

> <r_epik_State_Penalty>
2.40228

> <r_epik_Charging_Adjusted_Penalty>
4.65211

> <i_epik_Tot_Q>
1

> <i_epik_Tot_abs_Q>
1

> <r_epik_Metal_State_Penalty>
2.40762

> <b_epik_Metal_Only>
0

> <s_lp_Force_Field>
OPLS_2005

> <r_lp_Energy>
24.4928

> <b_lp_Chiralities_Consistent>
1

> <s_lp_Variant>
AV-unprocessed.smi:1762-13

> <Gold.Version>
5.8.1

> <Gold.Id.Protein>
6NUR|6NUR_protein|mol2

> <Gold.PLP.Fitness>
41.5775

> <Gold.PLP.PLP>
-31.0234

> <Gold.PLP.part.hbond>
-1.9781

> <Gold.PLP.part.metal>
0.0000

> <Gold.PLP.part.buried>
-0.9096

> <Gold.PLP.part.nonpolar>
-28.1919

> <Gold.PLP.part.repulsive>
0.4894

> <Gold.PLP.ligand.clash>
0.0000

> <Gold.PLP.ligand.torsion>
0.8380

> <Gold.PLP.Chemscore.Hbond>
3.0000

> <Gold.PLP.Chemscore.CHOScore>
1.0000

> <Gold.PLP.Chemscore.Metal>
0.0000

> <Gold.Chemscore.Hbonds>
donor molecule, donor type, donor heavy atom, donor atom, acceptor molecule, acceptor atom, score
      L1  H     4    53       P1  7948  1.95
      L1  H     8    31       P1  7948  1.00
      P1  H  7989  7998       L1    16  0.09
      L1  C    15    39       P1  8028  0.64

> <Gold.PLP.Chemscore.Internal.Correction>
0.2301

> <Gold.Rescore>
     Score         DG    S(hbond)    S(metal)    S(lipo)     H(rot)  DE(clash)    DE(int)     intcor
     17.42     -19.46       1.97        0.00      99.77       1.66       1.19       0.85       ----

> <Gold.Chemscore.Fitness>
17.4200

> <Gold.Chemscore.DG>
-19.4614

> <Gold.Chemscore.ZeroCoef>
-5.4800

> <Gold.Chemscore.Hbond>
1.9660

> <Gold.Chemscore.Metal>
0.0000

> <Gold.Chemscore.Lipo>
99.7739

> <Gold.Chemscore.Internal_Hbond>
0.0000

> <Gold.Chemscore.DEClash>
1.1873

> <Gold.Chemscore.DEInternal>
0.8541

> <Gold.Chemscore.Rot>
1.6635

> <Gold.Chemscore.Internal.Correction>
   9.000000E+99

> <Gold.Chemscore.Hbonds>
donor molecule, donor type, donor heavy atom, donor atom, acceptor molecule, acceptor atom, score
      L1  H     4    53       P1  7948  0.92
      L1  H     8    31       P1  7948  0.99

> <Gold.Chemscore.Hbond.Weighted>
-6.5665

> <Gold.Chemscore.Metal.Weighted>
-0.0000

> <Gold.Chemscore.Lipo.Weighted>
-11.6735

> <Gold.Chemscore.Internal_Hbond.Weighted>
0.0000

> <Gold.Chemscore.DEClash.Weighted>
1.1873

> <Gold.Chemscore.DEInternal.Weighted>
0.8541

> <Gold.Chemscore.Rot.Weighted>
4.2586

> <Gold.Chemscore.Internal.Correction.Weighted>
   9.000000E+99

> <Gold.Protein.RotatedTorsions>
[ 6907 6896 6895 6894 ] final  115.07 input  -60.11 | X-H torsion
[ 7974 7965 7964 7962 ] final  131.88 input  175.53 | X-H torsion
[ 8008 7997 7996 7995 ] final   46.94 input   59.86 | X-H torsion
[ 10167 10162 10161 10158 ] final -144.88 input  -65.29 | X-H torsion
[ 10718 10713 10712 10709 ] final  111.23 input   66.30 | X-H torsion
[ 10763 10752 10751 10750 ] final -129.50 input  -60.55 | X-H torsion
[ 11005 11000 10999 10996 ] final  121.02 input  -57.11 | X-H torsion

> <Gold.Protein.ActiveResidues>
 VAL166  LYS551  ARG553  GLY616  TRP617  ASP618  TYR619  PRO620  LYS621  CYS622 
 ASP623  PHE694  ASN695  SER759  ASP760  ASP761  ALA762  ILE779  LEU786  VAL792 
 PHE793  MET794  SER795  GLU796  ALA797  LYS798  CYS799  TRP800  GLU811  SER814 

> <Gold.Protein.RotatedAtoms>
  152.4764  133.8149  159.7022 H   0  0  0  0  0  0  0  0  0  0  0  0  # atno 6907 bound_to 6896
  150.8784  133.7397  159.2946 H   0  0  0  0  0  0  0  0  0  0  0  0  # atno 6908 bound_to 6896
  151.4909  135.1061  159.9855 H   0  0  0  0  0  0  0  0  0  0  0  0  # atno 6909 bound_to 6896
  145.0026  139.4297  143.5284 H   0  0  0  0  0  0  0  0  0  0  0  0  # atno 7974 bound_to 7965
  155.3607  140.3418  155.4241 H   0  0  0  0  0  0  0  0  0  0  0  0  # atno 8008 bound_to 7997
  156.1715  140.1633  156.8474 H   0  0  0  0  0  0  0  0  0  0  0  0  # atno 8009 bound_to 7997
  154.5238  140.0761  156.8203 H   0  0  0  0  0  0  0  0  0  0  0  0  # atno 8010 bound_to 7997
  139.7857  143.8037  152.2644 H   0  0  0  0  0  0  0  0  0  0  0  0  # atno 10167 bound_to 10162
  157.6455  131.0947  150.6719 H   0  0  0  0  0  0  0  0  0  0  0  0  # atno 10718 bound_to 10713
  154.8757  135.3893  154.3930 H   0  0  0  0  0  0  0  0  0  0  0  0  # atno 10763 bound_to 10752
  153.4664  135.7029  153.6025 H   0  0  0  0  0  0  0  0  0  0  0  0  # atno 10764 bound_to 10752
  153.4501  135.3836  155.2247 H   0  0  0  0  0  0  0  0  0  0  0  0  # atno 10765 bound_to 10752
  139.9209  134.9637  156.7895 H   0  0  0  0  0  0  0  0  0  0  0  0  # atno 11005 bound_to 11000
  146.3455  139.9424  142.8739 LP  0  0  0  0  0  0  0  0  0  0  0  0  # atno 17320 bound_to 7965
  145.2132  140.9904  143.4088 LP  0  0  0  0  0  0  0  0  0  0  0  0  # atno 17321 bound_to 7965
  139.8113  144.7334  150.9693 LP  0  0  0  0  0  0  0  0  0  0  0  0  # atno 17342 bound_to 10162
  140.7819  143.4248  151.0785 LP  0  0  0  0  0  0  0  0  0  0  0  0  # atno 17343 bound_to 10162
  156.7037  130.4631  149.5566 LP  0  0  0  0  0  0  0  0  0  0  0  0  # atno 17370 bound_to 10713
  156.1778  130.6479  151.0915 LP  0  0  0  0  0  0  0  0  0  0  0  0  # atno 17371 bound_to 10713
  140.6478  133.9759  155.7740 LP  0  0  0  0  0  0  0  0  0  0  0  0  # atno 17394 bound_to 11000
  141.0728  134.0180  157.3501 LP  0  0  0  0  0  0  0  0  0  0  0  0  # atno 17395 bound_to 11000

$$$$
