AV-unprocessed.smi:1509|AV-procd|sdf|6092|dock4
  -GOLD-   22720 6223D 1   1.00000     0.00000
 Structure written by MMmdl.
 42 43  0  0  0  0  0  0  0  0  2 V2000
  152.3631  144.9544  158.0405 C   0  0  0  0  0  0  0  0  0  0  0  0
  151.2630  144.3561  158.9349 C   0  0  2  0  0  0  0  0  0  0  0  0
  151.7831  143.9377  160.3225 C   0  0  0  0  0  0  0  0  0  0  0  0
  152.6181  142.6524  160.2394 C   0  0  0  0  0  0  0  0  0  0  0  0
  151.8394  141.5333  159.5300 C   0  0  0  0  0  0  0  0  0  0  0  0
  151.3890  141.9640  158.1812 N   0  3  1  0  0  0  0  0  0  0  0  0
  150.7663  140.8533  157.4170 C   0  0  0  0  0  0  0  0  0  0  0  0
  150.8967  141.0389  155.8954 C   0  0  0  0  0  0  0  0  0  0  0  0
  149.5701  140.7779  155.1621 C   0  0  0  0  0  0  0  0  0  0  0  0
  148.5092  141.6626  155.6299 N   0  0  0  0  0  0  0  0  0  0  0  0
  147.4650  141.2800  156.3818 C   0  0  0  0  0  0  0  0  0  0  0  0
  147.2809  140.1180  156.7433 O   0  0  0  0  0  0  0  0  0  0  0  0
  146.4782  142.3733  156.7919 C   0  0  0  0  0  0  0  0  0  0  0  0
  146.3477  142.4393  158.2350 N   0  0  0  0  0  0  0  0  0  0  0  0
  146.8456  143.3029  159.1224 C   0  0  0  0  0  0  0  0  0  0  0  0
  146.4864  142.9951  160.3594 N   0  0  0  0  0  0  0  0  0  0  0  0
  145.7150  141.8576  160.1889 N   0  0  0  0  0  0  0  0  0  0  0  0
  145.6290  141.5230  158.9305 N   0  0  0  0  0  0  0  0  0  0  0  0
  150.5333  143.1799  158.2532 C   0  0  0  0  0  0  0  0  0  0  0  0
  153.1376  144.2254  157.8023 H   0  0  0  0  0  0  0  0  0  0  0  0
  152.8448  145.8028  158.5273 H   0  0  0  0  0  0  0  0  0  0  0  0
  151.9482  145.3121  157.0976 H   0  0  0  0  0  0  0  0  0  0  0  0
  150.5303  145.1491  159.0901 H   0  0  0  0  0  0  0  0  0  0  0  0
  152.3669  144.7413  160.7723 H   0  0  0  0  0  0  0  0  0  0  0  0
  150.9350  143.7679  160.9874 H   0  0  0  0  0  0  0  0  0  0  0  0
  153.5504  142.8465  159.7080 H   0  0  0  0  0  0  0  0  0  0  0  0
  152.9004  142.3293  161.2417 H   0  0  0  0  0  0  0  0  0  0  0  0
  152.4813  140.6556  159.4441 H   0  0  0  0  0  0  0  0  0  0  0  0
  150.9751  141.2372  160.1267 H   0  0  0  0  0  0  0  0  0  0  0  0
  151.2619  139.9179  157.6818 H   0  0  0  0  0  0  0  0  0  0  0  0
  149.7209  140.7403  157.7080 H   0  0  0  0  0  0  0  0  0  0  0  0
  151.2345  142.0480  155.6612 H   0  0  0  0  0  0  0  0  0  0  0  0
  151.6633  140.3609  155.5181 H   0  0  0  0  0  0  0  0  0  0  0  0
  149.6983  140.8913  154.0841 H   0  0  0  0  0  0  0  0  0  0  0  0
  149.2496  139.7493  155.3290 H   0  0  0  0  0  0  0  0  0  0  0  0
  148.5827  142.6379  155.3777 H   0  0  0  0  0  0  0  0  0  0  0  0
  146.8093  143.3449  156.4230 H   0  0  0  0  0  0  0  0  0  0  0  0
  145.5004  142.1774  156.3489 H   0  0  0  0  0  0  0  0  0  0  0  0
  147.4673  144.1480  158.8649 H   0  0  0  0  0  0  0  0  0  0  0  0
  149.6238  142.9410  158.8072 H   0  0  0  0  0  0  0  0  0  0  0  0
  150.2146  143.4864  157.2575 H   0  0  0  0  0  0  0  0  0  0  0  0
  152.2256  142.2222  157.6775 H   0  0  0  0  0  0  0  0  0  0  0  0
  1  2  1  0  0  0  0
  1 20  1  0  0  0  0
  1 21  1  0  0  0  0
  1 22  1  0  0  0  0
  2 19  1  0  0  0  0
  2  3  1  0  0  0  0
  2 23  1  0  0  0  0
  3  4  1  0  0  0  0
  3 24  1  0  0  0  0
  3 25  1  0  0  0  0
  4  5  1  0  0  0  0
  4 26  1  0  0  0  0
  4 27  1  0  0  0  0
  5  6  1  0  0  0  0
  5 28  1  0  0  0  0
  5 29  1  0  0  0  0
  6  7  1  0  0  0  0
  6 19  1  0  0  0  0
  6 42  1  0  0  0  0
  7  8  1  0  0  0  0
  7 30  1  0  0  0  0
  7 31  1  0  0  0  0
  8  9  1  0  0  0  0
  8 32  1  0  0  0  0
  8 33  1  0  0  0  0
  9 10  1  0  0  0  0
  9 34  1  0  0  0  0
  9 35  1  0  0  0  0
 10 11  1  0  0  0  0
 10 36  1  0  0  0  0
 11 12  2  0  0  0  0
 11 13  1  0  0  0  0
 13 14  1  0  0  0  0
 13 37  1  0  0  0  0
 13 38  1  0  0  0  0
 14 18  1  0  0  0  0
 14 15  1  0  0  0  0
 15 16  2  0  0  0  0
 15 39  1  0  0  0  0
 16 17  1  0  0  0  0
 17 18  2  0  0  0  0
 19 40  1  0  0  0  0
 19 41  1  0  0  0  0
M  CHG  1   6   1
M  END
> <s_m_source_file>
AV-unprocessed.smi

> <i_m_source_file_index>
1509

> <i_lp_mmshare_version>
43012

> <i_f3d_flags>
0

> <s_epik_input>
W0NIM11bQ0BASF0xW0NIMl1bQ0gyXVtDSDJdTihbQ0gyXTEpW0NIMl1bQ0gyXVtDSDJdW05IXUMoPU8pW0NIMl1uMltjSF1ubm4y

> <s_epik_cmdline>
J2VwaWtfcHl0aG9uJywgJy1waCcsICc3LjAnLCAnLXRuJywgJzgnLCAnLW1hJywgJzIwMCcsICctbWV0YWxfYmluZGluZycsICctaW1hZScsICc8aW5maWxlLm1hZT4nLCAnLW9tYWUnLCAnPG91dGZpbGUubWFlPic=

> <r_lp_tautomer_probability>
1

> <r_epik_Ionization_Penalty>
0.00044216

> <r_epik_Ionization_Penalty_Charging>
0.000440775

> <r_epik_Ionization_Penalty_Neutral>
1.38512e-06

> <r_epik_State_Penalty>
0.000271914

> <r_epik_Charging_Adjusted_Penalty>
0.000712689

> <i_epik_Tot_Q>
1

> <i_epik_Tot_abs_Q>
1

> <r_epik_Metal_State_Penalty>
-0

> <b_epik_Metal_Only>
0

> <s_lp_Force_Field>
OPLS_2005

> <r_lp_Energy>
22.816

> <b_lp_Chiralities_Consistent>
1

> <s_lp_Variant>
AV-unprocessed.smi:1509-3

> <Gold.Version>
5.8.1

> <Gold.Id.Protein>
6NUR|6NUR_protein|mol2

> <Gold.PLP.Fitness>
47.9934

> <Gold.PLP.PLP>
-37.6598

> <Gold.PLP.part.hbond>
-4.6634

> <Gold.PLP.part.metal>
0.0000

> <Gold.PLP.part.buried>
-4.3366

> <Gold.PLP.part.nonpolar>
-28.6069

> <Gold.PLP.part.repulsive>
0.1990

> <Gold.PLP.ligand.clash>
0.0000

> <Gold.PLP.ligand.torsion>
0.8622

> <Gold.PLP.Chemscore.Hbond>
2.9913

> <Gold.PLP.Chemscore.CHOScore>
1.0000

> <Gold.PLP.Chemscore.Metal>
0.0000

> <Gold.Chemscore.Hbonds>
donor molecule, donor type, donor heavy atom, donor atom, acceptor molecule, acceptor atom, score
      L1  H    10    36       P1  8028  0.80
      P1  H  6933  6944       L1    16  0.15
      P1  H  6934  6946       L1    17  0.70
      L1  C    15    39       P1  8029  1.00

> <Gold.PLP.Chemscore.Internal.Correction>
0.0842

> <Gold.Rescore>
     Score         DG    S(hbond)    S(metal)    S(lipo)     H(rot)  DE(clash)    DE(int)     intcor
     13.04     -13.91       1.63        0.00      90.50       2.97       0.03       0.84       ----

> <Gold.Chemscore.Fitness>
13.0360

> <Gold.Chemscore.DG>
-13.9143

> <Gold.Chemscore.ZeroCoef>
-5.4800

> <Gold.Chemscore.Hbond>
1.6300

> <Gold.Chemscore.Metal>
0.0000

> <Gold.Chemscore.Lipo>
90.4975

> <Gold.Chemscore.Internal_Hbond>
0.0000

> <Gold.Chemscore.DEClash>
0.0349

> <Gold.Chemscore.DEInternal>
0.8434

> <Gold.Chemscore.Rot>
2.9680

> <Gold.Chemscore.Internal.Correction>
   9.000000E+99

> <Gold.Chemscore.Hbonds>
donor molecule, donor type, donor heavy atom, donor atom, acceptor molecule, acceptor atom, score
      L1  H    10    36       P1  8028  0.78
      P1  H  6933  6944       L1    16  0.05
      P1  H  6934  6946       L1    17  0.03

> <Gold.Chemscore.Hbond.Weighted>
-5.4441

> <Gold.Chemscore.Metal.Weighted>
-0.0000

> <Gold.Chemscore.Lipo.Weighted>
-10.5882

> <Gold.Chemscore.Internal_Hbond.Weighted>
0.0000

> <Gold.Chemscore.DEClash.Weighted>
0.0349

> <Gold.Chemscore.DEInternal.Weighted>
0.8434

> <Gold.Chemscore.Rot.Weighted>
7.5980

> <Gold.Chemscore.Internal.Correction.Weighted>
   9.000000E+99

> <Gold.Protein.RotatedTorsions>
[ 6907 6896 6895 6894 ] final  -73.82 input  -60.11 | X-H torsion
[ 7974 7965 7964 7962 ] final   15.24 input  175.53 | X-H torsion
[ 8008 7997 7996 7995 ] final -144.42 input   59.86 | X-H torsion
[ 10167 10162 10161 10158 ] final  157.04 input  -65.29 | X-H torsion
[ 10718 10713 10712 10709 ] final -173.67 input   66.30 | X-H torsion
[ 10763 10752 10751 10750 ] final  -28.39 input  -60.55 | X-H torsion
[ 11005 11000 10999 10996 ] final   80.76 input  -57.11 | X-H torsion

> <Gold.Protein.ActiveResidues>
 VAL166  LYS551  ARG553  GLY616  TRP617  ASP618  TYR619  PRO620  LYS621  CYS622 
 ASP623  PHE694  ASN695  SER759  ASP760  ASP761  ALA762  ILE779  LEU786  VAL792 
 PHE793  MET794  SER795  GLU796  ALA797  LYS798  CYS799  TRP800  GLU811  SER814 

> <Gold.Protein.RotatedAtoms>
  150.7116  134.4961  159.5538 H   0  0  0  0  0  0  0  0  0  0  0  0  # atno 6907 bound_to 6896
  152.2568  134.8073  160.0446 H   0  0  0  0  0  0  0  0  0  0  0  0  # atno 6908 bound_to 6896
  151.8800  133.3458  159.3800 H   0  0  0  0  0  0  0  0  0  0  0  0  # atno 6909 bound_to 6896
  146.2283  139.8922  142.8553 H   0  0  0  0  0  0  0  0  0  0  0  0  # atno 7974 bound_to 7965
  155.5265  140.0596  157.2897 H   0  0  0  0  0  0  0  0  0  0  0  0  # atno 8008 bound_to 7997
  154.4499  140.1943  156.0497 H   0  0  0  0  0  0  0  0  0  0  0  0  # atno 8009 bound_to 7997
  156.0682  140.3263  155.7547 H   0  0  0  0  0  0  0  0  0  0  0  0  # atno 8010 bound_to 7997
  139.4822  144.4954  151.8247 H   0  0  0  0  0  0  0  0  0  0  0  0  # atno 10167 bound_to 10162
  156.7737  130.9458  151.3120 H   0  0  0  0  0  0  0  0  0  0  0  0  # atno 10718 bound_to 10713
  153.7476  135.6928  153.4953 H   0  0  0  0  0  0  0  0  0  0  0  0  # atno 10763 bound_to 10752
  153.2025  135.4431  155.0282 H   0  0  0  0  0  0  0  0  0  0  0  0  # atno 10764 bound_to 10752
  154.8198  135.3416  154.6999 H   0  0  0  0  0  0  0  0  0  0  0  0  # atno 10765 bound_to 10752
  139.9122  134.7945  156.1952 H   0  0  0  0  0  0  0  0  0  0  0  0  # atno 11005 bound_to 11000
  145.2406  141.0007  143.3938 LP  0  0  0  0  0  0  0  0  0  0  0  0  # atno 17320 bound_to 7965
  144.9455  139.4141  143.6428 LP  0  0  0  0  0  0  0  0  0  0  0  0  # atno 17321 bound_to 7965
  140.4442  144.1945  150.5893 LP  0  0  0  0  0  0  0  0  0  0  0  0  # atno 17342 bound_to 10162
  140.4652  143.2433  151.9165 LP  0  0  0  0  0  0  0  0  0  0  0  0  # atno 17343 bound_to 10162
  157.6679  130.9024  149.9973 LP  0  0  0  0  0  0  0  0  0  0  0  0  # atno 17370 bound_to 10713
  156.1262  130.3644  149.9806 LP  0  0  0  0  0  0  0  0  0  0  0  0  # atno 17371 bound_to 10713
  141.0559  133.6865  156.1860 LP  0  0  0  0  0  0  0  0  0  0  0  0  # atno 17394 bound_to 11000
  140.6737  134.4840  157.5588 LP  0  0  0  0  0  0  0  0  0  0  0  0  # atno 17395 bound_to 11000

$$$$
