AV-unprocessed.smi:1978|AV-procd|sdf|8000|dock3
  -GOLD-   2272010183D 1   1.00000     0.00000
 Structure written by MMmdl.
 44 45  0  0  0  0  0  0  0  0  3 V2000
  146.0141  134.5227  162.4894 C   0  0  0  0  0  0  0  0  0  0  0  0
  146.9524  135.2848  161.6174 C   0  0  0  0  0  0  0  0  0  0  0  0
  147.7897  134.9102  160.6050 C   0  0  0  0  0  0  0  0  0  0  0  0
  148.3853  136.1378  160.2051 C   0  0  0  0  0  0  0  0  0  0  0  0
  149.3001  136.2935  159.2357 N   0  5  0  0  0  0  0  0  0  0  0  0
  148.9162  136.6486  157.9888 C   0  0  0  0  0  0  0  0  0  0  0  0
  148.4600  137.7420  157.6461 O   0  0  0  0  0  0  0  0  0  0  0  0
  149.0659  135.6735  157.0807 N   0  0  0  0  0  0  0  0  0  0  0  0
  148.7219  135.7700  155.6651 C   0  0  0  0  0  0  0  0  0  0  0  0
  148.4670  134.3841  155.0028 C   0  0  2  0  0  0  0  0  0  0  0  0
  149.8143  133.6381  154.8329 C   0  0  0  0  0  0  0  0  0  0  0  0
  147.7293  134.4847  153.6955 N   0  3  1  0  0  0  0  0  0  0  0  0
  147.5772  133.1743  152.9914 C   0  0  0  0  0  0  0  0  0  0  0  0
  147.0171  133.3444  151.5699 C   0  0  0  0  0  0  0  0  0  0  0  0
  145.6820  134.0897  151.5822 C   0  0  0  0  0  0  0  0  0  0  0  0
  145.8527  135.4242  152.3143 C   0  0  0  0  0  0  0  0  0  0  0  0
  146.4336  135.2438  153.7329 C   0  0  1  0  0  0  0  0  0  0  0  0
  145.3976  134.6444  154.7108 C   0  0  0  0  0  0  0  0  0  0  0  0
  147.9610  137.1635  160.9240 N   0  0  0  0  0  0  0  0  0  0  0  0
  147.0372  136.6260  161.8282 O   0  0  0  0  0  0  0  0  0  0  0  0
  146.5514  133.7721  163.0690 H   0  0  0  0  0  0  0  0  0  0  0  0
  145.2597  134.0127  161.8904 H   0  0  0  0  0  0  0  0  0  0  0  0
  145.5007  135.1839  163.1878 H   0  0  0  0  0  0  0  0  0  0  0  0
  147.9481  133.9181  160.2100 H   0  0  0  0  0  0  0  0  0  0  0  0
  149.4491  134.7962  157.4016 H   0  0  0  0  0  0  0  0  0  0  0  0
  147.8549  136.4264  155.6050 H   0  0  0  0  0  0  0  0  0  0  0  0
  149.5359  136.2843  155.1537 H   0  0  0  0  0  0  0  0  0  0  0  0
  147.8488  133.7937  155.6802 H   0  0  0  0  0  0  0  0  0  0  0  0
  150.4060  133.6433  155.7476 H   0  0  0  0  0  0  0  0  0  0  0  0
  150.4224  134.0944  154.0514 H   0  0  0  0  0  0  0  0  0  0  0  0
  149.6840  132.5847  154.5922 H   0  0  0  0  0  0  0  0  0  0  0  0
  148.5335  132.6688  152.8843 H   0  0  0  0  0  0  0  0  0  0  0  0
  146.9412  132.5078  153.5747 H   0  0  0  0  0  0  0  0  0  0  0  0
  147.7362  133.8911  150.9577 H   0  0  0  0  0  0  0  0  0  0  0  0
  146.8922  132.3682  151.1002 H   0  0  0  0  0  0  0  0  0  0  0  0
  145.3378  134.2617  150.5619 H   0  0  0  0  0  0  0  0  0  0  0  0
  144.9182  133.4832  152.0694 H   0  0  0  0  0  0  0  0  0  0  0  0
  146.5186  136.0649  151.7340 H   0  0  0  0  0  0  0  0  0  0  0  0
  144.8973  135.9482  152.3605 H   0  0  0  0  0  0  0  0  0  0  0  0
  146.6420  136.2608  154.0602 H   0  0  0  0  0  0  0  0  0  0  0  0
  144.4883  135.2458  154.7220 H   0  0  0  0  0  0  0  0  0  0  0  0
  145.7673  134.6165  155.7352 H   0  0  0  0  0  0  0  0  0  0  0  0
  145.1096  133.6295  154.4399 H   0  0  0  0  0  0  0  0  0  0  0  0
  148.3318  135.0369  153.1024 H   0  0  0  0  0  0  0  0  0  0  0  0
  1  2  1  0  0  0  0
  1 21  1  0  0  0  0
  1 22  1  0  0  0  0
  1 23  1  0  0  0  0
  2 20  1  0  0  0  0
  2  3  2  0  0  0  0
  3  4  1  0  0  0  0
  3 24  1  0  0  0  0
  4  5  1  0  0  0  0
  4 19  2  0  0  0  0
  5  6  1  0  0  0  0
  6  7  2  0  0  0  0
  6  8  1  0  0  0  0
  8  9  1  0  0  0  0
  8 25  1  0  0  0  0
  9 10  1  0  0  0  0
  9 26  1  0  0  0  0
  9 27  1  0  0  0  0
 10 11  1  0  0  0  0
 10 12  1  0  0  0  0
 10 28  1  0  0  0  0
 11 29  1  0  0  0  0
 11 30  1  0  0  0  0
 11 31  1  0  0  0  0
 12 17  1  0  0  0  0
 12 13  1  0  0  0  0
 12 44  1  0  0  0  0
 13 14  1  0  0  0  0
 13 32  1  0  0  0  0
 13 33  1  0  0  0  0
 14 15  1  0  0  0  0
 14 34  1  0  0  0  0
 14 35  1  0  0  0  0
 15 16  1  0  0  0  0
 15 36  1  0  0  0  0
 15 37  1  0  0  0  0
 16 17  1  0  0  0  0
 16 38  1  0  0  0  0
 16 39  1  0  0  0  0
 17 18  1  0  0  0  0
 17 40  1  0  0  0  0
 18 41  1  0  0  0  0
 18 42  1  0  0  0  0
 18 43  1  0  0  0  0
 19 20  1  0  0  0  0
M  CHG  1   5  -1
M  CHG  1  12   1
M  END
> <s_m_source_file>
AV-unprocessed.smi

> <i_m_source_file_index>
1978

> <i_lp_mmshare_version>
43012

> <i_f3d_flags>
0

> <s_epik_input>
W0NIM11jMVtjSF1jKG5vMSlbTkhdQyg9TylbTkhdW0NIMl1bQ0BIXShbQ0gzXSlOMltDSDJdW0NIMl1bQ0gyXVtDSDJdW0NASF0yW0NIM10=

> <s_epik_cmdline>
J2VwaWtfcHl0aG9uJywgJy1waCcsICc3LjAnLCAnLXRuJywgJzgnLCAnLW1hJywgJzIwMCcsICctbWV0YWxfYmluZGluZycsICctaW1hZScsICc8aW5maWxlLm1hZT4nLCAnLW9tYWUnLCAnPG91dGZpbGUubWFlPic=

> <r_epik_Ionization_Penalty>
6.22372

> <r_epik_Ionization_Penalty_Charging>
6.22362

> <r_epik_Ionization_Penalty_Neutral>
9.65074e-05

> <r_epik_State_Penalty>
6.22363

> <r_epik_Charging_Adjusted_Penalty>
12.4472

> <i_epik_Tot_Q>
0

> <i_epik_Tot_abs_Q>
2

> <r_epik_Metal_State_Penalty>
2.16675

> <b_epik_Metal_Only>
1

> <s_lp_Force_Field>
OPLS_2005

> <r_lp_Energy>
12.8084

> <b_lp_Chiralities_Consistent>
1

> <s_lp_Variant>
AV-unprocessed.smi:1978-9

> <Gold.Version>
5.8.1

> <Gold.Id.Protein>
6NUR|6NUR_protein|mol2

> <Gold.PLP.Fitness>
42.0398

> <Gold.PLP.PLP>
-29.0011

> <Gold.PLP.part.hbond>
-3.9814

> <Gold.PLP.part.metal>
0.0000

> <Gold.PLP.part.buried>
-4.5107

> <Gold.PLP.part.nonpolar>
-21.1125

> <Gold.PLP.part.repulsive>
0.0526

> <Gold.PLP.ligand.clash>
0.0000

> <Gold.PLP.ligand.torsion>
1.7074

> <Gold.PLP.Chemscore.Hbond>
5.4368

> <Gold.PLP.Chemscore.CHOScore>
0.0000

> <Gold.PLP.Chemscore.Metal>
0.0000

> <Gold.Chemscore.Hbonds>
donor molecule, donor type, donor heavy atom, donor atom, acceptor molecule, acceptor atom, score
      L1  H    12    44       P1  7948  2.00
      P1  H  6896  6908       L1     5  1.40
      P1  H  6931  6943       L1    19  0.93
      P1  H  6934  6947       L1    19  0.61

> <Gold.PLP.Chemscore.Internal.Correction>
0.1429

> <Gold.Rescore>
     Score         DG    S(hbond)    S(metal)    S(lipo)     H(rot)  DE(clash)    DE(int)     intcor
     15.72     -17.49       2.87        0.00      53.86       1.52       0.00       1.76       ----

> <Gold.Chemscore.Fitness>
15.7245

> <Gold.Chemscore.DG>
-17.4860

> <Gold.Chemscore.ZeroCoef>
-5.4800

> <Gold.Chemscore.Hbond>
2.8720

> <Gold.Chemscore.Metal>
0.0000

> <Gold.Chemscore.Lipo>
53.8634

> <Gold.Chemscore.Internal_Hbond>
0.0000

> <Gold.Chemscore.DEClash>
0.0048

> <Gold.Chemscore.DEInternal>
1.7566

> <Gold.Chemscore.Rot>
1.5190

> <Gold.Chemscore.Internal.Correction>
   9.000000E+99

> <Gold.Chemscore.Hbonds>
donor molecule, donor type, donor heavy atom, donor atom, acceptor molecule, acceptor atom, score
      L1  H    12    44       P1  7948  0.88
      P1  H  6896  6908       L1     5  0.32
      P1  H  6931  6943       L1    19  0.49
      P1  H  6934  6947       L1    19  0.09

> <Gold.Chemscore.Hbond.Weighted>
-9.5926

> <Gold.Chemscore.Metal.Weighted>
-0.0000

> <Gold.Chemscore.Lipo.Weighted>
-6.3020

> <Gold.Chemscore.Internal_Hbond.Weighted>
0.0000

> <Gold.Chemscore.DEClash.Weighted>
0.0048

> <Gold.Chemscore.DEInternal.Weighted>
1.7566

> <Gold.Chemscore.Rot.Weighted>
3.8886

> <Gold.Chemscore.Internal.Correction.Weighted>
   9.000000E+99

> <Gold.Protein.RotatedTorsions>
[ 6907 6896 6895 6894 ] final -176.68 input  -60.11 | X-H torsion
[ 7974 7965 7964 7962 ] final -147.18 input  175.53 | X-H torsion
[ 8008 7997 7996 7995 ] final  135.64 input   59.86 | X-H torsion
[ 10167 10162 10161 10158 ] final  -57.65 input  -65.29 | X-H torsion
[ 10718 10713 10712 10709 ] final  145.02 input   66.30 | X-H torsion
[ 10763 10752 10751 10750 ] final  102.68 input  -60.55 | X-H torsion
[ 11005 11000 10999 10996 ] final  -24.64 input  -57.11 | X-H torsion

> <Gold.Protein.ActiveResidues>
 VAL166  LYS551  ARG553  GLY616  TRP617  ASP618  TYR619  PRO620  LYS621  CYS622 
 ASP623  PHE694  ASN695  SER759  ASP760  ASP761  ALA762  ILE779  LEU786  VAL792 
 PHE793  MET794  SER795  GLU796  ALA797  LYS798  CYS799  TRP800  GLU811  SER814 

> <Gold.Protein.RotatedAtoms>
  151.6088  133.3349  159.3062 H   0  0  0  0  0  0  0  0  0  0  0  0  # atno 6907 bound_to 6896
  150.8168  134.7357  159.6748 H   0  0  0  0  0  0  0  0  0  0  0  0  # atno 6908 bound_to 6896
  152.4263  134.5867  160.0014 H   0  0  0  0  0  0  0  0  0  0  0  0  # atno 6909 bound_to 6896
  144.8110  140.5360  143.5642 H   0  0  0  0  0  0  0  0  0  0  0  0  # atno 7974 bound_to 7965
  156.3003  140.2465  156.3614 H   0  0  0  0  0  0  0  0  0  0  0  0  # atno 8008 bound_to 7997
  154.8873  140.0410  157.1837 H   0  0  0  0  0  0  0  0  0  0  0  0  # atno 8009 bound_to 7997
  154.8633  140.2924  155.5529 H   0  0  0  0  0  0  0  0  0  0  0  0  # atno 8010 bound_to 7997
  140.6245  143.2432  151.5398 H   0  0  0  0  0  0  0  0  0  0  0  0  # atno 10167 bound_to 10162
  157.3502  131.0949  151.1006 H   0  0  0  0  0  0  0  0  0  0  0  0  # atno 10718 bound_to 10713
  153.3427  135.4002  155.1584 H   0  0  0  0  0  0  0  0  0  0  0  0  # atno 10763 bound_to 10752
  154.8647  135.3637  154.5325 H   0  0  0  0  0  0  0  0  0  0  0  0  # atno 10764 bound_to 10752
  153.5771  135.7077  153.5539 H   0  0  0  0  0  0  0  0  0  0  0  0  # atno 10765 bound_to 10752
  140.8864  133.7618  156.0365 H   0  0  0  0  0  0  0  0  0  0  0  0  # atno 11005 bound_to 11000
  145.5323  139.1475  143.3492 LP  0  0  0  0  0  0  0  0  0  0  0  0  # atno 17320 bound_to 7965
  146.2409  140.5464  142.8934 LP  0  0  0  0  0  0  0  0  0  0  0  0  # atno 17321 bound_to 7965
  139.5467  144.2501  152.1456 LP  0  0  0  0  0  0  0  0  0  0  0  0  # atno 17342 bound_to 10162
  140.1729  144.4918  150.6569 LP  0  0  0  0  0  0  0  0  0  0  0  0  # atno 17343 bound_to 10162
  157.2185  130.6470  149.5801 LP  0  0  0  0  0  0  0  0  0  0  0  0  # atno 17370 bound_to 10713
  155.9720  130.4637  150.6191 LP  0  0  0  0  0  0  0  0  0  0  0  0  # atno 17371 bound_to 10713
  140.8400  134.3078  157.5317 LP  0  0  0  0  0  0  0  0  0  0  0  0  # atno 17394 bound_to 11000
  139.8725  134.9411  156.3787 LP  0  0  0  0  0  0  0  0  0  0  0  0  # atno 17395 bound_to 11000

$$$$
