AV-unprocessed.smi:1538|AV-procd|sdf|6195|dock6
  -GOLD-   22720 6363D 1   1.00000     0.00000
 Structure written by MMmdl.
 36 37  0  0  0  0  0  0  0  0  1 V2000
  151.4978  138.8031  153.9516 C   0  0  0  0  0  0  0  0  0  0  0  0
  151.0771  139.6092  155.0990 N   0  0  0  0  0  0  0  0  0  0  0  0
  149.6658  140.0197  155.0856 C   0  0  0  0  0  0  0  0  0  0  0  0
  149.3568  141.1850  156.0341 C   0  0  0  0  0  0  0  0  0  0  0  0
  149.9673  140.9143  157.4152 C   0  0  2  0  0  0  0  0  0  0  0  0
  149.6140  142.0397  158.3973 C   0  0  0  0  0  0  0  0  0  0  0  0
  148.8831  141.8168  159.3631 O   0  0  0  0  0  0  0  0  0  0  0  0
  150.1395  143.2468  158.1376 N   0  0  0  0  0  0  0  0  0  0  0  0
  149.9197  144.4451  158.9384 C   0  0  0  0  0  0  0  0  0  0  0  0
  151.2000  144.8761  159.6726 C   0  0  0  0  0  0  0  0  0  0  0  0
  151.7815  143.7762  160.4142 N   0  0  0  0  0  0  0  0  0  0  0  0
  152.8624  142.9908  160.0364 C   0  0  0  0  0  0  0  0  0  0  0  0
  153.0575  142.0784  161.0487 C   0  0  0  0  0  0  0  0  0  0  0  0
  152.1147  142.2838  162.0532 N   0  0  0  0  0  0  0  0  0  0  0  0
  151.3945  143.3051  161.6073 C   0  0  0  0  0  0  0  0  0  0  0  0
  151.4954  140.7557  157.2836 C   0  0  0  0  0  0  0  0  0  0  0  0
  151.9432  139.8706  156.1080 C   0  0  0  0  0  0  0  0  0  0  0  0
  153.1003  139.4495  156.1104 O   0  0  0  0  0  0  0  0  0  0  0  0
  151.9084  137.8461  154.2775 H   0  0  0  0  0  0  0  0  0  0  0  0
  152.2644  139.3270  153.3792 H   0  0  0  0  0  0  0  0  0  0  0  0
  150.6703  138.5852  153.2755 H   0  0  0  0  0  0  0  0  0  0  0  0
  149.3655  140.2978  154.0743 H   0  0  0  0  0  0  0  0  0  0  0  0
  149.0626  139.1545  155.3632 H   0  0  0  0  0  0  0  0  0  0  0  0
  149.7631  142.1079  155.6164 H   0  0  0  0  0  0  0  0  0  0  0  0
  148.2773  141.3250  156.1069 H   0  0  0  0  0  0  0  0  0  0  0  0
  149.5536  139.9784  157.7965 H   0  0  0  0  0  0  0  0  0  0  0  0
  150.7312  143.3427  157.3249 H   0  0  0  0  0  0  0  0  0  0  0  0
  149.5479  145.2540  158.3070 H   0  0  0  0  0  0  0  0  0  0  0  0
  149.1318  144.2285  159.6606 H   0  0  0  0  0  0  0  0  0  0  0  0
  151.9404  145.2493  158.9636 H   0  0  0  0  0  0  0  0  0  0  0  0
  150.9916  145.6877  160.3709 H   0  0  0  0  0  0  0  0  0  0  0  0
  153.3889  143.1426  159.1055 H   0  0  0  0  0  0  0  0  0  0  0  0
  153.7983  141.2967  161.1309 H   0  0  0  0  0  0  0  0  0  0  0  0
  150.5661  143.7207  162.1624 H   0  0  0  0  0  0  0  0  0  0  0  0
  151.9695  141.7285  157.1448 H   0  0  0  0  0  0  0  0  0  0  0  0
  151.9035  140.3442  158.2079 H   0  0  0  0  0  0  0  0  0  0  0  0
  1  2  1  0  0  0  0
  1 19  1  0  0  0  0
  1 20  1  0  0  0  0
  1 21  1  0  0  0  0
  2 17  1  0  0  0  0
  2  3  1  0  0  0  0
  3  4  1  0  0  0  0
  3 22  1  0  0  0  0
  3 23  1  0  0  0  0
  4  5  1  0  0  0  0
  4 24  1  0  0  0  0
  4 25  1  0  0  0  0
  5  6  1  0  0  0  0
  5 16  1  0  0  0  0
  5 26  1  0  0  0  0
  6  7  2  0  0  0  0
  6  8  1  0  0  0  0
  8  9  1  0  0  0  0
  8 27  1  0  0  0  0
  9 10  1  0  0  0  0
  9 28  1  0  0  0  0
  9 29  1  0  0  0  0
 10 11  1  0  0  0  0
 10 30  1  0  0  0  0
 10 31  1  0  0  0  0
 11 15  1  0  0  0  0
 11 12  1  0  0  0  0
 12 13  2  0  0  0  0
 12 32  1  0  0  0  0
 13 14  1  0  0  0  0
 13 33  1  0  0  0  0
 14 15  2  0  0  0  0
 15 34  1  0  0  0  0
 16 17  1  0  0  0  0
 16 35  1  0  0  0  0
 16 36  1  0  0  0  0
 17 18  2  0  0  0  0
M  END
> <s_m_source_file>
AV-unprocessed.smi

> <i_m_source_file_index>
1538

> <i_lp_mmshare_version>
43012

> <i_f3d_flags>
0

> <s_epik_input>
W0NIM11OMVtDSDJdW0NIMl1bQ0BIXShbQ0gyXUMxPU8pQyg9TylbTkhdW0NIMl1bQ0gyXW4yW2NIXVtjSF1uW2NIXTI=

> <s_epik_cmdline>
J2VwaWtfcHl0aG9uJywgJy1waCcsICc3LjAnLCAnLXRuJywgJzgnLCAnLW1hJywgJzIwMCcsICctbWV0YWxfYmluZGluZycsICctaW1hZScsICc8aW5maWxlLm1hZT4nLCAnLW9tYWUnLCAnPG91dGZpbGUubWFlPic=

> <r_lp_tautomer_probability>
1

> <r_epik_Ionization_Penalty>
0.590576

> <r_epik_Ionization_Penalty_Charging>
0.590576

> <r_epik_Ionization_Penalty_Neutral>
2.97775e-08

> <r_epik_State_Penalty>
0.604111

> <r_epik_Charging_Adjusted_Penalty>
1.19469

> <i_epik_Tot_Q>
0

> <i_epik_Tot_abs_Q>
0

> <r_epik_Metal_State_Penalty>
0.298544

> <b_epik_Metal_Only>
0

> <s_lp_Force_Field>
OPLS_2005

> <r_lp_Energy>
14.6501

> <b_lp_Chiralities_Consistent>
1

> <s_lp_Variant>
AV-unprocessed.smi:1538-4

> <Gold.Version>
5.8.1

> <Gold.Id.Protein>
6NUR|6NUR_protein|mol2

> <Gold.PLP.Fitness>
48.3741

> <Gold.PLP.PLP>
-45.7328

> <Gold.PLP.part.hbond>
-2.8593

> <Gold.PLP.part.metal>
0.0000

> <Gold.PLP.part.buried>
-6.2163

> <Gold.PLP.part.nonpolar>
-37.4051

> <Gold.PLP.part.repulsive>
0.2427

> <Gold.PLP.ligand.clash>
0.0000

> <Gold.PLP.ligand.torsion>
0.3844

> <Gold.PLP.Chemscore.Hbond>
1.1337

> <Gold.PLP.Chemscore.CHOScore>
0.0000

> <Gold.PLP.Chemscore.Metal>
0.0000

> <Gold.Chemscore.Hbonds>
donor molecule, donor type, donor heavy atom, donor atom, acceptor molecule, acceptor atom, score
      P1  H  7997  8009       L1    18  0.73

> <Gold.PLP.Chemscore.Internal.Correction>
0.0089

> <Gold.Rescore>
     Score         DG    S(hbond)    S(metal)    S(lipo)     H(rot)  DE(clash)    DE(int)     intcor
     14.08     -15.21       1.60        0.00      80.67       1.98       0.05       1.08       ----

> <Gold.Chemscore.Fitness>
14.0780

> <Gold.Chemscore.DG>
-15.2055

> <Gold.Chemscore.ZeroCoef>
-5.4800

> <Gold.Chemscore.Hbond>
1.6021

> <Gold.Chemscore.Metal>
0.0000

> <Gold.Chemscore.Lipo>
80.6722

> <Gold.Chemscore.Internal_Hbond>
0.0000

> <Gold.Chemscore.DEClash>
0.0496

> <Gold.Chemscore.DEInternal>
1.0779

> <Gold.Chemscore.Rot>
1.9782

> <Gold.Chemscore.Internal.Correction>
   9.000000E+99

> <Gold.Chemscore.Hbonds>
donor molecule, donor type, donor heavy atom, donor atom, acceptor molecule, acceptor atom, score
      P1  H  6933  6944       L1     7  0.01
      P1  H  7997  8009       L1    18  0.73

> <Gold.Chemscore.Hbond.Weighted>
-5.3511

> <Gold.Chemscore.Metal.Weighted>
-0.0000

> <Gold.Chemscore.Lipo.Weighted>
-9.4386

> <Gold.Chemscore.Internal_Hbond.Weighted>
0.0000

> <Gold.Chemscore.DEClash.Weighted>
0.0496

> <Gold.Chemscore.DEInternal.Weighted>
1.0779

> <Gold.Chemscore.Rot.Weighted>
5.0643

> <Gold.Chemscore.Internal.Correction.Weighted>
   9.000000E+99

> <Gold.Protein.RotatedTorsions>
[ 6907 6896 6895 6894 ] final  117.00 input  -60.11 | X-H torsion
[ 7974 7965 7964 7962 ] final  -87.09 input  175.53 | X-H torsion
[ 8008 7997 7996 7995 ] final -159.52 input   59.86 | X-H torsion
[ 10167 10162 10161 10158 ] final -163.92 input  -65.29 | X-H torsion
[ 10718 10713 10712 10709 ] final   14.47 input   66.30 | X-H torsion
[ 10763 10752 10751 10750 ] final   26.24 input  -60.55 | X-H torsion
[ 11005 11000 10999 10996 ] final -170.60 input  -57.11 | X-H torsion

> <Gold.Protein.ActiveResidues>
 VAL166  LYS551  ARG553  GLY616  TRP617  ASP618  TYR619  PRO620  LYS621  CYS622 
 ASP623  PHE694  ASN695  SER759  ASP760  ASP761  ALA762  ILE779  LEU786  VAL792 
 PHE793  MET794  SER795  GLU796  ALA797  LYS798  CYS799  TRP800  GLU811  SER814 

> <Gold.Protein.RotatedAtoms>
  152.4641  133.7885  159.6888 H   0  0  0  0  0  0  0  0  0  0  0  0  # atno 6907 bound_to 6896
  150.8597  133.7651  159.3003 H   0  0  0  0  0  0  0  0  0  0  0  0  # atno 6908 bound_to 6896
  151.5221  135.1070  159.9933 H   0  0  0  0  0  0  0  0  0  0  0  0  # atno 6909 bound_to 6896
  145.4711  140.9559  143.1916 H   0  0  0  0  0  0  0  0  0  0  0  0  # atno 7974 bound_to 7965
  155.7638  140.0843  157.2142 H   0  0  0  0  0  0  0  0  0  0  0  0  # atno 8008 bound_to 7997
  154.4001  140.1538  156.2920 H   0  0  0  0  0  0  0  0  0  0  0  0  # atno 8009 bound_to 7997
  155.8813  140.3420  155.5892 H   0  0  0  0  0  0  0  0  0  0  0  0  # atno 8010 bound_to 7997
  139.6286  144.0483  152.1996 H   0  0  0  0  0  0  0  0  0  0  0  0  # atno 10167 bound_to 10162
  157.0396  130.6226  149.5749 H   0  0  0  0  0  0  0  0  0  0  0  0  # atno 10718 bound_to 10713
  153.0636  135.6565  154.0405 H   0  0  0  0  0  0  0  0  0  0  0  0  # atno 10763 bound_to 10752
  154.0067  135.2932  155.3398 H   0  0  0  0  0  0  0  0  0  0  0  0  # atno 10764 bound_to 10752
  154.6985  135.5254  153.8561 H   0  0  0  0  0  0  0  0  0  0  0  0  # atno 10765 bound_to 10752
  140.5177  134.5740  157.5038 H   0  0  0  0  0  0  0  0  0  0  0  0  # atno 11005 bound_to 11000
  144.7944  139.6263  143.7099 LP  0  0  0  0  0  0  0  0  0  0  0  0  # atno 17320 bound_to 7965
  146.2396  139.5974  142.9500 LP  0  0  0  0  0  0  0  0  0  0  0  0  # atno 17321 bound_to 7965
  140.0143  144.6201  150.7621 LP  0  0  0  0  0  0  0  0  0  0  0  0  # atno 17342 bound_to 10162
  140.7426  143.2834  151.3533 LP  0  0  0  0  0  0  0  0  0  0  0  0  # atno 17343 bound_to 10162
  156.0042  130.5126  150.7772 LP  0  0  0  0  0  0  0  0  0  0  0  0  # atno 17370 bound_to 10713
  157.5115  131.0926  151.0193 LP  0  0  0  0  0  0  0  0  0  0  0  0  # atno 17371 bound_to 10713
  139.9623  134.7431  156.0211 LP  0  0  0  0  0  0  0  0  0  0  0  0  # atno 17394 bound_to 11000
  141.1351  133.6577  156.3572 LP  0  0  0  0  0  0  0  0  0  0  0  0  # atno 17395 bound_to 11000

$$$$
