AV-unprocessed.smi:1053|AV-procd|sdf|4619|dock3
  -GOLD-   22720 3123D 1   1.00000     0.00000
 Structure written by MMmdl.
 38 39  0  0  0  0  0  0  0  0  2 V2000
  146.6171  136.1882  154.5813 C   0  0  0  0  0  0  0  0  0  0  0  0
  147.6138  137.2873  154.9763 C   0  0  0  0  0  0  0  0  0  0  0  0
  148.1619  138.0169  153.8011 N   0  3  1  0  0  0  0  0  0  0  0  0
  147.1277  138.7426  153.0241 C   0  0  0  0  0  0  0  0  0  0  0  0
  146.7237  140.0539  153.7232 C   0  0  0  0  0  0  0  0  0  0  0  0
  147.8792  140.8560  153.9361 O   0  0  0  0  0  0  0  0  0  0  0  0
  148.8369  140.2240  154.7790 C   0  0  2  0  0  0  0  0  0  0  0  0
  149.9858  141.2227  155.0061 C   0  0  0  0  0  0  0  0  0  0  0  0
  149.7832  142.0623  156.1801 N   0  0  0  0  0  0  0  0  0  0  0  0
  150.5140  141.9795  157.3515 C   0  0  0  0  0  0  0  0  0  0  0  0
  150.9963  140.7872  157.7198 N   0  0  0  0  0  0  0  0  0  0  0  0
  151.7086  140.7404  158.8662 C   0  0  0  0  0  0  0  0  0  0  0  0
  151.9402  141.8922  159.6431 C   0  0  0  0  0  0  0  0  0  0  0  0
  151.3834  143.0971  159.1587 C   0  0  0  0  0  0  0  0  0  0  0  0
  151.5501  144.4191  159.8928 C   0  0  0  0  0  0  0  0  0  0  0  0
  150.3522  144.9432  160.1530 F   0  0  0  0  0  0  0  0  0  0  0  0
  152.2021  144.2604  161.0453 F   0  0  0  0  0  0  0  0  0  0  0  0
  152.2376  145.2711  159.1319 F   0  0  0  0  0  0  0  0  0  0  0  0
  150.6710  143.1303  158.0080 N   0  0  0  0  0  0  0  0  0  0  0  0
  149.3054  138.9168  154.0993 C   0  0  0  0  0  0  0  0  0  0  0  0
  146.1467  135.7637  155.4684 H   0  0  0  0  0  0  0  0  0  0  0  0
  147.0992  135.3670  154.0517 H   0  0  0  0  0  0  0  0  0  0  0  0
  145.8242  136.5831  153.9454 H   0  0  0  0  0  0  0  0  0  0  0  0
  147.0849  137.9982  155.6123 H   0  0  0  0  0  0  0  0  0  0  0  0
  148.4132  136.8694  155.5878 H   0  0  0  0  0  0  0  0  0  0  0  0
  147.5368  138.9718  152.0392 H   0  0  0  0  0  0  0  0  0  0  0  0
  146.2565  138.1089  152.8536 H   0  0  0  0  0  0  0  0  0  0  0  0
  146.0231  140.6089  153.0993 H   0  0  0  0  0  0  0  0  0  0  0  0
  146.2173  139.8603  154.6700 H   0  0  0  0  0  0  0  0  0  0  0  0
  148.3643  140.0049  155.7366 H   0  0  0  0  0  0  0  0  0  0  0  0
  150.9275  140.6864  155.1245 H   0  0  0  0  0  0  0  0  0  0  0  0
  150.1044  141.8614  154.1298 H   0  0  0  0  0  0  0  0  0  0  0  0
  149.0962  142.8003  156.1215 H   0  0  0  0  0  0  0  0  0  0  0  0
  152.0980  139.7782  159.1641 H   0  0  0  0  0  0  0  0  0  0  0  0
  152.5118  141.8457  160.5584 H   0  0  0  0  0  0  0  0  0  0  0  0
  150.0530  138.4059  154.7043 H   0  0  0  0  0  0  0  0  0  0  0  0
  149.7990  139.1587  153.1570 H   0  0  0  0  0  0  0  0  0  0  0  0
  148.5154  137.2974  153.1865 H   0  0  0  0  0  0  0  0  0  0  0  0
  1  2  1  0  0  0  0
  1 21  1  0  0  0  0
  1 22  1  0  0  0  0
  1 23  1  0  0  0  0
  2  3  1  0  0  0  0
  2 24  1  0  0  0  0
  2 25  1  0  0  0  0
  3 20  1  0  0  0  0
  3  4  1  0  0  0  0
  3 38  1  0  0  0  0
  4  5  1  0  0  0  0
  4 26  1  0  0  0  0
  4 27  1  0  0  0  0
  5  6  1  0  0  0  0
  5 28  1  0  0  0  0
  5 29  1  0  0  0  0
  6  7  1  0  0  0  0
  7  8  1  0  0  0  0
  7 20  1  0  0  0  0
  7 30  1  0  0  0  0
  8  9  1  0  0  0  0
  8 31  1  0  0  0  0
  8 32  1  0  0  0  0
  9 10  1  0  0  0  0
  9 33  1  0  0  0  0
 10 19  1  0  0  0  0
 10 11  2  0  0  0  0
 11 12  1  0  0  0  0
 12 13  2  0  0  0  0
 12 34  1  0  0  0  0
 13 14  1  0  0  0  0
 13 35  1  0  0  0  0
 14 15  1  0  0  0  0
 14 19  2  0  0  0  0
 15 16  1  0  0  0  0
 15 17  1  0  0  0  0
 15 18  1  0  0  0  0
 20 36  1  0  0  0  0
 20 37  1  0  0  0  0
M  CHG  1   3   1
M  END
> <s_m_source_file>
AV-unprocessed.smi

> <i_m_source_file_index>
1053

> <i_lp_mmshare_version>
43012

> <i_f3d_flags>
0

> <s_epik_input>
W0NIM11bQ0gyXU4xW0NIMl1bQ0gyXU9bQ0BIXShbQ0gyXTEpW0NIMl1bTkhdYzJuW2NIXVtjSF1jKG4yKUMoRikoRilG

> <s_epik_cmdline>
J2VwaWtfcHl0aG9uJywgJy1waCcsICc3LjAnLCAnLXRuJywgJzgnLCAnLW1hJywgJzIwMCcsICctbWV0YWxfYmluZGluZycsICctaW1hZScsICc8aW5maWxlLm1hZT4nLCAnLW9tYWUnLCAnPG91dGZpbGUubWFlPic=

> <r_lp_tautomer_probability>
1

> <r_epik_Ionization_Penalty>
0.178506

> <r_epik_Ionization_Penalty_Charging>
0.178504

> <r_epik_Ionization_Penalty_Neutral>
2.47619e-06

> <r_epik_State_Penalty>
0.167974

> <r_epik_Charging_Adjusted_Penalty>
0.346478

> <i_epik_Tot_Q>
1

> <i_epik_Tot_abs_Q>
1

> <r_epik_Metal_State_Penalty>
0.167974

> <b_epik_Metal_Only>
0

> <s_lp_Force_Field>
OPLS_2005

> <r_lp_Energy>
12.8268

> <b_lp_Chiralities_Consistent>
1

> <s_lp_Variant>
AV-unprocessed.smi:1053-3

> <Gold.Version>
5.8.1

> <Gold.Id.Protein>
6NUR|6NUR_protein|mol2

> <Gold.PLP.Fitness>
43.0817

> <Gold.PLP.PLP>
-35.8876

> <Gold.PLP.part.hbond>
-2.0000

> <Gold.PLP.part.metal>
0.0000

> <Gold.PLP.part.buried>
-4.9699

> <Gold.PLP.part.nonpolar>
-29.6099

> <Gold.PLP.part.repulsive>
0.4008

> <Gold.PLP.ligand.clash>
0.0000

> <Gold.PLP.ligand.torsion>
0.7035

> <Gold.PLP.Chemscore.Hbond>
2.8480

> <Gold.PLP.Chemscore.CHOScore>
0.0000

> <Gold.PLP.Chemscore.Metal>
0.0000

> <Gold.Chemscore.Hbonds>
donor molecule, donor type, donor heavy atom, donor atom, acceptor molecule, acceptor atom, score
      L1  H     3    38       P1  7948  2.00
      L1  H     9    33       P1  8028  0.85

> <Gold.PLP.Chemscore.Internal.Correction>
0.0572

> <Gold.Rescore>
     Score         DG    S(hbond)    S(metal)    S(lipo)     H(rot)  DE(clash)    DE(int)     intcor
     15.17     -16.02       1.89        0.00      70.14       1.55       0.18       0.67       ----

> <Gold.Chemscore.Fitness>
15.1686

> <Gold.Chemscore.DG>
-16.0162

> <Gold.Chemscore.ZeroCoef>
-5.4800

> <Gold.Chemscore.Hbond>
1.8892

> <Gold.Chemscore.Metal>
0.0000

> <Gold.Chemscore.Lipo>
70.1432

> <Gold.Chemscore.Internal_Hbond>
0.0000

> <Gold.Chemscore.DEClash>
0.1760

> <Gold.Chemscore.DEInternal>
0.6716

> <Gold.Chemscore.Rot>
1.5549

> <Gold.Chemscore.Internal.Correction>
   9.000000E+99

> <Gold.Chemscore.Hbonds>
donor molecule, donor type, donor heavy atom, donor atom, acceptor molecule, acceptor atom, score
      L1  H     3    38       P1  7948  1.00
      L1  H     9    33       P1  8028  0.83

> <Gold.Chemscore.Hbond.Weighted>
-6.3100

> <Gold.Chemscore.Metal.Weighted>
-0.0000

> <Gold.Chemscore.Lipo.Weighted>
-8.2068

> <Gold.Chemscore.Internal_Hbond.Weighted>
0.0000

> <Gold.Chemscore.DEClash.Weighted>
0.1760

> <Gold.Chemscore.DEInternal.Weighted>
0.6716

> <Gold.Chemscore.Rot.Weighted>
3.9806

> <Gold.Chemscore.Internal.Correction.Weighted>
   9.000000E+99

> <Gold.Protein.RotatedTorsions>
[ 6907 6896 6895 6894 ] final  -60.11 input  -60.11 | X-H torsion
[ 7974 7965 7964 7962 ] final  -38.28 input  175.53 | X-H torsion
[ 8008 7997 7996 7995 ] final -133.03 input   59.86 | X-H torsion
[ 10167 10162 10161 10158 ] final   14.30 input  -65.29 | X-H torsion
[ 10718 10713 10712 10709 ] final   34.60 input   66.30 | X-H torsion
[ 10763 10752 10751 10750 ] final -137.73 input  -60.55 | X-H torsion
[ 11005 11000 10999 10996 ] final  175.76 input  -57.11 | X-H torsion

> <Gold.Protein.ActiveResidues>
 VAL166  LYS551  ARG553  GLY616  TRP617  ASP618  TYR619  PRO620  LYS621  CYS622 
 ASP623  PHE694  ASN695  SER759  ASP760  ASP761  ALA762  ILE779  LEU786  VAL792 
 PHE793  MET794  SER795  GLU796  ALA797  LYS798  CYS799  TRP800  GLU811  SER814 

> <Gold.Protein.RotatedAtoms>
  150.7880  134.6881  159.6480 H   0  0  0  0  0  0  0  0  0  0  0  0  # atno 6907 bound_to 6896
  152.3980  134.6329  160.0090 H   0  0  0  0  0  0  0  0  0  0  0  0  # atno 6908 bound_to 6896
  151.6609  133.3280  159.3210 H   0  0  0  0  0  0  0  0  0  0  0  0  # atno 6909 bound_to 6896
  146.0501  140.6493  142.9046 H   0  0  0  0  0  0  0  0  0  0  0  0  # atno 7974 bound_to 7965
  155.3387  140.0471  157.3044 H   0  0  0  0  0  0  0  0  0  0  0  0  # atno 8008 bound_to 7997
  154.5289  140.2250  155.8806 H   0  0  0  0  0  0  0  0  0  0  0  0  # atno 8009 bound_to 7997
  156.1768  140.3083  155.9080 H   0  0  0  0  0  0  0  0  0  0  0  0  # atno 8010 bound_to 7997
  140.5945  143.8729  150.6905 H   0  0  0  0  0  0  0  0  0  0  0  0  # atno 10167 bound_to 10162
  157.3123  130.7405  149.6732 H   0  0  0  0  0  0  0  0  0  0  0  0  # atno 10718 bound_to 10713
  154.8655  135.3633  154.5270 H   0  0  0  0  0  0  0  0  0  0  0  0  # atno 10763 bound_to 10752
  153.5897  135.7016  153.5433 H   0  0  0  0  0  0  0  0  0  0  0  0  # atno 10764 bound_to 10752
  153.3384  135.4105  155.1514 H   0  0  0  0  0  0  0  0  0  0  0  0  # atno 10765 bound_to 10752
  140.3657  134.7073  157.4360 H   0  0  0  0  0  0  0  0  0  0  0  0  # atno 11005 bound_to 11000
  144.7118  140.4066  143.7075 LP  0  0  0  0  0  0  0  0  0  0  0  0  # atno 17320 bound_to 7965
  145.6739  139.1604  143.2739 LP  0  0  0  0  0  0  0  0  0  0  0  0  # atno 17321 bound_to 7965
  140.2260  143.3772  152.1604 LP  0  0  0  0  0  0  0  0  0  0  0  0  # atno 17342 bound_to 10162
  139.5249  144.7089  151.5267 LP  0  0  0  0  0  0  0  0  0  0  0  0  # atno 17343 bound_to 10162
  155.9679  130.4247  150.4623 LP  0  0  0  0  0  0  0  0  0  0  0  0  # atno 17370 bound_to 10713
  157.2624  131.0569  151.2312 LP  0  0  0  0  0  0  0  0  0  0  0  0  # atno 17371 bound_to 10713
  140.0591  134.6021  155.8770 LP  0  0  0  0  0  0  0  0  0  0  0  0  # atno 17394 bound_to 11000
  141.1970  133.6594  156.5720 LP  0  0  0  0  0  0  0  0  0  0  0  0  # atno 17395 bound_to 11000

$$$$
