AV-unprocessed.smi:287|AV-procd|sdf|2197|dock10
  -GOLD-   2262022 03D 1   1.00000     0.00000
 Structure written by MMmdl.
 55 58  0  0  0  0  0  0  0  0  1 V2000
  153.8683  143.1261  162.7867 C   0  0  0  0  0  0  0  0  0  0  0  0
  153.6504  142.6342  161.3969 C   0  0  0  0  0  0  0  0  0  0  0  0
  153.4309  141.4011  160.8558 C   0  0  0  0  0  0  0  0  0  0  0  0
  153.3033  141.5709  159.4448 C   0  0  0  0  0  0  0  0  0  0  0  0
  153.0553  140.4604  158.4324 C   0  0  1  0  0  0  0  0  0  0  0  0
  153.3524  140.9702  157.0122 C   0  0  0  0  0  0  0  0  0  0  0  0
  153.9086  139.3470  158.6144 O   0  0  0  0  0  0  0  0  0  0  0  0
  151.6131  139.9103  158.5087 C   0  0  0  0  0  0  0  0  0  0  0  0
  151.3923  138.7759  157.6210 N   0  0  0  0  0  0  0  0  0  0  0  0
  150.1621  138.2441  157.4636 C   0  0  0  0  0  0  0  0  0  0  0  0
  149.1839  138.8107  158.2098 N   0  0  0  0  0  0  0  0  0  0  0  0
  147.9289  138.3612  158.1269 C   0  0  0  0  0  0  0  0  0  0  0  0
  147.4457  137.3712  157.3744 N   0  0  0  0  0  0  0  0  0  0  0  0
  148.4260  136.7934  156.6211 C   0  0  0  0  0  0  0  0  0  0  0  0
  149.8007  137.1651  156.6028 C   0  0  0  0  0  0  0  0  0  0  0  0
  150.4822  136.3452  155.7095 N   0  0  0  0  0  0  0  0  0  0  0  0
  149.5649  135.5474  155.2339 C   0  0  0  0  0  0  0  0  0  0  0  0
  148.2946  135.7521  155.7278 N   0  0  0  0  0  0  0  0  0  0  0  0
  147.0170  135.0300  155.4095 C   0  0  2  0  0  0  0  0  0  0  0  0
  147.1920  133.6894  155.7480 O   0  0  0  0  0  0  0  0  0  0  0  0
  147.4406  132.8787  154.5948 C   0  0  1  0  0  0  0  0  0  0  0  0
  146.2926  131.8488  154.5361 C   0  0  0  0  0  0  0  0  0  0  0  0
  145.0858  132.4979  154.1966 O   0  0  0  0  0  0  0  0  0  0  0  0
  147.5052  133.8699  153.4116 C   0  0  1  0  0  0  0  0  0  0  0  0
  146.9666  133.3599  152.2071 O   0  0  0  0  0  0  0  0  0  0  0  0
  146.7042  135.0615  153.9068 C   0  0  2  0  0  0  0  0  0  0  0  0
  147.1053  136.2545  153.2574 O   0  0  0  0  0  0  0  0  0  0  0  0
  153.4491  142.9222  159.2399 C   0  0  0  0  0  0  0  0  0  0  0  0
  153.4260  143.7980  158.0306 C   0  0  0  0  0  0  0  0  0  0  0  0
  153.6611  143.5730  160.4179 O   0  0  0  0  0  0  0  0  0  0  0  0
  146.2628  135.5072  156.0361 H   0  0  0  0  0  0  0  0  0  0  0  0
  148.3968  132.3621  154.6892 H   0  0  0  0  0  0  0  0  0  0  0  0
  148.5436  134.1597  153.2430 H   0  0  0  0  0  0  0  0  0  0  0  0
  145.6334  134.8954  153.7801 H   0  0  0  0  0  0  0  0  0  0  0  0
  154.1306  142.3041  163.4528 H   0  0  0  0  0  0  0  0  0  0  0  0
  152.9664  143.6009  163.1731 H   0  0  0  0  0  0  0  0  0  0  0  0
  154.6770  143.8567  162.8183 H   0  0  0  0  0  0  0  0  0  0  0  0
  153.3739  140.4759  161.4101 H   0  0  0  0  0  0  0  0  0  0  0  0
  152.7153  141.8169  156.7537 H   0  0  0  0  0  0  0  0  0  0  0  0
  153.1817  140.1941  156.2649 H   0  0  0  0  0  0  0  0  0  0  0  0
  154.3884  141.2986  156.9175 H   0  0  0  0  0  0  0  0  0  0  0  0
  154.3275  139.4255  159.4576 H   0  0  0  0  0  0  0  0  0  0  0  0
  151.4311  139.5613  159.5260 H   0  0  0  0  0  0  0  0  0  0  0  0
  150.8865  140.6989  158.3083 H   0  0  0  0  0  0  0  0  0  0  0  0
  152.2207  138.3944  157.1868 H   0  0  0  0  0  0  0  0  0  0  0  0
  147.2093  138.8682  158.7525 H   0  0  0  0  0  0  0  0  0  0  0  0
  149.7985  134.7848  154.5061 H   0  0  0  0  0  0  0  0  0  0  0  0
  146.5073  131.0494  153.8262 H   0  0  0  0  0  0  0  0  0  0  0  0
  146.1266  131.3854  155.5084 H   0  0  0  0  0  0  0  0  0  0  0  0
  144.4829  132.4079  154.9188 H   0  0  0  0  0  0  0  0  0  0  0  0
  147.0605  132.4192  152.2156 H   0  0  0  0  0  0  0  0  0  0  0  0
  147.6984  136.0288  152.5565 H   0  0  0  0  0  0  0  0  0  0  0  0
  152.4854  143.6872  157.4910 H   0  0  0  0  0  0  0  0  0  0  0  0
  154.2392  143.5398  157.3522 H   0  0  0  0  0  0  0  0  0  0  0  0
  153.5357  144.8486  158.3008 H   0  0  0  0  0  0  0  0  0  0  0  0
  1  2  1  0  0  0  0
  1 35  1  0  0  0  0
  1 36  1  0  0  0  0
  1 37  1  0  0  0  0
  2 30  1  0  0  0  0
  2  3  2  0  0  0  0
  3  4  1  0  0  0  0
  3 38  1  0  0  0  0
  4  5  1  0  0  0  0
  4 28  2  0  0  0  0
  5  6  1  0  0  0  0
  5  7  1  0  0  0  0
  5  8  1  0  0  0  0
  6 39  1  0  0  0  0
  6 40  1  0  0  0  0
  6 41  1  0  0  0  0
  7 42  1  0  0  0  0
  8  9  1  0  0  0  0
  8 43  1  0  0  0  0
  8 44  1  0  0  0  0
  9 10  1  0  0  0  0
  9 45  1  0  0  0  0
 10 15  1  0  0  0  0
 10 11  2  0  0  0  0
 11 12  1  0  0  0  0
 12 13  2  0  0  0  0
 12 46  1  0  0  0  0
 13 14  1  0  0  0  0
 14 18  1  0  0  0  0
 14 15  2  0  0  0  0
 15 16  1  0  0  0  0
 16 17  2  0  0  0  0
 17 18  1  0  0  0  0
 17 47  1  0  0  0  0
 18 19  1  0  0  0  0
 19 31  1  0  0  0  0
 19 26  1  0  0  0  0
 19 20  1  0  0  0  0
 20 21  1  0  0  0  0
 21 32  1  0  0  0  0
 21 22  1  0  0  0  0
 21 24  1  0  0  0  0
 22 23  1  0  0  0  0
 22 48  1  0  0  0  0
 22 49  1  0  0  0  0
 23 50  1  0  0  0  0
 24 33  1  0  0  0  0
 24 25  1  0  0  0  0
 24 26  1  0  0  0  0
 25 51  1  0  0  0  0
 26 34  1  0  0  0  0
 26 27  1  0  0  0  0
 27 52  1  0  0  0  0
 28 29  1  0  0  0  0
 28 30  1  0  0  0  0
 29 53  1  0  0  0  0
 29 54  1  0  0  0  0
 29 55  1  0  0  0  0
M  END
> <s_m_source_file>
AV-unprocessed.smi

> <i_m_source_file_index>
287

> <i_lp_mmshare_version>
43012

> <i_f3d_flags>
0

> <s_epik_input>
W0NIM11jMVtjSF1jKGMobzEpW0NIM10pW0NAQF0oW0NIM10pKFtPSF0pW0NIMl1bTkhdYyhuW2NIXW4yKWMoYzIzKW5bY0hdbjNbQ0BASF00T1tDQEhdKFtDSDJdW09IXSlbQ0BASF0oW09IXSlbQ0BIXTRbT0hd

> <s_epik_cmdline>
J2VwaWtfcHl0aG9uJywgJy1waCcsICc3LjAnLCAnLXRuJywgJzgnLCAnLW1hJywgJzIwMCcsICctbWV0YWxfYmluZGluZycsICctaW1hZScsICc8aW5maWxlLm1hZT4nLCAnLW9tYWUnLCAnPG91dGZpbGUubWFlPic=

> <r_lp_tautomer_probability>
1

> <r_epik_Ionization_Penalty>
0.000992612

> <r_epik_Ionization_Penalty_Charging>
0

> <r_epik_Ionization_Penalty_Neutral>
0.000992612

> <r_epik_State_Penalty>
-0

> <r_epik_Charging_Adjusted_Penalty>
0

> <i_epik_Tot_Q>
0

> <i_epik_Tot_abs_Q>
0

> <r_epik_Metal_State_Penalty>
-0

> <b_epik_Metal_Only>
0

> <s_epik_Chemistry_Notes>
This compound contains an acetal/aminal-like group ( X-CH(R)-Y where X, Y are N, S, or O) that may be acid/base labile, releasing an aldehyde.

> <s_lp_Force_Field>
OPLS_2005

> <r_lp_Energy>
44.9714

> <b_lp_Chiralities_Consistent>
1

> <s_lp_Variant>
AV-unprocessed.smi:287-21

> <Gold.Version>
5.8.1

> <Gold.Id.Protein>
6NUR|6NUR_protein|mol2

> <Gold.PLP.Fitness>
49.7713

> <Gold.PLP.PLP>
-43.6732

> <Gold.PLP.part.hbond>
-3.2855

> <Gold.PLP.part.metal>
0.0000

> <Gold.PLP.part.buried>
-5.0163

> <Gold.PLP.part.nonpolar>
-33.5050

> <Gold.PLP.part.repulsive>
0.2585

> <Gold.PLP.ligand.clash>
0.0000

> <Gold.PLP.ligand.torsion>
0.5972

> <Gold.PLP.Chemscore.Hbond>
2.2239

> <Gold.PLP.Chemscore.CHOScore>
0.1793

> <Gold.PLP.Chemscore.Metal>
0.0000

> <Gold.Chemscore.Hbonds>
donor molecule, donor type, donor heavy atom, donor atom, acceptor molecule, acceptor atom, score
      L1  H    23    50       P1 10957  0.51
      L1  H    27    52       P1  7948  0.78
      P1  H  7997  8008       L1     7  0.40

> <Gold.PLP.Chemscore.Internal.Correction>
0.0827

> <Gold.Rescore>
     Score         DG    S(hbond)    S(metal)    S(lipo)     H(rot)  DE(clash)    DE(int)     intcor
      7.95     -10.85       1.88        0.00     107.43       5.27       0.52       2.38       ----

> <Gold.Chemscore.Fitness>
7.9459

> <Gold.Chemscore.DG>
-10.8502

> <Gold.Chemscore.ZeroCoef>
-5.4800

> <Gold.Chemscore.Hbond>
1.8817

> <Gold.Chemscore.Metal>
0.0000

> <Gold.Chemscore.Lipo>
107.4298

> <Gold.Chemscore.Internal_Hbond>
0.0000

> <Gold.Chemscore.DEClash>
0.5237

> <Gold.Chemscore.DEInternal>
2.3806

> <Gold.Chemscore.Rot>
5.2672

> <Gold.Chemscore.Internal.Correction>
   9.000000E+99

> <Gold.Chemscore.Hbonds>
donor molecule, donor type, donor heavy atom, donor atom, acceptor molecule, acceptor atom, score
      L1  H    23    50       P1 10957  0.46
      L1  H    27    52       P1  7948  0.73
      P1  H  7997  8008       L1     7  0.01

> <Gold.Chemscore.Hbond.Weighted>
-6.2848

> <Gold.Chemscore.Metal.Weighted>
-0.0000

> <Gold.Chemscore.Lipo.Weighted>
-12.5693

> <Gold.Chemscore.Internal_Hbond.Weighted>
0.0000

> <Gold.Chemscore.DEClash.Weighted>
0.5237

> <Gold.Chemscore.DEInternal.Weighted>
2.3806

> <Gold.Chemscore.Rot.Weighted>
13.4839

> <Gold.Chemscore.Internal.Correction.Weighted>
   9.000000E+99

> <Gold.Protein.RotatedTorsions>
[ 6907 6896 6895 6894 ] final  152.72 input  -60.11 | X-H torsion
[ 7974 7965 7964 7962 ] final  162.00 input  175.53 | X-H torsion
[ 8008 7997 7996 7995 ] final -112.87 input   59.86 | X-H torsion
[ 10167 10162 10161 10158 ] final  133.13 input  -65.29 | X-H torsion
[ 10718 10713 10712 10709 ] final -140.35 input   66.30 | X-H torsion
[ 10763 10752 10751 10750 ] final -139.38 input  -60.55 | X-H torsion
[ 11005 11000 10999 10996 ] final -110.54 input  -57.11 | X-H torsion

> <Gold.Protein.ActiveResidues>
 VAL166  LYS551  ARG553  GLY616  TRP617  ASP618  TYR619  PRO620  LYS621  CYS622 
 ASP623  PHE694  ASN695  SER759  ASP760  ASP761  ALA762  ILE779  LEU786  VAL792 
 PHE793  MET794  SER795  GLU796  ALA797  LYS798  CYS799  TRP800  GLU811  SER814 

> <Gold.Protein.RotatedAtoms>
  152.0827  133.4161  159.4508 H   0  0  0  0  0  0  0  0  0  0  0  0  # atno 6907 bound_to 6896
  150.6862  134.2963  159.4697 H   0  0  0  0  0  0  0  0  0  0  0  0  # atno 6908 bound_to 6896
  152.0807  134.9473  160.0624 H   0  0  0  0  0  0  0  0  0  0  0  0  # atno 6909 bound_to 6896
  144.7658  139.7978  143.6316 H   0  0  0  0  0  0  0  0  0  0  0  0  # atno 7974 bound_to 7965
  155.0120  140.0393  157.2403 H   0  0  0  0  0  0  0  0  0  0  0  0  # atno 8008 bound_to 7997
  154.7452  140.2756  155.6316 H   0  0  0  0  0  0  0  0  0  0  0  0  # atno 8009 bound_to 7997
  156.2873  140.2657  156.2191 H   0  0  0  0  0  0  0  0  0  0  0  0  # atno 8010 bound_to 7997
  139.5310  144.6630  151.4952 H   0  0  0  0  0  0  0  0  0  0  0  0  # atno 10167 bound_to 10162
  156.3213  130.7535  151.1634 H   0  0  0  0  0  0  0  0  0  0  0  0  # atno 10718 bound_to 10713
  154.8610  135.3584  154.5538 H   0  0  0  0  0  0  0  0  0  0  0  0  # atno 10763 bound_to 10752
  153.6155  135.7008  153.5335 H   0  0  0  0  0  0  0  0  0  0  0  0  # atno 10764 bound_to 10752
  153.3173  135.4161  155.1347 H   0  0  0  0  0  0  0  0  0  0  0  0  # atno 10765 bound_to 10752
  141.0786  133.9259  157.2337 H   0  0  0  0  0  0  0  0  0  0  0  0  # atno 11005 bound_to 11000
  146.1763  139.4935  142.9895 LP  0  0  0  0  0  0  0  0  0  0  0  0  # atno 17320 bound_to 7965
  145.6476  141.0270  143.1778 LP  0  0  0  0  0  0  0  0  0  0  0  0  # atno 17321 bound_to 7965
  140.6487  143.8741  150.6764 LP  0  0  0  0  0  0  0  0  0  0  0  0  # atno 17342 bound_to 10162
  140.2098  143.3892  152.1727 LP  0  0  0  0  0  0  0  0  0  0  0  0  # atno 17343 bound_to 10162
  157.7412  131.0507  150.5112 LP  0  0  0  0  0  0  0  0  0  0  0  0  # atno 17370 bound_to 10713
  156.5265  130.4174  149.6223 LP  0  0  0  0  0  0  0  0  0  0  0  0  # atno 17371 bound_to 10713
  139.9599  135.0157  156.9231 LP  0  0  0  0  0  0  0  0  0  0  0  0  # atno 17394 bound_to 11000
  140.5519  134.0619  155.7371 LP  0  0  0  0  0  0  0  0  0  0  0  0  # atno 17395 bound_to 11000

$$$$
