#       Name:                AV-unprocessed.smi:943
#       Creating user name   scv26
#       Creation time:       Fri Mar 27 02:13:41 2020


#       File generated by GOLD software.
#

@<TRIPOS>MOLECULE
AV-unprocessed.smi:943
    46    47     1
SMALL
NO_CHARGES


@<TRIPOS>ATOM
      1 ****        -1.3982  -2.0218   3.1314 C.3            1 S1                 0.0000
      2 ****        -0.8647  -1.2556   1.9086 C.3            1 S1                 0.0000
      3 ****        -1.2090  -2.0023   0.5973 C.3            1 S1                 0.0000
      4 ****        -0.7590  -1.3248  -0.7205 C.3            1 S1                 0.0000
      5 ****        -1.4081   0.0615  -0.9321 C.3            1 S1                 0.0000
      6 ****        -0.9875   0.6930  -2.2690 C.3            1 S1                 0.0000
      7 ****        -1.2973  -0.2345  -3.4517 C.3            1 S1                 0.0000
      8 ****        -0.6366  -1.6063  -3.2566 C.3            1 S1                 0.0000
      9 ****        -1.0631  -2.2420  -1.9240 C.3            1 S1                 0.0000
     10 ****         0.6448  -1.0148   2.0531 C.2            1 S1                 0.0000
     11 ****         1.4209  -1.9658   2.1507 O.2            1 S1                 0.0000
     12 ****         1.0465   0.2636   2.0505 N.am           1 S1                 0.0000
     13 ****         2.4367   0.6935   2.1235 C.3            1 S1                 0.0000
     14 ****         2.5621   2.2198   1.9869 C.3            1 S1                 0.0000
     15 ****         1.9319   2.7590   0.7352 C.2            1 S1                 0.0000
     16 ****         0.7338   3.4259   0.6374 C.2            1 S1                 0.0000
     17 ****         0.3708   3.8839  -1.0048 S.3            1 S1                 0.0000
     18 ****         1.8815   3.1371  -1.4961 C.2            1 S1                 0.0000
     19 ****         2.5782   2.5984  -0.4952 N.2            1 S1                 0.0000
     20 ****        -1.1476  -1.5104   4.0619 H              1 S1                 0.0000
     21 ****        -0.9872  -3.0309   3.1851 H              1 S1                 0.0000
     22 ****        -2.4841  -2.1102   3.0922 H              1 S1                 0.0000
     23 ****        -1.3680  -0.2880   1.8994 H              1 S1                 0.0000
     24 ****        -0.7750  -3.0025   0.6421 H              1 S1                 0.0000
     25 ****        -2.2881  -2.1570   0.5579 H              1 S1                 0.0000
     26 ****         0.3227  -1.1872  -0.6910 H              1 S1                 0.0000
     27 ****        -2.4945  -0.0305  -0.8980 H              1 S1                 0.0000
     28 ****        -1.1289   0.7401  -0.1263 H              1 S1                 0.0000
     29 ****        -1.4946   1.6486  -2.4040 H              1 S1                 0.0000
     30 ****         0.0811   0.9091  -2.2480 H              1 S1                 0.0000
     31 ****        -2.3767  -0.3568  -3.5496 H              1 S1                 0.0000
     32 ****        -0.9502   0.2182  -4.3809 H              1 S1                 0.0000
     33 ****        -0.8998  -2.2660  -4.0838 H              1 S1                 0.0000
     34 ****         0.4485  -1.4972  -3.2804 H              1 S1                 0.0000
     35 ****        -0.5531  -3.1982  -1.8016 H              1 S1                 0.0000
     36 ****        -2.1303  -2.4655  -1.9563 H              1 S1                 0.0000
     37 ****         0.3456   0.9849   1.9622 H              1 S1                 0.0000
     38 ****         2.8713   0.3667   3.0691 H              1 S1                 0.0000
     39 ****         3.0018   0.2065   1.3268 H              1 S1                 0.0000
     40 ****         2.1089   2.6919   2.8594 H              1 S1                 0.0000
     41 ****         3.6169   2.4950   2.0201 H              1 S1                 0.0000
     42 ****         0.0450   3.6758   1.4306 H              1 S1                 0.0000
     43 ****         2.2506   3.0940  -2.5101 H              1 S1                 0.0000
     44 ****         1.0692  -2.9017   2.1361 LP             1 S1                 0.0000
     45 ****         2.4030  -1.8021   2.2445 LP             1 S1                 0.0000
     46 ****         3.4571   2.1353  -0.6101 LP             1 S1                 0.0000
@<TRIPOS>BOND
    1    1    2 1     
    2    1   20 1     
    3    1   21 1     
    4    1   22 1     
    5    2    3 1     
    6    2   10 1     
    7    2   23 1     
    8    3    4 1     
    9    3   24 1     
   10    3   25 1     
   11    4    9 1     
   12    4    5 1     
   13    4   26 1     
   14    5    6 1     
   15    5   27 1     
   16    5   28 1     
   17    6    7 1     
   18    6   29 1     
   19    6   30 1     
   20    7    8 1     
   21    7   31 1     
   22    7   32 1     
   23    8    9 1     
   24    8   33 1     
   25    8   34 1     
   26    9   35 1     
   27    9   36 1     
   28   10   11 2     
   29   10   12 am    
   30   12   13 1     
   31   12   37 1     
   32   13   14 1     
   33   13   38 1     
   34   13   39 1     
   35   14   15 1     
   36   14   40 1     
   37   14   41 1     
   38   15   19 1     
   39   15   16 2     
   40   16   17 1     
   41   16   42 1     
   42   17   18 1     
   43   18   19 2     
   44   18   43 1     
   45   11   44 1     
   46   11   45 1     
   47   19   46 1     
@<TRIPOS>SUBSTRUCTURE
      1 S1             1
@<TRIPOS>SET
LONE_PAIRS      STATIC     ATOMS    <user>   **** ""
3 44 45 46
DONOR_HYDROGENS      STATIC     ATOMS    <user>   **** ""
1 37
ATOM$BLUE        STATIC     ATOMS    COLORGROUP SYSTEM
3 44 45 46
ATOM$RED        STATIC     ATOMS    COLORGROUP SYSTEM
1 37
