AV-unprocessed.smi:1974|AV-procd|sdf|7980|dock3
  -GOLD-   2272010163D 1   1.00000     0.00000
 Structure written by MMmdl.
 34 35  0  0  0  0  0  0  0  0  1 V2000
  153.2345  138.9008  154.6971 C   0  0  0  0  0  0  0  0  0  0  0  0
  152.0006  138.2132  155.3023 C   0  0  2  0  0  0  0  0  0  0  0  0
  150.8628  138.0901  154.2702 C   0  0  0  0  0  0  0  0  0  0  0  0
  149.9662  139.2322  154.2920 N   0  0  0  0  0  0  0  0  0  0  0  0
  148.6554  139.3019  153.8689 C   0  0  0  0  0  0  0  0  0  0  0  0
  148.2259  140.5797  154.0865 C   0  0  0  0  0  0  0  0  0  0  0  0
  149.3595  141.2249  154.6553 C   0  0  0  0  0  0  0  0  0  0  0  0
  150.3991  140.4156  154.7778 N   0  0  0  0  0  0  0  0  0  0  0  0
  151.5388  138.9607  156.4705 N   0  0  0  0  0  0  0  0  0  0  0  0
  152.2888  139.2811  157.5357 C   0  0  0  0  0  0  0  0  0  0  0  0
  153.4709  138.9562  157.6537 O   0  0  0  0  0  0  0  0  0  0  0  0
  151.5824  140.0729  158.6425 C   0  0  0  0  0  0  0  0  0  0  0  0
  152.0180  141.4685  158.7010 N   0  0  0  0  0  0  0  0  0  0  0  0
  152.8017  141.9225  159.8422 C   0  0  0  0  0  0  0  0  0  0  0  0
  153.4431  143.2596  159.4663 C   0  0  0  0  0  0  0  0  0  0  0  0
  152.4428  143.9962  158.1583 S   0  0  0  0  0  0  0  0  0  0  0  0
  151.6800  142.4227  157.7504 C   0  0  0  0  0  0  0  0  0  0  0  0
  150.9713  142.2734  156.7564 O   0  0  0  0  0  0  0  0  0  0  0  0
  153.6037  138.3504  153.8314 H   0  0  0  0  0  0  0  0  0  0  0  0
  154.0501  138.9585  155.4187 H   0  0  0  0  0  0  0  0  0  0  0  0
  153.0042  139.9162  154.3727 H   0  0  0  0  0  0  0  0  0  0  0  0
  152.2917  137.2067  155.6096 H   0  0  0  0  0  0  0  0  0  0  0  0
  151.2676  137.9809  153.2631 H   0  0  0  0  0  0  0  0  0  0  0  0
  150.2723  137.1938  154.4658 H   0  0  0  0  0  0  0  0  0  0  0  0
  148.1445  138.4468  153.4514 H   0  0  0  0  0  0  0  0  0  0  0  0
  147.2504  140.9912  153.8729 H   0  0  0  0  0  0  0  0  0  0  0  0
  149.4570  142.2501  154.9808 H   0  0  0  0  0  0  0  0  0  0  0  0
  150.5758  139.2638  156.4637 H   0  0  0  0  0  0  0  0  0  0  0  0
  150.5015  140.0380  158.4934 H   0  0  0  0  0  0  0  0  0  0  0  0
  151.7773  139.5830  159.5973 H   0  0  0  0  0  0  0  0  0  0  0  0
  152.1302  142.0498  160.6924 H   0  0  0  0  0  0  0  0  0  0  0  0
  153.5576  141.1880  160.1232 H   0  0  0  0  0  0  0  0  0  0  0  0
  153.5314  143.9304  160.3212 H   0  0  0  0  0  0  0  0  0  0  0  0
  154.4448  143.0927  159.0688 H   0  0  0  0  0  0  0  0  0  0  0  0
  1  2  1  0  0  0  0
  1 19  1  0  0  0  0
  1 20  1  0  0  0  0
  1 21  1  0  0  0  0
  2  3  1  0  0  0  0
  2  9  1  0  0  0  0
  2 22  1  0  0  0  0
  3  4  1  0  0  0  0
  3 23  1  0  0  0  0
  3 24  1  0  0  0  0
  4  8  1  0  0  0  0
  4  5  1  0  0  0  0
  5  6  2  0  0  0  0
  5 25  1  0  0  0  0
  6  7  1  0  0  0  0
  6 26  1  0  0  0  0
  7  8  2  0  0  0  0
  7 27  1  0  0  0  0
  9 10  1  0  0  0  0
  9 28  1  0  0  0  0
 10 11  2  0  0  0  0
 10 12  1  0  0  0  0
 12 13  1  0  0  0  0
 12 29  1  0  0  0  0
 12 30  1  0  0  0  0
 13 17  1  0  0  0  0
 13 14  1  0  0  0  0
 14 15  1  0  0  0  0
 14 31  1  0  0  0  0
 14 32  1  0  0  0  0
 15 16  1  0  0  0  0
 15 33  1  0  0  0  0
 15 34  1  0  0  0  0
 16 17  1  0  0  0  0
 17 18  2  0  0  0  0
M  END
> <s_m_source_file>
AV-unprocessed.smi

> <i_m_source_file_index>
1974

> <i_lp_mmshare_version>
43012

> <i_f3d_flags>
0

> <s_epik_input>
bjFbY0hdW2NIXVtjSF1uMVtDSDJdW0NAQEhdKFtDSDNdKVtOSF1DKD1PKVtDSDJdTjJbQ0gyXVtDSDJdU0MyPU8=

> <s_epik_cmdline>
J2VwaWtfcHl0aG9uJywgJy1waCcsICc3LjAnLCAnLXRuJywgJzgnLCAnLW1hJywgJzIwMCcsICctbWV0YWxfYmluZGluZycsICctaW1hZScsICc8aW5maWxlLm1hZT4nLCAnLW9tYWUnLCAnPG91dGZpbGUubWFlPic=

> <r_lp_tautomer_probability>
1

> <r_epik_Ionization_Penalty>
0.000283364

> <r_epik_Ionization_Penalty_Charging>
0

> <r_epik_Ionization_Penalty_Neutral>
0.000283364

> <r_epik_State_Penalty>
-0

> <r_epik_Charging_Adjusted_Penalty>
0

> <i_epik_Tot_Q>
0

> <i_epik_Tot_abs_Q>
0

> <r_epik_Metal_State_Penalty>
-0

> <b_epik_Metal_Only>
0

> <s_lp_Force_Field>
OPLS_2005

> <r_lp_Energy>
2.8686

> <b_lp_Chiralities_Consistent>
1

> <s_lp_Variant>
AV-unprocessed.smi:1974-1

> <Gold.Version>
5.8.1

> <Gold.Id.Protein>
6NUR|6NUR_protein|mol2

> <Gold.PLP.Fitness>
47.1998

> <Gold.PLP.PLP>
-38.9249

> <Gold.PLP.part.hbond>
-2.0000

> <Gold.PLP.part.metal>
0.0000

> <Gold.PLP.part.buried>
-0.6804

> <Gold.PLP.part.nonpolar>
-36.5513

> <Gold.PLP.part.repulsive>
0.2810

> <Gold.PLP.ligand.clash>
0.0000

> <Gold.PLP.ligand.torsion>
0.9472

> <Gold.PLP.Chemscore.Hbond>
2.0000

> <Gold.PLP.Chemscore.CHOScore>
1.3751

> <Gold.PLP.Chemscore.Metal>
0.0000

> <Gold.Chemscore.Hbonds>
donor molecule, donor type, donor heavy atom, donor atom, acceptor molecule, acceptor atom, score
      P1  H  7989  7998       L1     8  1.00
      P1  H  7997  8009       L1    11  1.00
      L1  C     5    25       P1  7948  0.25
      L1  C     7    27       P1  8028  0.79

> <Gold.PLP.Chemscore.Internal.Correction>
0.0439

> <Gold.Rescore>
     Score         DG    S(hbond)    S(metal)    S(lipo)     H(rot)  DE(clash)    DE(int)     intcor
     15.52     -16.57       1.86        0.00      86.30       2.04       0.03       1.02       ----

> <Gold.Chemscore.Fitness>
15.5233

> <Gold.Chemscore.DG>
-16.5732

> <Gold.Chemscore.ZeroCoef>
-5.4800

> <Gold.Chemscore.Hbond>
1.8623

> <Gold.Chemscore.Metal>
0.0000

> <Gold.Chemscore.Lipo>
86.2971

> <Gold.Chemscore.Internal_Hbond>
0.0000

> <Gold.Chemscore.DEClash>
0.0311

> <Gold.Chemscore.DEInternal>
1.0188

> <Gold.Chemscore.Rot>
2.0405

> <Gold.Chemscore.Internal.Correction>
   9.000000E+99

> <Gold.Chemscore.Hbonds>
donor molecule, donor type, donor heavy atom, donor atom, acceptor molecule, acceptor atom, score
      P1  H  7989  7998       L1     8  0.19
      P1  H  7997  8009       L1    11  0.62

> <Gold.Chemscore.Hbond.Weighted>
-6.2201

> <Gold.Chemscore.Metal.Weighted>
-0.0000

> <Gold.Chemscore.Lipo.Weighted>
-10.0968

> <Gold.Chemscore.Internal_Hbond.Weighted>
0.0000

> <Gold.Chemscore.DEClash.Weighted>
0.0311

> <Gold.Chemscore.DEInternal.Weighted>
1.0188

> <Gold.Chemscore.Rot.Weighted>
5.2237

> <Gold.Chemscore.Internal.Correction.Weighted>
   9.000000E+99

> <Gold.Protein.RotatedTorsions>
[ 6907 6896 6895 6894 ] final   35.71 input  -60.11 | X-H torsion
[ 7974 7965 7964 7962 ] final  -56.65 input  175.53 | X-H torsion
[ 8008 7997 7996 7995 ] final  177.52 input   59.86 | X-H torsion
[ 10167 10162 10161 10158 ] final   59.07 input  -65.29 | X-H torsion
[ 10718 10713 10712 10709 ] final -165.66 input   66.30 | X-H torsion
[ 10763 10752 10751 10750 ] final -177.61 input  -60.55 | X-H torsion
[ 11005 11000 10999 10996 ] final -146.49 input  -57.11 | X-H torsion

> <Gold.Protein.ActiveResidues>
 VAL166  LYS551  ARG553  GLY616  TRP617  ASP618  TYR619  PRO620  LYS621  CYS622 
 ASP623  PHE694  ASN695  SER759  ASP760  ASP761  ALA762  ILE779  LEU786  VAL792 
 PHE793  MET794  SER795  GLU796  ALA797  LYS798  CYS799  TRP800  GLU811  SER814 

> <Gold.Protein.RotatedAtoms>
  152.1198  134.9213  160.0563 H   0  0  0  0  0  0  0  0  0  0  0  0  # atno 6907 bound_to 6896
  152.0358  133.3952  159.4324 H   0  0  0  0  0  0  0  0  0  0  0  0  # atno 6908 bound_to 6896
  150.6848  134.3390  159.4903 H   0  0  0  0  0  0  0  0  0  0  0  0  # atno 6909 bound_to 6896
  145.8602  140.8291  142.9941 H   0  0  0  0  0  0  0  0  0  0  0  0  # atno 7974 bound_to 7965
  156.0648  140.1356  156.9899 H   0  0  0  0  0  0  0  0  0  0  0  0  # atno 8008 bound_to 7997
  154.4500  140.0984  156.6642 H   0  0  0  0  0  0  0  0  0  0  0  0  # atno 8009 bound_to 7997
  155.5321  140.3459  155.4431 H   0  0  0  0  0  0  0  0  0  0  0  0  # atno 8010 bound_to 7997
  140.1804  144.4187  150.6618 H   0  0  0  0  0  0  0  0  0  0  0  0  # atno 10167 bound_to 10162
  156.6566  130.9029  151.3022 H   0  0  0  0  0  0  0  0  0  0  0  0  # atno 10718 bound_to 10713
  154.5580  135.2818  155.0946 H   0  0  0  0  0  0  0  0  0  0  0  0  # atno 10763 bound_to 10752
  154.2366  135.6364  153.5197 H   0  0  0  0  0  0  0  0  0  0  0  0  # atno 10764 bound_to 10752
  153.0021  135.5550  154.6166 H   0  0  0  0  0  0  0  0  0  0  0  0  # atno 10765 bound_to 10752
  140.7814  134.3074  157.5044 H   0  0  0  0  0  0  0  0  0  0  0  0  # atno 11005 bound_to 11000
  144.6727  140.1084  143.7457 LP  0  0  0  0  0  0  0  0  0  0  0  0  # atno 17320 bound_to 7965
  145.9257  139.2574  143.1355 LP  0  0  0  0  0  0  0  0  0  0  0  0  # atno 17321 bound_to 7965
  140.6523  143.2228  151.6049 LP  0  0  0  0  0  0  0  0  0  0  0  0  # atno 17342 bound_to 10162
  139.5298  144.2949  152.1122 LP  0  0  0  0  0  0  0  0  0  0  0  0  # atno 17343 bound_to 10162
  157.7123  130.9455  150.1133 LP  0  0  0  0  0  0  0  0  0  0  0  0  # atno 17370 bound_to 10713
  156.2043  130.3662  149.8749 LP  0  0  0  0  0  0  0  0  0  0  0  0  # atno 17371 bound_to 10713
  139.8742  134.9321  156.3545 LP  0  0  0  0  0  0  0  0  0  0  0  0  # atno 17394 bound_to 11000
  140.9478  133.7471  156.0232 LP  0  0  0  0  0  0  0  0  0  0  0  0  # atno 17395 bound_to 11000

$$$$
