AV-unprocessed.smi:2567|AV-procd|sdf|10082|dock3
  -GOLD-   2272014113D 1   1.00000     0.00000
 Structure written by MMmdl.
 33 34  0  0  0  0  0  0  0  0  1 V2000
  150.2795  144.6292  160.3207 C   0  0  0  0  0  0  0  0  0  0  0  0
  151.5872  144.0497  159.7366 C   0  0  0  0  0  0  0  0  0  0  0  0
  152.2016  145.1520  158.8461 C   0  0  0  0  0  0  0  0  0  0  0  0
  152.5607  143.7046  160.8778 C   0  0  0  0  0  0  0  0  0  0  0  0
  151.3060  142.8105  158.9184 C   0  0  0  0  0  0  0  0  0  0  0  0
  151.2365  141.6036  159.4862 N   0  0  0  0  0  0  0  0  0  0  0  0
  151.1176  140.7863  158.4197 N   0  0  0  0  0  0  0  0  0  0  0  0
  151.1771  141.5093  157.3012 C   0  0  0  0  0  0  0  0  0  0  0  0
  151.1103  140.8828  155.9441 C   0  0  2  0  0  0  0  0  0  0  0  0
  149.8177  141.2531  155.1909 C   0  0  0  0  0  0  0  0  0  0  0  0
  149.7569  140.5476  153.9118 N   0  0  0  0  0  0  0  0  0  0  0  0
  149.8898  139.1036  154.0991 C   0  0  0  0  0  0  0  0  0  0  0  0
  151.1738  138.7808  154.8844 C   0  0  0  0  0  0  0  0  0  0  0  0
  151.1588  139.4703  156.1298 O   0  0  0  0  0  0  0  0  0  0  0  0
  151.3336  142.8057  157.5482 N   0  0  0  0  0  0  0  0  0  0  0  0
  151.0267  139.7836  158.4995 H   0  0  0  0  0  0  0  0  0  0  0  0
  150.4674  145.5461  160.8804 H   0  0  0  0  0  0  0  0  0  0  0  0
  149.7976  143.9317  161.0067 H   0  0  0  0  0  0  0  0  0  0  0  0
  149.5628  144.8670  159.5334 H   0  0  0  0  0  0  0  0  0  0  0  0
  151.5440  145.4030  158.0129 H   0  0  0  0  0  0  0  0  0  0  0  0
  153.1613  144.8460  158.4280 H   0  0  0  0  0  0  0  0  0  0  0  0
  152.3784  146.0674  159.4118 H   0  0  0  0  0  0  0  0  0  0  0  0
  152.7890  144.5819  161.4840 H   0  0  0  0  0  0  0  0  0  0  0  0
  153.5036  143.3175  160.4899 H   0  0  0  0  0  0  0  0  0  0  0  0
  152.1420  142.9463  161.5406 H   0  0  0  0  0  0  0  0  0  0  0  0
  151.9839  141.2030  155.3726 H   0  0  0  0  0  0  0  0  0  0  0  0
  148.9497  140.9918  155.7975 H   0  0  0  0  0  0  0  0  0  0  0  0
  149.7733  142.3301  155.0269 H   0  0  0  0  0  0  0  0  0  0  0  0
  148.8741  140.7504  153.4539 H   0  0  0  0  0  0  0  0  0  0  0  0
  149.0243  138.7187  154.6396 H   0  0  0  0  0  0  0  0  0  0  0  0
  149.9049  138.6002  153.1323 H   0  0  0  0  0  0  0  0  0  0  0  0
  151.2365  137.7096  155.0755 H   0  0  0  0  0  0  0  0  0  0  0  0
  152.0617  139.0545  154.3120 H   0  0  0  0  0  0  0  0  0  0  0  0
  1  2  1  0  0  0  0
  1 17  1  0  0  0  0
  1 18  1  0  0  0  0
  1 19  1  0  0  0  0
  2  3  1  0  0  0  0
  2  4  1  0  0  0  0
  2  5  1  0  0  0  0
  3 20  1  0  0  0  0
  3 21  1  0  0  0  0
  3 22  1  0  0  0  0
  4 23  1  0  0  0  0
  4 24  1  0  0  0  0
  4 25  1  0  0  0  0
  5 15  1  0  0  0  0
  5  6  2  0  0  0  0
  6  7  1  0  0  0  0
  7 16  1  0  0  0  0
  7  8  1  0  0  0  0
  8  9  1  0  0  0  0
  8 15  2  0  0  0  0
  9 14  1  0  0  0  0
  9 10  1  0  0  0  0
  9 26  1  0  0  0  0
 10 11  1  0  0  0  0
 10 27  1  0  0  0  0
 10 28  1  0  0  0  0
 11 12  1  0  0  0  0
 11 29  1  0  0  0  0
 12 13  1  0  0  0  0
 12 30  1  0  0  0  0
 12 31  1  0  0  0  0
 13 14  1  0  0  0  0
 13 32  1  0  0  0  0
 13 33  1  0  0  0  0
M  END
> <s_m_source_file>
AV-unprocessed.smi

> <i_m_source_file_index>
2567

> <i_lp_mmshare_version>
43012

> <i_f3d_flags>
0

> <s_epik_input>
W0NIM11DKFtDSDNdKShbQ0gzXSljMW5bbkhdYyhuMSlbQ0BASF0yW0NIMl1bTkhdW0NIMl1bQ0gyXU8y

> <s_epik_cmdline>
J2VwaWtfcHl0aG9uJywgJy1waCcsICc3LjAnLCAnLXRuJywgJzgnLCAnLW1hJywgJzIwMCcsICctbWV0YWxfYmluZGluZycsICctaW1hZScsICc8aW5maWxlLm1hZT4nLCAnLW9tYWUnLCAnPG91dGZpbGUubWFlPic=

> <r_epik_Ionization_Penalty>
0.981987

> <r_epik_Ionization_Penalty_Charging>
0

> <r_epik_Ionization_Penalty_Neutral>
0.981987

> <r_epik_State_Penalty>
2.09479

> <r_epik_Charging_Adjusted_Penalty>
2.09479

> <i_epik_Tot_Q>
0

> <i_epik_Tot_abs_Q>
0

> <r_epik_Metal_State_Penalty>
2.40362

> <b_epik_Metal_Only>
0

> <s_lp_Force_Field>
OPLS_2005

> <r_lp_Energy>
12.9727

> <b_lp_Chiralities_Consistent>
1

> <s_lp_Variant>
AV-unprocessed.smi:2567-7

> <Gold.Version>
5.8.1

> <Gold.Id.Protein>
6NUR|6NUR_protein|mol2

> <Gold.PLP.Fitness>
33.2852

> <Gold.PLP.PLP>
-33.6310

> <Gold.PLP.part.hbond>
-3.0000

> <Gold.PLP.part.metal>
0.0000

> <Gold.PLP.part.buried>
-4.7734

> <Gold.PLP.part.nonpolar>
-26.3144

> <Gold.PLP.part.repulsive>
0.2328

> <Gold.PLP.ligand.clash>
0.0000

> <Gold.PLP.ligand.torsion>
0.9065

> <Gold.PLP.Chemscore.Hbond>
0.4212

> <Gold.PLP.Chemscore.CHOScore>
0.0000

> <Gold.PLP.Chemscore.Metal>
0.0000

> <Gold.Chemscore.Hbonds>
donor molecule, donor type, donor heavy atom, donor atom, acceptor molecule, acceptor atom, score
      P1  H  7989  7998       L1    11  0.37

> <Gold.PLP.Chemscore.Internal.Correction>
0.2037

> <Gold.Rescore>
     Score         DG    S(hbond)    S(metal)    S(lipo)     H(rot)  DE(clash)    DE(int)     intcor
     10.81     -11.24       0.00        0.00      76.47       1.25       0.04       0.38       ----

> <Gold.Chemscore.Fitness>
10.8128

> <Gold.Chemscore.DG>
-11.2405

> <Gold.Chemscore.ZeroCoef>
-5.4800

> <Gold.Chemscore.Hbond>
0.0003

> <Gold.Chemscore.Metal>
0.0000

> <Gold.Chemscore.Lipo>
76.4689

> <Gold.Chemscore.Internal_Hbond>
0.0000

> <Gold.Chemscore.DEClash>
0.0446

> <Gold.Chemscore.DEInternal>
0.3831

> <Gold.Chemscore.Rot>
1.2450

> <Gold.Chemscore.Internal.Correction>
   9.000000E+99

> <Gold.Chemscore.Hbonds>
donor molecule, donor type, donor heavy atom, donor atom, acceptor molecule, acceptor atom, score
      P1  H  7989  7998       L1    11  0.01

> <Gold.Chemscore.Hbond.Weighted>
-0.0009

> <Gold.Chemscore.Metal.Weighted>
-0.0000

> <Gold.Chemscore.Lipo.Weighted>
-8.9469

> <Gold.Chemscore.Internal_Hbond.Weighted>
0.0000

> <Gold.Chemscore.DEClash.Weighted>
0.0446

> <Gold.Chemscore.DEInternal.Weighted>
0.3831

> <Gold.Chemscore.Rot.Weighted>
3.1872

> <Gold.Chemscore.Internal.Correction.Weighted>
   9.000000E+99

> <Gold.Protein.RotatedTorsions>
[ 6907 6896 6895 6894 ] final -121.35 input  -60.11 | X-H torsion
[ 7974 7965 7964 7962 ] final -140.26 input  175.53 | X-H torsion
[ 8008 7997 7996 7995 ] final  152.49 input   59.86 | X-H torsion
[ 10167 10162 10161 10158 ] final  167.49 input  -65.29 | X-H torsion
[ 10718 10713 10712 10709 ] final  108.90 input   66.30 | X-H torsion
[ 10763 10752 10751 10750 ] final -141.97 input  -60.55 | X-H torsion
[ 11005 11000 10999 10996 ] final -169.96 input  -57.11 | X-H torsion

> <Gold.Protein.ActiveResidues>
 VAL166  LYS551  ARG553  GLY616  TRP617  ASP618  TYR619  PRO620  LYS621  CYS622 
 ASP623  PHE694  ASN695  SER759  ASP760  ASP761  ALA762  ILE779  LEU786  VAL792 
 PHE793  MET794  SER795  GLU796  ALA797  LYS798  CYS799  TRP800  GLU811  SER814 

> <Gold.Protein.RotatedAtoms>
  150.8476  133.7838  159.3037 H   0  0  0  0  0  0  0  0  0  0  0  0  # atno 6907 bound_to 6896
  151.5520  135.1065  159.9961 H   0  0  0  0  0  0  0  0  0  0  0  0  # atno 6908 bound_to 6896
  152.4526  133.7616  159.6806 H   0  0  0  0  0  0  0  0  0  0  0  0  # atno 6909 bound_to 6896
  144.8611  140.6221  143.5327 H   0  0  0  0  0  0  0  0  0  0  0  0  # atno 7974 bound_to 7965
  156.2626  140.2019  156.6341 H   0  0  0  0  0  0  0  0  0  0  0  0  # atno 8008 bound_to 7997
  154.6660  140.0555  157.0138 H   0  0  0  0  0  0  0  0  0  0  0  0  # atno 8009 bound_to 7997
  155.1206  140.3224  155.4501 H   0  0  0  0  0  0  0  0  0  0  0  0  # atno 8010 bound_to 7997
  139.4946  144.3916  151.9510 H   0  0  0  0  0  0  0  0  0  0  0  0  # atno 10167 bound_to 10162
  157.6566  131.0903  150.6374 H   0  0  0  0  0  0  0  0  0  0  0  0  # atno 10718 bound_to 10713
  154.8526  135.3509  154.5954 H   0  0  0  0  0  0  0  0  0  0  0  0  # atno 10763 bound_to 10752
  153.6563  135.6992  153.5197 H   0  0  0  0  0  0  0  0  0  0  0  0  # atno 10764 bound_to 10752
  153.2853  135.4251  155.1075 H   0  0  0  0  0  0  0  0  0  0  0  0  # atno 10765 bound_to 10752
  140.5249  134.5673  157.5058 H   0  0  0  0  0  0  0  0  0  0  0  0  # atno 11005 bound_to 11000
  145.4310  139.1549  143.4022 LP  0  0  0  0  0  0  0  0  0  0  0  0  # atno 17320 bound_to 7965
  146.2861  140.4426  142.8757 LP  0  0  0  0  0  0  0  0  0  0  0  0  # atno 17321 bound_to 7965
  140.3354  144.3267  150.5978 LP  0  0  0  0  0  0  0  0  0  0  0  0  # atno 17342 bound_to 10162
  140.5610  143.2192  151.7764 LP  0  0  0  0  0  0  0  0  0  0  0  0  # atno 17343 bound_to 10162
  156.6680  130.4531  149.5666 LP  0  0  0  0  0  0  0  0  0  0  0  0  # atno 17370 bound_to 10713
  156.2019  130.6625  151.1176 LP  0  0  0  0  0  0  0  0  0  0  0  0  # atno 17371 bound_to 10713
  139.9586  134.7492  156.0287 LP  0  0  0  0  0  0  0  0  0  0  0  0  # atno 17394 bound_to 11000
  141.1314  133.6585  156.3474 LP  0  0  0  0  0  0  0  0  0  0  0  0  # atno 17395 bound_to 11000

$$$$
