AV-unprocessed.smi:1985|AV-procd|sdf|8045|dock6
  -GOLD-   2272010243D 1   1.00000     0.00000
 Structure written by MMmdl.
 51 52  0  0  0  0  0  0  0  0  2 V2000
  147.4617  131.9616  156.0332 C   0  0  0  0  0  0  0  0  0  0  0  0
  146.8672  132.5463  154.7395 C   0  0  0  0  0  0  0  0  0  0  0  0
  147.7730  133.5657  153.9831 C   0  0  2  0  0  0  0  0  0  0  0  0
  149.0990  132.8394  153.6324 C   0  0  0  0  0  0  0  0  0  0  0  0
  148.0834  134.7655  154.9267 C   0  0  0  0  0  0  0  0  0  0  0  0
  149.1928  135.5894  154.4553 N   0  0  0  0  0  0  0  0  0  0  0  0
  150.0817  136.1945  155.2551 C   0  0  0  0  0  0  0  0  0  0  0  0
  150.0701  136.0777  156.4812 O   0  0  0  0  0  0  0  0  0  0  0  0
  151.1456  137.0493  154.5519 C   0  0  0  0  0  0  0  0  0  0  0  0
  151.0802  138.4729  154.9084 N   0  0  0  0  0  0  0  0  0  0  0  0
  152.0678  139.0248  155.7037 C   0  0  0  0  0  0  0  0  0  0  0  0
  152.0781  140.3196  156.0881 C   0  0  0  0  0  0  0  0  0  0  0  0
  151.0201  141.2316  155.6716 C   0  0  0  0  0  0  0  0  0  0  0  0
  150.9750  142.4140  156.0138 O   0  0  0  0  0  0  0  0  0  0  0  0
  150.0307  140.6470  154.8470 N   0  0  0  0  0  0  0  0  0  0  0  0
  148.9359  141.4942  154.4207 C   0  0  0  0  0  0  0  0  0  0  0  0
  150.0163  139.2869  154.4607 C   0  0  0  0  0  0  0  0  0  0  0  0
  149.1148  138.8090  153.7676 O   0  0  0  0  0  0  0  0  0  0  0  0
  147.0851  134.0393  152.7261 N   0  3  0  0  0  0  0  0  0  0  0  0
  146.6057  132.9696  151.8050 C   0  0  0  0  0  0  0  0  0  0  0  0
  146.1137  133.5772  150.4818 C   0  0  0  0  0  0  0  0  0  0  0  0
  145.0719  134.5057  150.7459 O   0  0  0  0  0  0  0  0  0  0  0  0
  145.5227  135.5842  151.5528 C   0  0  0  0  0  0  0  0  0  0  0  0
  146.0085  135.0538  152.9125 C   0  0  0  0  0  0  0  0  0  0  0  0
  146.7626  131.2601  156.4891 H   0  0  0  0  0  0  0  0  0  0  0  0
  147.6670  132.7364  156.7713 H   0  0  0  0  0  0  0  0  0  0  0  0
  148.3881  131.4186  155.8465 H   0  0  0  0  0  0  0  0  0  0  0  0
  146.5830  131.7260  154.0808 H   0  0  0  0  0  0  0  0  0  0  0  0
  145.9204  133.0212  154.9993 H   0  0  0  0  0  0  0  0  0  0  0  0
  149.4953  132.2853  154.4840 H   0  0  0  0  0  0  0  0  0  0  0  0
  149.8805  133.5383  153.3326 H   0  0  0  0  0  0  0  0  0  0  0  0
  148.9670  132.1245  152.8198 H   0  0  0  0  0  0  0  0  0  0  0  0
  147.2137  135.4145  155.0294 H   0  0  0  0  0  0  0  0  0  0  0  0
  148.3287  134.4086  155.9276 H   0  0  0  0  0  0  0  0  0  0  0  0
  149.2741  135.7297  153.4585 H   0  0  0  0  0  0  0  0  0  0  0  0
  152.1277  136.6464  154.8032 H   0  0  0  0  0  0  0  0  0  0  0  0
  151.0484  136.9350  153.4708 H   0  0  0  0  0  0  0  0  0  0  0  0
  152.8727  138.3885  156.0421 H   0  0  0  0  0  0  0  0  0  0  0  0
  152.8784  140.6852  156.7147 H   0  0  0  0  0  0  0  0  0  0  0  0
  148.4874  141.1009  153.5080 H   0  0  0  0  0  0  0  0  0  0  0  0
  149.3233  142.4909  154.2032 H   0  0  0  0  0  0  0  0  0  0  0  0
  148.2151  141.5143  155.2393 H   0  0  0  0  0  0  0  0  0  0  0  0
  147.3939  132.2552  151.5758 H   0  0  0  0  0  0  0  0  0  0  0  0
  145.7882  132.4126  152.2633 H   0  0  0  0  0  0  0  0  0  0  0  0
  146.9304  134.0646  149.9467 H   0  0  0  0  0  0  0  0  0  0  0  0
  145.7286  132.7934  149.8292 H   0  0  0  0  0  0  0  0  0  0  0  0
  146.3173  136.1303  151.0417 H   0  0  0  0  0  0  0  0  0  0  0  0
  144.6993  136.2842  151.6963 H   0  0  0  0  0  0  0  0  0  0  0  0
  145.1685  134.6189  153.4545 H   0  0  0  0  0  0  0  0  0  0  0  0
  146.3562  135.9087  153.4894 H   0  0  0  0  0  0  0  0  0  0  0  0
  147.8086  134.5232  152.2134 H   0  0  0  0  0  0  0  0  0  0  0  0
  1  2  1  0  0  0  0
  1 25  1  0  0  0  0
  1 26  1  0  0  0  0
  1 27  1  0  0  0  0
  2  3  1  0  0  0  0
  2 28  1  0  0  0  0
  2 29  1  0  0  0  0
  3  4  1  0  0  0  0
  3  5  1  0  0  0  0
  3 19  1  0  0  0  0
  4 30  1  0  0  0  0
  4 31  1  0  0  0  0
  4 32  1  0  0  0  0
  5  6  1  0  0  0  0
  5 33  1  0  0  0  0
  5 34  1  0  0  0  0
  6  7  1  0  0  0  0
  6 35  1  0  0  0  0
  7  8  2  0  0  0  0
  7  9  1  0  0  0  0
  9 10  1  0  0  0  0
  9 36  1  0  0  0  0
  9 37  1  0  0  0  0
 10 17  1  0  0  0  0
 10 11  1  0  0  0  0
 11 12  2  0  0  0  0
 11 38  1  0  0  0  0
 12 13  1  0  0  0  0
 12 39  1  0  0  0  0
 13 14  2  0  0  0  0
 13 15  1  0  0  0  0
 15 16  1  0  0  0  0
 15 17  1  0  0  0  0
 16 40  1  0  0  0  0
 16 41  1  0  0  0  0
 16 42  1  0  0  0  0
 17 18  2  0  0  0  0
 19 24  1  0  0  0  0
 19 20  1  0  0  0  0
 19 51  1  0  0  0  0
 20 21  1  0  0  0  0
 20 43  1  0  0  0  0
 20 44  1  0  0  0  0
 21 22  1  0  0  0  0
 21 45  1  0  0  0  0
 21 46  1  0  0  0  0
 22 23  1  0  0  0  0
 23 24  1  0  0  0  0
 23 47  1  0  0  0  0
 23 48  1  0  0  0  0
 24 49  1  0  0  0  0
 24 50  1  0  0  0  0
M  CHG  1  19   1
M  END
> <s_m_source_file>
AV-unprocessed.smi

> <i_m_source_file_index>
1985

> <i_lp_mmshare_version>
43012

> <i_f3d_flags>
0

> <s_epik_input>
W0NIMl0xW0NIMl1PW0NIMl1bQ0gyXU4xW0NAQF0oW0NIM10pKFtDSDJdW0NIM10pW0NIMl1bTkhdQyg9TylbQ0gyXW4yW2NIXVtjSF1jKD1PKW4oW0NIM10pYzI9Tw==

> <s_epik_cmdline>
J2VwaWtfcHl0aG9uJywgJy1waCcsICc3LjAnLCAnLXRuJywgJzgnLCAnLW1hJywgJzIwMCcsICctbWV0YWxfYmluZGluZycsICctaW1hZScsICc8aW5maWxlLm1hZT4nLCAnLW9tYWUnLCAnPG91dGZpbGUubWFlPic=

> <r_lp_tautomer_probability>
1

> <r_epik_Ionization_Penalty>
0.519658

> <r_epik_Ionization_Penalty_Charging>
0.519658

> <r_epik_Ionization_Penalty_Neutral>
8.70177e-08

> <r_epik_State_Penalty>
0.527569

> <r_epik_Charging_Adjusted_Penalty>
1.04723

> <i_epik_Tot_Q>
1

> <i_epik_Tot_abs_Q>
1

> <r_epik_Metal_State_Penalty>
0.527613

> <b_epik_Metal_Only>
0

> <s_lp_Force_Field>
OPLS_2005

> <r_lp_Energy>
37.4979

> <b_lp_Chiralities_Consistent>
1

> <s_lp_Variant>
AV-unprocessed.smi:1985-4

> <Gold.Version>
5.8.1

> <Gold.Id.Protein>
6NUR|6NUR_protein|mol2

> <Gold.PLP.Fitness>
45.0936

> <Gold.PLP.PLP>
-37.1722

> <Gold.PLP.part.hbond>
-2.0000

> <Gold.PLP.part.metal>
0.0000

> <Gold.PLP.part.buried>
-5.3078

> <Gold.PLP.part.nonpolar>
-32.3596

> <Gold.PLP.part.repulsive>
1.7095

> <Gold.PLP.ligand.clash>
0.0000

> <Gold.PLP.ligand.torsion>
0.6628

> <Gold.PLP.Chemscore.Hbond>
3.0000

> <Gold.PLP.Chemscore.CHOScore>
0.0000

> <Gold.PLP.Chemscore.Metal>
0.0000

> <Gold.Chemscore.Hbonds>
donor molecule, donor type, donor heavy atom, donor atom, acceptor molecule, acceptor atom, score
      L1  H     6    35       P1  7948  1.00
      L1  H    19    51       P1  7948  1.95

> <Gold.PLP.Chemscore.Internal.Correction>
0.2470

> <Gold.Rescore>
     Score         DG    S(hbond)    S(metal)    S(lipo)     H(rot)  DE(clash)    DE(int)     intcor
     12.01     -13.13       1.89        0.00      61.03       2.27       0.32       0.79       ----

> <Gold.Chemscore.Fitness>
12.0128

> <Gold.Chemscore.DG>
-13.1257

> <Gold.Chemscore.ZeroCoef>
-5.4800

> <Gold.Chemscore.Hbond>
1.8931

> <Gold.Chemscore.Metal>
0.0000

> <Gold.Chemscore.Lipo>
61.0253

> <Gold.Chemscore.Internal_Hbond>
0.0000

> <Gold.Chemscore.DEClash>
0.3209

> <Gold.Chemscore.DEInternal>
0.7920

> <Gold.Chemscore.Rot>
2.2724

> <Gold.Chemscore.Internal.Correction>
   9.000000E+99

> <Gold.Chemscore.Hbonds>
donor molecule, donor type, donor heavy atom, donor atom, acceptor molecule, acceptor atom, score
      L1  H     6    35       P1  7948  0.50
      L1  H    19    51       P1  7948  0.40

> <Gold.Chemscore.Hbond.Weighted>
-6.3231

> <Gold.Chemscore.Metal.Weighted>
-0.0000

> <Gold.Chemscore.Lipo.Weighted>
-7.1400

> <Gold.Chemscore.Internal_Hbond.Weighted>
0.0000

> <Gold.Chemscore.DEClash.Weighted>
0.3209

> <Gold.Chemscore.DEInternal.Weighted>
0.7920

> <Gold.Chemscore.Rot.Weighted>
5.8174

> <Gold.Chemscore.Internal.Correction.Weighted>
   9.000000E+99

> <Gold.Protein.RotatedTorsions>
[ 6907 6896 6895 6894 ] final  -73.76 input  -60.11 | X-H torsion
[ 7974 7965 7964 7962 ] final  122.28 input  175.53 | X-H torsion
[ 8008 7997 7996 7995 ] final -103.02 input   59.86 | X-H torsion
[ 10167 10162 10161 10158 ] final  131.30 input  -65.29 | X-H torsion
[ 10718 10713 10712 10709 ] final  106.65 input   66.30 | X-H torsion
[ 10763 10752 10751 10750 ] final   38.26 input  -60.55 | X-H torsion
[ 11005 11000 10999 10996 ] final   35.01 input  -57.11 | X-H torsion

> <Gold.Protein.ActiveResidues>
 VAL166  LYS551  ARG553  GLY616  TRP617  ASP618  TYR619  PRO620  LYS621  CYS622 
 ASP623  PHE694  ASN695  SER759  ASP760  ASP761  ALA762  ILE779  LEU786  VAL792 
 PHE793  MET794  SER795  GLU796  ALA797  LYS798  CYS799  TRP800  GLU811  SER814 

> <Gold.Protein.RotatedAtoms>
  150.7118  134.4969  159.5542 H   0  0  0  0  0  0  0  0  0  0  0  0  # atno 6907 bound_to 6896
  152.2575  134.8066  160.0445 H   0  0  0  0  0  0  0  0  0  0  0  0  # atno 6908 bound_to 6896
  151.8791  133.3456  159.3797 H   0  0  0  0  0  0  0  0  0  0  0  0  # atno 6909 bound_to 6896
  145.1094  139.3463  143.4771 H   0  0  0  0  0  0  0  0  0  0  0  0  # atno 7974 bound_to 7965
  154.8650  140.0425  157.1689 H   0  0  0  0  0  0  0  0  0  0  0  0  # atno 8008 bound_to 7997
  154.8799  140.2971  155.5410 H   0  0  0  0  0  0  0  0  0  0  0  0  # atno 8009 bound_to 7997
  156.2999  140.2413  156.3800 H   0  0  0  0  0  0  0  0  0  0  0  0  # atno 8010 bound_to 7997
  139.5390  144.6712  151.4688 H   0  0  0  0  0  0  0  0  0  0  0  0  # atno 10167 bound_to 10162
  157.6660  131.0855  150.6038 H   0  0  0  0  0  0  0  0  0  0  0  0  # atno 10718 bound_to 10713
  153.0007  135.6254  154.2276 H   0  0  0  0  0  0  0  0  0  0  0  0  # atno 10763 bound_to 10752
  154.2019  135.2804  155.2989 H   0  0  0  0  0  0  0  0  0  0  0  0  # atno 10764 bound_to 10752
  154.5677  135.5686  153.7125 H   0  0  0  0  0  0  0  0  0  0  0  0  # atno 10765 bound_to 10752
  140.2470  134.3347  155.7904 H   0  0  0  0  0  0  0  0  0  0  0  0  # atno 11005 bound_to 11000
  146.3527  140.1006  142.8608 LP  0  0  0  0  0  0  0  0  0  0  0  0  # atno 17320 bound_to 7965
  145.0865  140.9256  143.4794 LP  0  0  0  0  0  0  0  0  0  0  0  0  # atno 17321 bound_to 7965
  140.6611  143.8496  150.6889 LP  0  0  0  0  0  0  0  0  0  0  0  0  # atno 17342 bound_to 10162
  140.1891  143.4051  152.1877 LP  0  0  0  0  0  0  0  0  0  0  0  0  # atno 17343 bound_to 10162
  156.6339  130.4439  149.5777 LP  0  0  0  0  0  0  0  0  0  0  0  0  # atno 17370 bound_to 10713
  156.2261  130.6766  151.1417 LP  0  0  0  0  0  0  0  0  0  0  0  0  # atno 17371 bound_to 10713
  141.2205  133.7331  156.8977 LP  0  0  0  0  0  0  0  0  0  0  0  0  # atno 17394 bound_to 11000
  140.1596  134.9175  157.2697 LP  0  0  0  0  0  0  0  0  0  0  0  0  # atno 17395 bound_to 11000

$$$$
