AV-unprocessed.smi:2146|AV-procd|sdf|8738|dock7
  -GOLD-   2272011513D 1   1.00000     0.00000
 Structure written by MMmdl.
 44 45  0  0  0  0  0  0  0  0  1 V2000
  151.7129  138.1049  154.3697 C   0  0  0  0  0  0  0  0  0  0  0  0
  151.1497  139.3709  155.0643 C   0  0  2  0  0  0  0  0  0  0  0  0
  150.9297  139.0604  156.5741 C   0  0  0  0  0  0  0  0  0  0  0  0
  152.0691  139.4150  157.4160 N   0  0  0  0  0  0  0  0  0  0  0  0
  152.1972  139.1023  158.7142 C   0  0  0  0  0  0  0  0  0  0  0  0
  151.3428  138.4767  159.3439 O   0  0  0  0  0  0  0  0  0  0  0  0
  153.4811  139.5941  159.3977 C   0  0  0  0  0  0  0  0  0  0  0  0
  153.2638  140.7384  160.2987 N   0  0  0  0  0  0  0  0  0  0  0  0
  152.6723  141.8898  159.7425 C   0  0  0  0  0  0  0  0  0  0  0  0
  152.4050  142.9966  160.4615 C   0  0  0  0  0  0  0  0  0  0  0  0
  151.8098  144.2396  159.8187 C   0  0  0  0  0  0  0  0  0  0  0  0
  152.5384  144.5960  158.7620 F   0  0  0  0  0  0  0  0  0  0  0  0
  150.5605  144.0199  159.4083 F   0  0  0  0  0  0  0  0  0  0  0  0
  151.7954  145.2611  160.6758 F   0  0  0  0  0  0  0  0  0  0  0  0
  152.7901  142.9673  161.8589 C   0  0  0  0  0  0  0  0  0  0  0  0
  153.3615  141.8762  162.4051 C   0  0  0  0  0  0  0  0  0  0  0  0
  153.6235  140.6708  161.6155 C   0  0  0  0  0  0  0  0  0  0  0  0
  154.1353  139.6644  162.1064 O   0  0  0  0  0  0  0  0  0  0  0  0
  149.9396  139.9018  154.3937 N   0  0  0  0  0  0  0  0  0  0  0  0
  148.8464  138.9243  154.3379 C   0  0  0  0  0  0  0  0  0  0  0  0
  147.5777  139.4830  153.6706 C   0  0  0  0  0  0  0  0  0  0  0  0
  147.1511  140.6531  154.3542 O   0  0  0  0  0  0  0  0  0  0  0  0
  148.1540  141.6592  154.3649 C   0  0  0  0  0  0  0  0  0  0  0  0
  149.4257  141.1157  155.0388 C   0  0  0  0  0  0  0  0  0  0  0  0
  152.5746  137.6917  154.8924 H   0  0  0  0  0  0  0  0  0  0  0  0
  152.0679  138.3099  153.3607 H   0  0  0  0  0  0  0  0  0  0  0  0
  150.9586  137.3197  154.3100 H   0  0  0  0  0  0  0  0  0  0  0  0
  151.9252  140.1360  155.0030 H   0  0  0  0  0  0  0  0  0  0  0  0
  150.0675  139.5879  156.9793 H   0  0  0  0  0  0  0  0  0  0  0  0
  150.7296  137.9969  156.7076 H   0  0  0  0  0  0  0  0  0  0  0  0
  152.8147  139.9358  156.9772 H   0  0  0  0  0  0  0  0  0  0  0  0
  153.9368  138.7669  159.9449 H   0  0  0  0  0  0  0  0  0  0  0  0
  154.2015  139.8510  158.6202 H   0  0  0  0  0  0  0  0  0  0  0  0
  152.4434  141.8142  158.6894 H   0  0  0  0  0  0  0  0  0  0  0  0
  152.6137  143.8324  162.4809 H   0  0  0  0  0  0  0  0  0  0  0  0
  153.6325  141.8886  163.4506 H   0  0  0  0  0  0  0  0  0  0  0  0
  149.1405  138.0473  153.7657 H   0  0  0  0  0  0  0  0  0  0  0  0
  148.6052  138.5814  155.3452 H   0  0  0  0  0  0  0  0  0  0  0  0
  147.7628  139.7124  152.6199 H   0  0  0  0  0  0  0  0  0  0  0  0
  146.7780  138.7430  153.6996 H   0  0  0  0  0  0  0  0  0  0  0  0
  148.3654  141.9857  153.3454 H   0  0  0  0  0  0  0  0  0  0  0  0
  147.7803  142.5274  154.9077 H   0  0  0  0  0  0  0  0  0  0  0  0
  149.2196  140.9162  156.0916 H   0  0  0  0  0  0  0  0  0  0  0  0
  150.1669  141.9119  155.0067 H   0  0  0  0  0  0  0  0  0  0  0  0
  1  2  1  0  0  0  0
  1 25  1  0  0  0  0
  1 26  1  0  0  0  0
  1 27  1  0  0  0  0
  2  3  1  0  0  0  0
  2 19  1  0  0  0  0
  2 28  1  0  0  0  0
  3  4  1  0  0  0  0
  3 29  1  0  0  0  0
  3 30  1  0  0  0  0
  4  5  1  0  0  0  0
  4 31  1  0  0  0  0
  5  6  2  0  0  0  0
  5  7  1  0  0  0  0
  7  8  1  0  0  0  0
  7 32  1  0  0  0  0
  7 33  1  0  0  0  0
  8 17  1  0  0  0  0
  8  9  1  0  0  0  0
  9 10  2  0  0  0  0
  9 34  1  0  0  0  0
 10 11  1  0  0  0  0
 10 15  1  0  0  0  0
 11 12  1  0  0  0  0
 11 13  1  0  0  0  0
 11 14  1  0  0  0  0
 15 16  2  0  0  0  0
 15 35  1  0  0  0  0
 16 17  1  0  0  0  0
 16 36  1  0  0  0  0
 17 18  2  0  0  0  0
 19 24  1  0  0  0  0
 19 20  1  0  0  0  0
 20 21  1  0  0  0  0
 20 37  1  0  0  0  0
 20 38  1  0  0  0  0
 21 22  1  0  0  0  0
 21 39  1  0  0  0  0
 21 40  1  0  0  0  0
 22 23  1  0  0  0  0
 23 24  1  0  0  0  0
 23 41  1  0  0  0  0
 23 42  1  0  0  0  0
 24 43  1  0  0  0  0
 24 44  1  0  0  0  0
M  END
> <s_m_source_file>
AV-unprocessed.smi

> <i_m_source_file_index>
2146

> <i_lp_mmshare_version>
43012

> <i_f3d_flags>
0

> <s_epik_input>
W0NIMl0xW0NIMl1PW0NIMl1bQ0gyXU4xW0NASF0oW0NIM10pW0NIMl1bTkhdQyg9TylbQ0gyXW4yW2NIXWMoQyhGKShGKUYpW2NIXVtjSF1jMj1P

> <s_epik_cmdline>
J2VwaWtfcHl0aG9uJywgJy1waCcsICc3LjAnLCAnLXRuJywgJzgnLCAnLW1hJywgJzIwMCcsICctbWV0YWxfYmluZGluZycsICctaW1hZScsICc8aW5maWxlLm1hZT4nLCAnLW9tYWUnLCAnPG91dGZpbGUubWFlPic=

> <r_lp_tautomer_probability>
1

> <r_epik_Ionization_Penalty>
0.237382

> <r_epik_Ionization_Penalty_Charging>
1.80451e-08

> <r_epik_Ionization_Penalty_Neutral>
0.237382

> <r_epik_State_Penalty>
0.228245

> <r_epik_Charging_Adjusted_Penalty>
0.228245

> <i_epik_Tot_Q>
0

> <i_epik_Tot_abs_Q>
0

> <r_epik_Metal_State_Penalty>
0.22822

> <b_epik_Metal_Only>
0

> <s_lp_Force_Field>
OPLS_2005

> <r_lp_Energy>
40.571

> <b_lp_Chiralities_Consistent>
1

> <s_lp_Variant>
AV-unprocessed.smi:2146-1

> <Gold.Version>
5.8.1

> <Gold.Id.Protein>
6NUR|6NUR_protein|mol2

> <Gold.PLP.Fitness>
57.5321

> <Gold.PLP.PLP>
-59.0696

> <Gold.PLP.part.hbond>
-1.0000

> <Gold.PLP.part.metal>
0.0000

> <Gold.PLP.part.buried>
-5.0241

> <Gold.PLP.part.nonpolar>
-52.4132

> <Gold.PLP.part.repulsive>
0.7152

> <Gold.PLP.ligand.clash>
0.0000

> <Gold.PLP.ligand.torsion>
0.8200

> <Gold.PLP.Chemscore.Hbond>
0.0000

> <Gold.PLP.Chemscore.CHOScore>
0.0000

> <Gold.PLP.Chemscore.Metal>
0.0000

> <Gold.PLP.Chemscore.Internal.Correction>
0.1026

> <Gold.Rescore>
     Score         DG    S(hbond)    S(metal)    S(lipo)     H(rot)  DE(clash)    DE(int)     intcor
     12.30     -13.30       0.00        0.00     112.88       2.10       0.15       0.86       ----

> <Gold.Chemscore.Fitness>
12.2951

> <Gold.Chemscore.DG>
-13.3007

> <Gold.Chemscore.ZeroCoef>
-5.4800

> <Gold.Chemscore.Hbond>
0.0000

> <Gold.Chemscore.Metal>
0.0000

> <Gold.Chemscore.Lipo>
112.8772

> <Gold.Chemscore.Internal_Hbond>
0.0000

> <Gold.Chemscore.DEClash>
0.1472

> <Gold.Chemscore.DEInternal>
0.8584

> <Gold.Chemscore.Rot>
2.1039

> <Gold.Chemscore.Internal.Correction>
   9.000000E+99

> <Gold.Chemscore.Hbond.Weighted>
-0.0000

> <Gold.Chemscore.Metal.Weighted>
-0.0000

> <Gold.Chemscore.Lipo.Weighted>
-13.2066

> <Gold.Chemscore.Internal_Hbond.Weighted>
0.0000

> <Gold.Chemscore.DEClash.Weighted>
0.1472

> <Gold.Chemscore.DEInternal.Weighted>
0.8584

> <Gold.Chemscore.Rot.Weighted>
5.3860

> <Gold.Chemscore.Internal.Correction.Weighted>
   9.000000E+99

> <Gold.Protein.RotatedTorsions>
[ 6907 6896 6895 6894 ] final -159.34 input  -60.11 | X-H torsion
[ 7974 7965 7964 7962 ] final  175.02 input  175.53 | X-H torsion
[ 8008 7997 7996 7995 ] final  119.65 input   59.86 | X-H torsion
[ 10167 10162 10161 10158 ] final   70.16 input  -65.29 | X-H torsion
[ 10718 10713 10712 10709 ] final  -93.66 input   66.30 | X-H torsion
[ 10763 10752 10751 10750 ] final    7.68 input  -60.55 | X-H torsion
[ 11005 11000 10999 10996 ] final  157.78 input  -57.11 | X-H torsion

> <Gold.Protein.ActiveResidues>
 VAL166  LYS551  ARG553  GLY616  TRP617  ASP618  TYR619  PRO620  LYS621  CYS622 
 ASP623  PHE694  ASN695  SER759  ASP760  ASP761  ALA762  ILE779  LEU786  VAL792 
 PHE793  MET794  SER795  GLU796  ALA797  LYS798  CYS799  TRP800  GLU811  SER814 

> <Gold.Protein.RotatedAtoms>
  151.3320  133.3997  159.2663 H   0  0  0  0  0  0  0  0  0  0  0  0  # atno 6907 bound_to 6896
  150.9948  134.9275  159.7930 H   0  0  0  0  0  0  0  0  0  0  0  0  # atno 6908 bound_to 6896
  152.5258  134.3285  159.9226 H   0  0  0  0  0  0  0  0  0  0  0  0  # atno 6909 bound_to 6896
  144.7210  139.9884  143.6439 H   0  0  0  0  0  0  0  0  0  0  0  0  # atno 7974 bound_to 7965
  156.2606  140.2848  156.1025 H   0  0  0  0  0  0  0  0  0  0  0  0  # atno 8008 bound_to 7997
  155.1344  140.0394  157.2800 H   0  0  0  0  0  0  0  0  0  0  0  0  # atno 8009 bound_to 7997
  154.6576  140.2559  155.7151 H   0  0  0  0  0  0  0  0  0  0  0  0  # atno 8010 bound_to 7997
  140.0600  144.5241  150.7301 H   0  0  0  0  0  0  0  0  0  0  0  0  # atno 10167 bound_to 10162
  156.0016  130.5036  150.5810 H   0  0  0  0  0  0  0  0  0  0  0  0  # atno 10718 bound_to 10713
  153.2336  135.6895  153.7862 H   0  0  0  0  0  0  0  0  0  0  0  0  # atno 10763 bound_to 10752
  153.7018  135.3296  155.3227 H   0  0  0  0  0  0  0  0  0  0  0  0  # atno 10764 bound_to 10752
  154.8325  135.4569  154.1231 H   0  0  0  0  0  0  0  0  0  0  0  0  # atno 10765 bound_to 10752
  140.1802  134.8481  157.2794 H   0  0  0  0  0  0  0  0  0  0  0  0  # atno 11005 bound_to 11000
  146.0432  139.3441  143.0685 LP  0  0  0  0  0  0  0  0  0  0  0  0  # atno 17320 bound_to 7965
  145.8309  140.9631  143.0849 LP  0  0  0  0  0  0  0  0  0  0  0  0  # atno 17321 bound_to 7965
  140.7176  143.2559  151.4383 LP  0  0  0  0  0  0  0  0  0  0  0  0  # atno 17342 bound_to 10162
  139.5900  144.1521  152.2076 LP  0  0  0  0  0  0  0  0  0  0  0  0  # atno 17343 bound_to 10162
  157.3690  131.0762  151.1573 LP  0  0  0  0  0  0  0  0  0  0  0  0  # atno 17370 bound_to 10713
  157.2333  130.6535  149.5859 LP  0  0  0  0  0  0  0  0  0  0  0  0  # atno 17371 bound_to 10713
  140.2276  134.3948  155.7536 LP  0  0  0  0  0  0  0  0  0  0  0  0  # atno 17394 bound_to 11000
  141.2222  133.7198  156.8590 LP  0  0  0  0  0  0  0  0  0  0  0  0  # atno 17395 bound_to 11000

$$$$
