#       Name:                AV-unprocessed.smi:2896
#       Creating user name   scv26
#       Creation time:       Fri Mar 27 16:01:24 2020


#       File generated by GOLD software.
#

@<TRIPOS>MOLECULE
AV-unprocessed.smi:2896
    55    56     1
SMALL
NO_CHARGES


@<TRIPOS>ATOM
      1 ****        -0.5913   0.6876   1.3439 C.3            1 S1                 0.0000
      2 ****        -1.1280  -0.2803   0.2706 C.3            1 S1                 0.0000
      3 ****        -0.5794  -1.7099   0.4712 C.3            1 S1                 0.0000
      4 ****         0.8745  -1.7616   0.3643 N.am           1 S1                 0.0000
      5 ****         1.5671  -1.8000  -0.7876 C.2            1 S1                 0.0000
      6 ****         1.0122  -1.8478  -1.8866 O.2            1 S1                 0.0000
      7 ****         3.1126  -1.7739  -0.6846 C.3            1 S1                 0.0000
      8 ****         3.5839  -3.2200  -0.4032 C.3            1 S1                 0.0000
      9 ****         3.7389  -1.3397  -2.0327 C.3            1 S1                 0.0000
     10 ****         3.5276  -0.7702   0.4118 C.ar           1 S1                 0.0000
     11 ****         3.2449   0.6094   0.2626 C.ar           1 S1                 0.0000
     12 ****         3.6151   1.5095   1.2786 C.ar           1 S1                 0.0000
     13 ****         4.2643   1.0003   2.4181 C.ar           1 S1                 0.0000
     14 ****         4.5463  -0.3083   2.5826 N.ar           1 S1                 0.0000
     15 ****         4.1874  -1.1650   1.6025 C.ar           1 S1                 0.0000
     16 ****        -2.6720  -0.2970   0.2516 C.3            1 S1                 0.0000
     17 ****        -3.2626   1.0155  -0.1166 N.4            1 S1                 1.0000
     18 ****        -3.1885   1.3167  -1.5682 C.3            1 S1                 0.0000
     19 ****        -3.7797   2.7064  -1.8591 C.3            1 S1                 0.0000
     20 ****        -5.1196   2.7644  -1.3866 O.3            1 S1                 0.0000
     21 ****        -5.1967   2.5646   0.0191 C.3            1 S1                 0.0000
     22 ****        -4.6533   1.1697   0.3725 C.3            1 S1                 0.0000
     23 ****        -0.9041   0.3828   2.3430 H              1 S1                 0.0000
     24 ****        -0.9493   1.7039   1.1795 H              1 S1                 0.0000
     25 ****         0.4974   0.7313   1.3384 H              1 S1                 0.0000
     26 ****        -0.7721   0.0658  -0.6993 H              1 S1                 0.0000
     27 ****        -0.8612  -2.0846   1.4559 H              1 S1                 0.0000
     28 ****        -1.0217  -2.3958  -0.2536 H              1 S1                 0.0000
     29 ****         1.3985  -1.7301   1.2273 H              1 S1                 0.0000
     30 ****         3.1658  -3.6158   0.5235 H              1 S1                 0.0000
     31 ****         4.6706  -3.2782  -0.3306 H              1 S1                 0.0000
     32 ****         3.2819  -3.8988  -1.2022 H              1 S1                 0.0000
     33 ****         3.3682  -0.3720  -2.3719 H              1 S1                 0.0000
     34 ****         3.5286  -2.0585  -2.8262 H              1 S1                 0.0000
     35 ****         4.8236  -1.2618  -1.9510 H              1 S1                 0.0000
     36 ****         2.7365   0.9796  -0.6154 H              1 S1                 0.0000
     37 ****         3.4057   2.5650   1.1871 H              1 S1                 0.0000
     38 ****         4.5632   1.6607   3.2186 H              1 S1                 0.0000
     39 ****         4.4397  -2.1953   1.7993 H              1 S1                 0.0000
     40 ****        -3.0420  -1.0590  -0.4364 H              1 S1                 0.0000
     41 ****        -3.0227  -0.5896   1.2427 H              1 S1                 0.0000
     42 ****        -2.1563   1.2890  -1.9152 H              1 S1                 0.0000
     43 ****        -3.7341   0.5565  -2.1294 H              1 S1                 0.0000
     44 ****        -3.1815   3.4904  -1.3921 H              1 S1                 0.0000
     45 ****        -3.7750   2.8988  -2.9321 H              1 S1                 0.0000
     46 ****        -4.6396   3.3442   0.5412 H              1 S1                 0.0000
     47 ****        -6.2374   2.6531   0.3318 H              1 S1                 0.0000
     48 ****        -5.2855   0.3979  -0.0696 H              1 S1                 0.0000
     49 ****        -4.6837   1.0299   1.4536 H              1 S1                 0.0000
     50 ****        -2.7176   1.7194   0.3607 H              1 S1                 0.0000
     51 ****         0.0138  -1.8591  -1.9426 LP             1 S1                 0.0000
     52 ****         1.5602  -1.8752  -2.7227 LP             1 S1                 0.0000
     53 ****         5.0082  -0.6349   3.4072 LP             1 S1                 0.0000
     54 ****        -5.6544   2.0538  -1.8438 LP             1 S1                 0.0000
     55 ****        -5.5012   3.6622  -1.6067 LP             1 S1                 0.0000
@<TRIPOS>BOND
    1    1    2 1     
    2    1   23 1     
    3    1   24 1     
    4    1   25 1     
    5    2    3 1     
    6    2   16 1     
    7    2   26 1     
    8    3    4 1     
    9    3   27 1     
   10    3   28 1     
   11    4    5 am    
   12    4   29 1     
   13    5    6 2     
   14    5    7 1     
   15    7    8 1     
   16    7    9 1     
   17    7   10 1     
   18    8   30 1     
   19    8   31 1     
   20    8   32 1     
   21    9   33 1     
   22    9   34 1     
   23    9   35 1     
   24   10   15 ar    
   25   10   11 ar    
   26   11   12 ar    
   27   11   36 1     
   28   12   13 ar    
   29   12   37 1     
   30   13   14 ar    
   31   13   38 1     
   32   14   15 ar    
   33   15   39 1     
   34   16   17 1     
   35   16   40 1     
   36   16   41 1     
   37   17   22 1     
   38   17   18 1     
   39   17   50 1     
   40   18   19 1     
   41   18   42 1     
   42   18   43 1     
   43   19   20 1     
   44   19   44 1     
   45   19   45 1     
   46   20   21 1     
   47   21   22 1     
   48   21   46 1     
   49   21   47 1     
   50   22   48 1     
   51   22   49 1     
   52    6   51 1     
   53    6   52 1     
   54   14   53 1     
   55   20   54 1     
   56   20   55 1     
@<TRIPOS>SUBSTRUCTURE
      1 S1             1
@<TRIPOS>SET
LONE_PAIRS      STATIC     ATOMS    <user>   **** ""
5 51 52 53 54 55
DONOR_HYDROGENS      STATIC     ATOMS    <user>   **** ""
2 29 50
ATOM$BLUE        STATIC     ATOMS    COLORGROUP SYSTEM
5 51 52 53 54 55
ATOM$RED        STATIC     ATOMS    COLORGROUP SYSTEM
2 29 50
