AV-unprocessed.smi:960|AV-procd|sdf|4273|dock2
  -GOLD-   22720 2183D 1   1.00000     0.00000
 Structure written by MMmdl.
 45 46  0  0  0  0  0  0  0  0  1 V2000
  145.7280  132.6730  150.2120 C   0  0  0  0  0  0  0  0  0  0  0  0
  145.0498  132.0895  151.2138 C   0  0  0  0  0  0  0  0  0  0  0  0
  145.5851  130.8726  151.9452 C   0  0  0  0  0  0  0  0  0  0  0  0
  143.7102  132.6261  151.6972 C   0  0  0  0  0  0  0  0  0  0  0  0
  143.7805  133.9946  152.2098 N   0  0  0  0  0  0  0  0  0  0  0  0
  143.9983  134.9632  151.1296 C   0  0  0  0  0  0  0  0  0  0  0  0
  143.9974  136.3974  151.6871 C   0  0  0  0  0  0  0  0  0  0  0  0
  145.0723  136.5761  152.7696 C   0  0  0  0  0  0  0  0  0  0  0  0
  144.9521  137.9003  153.3722 N   0  0  0  0  0  0  0  0  0  0  0  0
  145.4537  138.2558  154.5631 C   0  0  0  0  0  0  0  0  0  0  0  0
  146.1041  137.4993  155.2837 O   0  0  0  0  0  0  0  0  0  0  0  0
  145.1721  139.5359  154.8495 N   0  0  0  0  0  0  0  0  0  0  0  0
  145.5104  140.2396  156.0325 C   0  0  0  0  0  0  0  0  0  0  0  0
  145.7392  139.7446  157.3504 C   0  0  0  0  0  0  0  0  0  0  0  0
  145.6965  138.3475  157.9039 C   0  0  0  0  0  0  0  0  0  0  0  0
  145.9904  140.7531  158.1723 N   0  0  0  0  0  0  0  0  0  0  0  0
  145.8960  141.9279  157.4110 O   0  0  0  0  0  0  0  0  0  0  0  0
  145.5879  141.5976  156.1298 C   0  0  0  0  0  0  0  0  0  0  0  0
  145.4203  142.7202  155.1625 C   0  0  0  0  0  0  0  0  0  0  0  0
  144.9065  135.4741  153.8302 C   0  0  0  0  0  0  0  0  0  0  0  0
  144.8727  134.0802  153.1808 C   0  0  0  0  0  0  0  0  0  0  0  0
  146.6823  132.2892  149.8822 H   0  0  0  0  0  0  0  0  0  0  0  0
  145.3383  133.5438  149.7055 H   0  0  0  0  0  0  0  0  0  0  0  0
  145.6877  131.0864  153.0089 H   0  0  0  0  0  0  0  0  0  0  0  0
  146.5625  130.5768  151.5632 H   0  0  0  0  0  0  0  0  0  0  0  0
  144.9079  130.0259  151.8291 H   0  0  0  0  0  0  0  0  0  0  0  0
  143.0167  132.5911  150.8560 H   0  0  0  0  0  0  0  0  0  0  0  0
  143.3066  131.9658  152.4667 H   0  0  0  0  0  0  0  0  0  0  0  0
  144.9418  134.7529  150.6234 H   0  0  0  0  0  0  0  0  0  0  0  0
  143.2103  134.8819  150.3809 H   0  0  0  0  0  0  0  0  0  0  0  0
  144.1638  137.1068  150.8756 H   0  0  0  0  0  0  0  0  0  0  0  0
  143.0117  136.6224  152.0976 H   0  0  0  0  0  0  0  0  0  0  0  0
  146.0535  136.4784  152.3006 H   0  0  0  0  0  0  0  0  0  0  0  0
  144.4374  138.5922  152.8474 H   0  0  0  0  0  0  0  0  0  0  0  0
  144.7428  140.0819  154.1169 H   0  0  0  0  0  0  0  0  0  0  0  0
  144.9422  137.7450  157.3980 H   0  0  0  0  0  0  0  0  0  0  0  0
  145.4524  138.3460  158.9667 H   0  0  0  0  0  0  0  0  0  0  0  0
  146.6594  137.8506  157.7868 H   0  0  0  0  0  0  0  0  0  0  0  0
  145.0734  142.3569  154.1950 H   0  0  0  0  0  0  0  0  0  0  0  0
  146.3657  143.2402  155.0084 H   0  0  0  0  0  0  0  0  0  0  0  0
  144.6926  143.4428  155.5319 H   0  0  0  0  0  0  0  0  0  0  0  0
  145.7222  135.5205  154.5524 H   0  0  0  0  0  0  0  0  0  0  0  0
  143.9855  135.6324  154.3934 H   0  0  0  0  0  0  0  0  0  0  0  0
  144.7311  133.3276  153.9575 H   0  0  0  0  0  0  0  0  0  0  0  0
  145.8262  133.8644  152.6959 H   0  0  0  0  0  0  0  0  0  0  0  0
  1  2  2  0  0  0  0
  1 22  1  0  0  0  0
  1 23  1  0  0  0  0
  2  3  1  0  0  0  0
  2  4  1  0  0  0  0
  3 24  1  0  0  0  0
  3 25  1  0  0  0  0
  3 26  1  0  0  0  0
  4  5  1  0  0  0  0
  4 27  1  0  0  0  0
  4 28  1  0  0  0  0
  5 21  1  0  0  0  0
  5  6  1  0  0  0  0
  6  7  1  0  0  0  0
  6 29  1  0  0  0  0
  6 30  1  0  0  0  0
  7  8  1  0  0  0  0
  7 31  1  0  0  0  0
  7 32  1  0  0  0  0
  8  9  1  0  0  0  0
  8 20  1  0  0  0  0
  8 33  1  0  0  0  0
  9 10  1  0  0  0  0
  9 34  1  0  0  0  0
 10 11  2  0  0  0  0
 10 12  1  0  0  0  0
 12 13  1  0  0  0  0
 12 35  1  0  0  0  0
 13 18  2  0  0  0  0
 13 14  1  0  0  0  0
 14 15  1  0  0  0  0
 14 16  2  0  0  0  0
 15 36  1  0  0  0  0
 15 37  1  0  0  0  0
 15 38  1  0  0  0  0
 16 17  1  0  0  0  0
 17 18  1  0  0  0  0
 18 19  1  0  0  0  0
 19 39  1  0  0  0  0
 19 40  1  0  0  0  0
 19 41  1  0  0  0  0
 20 21  1  0  0  0  0
 20 42  1  0  0  0  0
 20 43  1  0  0  0  0
 21 44  1  0  0  0  0
 21 45  1  0  0  0  0
M  END
> <s_m_source_file>
AV-unprocessed.smi

> <i_m_source_file_index>
960

> <i_lp_mmshare_version>
43012

> <i_f3d_flags>
0

> <s_epik_input>
W0NIMl09QyhbQ0gzXSlbQ0gyXU4xW0NIMl1bQ0gyXVtDSF0oW0NIMl1bQ0gyXTEpW05IXUMoPU8pW05IXWMyYyhbQ0gzXSlub2MyW0NIM10=

> <s_epik_cmdline>
J2VwaWtfcHl0aG9uJywgJy1waCcsICc3LjAnLCAnLXRuJywgJzgnLCAnLW1hJywgJzIwMCcsICctbWV0YWxfYmluZGluZycsICctaW1hZScsICc8aW5maWxlLm1hZT4nLCAnLW9tYWUnLCAnPG91dGZpbGUubWFlPic=

> <r_epik_Ionization_Penalty>
2.03694

> <r_epik_Ionization_Penalty_Charging>
0

> <r_epik_Ionization_Penalty_Neutral>
2.03694

> <r_epik_State_Penalty>
2.16834

> <r_epik_Charging_Adjusted_Penalty>
2.16834

> <i_epik_Tot_Q>
0

> <i_epik_Tot_abs_Q>
0

> <r_epik_Metal_State_Penalty>
2.16834

> <b_epik_Metal_Only>
0

> <s_lp_Force_Field>
OPLS_2005

> <r_lp_Energy>
16.835

> <b_lp_Chiralities_Consistent>
1

> <s_lp_Variant>
AV-unprocessed.smi:960-3

> <Gold.Version>
5.8.1

> <Gold.Id.Protein>
6NUR|6NUR_protein|mol2

> <Gold.PLP.Fitness>
39.3584

> <Gold.PLP.PLP>
-33.8657

> <Gold.PLP.part.hbond>
-2.7511

> <Gold.PLP.part.metal>
0.0000

> <Gold.PLP.part.buried>
-4.0376

> <Gold.PLP.part.nonpolar>
-28.4513

> <Gold.PLP.part.repulsive>
0.3544

> <Gold.PLP.ligand.clash>
0.0000

> <Gold.PLP.ligand.torsion>
0.4639

> <Gold.PLP.Chemscore.Hbond>
2.0000

> <Gold.PLP.Chemscore.CHOScore>
0.0000

> <Gold.PLP.Chemscore.Metal>
0.0000

> <Gold.Chemscore.Hbonds>
donor molecule, donor type, donor heavy atom, donor atom, acceptor molecule, acceptor atom, score
      L1  H     9    34       P1 10175  0.96
      L1  H    12    35       P1 10175  1.00

> <Gold.PLP.Chemscore.Internal.Correction>
0.4206

> <Gold.Rescore>
     Score         DG    S(hbond)    S(metal)    S(lipo)     H(rot)  DE(clash)    DE(int)     intcor
     14.03     -17.96       1.77        0.00      85.07       1.32       0.54       3.40       ----

> <Gold.Chemscore.Fitness>
14.0315

> <Gold.Chemscore.DG>
-17.9638

> <Gold.Chemscore.ZeroCoef>
-5.4800

> <Gold.Chemscore.Hbond>
1.7714

> <Gold.Chemscore.Metal>
0.0000

> <Gold.Chemscore.Lipo>
85.0673

> <Gold.Chemscore.Internal_Hbond>
0.0000

> <Gold.Chemscore.DEClash>
0.5363

> <Gold.Chemscore.DEInternal>
3.3960

> <Gold.Chemscore.Rot>
1.3225

> <Gold.Chemscore.Internal.Correction>
   9.000000E+99

> <Gold.Chemscore.Hbonds>
donor molecule, donor type, donor heavy atom, donor atom, acceptor molecule, acceptor atom, score
      L1  H     9    34       P1 10175  0.90
      L1  H    12    35       P1 10175  0.97

> <Gold.Chemscore.Hbond.Weighted>
-5.9165

> <Gold.Chemscore.Metal.Weighted>
-0.0000

> <Gold.Chemscore.Lipo.Weighted>
-9.9529

> <Gold.Chemscore.Internal_Hbond.Weighted>
0.0000

> <Gold.Chemscore.DEClash.Weighted>
0.5363

> <Gold.Chemscore.DEInternal.Weighted>
3.3960

> <Gold.Chemscore.Rot.Weighted>
3.3856

> <Gold.Chemscore.Internal.Correction.Weighted>
   9.000000E+99

> <Gold.Protein.RotatedTorsions>
[ 6907 6896 6895 6894 ] final  -42.05 input  -60.11 | X-H torsion
[ 7974 7965 7964 7962 ] final   99.72 input  175.53 | X-H torsion
[ 8008 7997 7996 7995 ] final   20.26 input   59.86 | X-H torsion
[ 10167 10162 10161 10158 ] final -170.58 input  -65.29 | X-H torsion
[ 10718 10713 10712 10709 ] final  -37.91 input   66.30 | X-H torsion
[ 10763 10752 10751 10750 ] final   15.38 input  -60.55 | X-H torsion
[ 11005 11000 10999 10996 ] final  -43.97 input  -57.11 | X-H torsion

> <Gold.Protein.ActiveResidues>
 VAL166  LYS551  ARG553  GLY616  TRP617  ASP618  TYR619  PRO620  LYS621  CYS622 
 ASP623  PHE694  ASN695  SER759  ASP760  ASP761  ALA762  ILE779  LEU786  VAL792 
 PHE793  MET794  SER795  GLU796  ALA797  LYS798  CYS799  TRP800  GLU811  SER814 

> <Gold.Protein.RotatedAtoms>
  150.9597  134.8986  159.7722 H   0  0  0  0  0  0  0  0  0  0  0  0  # atno 6907 bound_to 6896
  152.5151  134.3691  159.9321 H   0  0  0  0  0  0  0  0  0  0  0  0  # atno 6908 bound_to 6896
  151.3703  133.3816  159.2733 H   0  0  0  0  0  0  0  0  0  0  0  0  # atno 6909 bound_to 6896
  145.3952  139.2356  143.3330 H   0  0  0  0  0  0  0  0  0  0  0  0  # atno 7974 bound_to 7965
  154.9329  140.3043  155.5159 H   0  0  0  0  0  0  0  0  0  0  0  0  # atno 8008 bound_to 7997
  156.3002  140.2350  156.4327 H   0  0  0  0  0  0  0  0  0  0  0  0  # atno 8009 bound_to 7997
  154.8220  140.0423  157.1406 H   0  0  0  0  0  0  0  0  0  0  0  0  # atno 8010 bound_to 7997
  139.5853  144.1332  152.1567 H   0  0  0  0  0  0  0  0  0  0  0  0  # atno 10167 bound_to 10162
  156.3098  130.4251  149.8062 H   0  0  0  0  0  0  0  0  0  0  0  0  # atno 10718 bound_to 10713
  153.1531  135.6782  153.8852 H   0  0  0  0  0  0  0  0  0  0  0  0  # atno 10763 bound_to 10752
  153.8272  135.3122  155.3417 H   0  0  0  0  0  0  0  0  0  0  0  0  # atno 10764 bound_to 10752
  154.7877  135.4852  154.0070 H   0  0  0  0  0  0  0  0  0  0  0  0  # atno 10765 bound_to 10752
  141.0419  133.6776  156.2807 H   0  0  0  0  0  0  0  0  0  0  0  0  # atno 11005 bound_to 11000
  146.2779  140.4641  142.8788 LP  0  0  0  0  0  0  0  0  0  0  0  0  # atno 17320 bound_to 7965
  144.8412  140.6860  143.6228 LP  0  0  0  0  0  0  0  0  0  0  0  0  # atno 17321 bound_to 7965
  140.0895  144.5633  150.7065 LP  0  0  0  0  0  0  0  0  0  0  0  0  # atno 17342 bound_to 10162
  140.7125  143.2517  151.4535 LP  0  0  0  0  0  0  0  0  0  0  0  0  # atno 17343 bound_to 10162
  156.5409  130.8299  151.3269 LP  0  0  0  0  0  0  0  0  0  0  0  0  # atno 17370 bound_to 10713
  157.7388  130.9820  150.2275 LP  0  0  0  0  0  0  0  0  0  0  0  0  # atno 17371 bound_to 10713
  140.6218  134.5354  157.5548 LP  0  0  0  0  0  0  0  0  0  0  0  0  # atno 17394 bound_to 11000
  139.9282  134.8014  156.1006 LP  0  0  0  0  0  0  0  0  0  0  0  0  # atno 17395 bound_to 11000

$$$$
