AV-unprocessed.smi:171|AV-procd|sdf|1415|dock4
  -GOLD-   2262019183D 1   1.00000     0.00000
 Structure written by MMmdl.
 56 59  0  0  0  0  0  0  0  0  1 V2000
  151.4736  139.6221  158.3972 C   0  0  0  0  0  0  0  0  0  0  0  0
  150.8684  140.3428  157.1821 C   0  0  0  0  0  0  0  0  0  0  0  0
  151.1171  141.8557  157.2851 C   0  0  0  0  0  0  0  0  0  0  0  0
  149.3625  140.0545  156.9778 C   0  0  0  0  0  0  0  0  0  0  0  0
  148.6688  140.8919  155.8601 C   0  0  1  0  0  0  0  0  0  0  0  0
  149.1910  140.6413  154.4229 C   0  0  0  0  0  0  0  0  0  0  0  0
  150.3367  140.2415  154.2283 O   0  0  0  0  0  0  0  0  0  0  0  0
  148.3549  140.8794  153.3962 N   0  0  0  0  0  0  0  0  0  0  0  0
  146.9578  141.3069  153.5059 C   0  0  0  0  0  0  0  0  0  0  0  0
  146.5343  141.6794  154.9426 C   0  0  0  0  0  0  0  0  0  0  0  0
  147.1975  140.8222  155.9221 N   0  0  0  0  0  0  0  0  0  0  0  0
  146.5655  139.6275  156.0822 C   0  0  0  0  0  0  0  0  0  0  0  0
  145.9278  139.3296  157.2457 N   0  0  0  0  0  0  0  0  0  0  0  0
  145.3203  138.1500  157.3993 C   0  0  0  0  0  0  0  0  0  0  0  0
  145.2280  137.1409  156.5317 N   0  0  0  0  0  0  0  0  0  0  0  0
  145.8632  137.4336  155.3603 C   0  0  0  0  0  0  0  0  0  0  0  0
  146.5573  138.6388  155.0603 C   0  0  0  0  0  0  0  0  0  0  0  0
  147.0877  138.5735  153.7791 N   0  0  0  0  0  0  0  0  0  0  0  0
  146.7281  137.3959  153.3464 C   0  0  0  0  0  0  0  0  0  0  0  0
  145.9600  136.6539  154.2188 N   0  0  0  0  0  0  0  0  0  0  0  0
  145.4242  135.3115  154.0177 C   0  0  0  0  0  0  0  0  0  0  0  0
  146.1815  134.4236  152.9898 C   0  0  1  0  0  0  0  0  0  0  0  0
  147.5571  134.4221  153.3327 O   0  0  0  0  0  0  0  0  0  0  0  0
  145.7101  132.9756  153.0426 C   0  0  0  0  0  0  0  0  0  0  0  0
  146.1033  132.4421  151.6742 C   0  0  0  0  0  0  0  0  0  0  0  0
  145.7982  133.5262  150.8158 O   0  0  0  0  0  0  0  0  0  0  0  0
  146.0720  134.7638  151.4733 C   0  0  1  0  0  0  0  0  0  0  0  0
  144.9489  135.7170  151.0396 C   0  0  0  0  0  0  0  0  0  0  0  0
  150.9503  139.8870  159.3165 H   0  0  0  0  0  0  0  0  0  0  0  0
  152.5235  139.8857  158.5263 H   0  0  0  0  0  0  0  0  0  0  0  0
  151.4295  138.5395  158.2825 H   0  0  0  0  0  0  0  0  0  0  0  0
  151.3982  139.9941  156.2948 H   0  0  0  0  0  0  0  0  0  0  0  0
  150.6116  142.2814  158.1526 H   0  0  0  0  0  0  0  0  0  0  0  0
  150.7545  142.3779  156.3991 H   0  0  0  0  0  0  0  0  0  0  0  0
  152.1811  142.0753  157.3794 H   0  0  0  0  0  0  0  0  0  0  0  0
  149.2053  138.9871  156.8150 H   0  0  0  0  0  0  0  0  0  0  0  0
  148.8809  140.2658  157.9333 H   0  0  0  0  0  0  0  0  0  0  0  0
  148.8983  141.9384  156.0653 H   0  0  0  0  0  0  0  0  0  0  0  0
  148.7077  140.7227  152.4631 H   0  0  0  0  0  0  0  0  0  0  0  0
  146.7727  142.1383  152.8257 H   0  0  0  0  0  0  0  0  0  0  0  0
  146.3440  140.4765  153.1555 H   0  0  0  0  0  0  0  0  0  0  0  0
  146.8261  142.7099  155.1500 H   0  0  0  0  0  0  0  0  0  0  0  0
  145.4479  141.6559  155.0376 H   0  0  0  0  0  0  0  0  0  0  0  0
  144.8384  137.9933  158.3531 H   0  0  0  0  0  0  0  0  0  0  0  0
  147.0197  137.0426  152.3688 H   0  0  0  0  0  0  0  0  0  0  0  0
  145.4109  134.8162  154.9897 H   0  0  0  0  0  0  0  0  0  0  0  0
  144.3787  135.4010  153.7220 H   0  0  0  0  0  0  0  0  0  0  0  0
  147.9927  135.0879  152.8227 H   0  0  0  0  0  0  0  0  0  0  0  0
  146.1385  132.4024  153.8659 H   0  0  0  0  0  0  0  0  0  0  0  0
  144.6243  132.9353  153.1406 H   0  0  0  0  0  0  0  0  0  0  0  0
  147.1716  132.2258  151.6259 H   0  0  0  0  0  0  0  0  0  0  0  0
  145.5542  131.5422  151.3964 H   0  0  0  0  0  0  0  0  0  0  0  0
  147.0198  135.1501  151.0945 H   0  0  0  0  0  0  0  0  0  0  0  0
  145.1578  136.7424  151.3366 H   0  0  0  0  0  0  0  0  0  0  0  0
  143.9849  135.4216  151.4539 H   0  0  0  0  0  0  0  0  0  0  0  0
  144.8512  135.7237  149.9538 H   0  0  0  0  0  0  0  0  0  0  0  0
  1  2  1  0  0  0  0
  1 29  1  0  0  0  0
  1 30  1  0  0  0  0
  1 31  1  0  0  0  0
  2  3  1  0  0  0  0
  2  4  1  0  0  0  0
  2 32  1  0  0  0  0
  3 33  1  0  0  0  0
  3 34  1  0  0  0  0
  3 35  1  0  0  0  0
  4  5  1  0  0  0  0
  4 36  1  0  0  0  0
  4 37  1  0  0  0  0
  5 11  1  0  0  0  0
  5  6  1  0  0  0  0
  5 38  1  0  0  0  0
  6  7  2  0  0  0  0
  6  8  1  0  0  0  0
  8  9  1  0  0  0  0
  8 39  1  0  0  0  0
  9 10  1  0  0  0  0
  9 40  1  0  0  0  0
  9 41  1  0  0  0  0
 10 11  1  0  0  0  0
 10 42  1  0  0  0  0
 10 43  1  0  0  0  0
 11 12  1  0  0  0  0
 12 17  1  0  0  0  0
 12 13  2  0  0  0  0
 13 14  1  0  0  0  0
 14 15  2  0  0  0  0
 14 44  1  0  0  0  0
 15 16  1  0  0  0  0
 16 20  1  0  0  0  0
 16 17  2  0  0  0  0
 17 18  1  0  0  0  0
 18 19  2  0  0  0  0
 19 20  1  0  0  0  0
 19 45  1  0  0  0  0
 20 21  1  0  0  0  0
 21 22  1  0  0  0  0
 21 46  1  0  0  0  0
 21 47  1  0  0  0  0
 22 27  1  0  0  0  0
 22 23  1  0  0  0  0
 22 24  1  0  0  0  0
 23 48  1  0  0  0  0
 24 25  1  0  0  0  0
 24 49  1  0  0  0  0
 24 50  1  0  0  0  0
 25 26  1  0  0  0  0
 25 51  1  0  0  0  0
 25 52  1  0  0  0  0
 26 27  1  0  0  0  0
 27 28  1  0  0  0  0
 27 53  1  0  0  0  0
 28 54  1  0  0  0  0
 28 55  1  0  0  0  0
 28 56  1  0  0  0  0
M  END
> <s_m_source_file>
AV-unprocessed.smi

> <i_m_source_file_index>
171

> <i_lp_mmshare_version>
43012

> <i_f3d_flags>
0

> <s_epik_input>
W0NIM11bQ0hdKFtDSDNdKVtDSDJdW0NAQEhdMUMoPU8pW05IXVtDSDJdW0NIMl1OMWMobltjSF1uMiljKGMyMyluW2NIXW4zW0NIMl1bQ0BAXTQoW09IXSlbQ0gyXVtDSDJdT1tDQEhdNFtDSDNd

> <s_epik_cmdline>
J2VwaWtfcHl0aG9uJywgJy1waCcsICc3LjAnLCAnLXRuJywgJzgnLCAnLW1hJywgJzIwMCcsICctbWV0YWxfYmluZGluZycsICctaW1hZScsICc8aW5maWxlLm1hZT4nLCAnLW9tYWUnLCAnPG91dGZpbGUubWFlPic=

> <r_lp_tautomer_probability>
1

> <r_epik_Ionization_Penalty>
0.000670584

> <r_epik_Ionization_Penalty_Charging>
0

> <r_epik_Ionization_Penalty_Neutral>
0.000670584

> <r_epik_State_Penalty>
0.000304767

> <r_epik_Charging_Adjusted_Penalty>
0.000304767

> <i_epik_Tot_Q>
0

> <i_epik_Tot_abs_Q>
0

> <r_epik_Metal_State_Penalty>
-0

> <b_epik_Metal_Only>
0

> <s_lp_Force_Field>
OPLS_2005

> <r_lp_Energy>
47.4038

> <b_lp_Chiralities_Consistent>
1

> <s_lp_Variant>
AV-unprocessed.smi:171-2

> <Gold.Version>
5.8.1

> <Gold.Id.Protein>
6NUR|6NUR_protein|mol2

> <Gold.PLP.Fitness>
39.4681

> <Gold.PLP.PLP>
-28.6298

> <Gold.PLP.part.hbond>
-3.0000

> <Gold.PLP.part.metal>
0.0000

> <Gold.PLP.part.buried>
-5.3159

> <Gold.PLP.part.nonpolar>
-21.8164

> <Gold.PLP.part.repulsive>
0.6859

> <Gold.PLP.ligand.clash>
0.0000

> <Gold.PLP.ligand.torsion>
0.6823

> <Gold.PLP.Chemscore.Hbond>
3.0000

> <Gold.PLP.Chemscore.CHOScore>
0.9454

> <Gold.PLP.Chemscore.Metal>
0.0000

> <Gold.Chemscore.Hbonds>
donor molecule, donor type, donor heavy atom, donor atom, acceptor molecule, acceptor atom, score
      L1  H     8    39       P1  7957  1.00
      L1  H    23    48       P1  7948  1.00
      P1  H  7989  7998       L1     7  1.00
      L1  C    19    45       P1  7948  0.93

> <Gold.PLP.Chemscore.Internal.Correction>
0.3667

> <Gold.Rescore>
     Score         DG    S(hbond)    S(metal)    S(lipo)     H(rot)  DE(clash)    DE(int)     intcor
      8.87     -15.47       2.96        0.00      57.83       2.61       0.90       5.70       ----

> <Gold.Chemscore.Fitness>
8.8675

> <Gold.Chemscore.DG>
-15.4700

> <Gold.Chemscore.ZeroCoef>
-5.4800

> <Gold.Chemscore.Hbond>
2.9637

> <Gold.Chemscore.Metal>
0.0000

> <Gold.Chemscore.Lipo>
57.8286

> <Gold.Chemscore.Internal_Hbond>
0.0000

> <Gold.Chemscore.DEClash>
0.9039

> <Gold.Chemscore.DEInternal>
5.6986

> <Gold.Chemscore.Rot>
2.6074

> <Gold.Chemscore.Internal.Correction>
   9.000000E+99

> <Gold.Chemscore.Hbonds>
donor molecule, donor type, donor heavy atom, donor atom, acceptor molecule, acceptor atom, score
      L1  H     8    39       P1  7957  1.00
      L1  H    23    48       P1  7948  0.97
      P1  H  7989  7998       L1     7  0.94

> <Gold.Chemscore.Hbond.Weighted>
-9.8989

> <Gold.Chemscore.Metal.Weighted>
-0.0000

> <Gold.Chemscore.Lipo.Weighted>
-6.7659

> <Gold.Chemscore.Internal_Hbond.Weighted>
0.0000

> <Gold.Chemscore.DEClash.Weighted>
0.9039

> <Gold.Chemscore.DEInternal.Weighted>
5.6986

> <Gold.Chemscore.Rot.Weighted>
6.6748

> <Gold.Chemscore.Internal.Correction.Weighted>
   9.000000E+99

> <Gold.Protein.RotatedTorsions>
[ 6907 6896 6895 6894 ] final -152.33 input  -60.11 | X-H torsion
[ 7974 7965 7964 7962 ] final   65.47 input  175.53 | X-H torsion
[ 8008 7997 7996 7995 ] final  109.45 input   59.86 | X-H torsion
[ 10167 10162 10161 10158 ] final   12.89 input  -65.29 | X-H torsion
[ 10718 10713 10712 10709 ] final -151.82 input   66.30 | X-H torsion
[ 10763 10752 10751 10750 ] final    5.49 input  -60.55 | X-H torsion
[ 11005 11000 10999 10996 ] final -135.43 input  -57.11 | X-H torsion

> <Gold.Protein.ActiveResidues>
 VAL166  LYS551  ARG553  GLY616  TRP617  ASP618  TYR619  PRO620  LYS621  CYS622 
 ASP623  PHE694  ASN695  SER759  ASP760  ASP761  ALA762  ILE779  LEU786  VAL792 
 PHE793  MET794  SER795  GLU796  ALA797  LYS798  CYS799  TRP800  GLU811  SER814 

> <Gold.Protein.RotatedAtoms>
  151.2262  133.4475  159.2602 H   0  0  0  0  0  0  0  0  0  0  0  0  # atno 6907 bound_to 6896
  151.0837  134.9874  159.8379 H   0  0  0  0  0  0  0  0  0  0  0  0  # atno 6908 bound_to 6896
  152.5427  134.2200  159.8837 H   0  0  0  0  0  0  0  0  0  0  0  0  # atno 6909 bound_to 6896
  145.8380  139.3178  143.0948 H   0  0  0  0  0  0  0  0  0  0  0  0  # atno 7974 bound_to 7965
  156.1980  140.3057  155.9468 H   0  0  0  0  0  0  0  0  0  0  0  0  # atno 8008 bound_to 7997
  155.3020  140.0447  157.3047 H   0  0  0  0  0  0  0  0  0  0  0  0  # atno 8009 bound_to 7997
  154.5534  140.2298  155.8457 H   0  0  0  0  0  0  0  0  0  0  0  0  # atno 8010 bound_to 7997
  140.6038  143.8550  150.6992 H   0  0  0  0  0  0  0  0  0  0  0  0  # atno 10167 bound_to 10162
  156.4643  130.8228  151.2459 H   0  0  0  0  0  0  0  0  0  0  0  0  # atno 10718 bound_to 10713
  153.2588  135.6921  153.7601 H   0  0  0  0  0  0  0  0  0  0  0  0  # atno 10763 bound_to 10752
  153.6668  135.3351  155.3143 H   0  0  0  0  0  0  0  0  0  0  0  0  # atno 10764 bound_to 10752
  154.8422  135.4490  154.1570 H   0  0  0  0  0  0  0  0  0  0  0  0  # atno 10765 bound_to 10752
  140.8899  134.1825  157.4535 H   0  0  0  0  0  0  0  0  0  0  0  0  # atno 11005 bound_to 11000
  145.9497  140.8918  143.0266 LP  0  0  0  0  0  0  0  0  0  0  0  0  # atno 17320 bound_to 7965
  144.6735  140.1662  143.7418 LP  0  0  0  0  0  0  0  0  0  0  0  0  # atno 17321 bound_to 7965
  140.2102  143.3889  152.1724 LP  0  0  0  0  0  0  0  0  0  0  0  0  # atno 17342 bound_to 10162
  139.5310  144.7159  151.5056 LP  0  0  0  0  0  0  0  0  0  0  0  0  # atno 17343 bound_to 10162
  157.7496  131.0097  150.3277 LP  0  0  0  0  0  0  0  0  0  0  0  0  # atno 17370 bound_to 10713
  156.3684  130.3859  149.7195 LP  0  0  0  0  0  0  0  0  0  0  0  0  # atno 17371 bound_to 10713
  139.8728  134.9854  156.5279 LP  0  0  0  0  0  0  0  0  0  0  0  0  # atno 17394 bound_to 11000
  140.8360  133.8242  155.9029 LP  0  0  0  0  0  0  0  0  0  0  0  0  # atno 17395 bound_to 11000

$$$$
