#       Name:                AV-unprocessed.smi:2782
#       Creating user name   scv26
#       Creation time:       Fri Mar 27 15:16:10 2020


#       File generated by GOLD software.
#

@<TRIPOS>MOLECULE
AV-unprocessed.smi:2782
    45    46     1
SMALL
NO_CHARGES


@<TRIPOS>ATOM
      1 ****        -4.6541   0.8571   0.0199 C.3            1 S1                 0.0000
      2 ****        -3.3062   0.8052   0.7094 C.ar           1 S1                 0.0000
      3 ****        -2.9884   1.7548   1.6994 C.ar           1 S1                 0.0000
      4 ****        -1.7404   1.7042   2.3459 C.ar           1 S1                 0.0000
      5 ****        -0.8058   0.7082   2.0036 C.ar           1 S1                 0.0000
      6 ****         0.7155   0.6656   2.8202 Cl             1 S1                 0.0000
      7 ****        -1.1054  -0.2465   1.0064 C.ar           1 S1                 0.0000
      8 ****        -0.1351  -1.1817   0.7141 O.3            1 S1                 0.0000
      9 ****        -0.3617  -2.0892  -0.3569 C.3            1 S1                 0.0000
     10 ****         0.9448  -2.8444  -0.6630 C.3            1 S1                 0.0000
     11 ****         0.6230  -4.0208  -1.3765 O.3            1 S1                 0.0000
     12 ****         1.9565  -2.0340  -1.5061 C.3            1 S1                 0.0000
     13 ****         2.3955  -0.7993  -0.8443 N.am           1 S1                 0.0000
     14 ****         1.7316   0.3397  -1.2700 N.2            1 S1                 0.0000
     15 ****         1.9931   1.4956  -0.7547 C.2            1 S1                 0.0000
     16 ****         1.1996   2.6691  -1.2460 C.3            1 S1                 0.0000
     17 ****         3.0198   1.6076   0.2634 C.2            1 S1                 0.0000
     18 ****         3.6669   0.4961   0.6749 C.2            1 S1                 0.0000
     19 ****         3.3620  -0.8207   0.1195 C.2            1 S1                 0.0000
     20 ****         3.9205  -1.8541   0.4865 O.2            1 S1                 0.0000
     21 ****        -2.3705  -0.1931   0.3675 C.ar           1 S1                 0.0000
     22 ****        -4.9332   1.8882  -0.1989 H              1 S1                 0.0000
     23 ****        -5.4211   0.4216   0.6606 H              1 S1                 0.0000
     24 ****        -4.6384   0.3053  -0.9205 H              1 S1                 0.0000
     25 ****        -3.7009   2.5212   1.9677 H              1 S1                 0.0000
     26 ****        -1.5004   2.4315   3.1078 H              1 S1                 0.0000
     27 ****        -1.1411  -2.7894  -0.0509 H              1 S1                 0.0000
     28 ****        -0.7033  -1.5771  -1.2579 H              1 S1                 0.0000
     29 ****         1.4058  -3.1612   0.2732 H              1 S1                 0.0000
     30 ****         0.2183  -3.7758  -2.1944 H              1 S1                 0.0000
     31 ****         2.8257  -2.6526  -1.7377 H              1 S1                 0.0000
     32 ****         1.5140  -1.7930  -2.4748 H              1 S1                 0.0000
     33 ****         1.3922   2.8530  -2.3033 H              1 S1                 0.0000
     34 ****         1.4540   3.5752  -0.6956 H              1 S1                 0.0000
     35 ****         0.1305   2.4931  -1.1207 H              1 S1                 0.0000
     36 ****         3.2549   2.5731   0.6864 H              1 S1                 0.0000
     37 ****         4.4284   0.5800   1.4362 H              1 S1                 0.0000
     38 ****        -2.6461  -0.9123  -0.3886 H              1 S1                 0.0000
     39 ****         0.0041  -1.7292   1.5392 LP             1 S1                 0.0000
     40 ****         0.7032  -0.6795   0.5019 LP             1 S1                 0.0000
     41 ****        -0.0114  -4.5774  -0.8401 LP             1 S1                 0.0000
     42 ****         1.4558  -4.5444  -1.5562 LP             1 S1                 0.0000
     43 ****         1.0389   0.2662  -1.9876 LP             1 S1                 0.0000
     44 ****         3.6716  -2.7305   0.0742 LP             1 S1                 0.0000
     45 ****         4.6232  -1.8174   1.1970 LP             1 S1                 0.0000
@<TRIPOS>BOND
    1    1    2 1     
    2    1   22 1     
    3    1   23 1     
    4    1   24 1     
    5    2   21 ar    
    6    2    3 ar    
    7    3    4 ar    
    8    3   25 1     
    9    4    5 ar    
   10    4   26 1     
   11    5    6 1     
   12    5    7 ar    
   13    7    8 1     
   14    7   21 ar    
   15    8    9 1     
   16    9   10 1     
   17    9   27 1     
   18    9   28 1     
   19   10   11 1     
   20   10   12 1     
   21   10   29 1     
   22   11   30 1     
   23   12   13 1     
   24   12   31 1     
   25   12   32 1     
   26   13   19 am    
   27   13   14 1     
   28   14   15 2     
   29   15   16 1     
   30   15   17 1     
   31   16   33 1     
   32   16   34 1     
   33   16   35 1     
   34   17   18 2     
   35   17   36 1     
   36   18   19 1     
   37   18   37 1     
   38   19   20 2     
   39   21   38 1     
   40    8   39 1     
   41    8   40 1     
   42   11   41 1     
   43   11   42 1     
   44   14   43 1     
   45   20   44 1     
   46   20   45 1     
@<TRIPOS>SUBSTRUCTURE
      1 S1             1
@<TRIPOS>SET
LONE_PAIRS      STATIC     ATOMS    <user>   **** ""
7 39 40 41 42 43 44 45
DONOR_HYDROGENS      STATIC     ATOMS    <user>   **** ""
1 30
ATOM$BLUE        STATIC     ATOMS    COLORGROUP SYSTEM
7 39 40 41 42 43 44 45
ATOM$RED        STATIC     ATOMS    COLORGROUP SYSTEM
1 30
