AV-unprocessed.smi:3298|AV-procd|sdf|12643|dock8
  -GOLD-   2272018573D 1   1.00000     0.00000
 Structure written by MMmdl.
 35 36  0  0  0  0  0  0  0  0  1 V2000
  153.9809  141.4178  160.6334 C   0  0  0  0  0  0  0  0  0  0  0  0
  152.9681  142.4632  160.2146 C   0  0  0  0  0  0  0  0  0  0  0  0
  152.2171  142.3097  159.0302 C   0  0  0  0  0  0  0  0  0  0  0  0
  151.2940  143.3151  158.6751 C   0  0  0  0  0  0  0  0  0  0  0  0
  150.5369  143.1270  157.4873 N   0  0  0  0  0  0  0  0  0  0  0  0
  150.4418  142.0303  156.7156 C   0  0  0  0  0  0  0  0  0  0  0  0
  150.9764  140.9454  156.9461 O   0  0  0  0  0  0  0  0  0  0  0  0
  149.6635  142.2561  155.6479 N   0  0  0  0  0  0  0  0  0  0  0  0
  149.3667  141.2767  154.6089 C   0  0  1  0  0  0  0  0  0  0  0  0
  149.0786  139.9336  155.2243 C   0  0  0  0  0  0  0  0  0  0  0  0
  147.8649  139.4776  154.9220 C   0  0  0  0  0  0  0  0  0  0  0  0
  147.0881  140.4300  154.0502 C   0  0  1  0  0  0  0  0  0  0  0  0
  145.7331  140.8385  154.6596 C   0  0  0  0  0  0  0  0  0  0  0  0
  144.8744  139.7263  154.8220 O   0  0  0  0  0  0  0  0  0  0  0  0
  148.0682  141.6104  153.8264 C   0  0  0  0  0  0  0  0  0  0  0  0
  151.1493  144.4242  159.5428 C   0  0  0  0  0  0  0  0  0  0  0  0
  151.9478  144.4810  160.7022 C   0  0  0  0  0  0  0  0  0  0  0  0
  152.8424  143.5272  161.0367 N   0  0  0  0  0  0  0  0  0  0  0  0
  150.2162  141.1760  153.9312 H   0  0  0  0  0  0  0  0  0  0  0  0
  146.9075  139.9288  153.0985 H   0  0  0  0  0  0  0  0  0  0  0  0
  153.9000  140.5207  160.0189 H   0  0  0  0  0  0  0  0  0  0  0  0
  153.8262  141.1303  161.6738 H   0  0  0  0  0  0  0  0  0  0  0  0
  154.9927  141.8113  160.5319 H   0  0  0  0  0  0  0  0  0  0  0  0
  152.3514  141.4398  158.4037 H   0  0  0  0  0  0  0  0  0  0  0  0
  149.9679  143.9131  157.2101 H   0  0  0  0  0  0  0  0  0  0  0  0
  149.2613  143.1750  155.5342 H   0  0  0  0  0  0  0  0  0  0  0  0
  149.8025  139.4133  155.8340 H   0  0  0  0  0  0  0  0  0  0  0  0
  147.4553  138.5341  155.2510 H   0  0  0  0  0  0  0  0  0  0  0  0
  145.8839  141.3114  155.6304 H   0  0  0  0  0  0  0  0  0  0  0  0
  145.2380  141.5715  154.0216 H   0  0  0  0  0  0  0  0  0  0  0  0
  144.2625  139.7118  154.1018 H   0  0  0  0  0  0  0  0  0  0  0  0
  147.6323  142.5579  154.1476 H   0  0  0  0  0  0  0  0  0  0  0  0
  148.2893  141.7199  152.7639 H   0  0  0  0  0  0  0  0  0  0  0  0
  150.4422  145.2166  159.3529 H   0  0  0  0  0  0  0  0  0  0  0  0
  151.8603  145.3141  161.3837 H   0  0  0  0  0  0  0  0  0  0  0  0
  1  2  1  0  0  0  0
  1 21  1  0  0  0  0
  1 22  1  0  0  0  0
  1 23  1  0  0  0  0
  2 18  1  0  0  0  0
  2  3  2  0  0  0  0
  3  4  1  0  0  0  0
  3 24  1  0  0  0  0
  4  5  1  0  0  0  0
  4 16  2  0  0  0  0
  5  6  1  0  0  0  0
  5 25  1  0  0  0  0
  6  7  2  0  0  0  0
  6  8  1  0  0  0  0
  8  9  1  0  0  0  0
  8 26  1  0  0  0  0
  9 19  1  0  0  0  0
  9 15  1  0  0  0  0
  9 10  1  0  0  0  0
 10 11  2  0  0  0  0
 10 27  1  0  0  0  0
 11 12  1  0  0  0  0
 11 28  1  0  0  0  0
 12 20  1  0  0  0  0
 12 13  1  0  0  0  0
 12 15  1  0  0  0  0
 13 14  1  0  0  0  0
 13 29  1  0  0  0  0
 13 30  1  0  0  0  0
 14 31  1  0  0  0  0
 15 32  1  0  0  0  0
 15 33  1  0  0  0  0
 16 17  1  0  0  0  0
 16 34  1  0  0  0  0
 17 18  2  0  0  0  0
 17 35  1  0  0  0  0
M  END
> <s_m_source_file>
AV-unprocessed.smi

> <i_m_source_file_index>
3298

> <i_lp_mmshare_version>
43012

> <i_f3d_flags>
0

> <s_epik_input>
W0NIM11jMVtjSF1jKFtjSF1bY0hdbjEpW05IXUMoPU8pW05IXVtDQEBIXTJbQ0hdPVtDSF1bQ0BASF0oW0NIMl0yKVtDSDJdW09IXQ==

> <s_epik_cmdline>
J2VwaWtfcHl0aG9uJywgJy1waCcsICc3LjAnLCAnLXRuJywgJzgnLCAnLW1hJywgJzIwMCcsICctbWV0YWxfYmluZGluZycsICctaW1hZScsICc8aW5maWxlLm1hZT4nLCAnLW9tYWUnLCAnPG91dGZpbGUubWFlPic=

> <r_epik_Ionization_Penalty>
0.379275

> <r_epik_Ionization_Penalty_Charging>
0

> <r_epik_Ionization_Penalty_Neutral>
0.379275

> <r_epik_State_Penalty>
0.377195

> <r_epik_Charging_Adjusted_Penalty>
0.377195

> <i_epik_Tot_Q>
0

> <i_epik_Tot_abs_Q>
0

> <r_epik_Metal_State_Penalty>
0.22815

> <b_epik_Metal_Only>
0

> <s_lp_Force_Field>
OPLS_2005

> <r_lp_Energy>
21.2721

> <b_lp_Chiralities_Consistent>
1

> <s_lp_Variant>
AV-unprocessed.smi:3298-4

> <Gold.Version>
5.8.1

> <Gold.Id.Protein>
6NUR|6NUR_protein|mol2

> <Gold.PLP.Fitness>
42.1243

> <Gold.PLP.PLP>
-34.0174

> <Gold.PLP.part.hbond>
-3.0000

> <Gold.PLP.part.metal>
0.0000

> <Gold.PLP.part.buried>
-1.7380

> <Gold.PLP.part.nonpolar>
-29.3045

> <Gold.PLP.part.repulsive>
0.2644

> <Gold.PLP.ligand.clash>
0.0000

> <Gold.PLP.ligand.torsion>
0.2970

> <Gold.PLP.Chemscore.Hbond>
2.8960

> <Gold.PLP.Chemscore.CHOScore>
0.0000

> <Gold.PLP.Chemscore.Metal>
0.0000

> <Gold.Chemscore.Hbonds>
donor molecule, donor type, donor heavy atom, donor atom, acceptor molecule, acceptor atom, score
      L1  H     5    25       P1  8028  0.90
      L1  H     8    26       P1  8028  1.00
      L1  H    14    31       P1 10175  0.98

> <Gold.PLP.Chemscore.Internal.Correction>
0.0129

> <Gold.Rescore>
     Score         DG    S(hbond)    S(metal)    S(lipo)     H(rot)  DE(clash)    DE(int)     intcor
     17.93     -21.37       2.77        0.00      95.83       1.78       0.33       3.11       ----

> <Gold.Chemscore.Fitness>
17.9271

> <Gold.Chemscore.DG>
-21.3739

> <Gold.Chemscore.ZeroCoef>
-5.4800

> <Gold.Chemscore.Hbond>
2.7656

> <Gold.Chemscore.Metal>
0.0000

> <Gold.Chemscore.Lipo>
95.8344

> <Gold.Chemscore.Internal_Hbond>
0.0000

> <Gold.Chemscore.DEClash>
0.3345

> <Gold.Chemscore.DEInternal>
3.1123

> <Gold.Chemscore.Rot>
1.7796

> <Gold.Chemscore.Internal.Correction>
   9.000000E+99

> <Gold.Chemscore.Hbonds>
donor molecule, donor type, donor heavy atom, donor atom, acceptor molecule, acceptor atom, score
      L1  H     5    25       P1  8028  0.69
      L1  H     8    26       P1  8028  0.98
      L1  H    14    31       P1 10175  0.93

> <Gold.Chemscore.Hbond.Weighted>
-9.2371

> <Gold.Chemscore.Metal.Weighted>
-0.0000

> <Gold.Chemscore.Lipo.Weighted>
-11.2126

> <Gold.Chemscore.Internal_Hbond.Weighted>
0.0000

> <Gold.Chemscore.DEClash.Weighted>
0.3345

> <Gold.Chemscore.DEInternal.Weighted>
3.1123

> <Gold.Chemscore.Rot.Weighted>
4.5558

> <Gold.Chemscore.Internal.Correction.Weighted>
   9.000000E+99

> <Gold.Protein.RotatedTorsions>
[ 6907 6896 6895 6894 ] final  -85.47 input  -60.11 | X-H torsion
[ 7974 7965 7964 7962 ] final -135.33 input  175.53 | X-H torsion
[ 8008 7997 7996 7995 ] final  166.55 input   59.86 | X-H torsion
[ 10167 10162 10161 10158 ] final  130.73 input  -65.29 | X-H torsion
[ 10718 10713 10712 10709 ] final  -94.96 input   66.30 | X-H torsion
[ 10763 10752 10751 10750 ] final  163.45 input  -60.55 | X-H torsion
[ 11005 11000 10999 10996 ] final  141.95 input  -57.11 | X-H torsion

> <Gold.Protein.ActiveResidues>
 VAL166  LYS551  ARG553  GLY616  TRP617  ASP618  TYR619  PRO620  LYS621  CYS622 
 ASP623  PHE694  ASN695  SER759  ASP760  ASP761  ALA762  ILE779  LEU786  VAL792 
 PHE793  MET794  SER795  GLU796  ALA797  LYS798  CYS799  TRP800  GLU811  SER814 

> <Gold.Protein.RotatedAtoms>
  150.6870  134.3200  159.4782 H   0  0  0  0  0  0  0  0  0  0  0  0  # atno 6907 bound_to 6896
  152.1076  134.9294  160.0577 H   0  0  0  0  0  0  0  0  0  0  0  0  # atno 6908 bound_to 6896
  152.0549  133.4001  159.4430 H   0  0  0  0  0  0  0  0  0  0  0  0  # atno 6909 bound_to 6896
  144.9023  140.6788  143.5077 H   0  0  0  0  0  0  0  0  0  0  0  0  # atno 7974 bound_to 7965
  156.1709  140.1640  156.8449 H   0  0  0  0  0  0  0  0  0  0  0  0  # atno 8008 bound_to 7997
  154.5256  140.0768  156.8286 H   0  0  0  0  0  0  0  0  0  0  0  0  # atno 8009 bound_to 7997
  155.3514  140.3390  155.4241 H   0  0  0  0  0  0  0  0  0  0  0  0  # atno 8010 bound_to 7997
  139.5416  144.6736  151.4605 H   0  0  0  0  0  0  0  0  0  0  0  0  # atno 10167 bound_to 10162
  156.0035  130.5089  150.6005 H   0  0  0  0  0  0  0  0  0  0  0  0  # atno 10718 bound_to 10713
  154.2939  135.2760  155.2642 H   0  0  0  0  0  0  0  0  0  0  0  0  # atno 10763 bound_to 10752
  154.5108  135.5783  153.6607 H   0  0  0  0  0  0  0  0  0  0  0  0  # atno 10764 bound_to 10752
  152.9910  135.6181  154.3106 H   0  0  0  0  0  0  0  0  0  0  0  0  # atno 10765 bound_to 10752
  140.0440  134.9290  157.0896 H   0  0  0  0  0  0  0  0  0  0  0  0  # atno 11005 bound_to 11000
  145.3594  139.1685  143.4391 LP  0  0  0  0  0  0  0  0  0  0  0  0  # atno 17320 bound_to 7965
  146.3115  140.3655  142.8669 LP  0  0  0  0  0  0  0  0  0  0  0  0  # atno 17321 bound_to 7965
  140.6649  143.8420  150.6930 LP  0  0  0  0  0  0  0  0  0  0  0  0  # atno 17342 bound_to 10162
  140.1826  143.4102  152.1922 LP  0  0  0  0  0  0  0  0  0  0  0  0  # atno 17343 bound_to 10162
  157.3855  131.0787  151.1440 LP  0  0  0  0  0  0  0  0  0  0  0  0  # atno 17370 bound_to 10713
  157.2149  130.6454  149.5788 LP  0  0  0  0  0  0  0  0  0  0  0  0  # atno 17371 bound_to 10713
  140.4023  134.2069  155.7163 LP  0  0  0  0  0  0  0  0  0  0  0  0  # atno 17394 bound_to 11000
  141.1897  133.8232  157.0945 LP  0  0  0  0  0  0  0  0  0  0  0  0  # atno 17395 bound_to 11000

$$$$
