AV-unprocessed.smi:910|AV-procd|sdf|4126|dock5
  -GOLD-   22720 2 23D 1   1.00000     0.00000
 Structure written by MMmdl.
 46 47  0  0  0  0  0  0  0  0  1 V2000
  147.5005  145.1685  161.5842 C   0  0  0  0  0  0  0  0  0  0  0  0
  146.8574  143.9650  160.9313 C   0  0  0  0  0  0  0  0  0  0  0  0
  147.3486  143.4169  159.7795 N   0  0  0  0  0  0  0  0  0  0  0  0
  146.5398  142.3373  159.4319 C   0  0  0  0  0  0  0  0  0  0  0  0
  146.5686  141.5086  158.4340 N   0  0  0  0  0  0  0  0  0  0  0  0
  147.5799  141.6789  157.5069 C   0  0  0  0  0  0  0  0  0  0  0  0
  147.4357  141.8743  156.2965 O   0  0  0  0  0  0  0  0  0  0  0  0
  148.7877  141.5223  158.0720 N   0  0  0  0  0  0  0  0  0  0  0  0
  150.0605  141.5426  157.3578 C   0  0  0  0  0  0  0  0  0  0  0  0
  151.2221  141.1250  158.2704 C   0  0  0  0  0  0  0  0  0  0  0  0
  151.4368  142.1318  159.2466 O   0  0  0  0  0  0  0  0  0  0  0  0
  152.7765  142.5996  159.3304 C   0  0  2  0  0  0  0  0  0  0  0  0
  153.5342  141.7598  160.3777 C   0  0  0  0  0  0  0  0  0  0  0  0
  152.9516  141.9537  161.7886 C   0  0  0  0  0  0  0  0  0  0  0  0
  152.9147  143.4390  162.1810 C   0  0  0  0  0  0  0  0  0  0  0  0
  152.1565  144.2763  161.1384 C   0  0  0  0  0  0  0  0  0  0  0  0
  152.7533  144.0913  159.7291 C   0  0  2  0  0  0  0  0  0  0  0  0
  152.0402  144.9549  158.6772 C   0  0  0  0  0  0  0  0  0  0  0  0
  145.5728  142.2537  160.4014 O   0  0  0  0  0  0  0  0  0  0  0  0
  145.7915  143.2574  161.2969 C   0  0  0  0  0  0  0  0  0  0  0  0
  144.8570  143.3956  162.4774 C   0  0  0  0  0  0  0  0  0  0  0  0
  147.8096  144.9246  162.6008 H   0  0  0  0  0  0  0  0  0  0  0  0
  146.7937  145.9973  161.6268 H   0  0  0  0  0  0  0  0  0  0  0  0
  148.3786  145.4936  161.0263 H   0  0  0  0  0  0  0  0  0  0  0  0
  148.1562  143.7747  159.2897 H   0  0  0  0  0  0  0  0  0  0  0  0
  148.8247  141.3457  159.0655 H   0  0  0  0  0  0  0  0  0  0  0  0
  150.0247  140.9048  156.4731 H   0  0  0  0  0  0  0  0  0  0  0  0
  150.2284  142.5572  156.9963 H   0  0  0  0  0  0  0  0  0  0  0  0
  150.9837  140.1753  158.7506 H   0  0  0  0  0  0  0  0  0  0  0  0
  152.1315  140.9774  157.6859 H   0  0  0  0  0  0  0  0  0  0  0  0
  153.2726  142.5099  158.3619 H   0  0  0  0  0  0  0  0  0  0  0  0
  153.5107  140.7036  160.1089 H   0  0  0  0  0  0  0  0  0  0  0  0
  154.5857  142.0494  160.3796 H   0  0  0  0  0  0  0  0  0  0  0  0
  151.9423  141.5416  161.8280 H   0  0  0  0  0  0  0  0  0  0  0  0
  153.5410  141.3926  162.5140 H   0  0  0  0  0  0  0  0  0  0  0  0
  152.4479  143.5532  163.1598 H   0  0  0  0  0  0  0  0  0  0  0  0
  153.9337  143.8153  162.2790 H   0  0  0  0  0  0  0  0  0  0  0  0
  151.1032  143.9930  161.1383 H   0  0  0  0  0  0  0  0  0  0  0  0
  152.1927  145.3281  161.4228 H   0  0  0  0  0  0  0  0  0  0  0  0
  153.7880  144.4355  159.7683 H   0  0  0  0  0  0  0  0  0  0  0  0
  151.0056  144.6436  158.5378 H   0  0  0  0  0  0  0  0  0  0  0  0
  152.5376  144.8813  157.7100 H   0  0  0  0  0  0  0  0  0  0  0  0
  152.0363  146.0059  158.9669 H   0  0  0  0  0  0  0  0  0  0  0  0
  145.3215  142.9870  163.3749 H   0  0  0  0  0  0  0  0  0  0  0  0
  143.9268  142.8579  162.2933 H   0  0  0  0  0  0  0  0  0  0  0  0
  144.6203  144.4445  162.6556 H   0  0  0  0  0  0  0  0  0  0  0  0
  1 22  1  0  0  0  0
  1 23  1  0  0  0  0
  1 24  1  0  0  0  0
  1  2  1  0  0  0  0
  2  3  1  0  0  0  0
  2 20  2  0  0  0  0
  3 25  1  0  0  0  0
  3  4  1  0  0  0  0
  4 19  1  0  0  0  0
  4  5  2  0  0  0  0
  5  6  1  0  0  0  0
  6  8  1  0  0  0  0
  6  7  2  0  0  0  0
  8  9  1  0  0  0  0
  8 26  1  0  0  0  0
  9 10  1  0  0  0  0
  9 27  1  0  0  0  0
  9 28  1  0  0  0  0
 10 11  1  0  0  0  0
 10 29  1  0  0  0  0
 10 30  1  0  0  0  0
 11 12  1  0  0  0  0
 12 17  1  0  0  0  0
 12 13  1  0  0  0  0
 12 31  1  0  0  0  0
 13 14  1  0  0  0  0
 13 32  1  0  0  0  0
 13 33  1  0  0  0  0
 14 15  1  0  0  0  0
 14 34  1  0  0  0  0
 14 35  1  0  0  0  0
 15 16  1  0  0  0  0
 15 36  1  0  0  0  0
 15 37  1  0  0  0  0
 16 17  1  0  0  0  0
 16 38  1  0  0  0  0
 16 39  1  0  0  0  0
 17 18  1  0  0  0  0
 17 40  1  0  0  0  0
 18 41  1  0  0  0  0
 18 42  1  0  0  0  0
 18 43  1  0  0  0  0
 19 20  1  0  0  0  0
 20 21  1  0  0  0  0
 21 44  1  0  0  0  0
 21 45  1  0  0  0  0
 21 46  1  0  0  0  0
M  END
> <s_m_source_file>
AV-unprocessed.smi

> <i_m_source_file_index>
910

> <i_lp_mmshare_version>
43012

> <i_f3d_flags>
0

> <s_epik_input>
W0NIM11jMW5jKG9jMVtDSDNdKVtOSF1DKD1PKVtOSF1bQ0gyXVtDSDJdT1tDQEBIXTJbQ0gyXVtDSDJdW0NIMl1bQ0gyXVtDQEhdMltDSDNd

> <s_epik_cmdline>
J2VwaWtfcHl0aG9uJywgJy1waCcsICc3LjAnLCAnLXRuJywgJzgnLCAnLW1hJywgJzIwMCcsICctbWV0YWxfYmluZGluZycsICctaW1hZScsICc8aW5maWxlLm1hZT4nLCAnLW9tYWUnLCAnPG91dGZpbGUubWFlPic=

> <r_lp_tautomer_probability>
0.107061

> <r_epik_Ionization_Penalty>
0.727192

> <r_epik_Ionization_Penalty_Charging>
0.726719

> <r_epik_Ionization_Penalty_Neutral>
0.000473387

> <r_epik_State_Penalty>
2.53712

> <r_epik_Charging_Adjusted_Penalty>
3.26383

> <i_epik_Tot_Q>
0

> <i_epik_Tot_abs_Q>
0

> <r_epik_Metal_State_Penalty>
3.71015

> <b_epik_Metal_Only>
0

> <s_lp_Force_Field>
OPLS_2005

> <r_lp_Energy>
29.7751

> <b_lp_Chiralities_Consistent>
1

> <s_lp_Variant>
AV-unprocessed.smi:910-11

> <Gold.Version>
5.8.1

> <Gold.Id.Protein>
6NUR|6NUR_protein|mol2

> <Gold.PLP.Fitness>
43.8602

> <Gold.PLP.PLP>
-46.6039

> <Gold.PLP.part.hbond>
-0.6642

> <Gold.PLP.part.metal>
0.0000

> <Gold.PLP.part.buried>
-7.1802

> <Gold.PLP.part.nonpolar>
-38.5650

> <Gold.PLP.part.repulsive>
0.4757

> <Gold.PLP.ligand.clash>
0.0000

> <Gold.PLP.ligand.torsion>
1.3893

> <Gold.PLP.Chemscore.Hbond>
0.0000

> <Gold.PLP.Chemscore.CHOScore>
0.0000

> <Gold.PLP.Chemscore.Metal>
0.0000

> <Gold.PLP.Chemscore.Internal.Correction>
0.0348

> <Gold.Rescore>
     Score         DG    S(hbond)    S(metal)    S(lipo)     H(rot)  DE(clash)    DE(int)     intcor
     12.69     -15.20       0.00        0.00     119.36       1.66       0.08       2.43       ----

> <Gold.Chemscore.Fitness>
12.6937

> <Gold.Chemscore.DG>
-15.2019

> <Gold.Chemscore.ZeroCoef>
-5.4800

> <Gold.Chemscore.Hbond>
0.0000

> <Gold.Chemscore.Metal>
0.0000

> <Gold.Chemscore.Lipo>
119.3631

> <Gold.Chemscore.Internal_Hbond>
0.0000

> <Gold.Chemscore.DEClash>
0.0791

> <Gold.Chemscore.DEInternal>
2.4291

> <Gold.Chemscore.Rot>
1.6576

> <Gold.Chemscore.Internal.Correction>
   9.000000E+99

> <Gold.Chemscore.Hbond.Weighted>
-0.0000

> <Gold.Chemscore.Metal.Weighted>
-0.0000

> <Gold.Chemscore.Lipo.Weighted>
-13.9655

> <Gold.Chemscore.Internal_Hbond.Weighted>
0.0000

> <Gold.Chemscore.DEClash.Weighted>
0.0791

> <Gold.Chemscore.DEInternal.Weighted>
2.4291

> <Gold.Chemscore.Rot.Weighted>
4.2436

> <Gold.Chemscore.Internal.Correction.Weighted>
   9.000000E+99

> <Gold.Protein.RotatedTorsions>
[ 6907 6896 6895 6894 ] final  159.96 input  -60.11 | X-H torsion
[ 7974 7965 7964 7962 ] final -135.88 input  175.53 | X-H torsion
[ 8008 7997 7996 7995 ] final   98.75 input   59.86 | X-H torsion
[ 10167 10162 10161 10158 ] final    6.26 input  -65.29 | X-H torsion
[ 10718 10713 10712 10709 ] final -161.01 input   66.30 | X-H torsion
[ 10763 10752 10751 10750 ] final   47.34 input  -60.55 | X-H torsion
[ 11005 11000 10999 10996 ] final -148.63 input  -57.11 | X-H torsion

> <Gold.Protein.ActiveResidues>
 VAL166  LYS551  ARG553  GLY616  TRP617  ASP618  TYR619  PRO620  LYS621  CYS622 
 ASP623  PHE694  ASN695  SER759  ASP760  ASP761  ALA762  ILE779  LEU786  VAL792 
 PHE793  MET794  SER795  GLU796  ALA797  LYS798  CYS799  TRP800  GLU811  SER814 

> <Gold.Protein.RotatedAtoms>
  151.9777  133.3747  159.4095 H   0  0  0  0  0  0  0  0  0  0  0  0  # atno 6907 bound_to 6896
  150.6939  134.4072  159.5154 H   0  0  0  0  0  0  0  0  0  0  0  0  # atno 6908 bound_to 6896
  152.1786  134.8773  160.0579 H   0  0  0  0  0  0  0  0  0  0  0  0  # atno 6909 bound_to 6896
  144.8975  140.6727  143.5106 H   0  0  0  0  0  0  0  0  0  0  0  0  # atno 7974 bound_to 7965
  156.1036  140.3239  155.7975 H   0  0  0  0  0  0  0  0  0  0  0  0  # atno 8008 bound_to 7997
  155.4794  140.0553  157.2986 H   0  0  0  0  0  0  0  0  0  0  0  0  # atno 8009 bound_to 7997
  154.4713  140.2012  156.0003 H   0  0  0  0  0  0  0  0  0  0  0  0  # atno 8010 bound_to 7997
  140.6437  143.7713  150.7467 H   0  0  0  0  0  0  0  0  0  0  0  0  # atno 10167 bound_to 10162
  156.5902  130.8767  151.2888 H   0  0  0  0  0  0  0  0  0  0  0  0  # atno 10718 bound_to 10713
  152.9801  135.5979  154.3746 H   0  0  0  0  0  0  0  0  0  0  0  0  # atno 10763 bound_to 10752
  154.3416  135.2767  155.2421 H   0  0  0  0  0  0  0  0  0  0  0  0  # atno 10764 bound_to 10752
  154.4500  135.5992  153.6240 H   0  0  0  0  0  0  0  0  0  0  0  0  # atno 10765 bound_to 10752
  140.7592  134.3317  157.5106 H   0  0  0  0  0  0  0  0  0  0  0  0  # atno 11005 bound_to 11000
  145.3674  139.1667  143.4350 LP  0  0  0  0  0  0  0  0  0  0  0  0  # atno 17320 bound_to 7965
  146.3090  140.3742  142.8677 LP  0  0  0  0  0  0  0  0  0  0  0  0  # atno 17321 bound_to 7965
  140.1349  143.4492  152.2230 LP  0  0  0  0  0  0  0  0  0  0  0  0  # atno 17342 bound_to 10162
  139.5647  144.7428  151.4056 LP  0  0  0  0  0  0  0  0  0  0  0  0  # atno 17343 bound_to 10162
  157.7305  130.9687  150.1837 LP  0  0  0  0  0  0  0  0  0  0  0  0  # atno 17370 bound_to 10713
  156.2556  130.3705  149.8185 LP  0  0  0  0  0  0  0  0  0  0  0  0  # atno 17371 bound_to 10713
  139.8774  134.9191  156.3219 LP  0  0  0  0  0  0  0  0  0  0  0  0  # atno 17394 bound_to 11000
  140.9679  133.7346  156.0492 LP  0  0  0  0  0  0  0  0  0  0  0  0  # atno 17395 bound_to 11000

$$$$
