#       Name:                AV-unprocessed.smi:224
#       Creating user name   scv26
#       Creation time:       Thu Mar 26 20:17:51 2020


#       File generated by GOLD software.
#

@<TRIPOS>MOLECULE
AV-unprocessed.smi:224
    66    69     1
SMALL
NO_CHARGES


@<TRIPOS>ATOM
      1 ****        -1.9326   4.3879   4.4676 C.3            1 S1                 0.0000
      2 ****        -2.3022   4.5377   2.9843 C.3            1 S1                 0.0000
      3 ****        -3.6304   5.0106   2.9059 O.3            1 S1                 0.0000
      4 ****        -2.2103   3.2097   2.2060 C.3            1 S1                 0.0000
      5 ****        -0.8101   2.7081   2.0998 N.4            1 S1                 1.0000
      6 ****        -0.0637   3.4326   1.0308 C.3            1 S1                 0.0000
      7 ****         1.3910   2.9511   0.8958 C.3            1 S1                 0.0000
      8 ****         1.4537   1.5015   0.7484 N.3            1 S1                 0.0000
      9 ****         1.3552   0.9467  -0.4903 C.ar           1 S1                 0.0000
     10 ****         0.8452   1.6751  -1.5193 N.ar           1 S1                 0.0000
     11 ****         0.7191   1.1374  -2.7357 C.ar           1 S1                 0.0000
     12 ****         1.0375  -0.0928  -3.1394 N.ar           1 S1                 0.0000
     13 ****         1.5644  -0.8271  -2.1188 C.ar           1 S1                 0.0000
     14 ****         1.7633  -0.3878  -0.7789 C.ar           1 S1                 0.0000
     15 ****         2.3447  -1.4067  -0.0326 N.2            1 S1                 0.0000
     16 ****         2.4660  -2.3944  -0.8766 C.2            1 S1                 0.0000
     17 ****         2.0092  -2.1370  -2.1490 N.pl3          1 S1                 0.0000
     18 ****         2.0072  -3.0537  -3.2782 C.3            1 S1                 0.0000
     19 ****         0.7256  -3.9153  -3.3630 C.3            1 S1                 0.0000
     20 ****        -0.3956  -3.0645  -3.5299 O.3            1 S1                 0.0000
     21 ****         0.4852  -4.7966  -2.1397 C.3            1 S1                 0.0000
     22 ****        -0.1961  -6.0226  -2.7312 C.3            1 S1                 0.0000
     23 ****         0.5086  -6.2070  -3.9466 O.3            1 S1                 0.0000
     24 ****         0.7483  -4.9284  -4.5253 C.3            1 S1                 0.0000
     25 ****         0.7867   0.7911   1.8318 C.3            1 S1                 0.0000
     26 ****        -0.6916   1.2188   1.9778 C.3            1 S1                 0.0000
     27 ****        -1.2850   0.4675   3.1880 C.3            1 S1                 0.0000
     28 ****        -0.8989   4.0622   4.5864 H              1 S1                 0.0000
     29 ****        -2.5699   3.6563   4.9659 H              1 S1                 0.0000
     30 ****        -2.0379   5.3360   4.9962 H              1 S1                 0.0000
     31 ****        -1.6695   5.2985   2.5288 H              1 S1                 0.0000
     32 ****        -4.2008   4.3953   3.3412 H              1 S1                 0.0000
     33 ****        -2.8623   2.4970   2.7040 H              1 S1                 0.0000
     34 ****        -2.6262   3.3245   1.2035 H              1 S1                 0.0000
     35 ****        -0.5848   3.3010   0.0819 H              1 S1                 0.0000
     36 ****        -0.0566   4.5031   1.2306 H              1 S1                 0.0000
     37 ****         1.8896   3.4508   0.0641 H              1 S1                 0.0000
     38 ****         1.9511   3.2250   1.7906 H              1 S1                 0.0000
     39 ****         0.3008   1.7840  -3.4930 H              1 S1                 0.0000
     40 ****         2.8892  -3.3461  -0.5899 H              1 S1                 0.0000
     41 ****         2.1354  -2.4753  -4.1943 H              1 S1                 0.0000
     42 ****         2.8864  -3.6942  -3.1963 H              1 S1                 0.0000
     43 ****        -1.1694  -3.6006  -3.6134 H              1 S1                 0.0000
     44 ****         1.4361  -5.1042  -1.7031 H              1 S1                 0.0000
     45 ****        -0.0998  -4.3143  -1.3553 H              1 S1                 0.0000
     46 ****        -0.1253  -6.8986  -2.0864 H              1 S1                 0.0000
     47 ****        -1.2492  -5.8272  -2.9395 H              1 S1                 0.0000
     48 ****        -0.0214  -4.7166  -5.2694 H              1 S1                 0.0000
     49 ****         1.7069  -4.9449  -5.0448 H              1 S1                 0.0000
     50 ****         0.8441  -0.2880   1.7003 H              1 S1                 0.0000
     51 ****         1.3259   1.0076   2.7550 H              1 S1                 0.0000
     52 ****        -1.2281   0.9105   1.0787 H              1 S1                 0.0000
     53 ****        -1.0295  -0.5920   3.1474 H              1 S1                 0.0000
     54 ****        -2.3722   0.5091   3.2250 H              1 S1                 0.0000
     55 ****        -0.8967   0.8601   4.1285 H              1 S1                 0.0000
     56 ****        -0.3583   2.9396   2.9729 H              1 S1                 0.0000
     57 ****        -3.8998   5.0974   1.9468 LP             1 S1                 0.0000
     58 ****        -3.6959   5.9029   3.3526 LP             1 S1                 0.0000
     59 ****         2.4329   1.3328   0.8607 LP             1 S1                 0.0000
     60 ****         0.5621   2.6215  -1.3640 LP             1 S1                 0.0000
     61 ****         0.9066  -0.4329  -4.0706 LP             1 S1                 0.0000
     62 ****         2.6096  -1.3871   0.9315 LP             1 S1                 0.0000
     63 ****        -0.2788  -2.5103  -4.3540 LP             1 S1                 0.0000
     64 ****        -0.4851  -2.4647  -2.7348 LP             1 S1                 0.0000
     65 ****        -0.0374  -6.7640  -4.5724 LP             1 S1                 0.0000
     66 ****         1.3792  -6.6647  -3.7661 LP             1 S1                 0.0000
@<TRIPOS>BOND
    1    1    2 1     
    2    1   28 1     
    3    1   29 1     
    4    1   30 1     
    5    2    3 1     
    6    2    4 1     
    7    2   31 1     
    8    3   32 1     
    9    4    5 1     
   10    4   33 1     
   11    4   34 1     
   12    5   26 1     
   13    5    6 1     
   14    5   56 1     
   15    6    7 1     
   16    6   35 1     
   17    6   36 1     
   18    7    8 1     
   19    7   37 1     
   20    7   38 1     
   21    8    9 1     
   22    8   25 1     
   23    9   14 ar    
   24    9   10 ar    
   25   10   11 ar    
   26   11   12 ar    
   27   11   39 1     
   28   12   13 ar    
   29   13   17 1     
   30   13   14 ar    
   31   14   15 1     
   32   15   16 2     
   33   16   17 1     
   34   16   40 1     
   35   17   18 1     
   36   18   19 1     
   37   18   41 1     
   38   18   42 1     
   39   19   24 1     
   40   19   20 1     
   41   19   21 1     
   42   20   43 1     
   43   21   22 1     
   44   21   44 1     
   45   21   45 1     
   46   22   23 1     
   47   22   46 1     
   48   22   47 1     
   49   23   24 1     
   50   24   48 1     
   51   24   49 1     
   52   25   26 1     
   53   25   50 1     
   54   25   51 1     
   55   26   27 1     
   56   26   52 1     
   57   27   53 1     
   58   27   54 1     
   59   27   55 1     
   60    3   57 1     
   61    3   58 1     
   62    8   59 1     
   63   10   60 1     
   64   12   61 1     
   65   15   62 1     
   66   20   63 1     
   67   20   64 1     
   68   23   65 1     
   69   23   66 1     
@<TRIPOS>SUBSTRUCTURE
      1 S1             1
@<TRIPOS>SET
LONE_PAIRS      STATIC     ATOMS    <user>   **** ""
10 57 58 59 60 61 62 63 64 65 66
DONOR_HYDROGENS      STATIC     ATOMS    <user>   **** ""
3 32 56 43
ATOM$BLUE        STATIC     ATOMS    COLORGROUP SYSTEM
10 57 58 59 60 61 62 63 64 65 66
ATOM$RED        STATIC     ATOMS    COLORGROUP SYSTEM
3 32 56 43
