#       Name:                AV-unprocessed.smi:149
#       Creating user name   scv26
#       Creation time:       Thu Mar 26 18:45:37 2020


#       File generated by GOLD software.
#

@<TRIPOS>MOLECULE
AV-unprocessed.smi:149
    70    74     1
SMALL
NO_CHARGES


@<TRIPOS>ATOM
      1 ****        -5.7235   1.7982  -0.3763 C.3            1 S1                 0.0000
      2 ****        -4.5213   1.3382   0.4665 C.3            1 S1                 0.0000
      3 ****        -3.2132   2.0825   0.2179 C.3            1 S1                 0.0000
      4 ****        -2.1969   1.2370   0.8275 N.3            1 S1                 0.0000
      5 ****        -0.8791   1.5482   0.7054 C.ar           1 S1                 0.0000
      6 ****        -0.5379   2.7525   0.1736 N.ar           1 S1                 0.0000
      7 ****         0.7448   3.0989   0.0389 C.ar           1 S1                 0.0000
      8 ****         1.8342   2.4044   0.3677 N.ar           1 S1                 0.0000
      9 ****         1.5054   1.1973   0.9090 C.ar           1 S1                 0.0000
     10 ****         0.1881   0.6961   1.1201 C.ar           1 S1                 0.0000
     11 ****         0.2591  -0.5566   1.7212 N.2            1 S1                 0.0000
     12 ****         1.5372  -0.7818   1.8525 C.2            1 S1                 0.0000
     13 ****         2.3588   0.2070   1.3629 N.pl3          1 S1                 0.0000
     14 ****         3.7909   0.2370   1.4132 C.3            1 S1                 0.0000
     15 ****         4.6141   0.7077   0.2120 C.3            1 S1                 0.0000
     16 ****         5.7356  -0.2795   0.6025 C.3            1 S1                 0.0000
     17 ****         6.3913  -1.0232  -0.5731 C.3            1 S1                 0.0000
     18 ****         7.0722  -0.1293  -1.4300 O.3            1 S1                 0.0000
     19 ****         6.8364   0.3061   1.5099 C.3            1 S1                 0.0000
     20 ****         7.5814  -0.7147   2.1425 O.3            1 S1                 0.0000
     21 ****         4.6158  -1.0500   1.3383 C.3            1 S1                 0.0000
     22 ****        -2.6222  -0.1566   0.7719 C.3            1 S1                 0.0000
     23 ****        -4.1226  -0.1513   0.4013 C.3            1 S1                 0.0000
     24 ****        -4.4811  -0.8932  -0.8194 N.3            1 S1                 0.0000
     25 ****        -3.7669  -0.4808  -2.0303 C.3            1 S1                 0.0000
     26 ****        -4.2688  -1.2455  -3.2660 C.3            1 S1                 0.0000
     27 ****        -4.1285  -2.6459  -3.0470 O.3            1 S1                 0.0000
     28 ****        -4.8397  -3.0985  -1.8990 C.3            1 S1                 0.0000
     29 ****        -4.3541  -2.3377  -0.6527 C.3            1 S1                 0.0000
     30 ****        -5.5370   1.7336  -1.4467 H              1 S1                 0.0000
     31 ****        -5.9719   2.8364  -0.1553 H              1 S1                 0.0000
     32 ****        -6.6049   1.1960  -0.1547 H              1 S1                 0.0000
     33 ****        -4.7858   1.5331   1.5074 H              1 S1                 0.0000
     34 ****        -3.0167   2.1899  -0.8493 H              1 S1                 0.0000
     35 ****        -3.2297   3.0764   0.6670 H              1 S1                 0.0000
     36 ****         0.9236   4.0713  -0.3954 H              1 S1                 0.0000
     37 ****         1.9163  -1.6846   2.3090 H              1 S1                 0.0000
     38 ****         4.0480   0.8090   2.3062 H              1 S1                 0.0000
     39 ****         4.1402   0.4600  -0.7400 H              1 S1                 0.0000
     40 ****         4.8982   1.7601   0.2430 H              1 S1                 0.0000
     41 ****         7.0898  -1.7857  -0.2278 H              1 S1                 0.0000
     42 ****         5.6404  -1.5446  -1.1677 H              1 S1                 0.0000
     43 ****         7.4454  -0.6235  -2.1438 H              1 S1                 0.0000
     44 ****         7.5199   0.9437   0.9488 H              1 S1                 0.0000
     45 ****         6.4097   0.9365   2.2901 H              1 S1                 0.0000
     46 ****         8.2408  -0.3114   2.6862 H              1 S1                 0.0000
     47 ****         4.8954  -1.4605   2.3091 H              1 S1                 0.0000
     48 ****         4.1442  -1.8124   0.7153 H              1 S1                 0.0000
     49 ****        -2.0121  -0.7265   0.0720 H              1 S1                 0.0000
     50 ****        -2.4885  -0.6048   1.7568 H              1 S1                 0.0000
     51 ****        -4.6603  -0.6311   1.2208 H              1 S1                 0.0000
     52 ****        -3.8777   0.5871  -2.2044 H              1 S1                 0.0000
     53 ****        -2.6980  -0.6630  -1.9244 H              1 S1                 0.0000
     54 ****        -5.3126  -1.0037  -3.4724 H              1 S1                 0.0000
     55 ****        -3.6925  -0.9626  -4.1469 H              1 S1                 0.0000
     56 ****        -5.9107  -2.9518  -2.0472 H              1 S1                 0.0000
     57 ****        -4.6774  -4.1695  -1.7774 H              1 S1                 0.0000
     58 ****        -3.3146  -2.6013  -0.4536 H              1 S1                 0.0000
     59 ****        -4.9308  -2.6646   0.2130 H              1 S1                 0.0000
     60 ****        -2.1607   1.4950   1.7930 LP             1 S1                 0.0000
     61 ****        -1.2548   3.3851  -0.1195 LP             1 S1                 0.0000
     62 ****         2.7713   2.7272   0.2345 LP             1 S1                 0.0000
     63 ****        -0.4987  -1.1504   1.9916 LP             1 S1                 0.0000
     64 ****         7.7996   0.3346  -0.9243 LP             1 S1                 0.0000
     65 ****         6.4307   0.5489  -1.7884 LP             1 S1                 0.0000
     66 ****         8.0193  -1.2901   1.4518 LP             1 S1                 0.0000
     67 ****         6.9749  -1.2746   2.7070 LP             1 S1                 0.0000
     68 ****        -5.4421  -0.6530  -0.9563 LP             1 S1                 0.0000
     69 ****        -3.1582  -2.8546  -2.9247 LP             1 S1                 0.0000
     70 ****        -4.4752  -3.1312  -3.8496 LP             1 S1                 0.0000
@<TRIPOS>BOND
    1    1    2 1     
    2    1   30 1     
    3    1   31 1     
    4    1   32 1     
    5    2   23 1     
    6    2    3 1     
    7    2   33 1     
    8    3    4 1     
    9    3   34 1     
   10    3   35 1     
   11    4    5 1     
   12    4   22 1     
   13    5   10 ar    
   14    5    6 ar    
   15    6    7 ar    
   16    7    8 ar    
   17    7   36 1     
   18    8    9 ar    
   19    9   13 1     
   20    9   10 ar    
   21   10   11 1     
   22   11   12 2     
   23   12   13 1     
   24   12   37 1     
   25   13   14 1     
   26   14   21 1     
   27   14   15 1     
   28   14   38 1     
   29   15   16 1     
   30   15   39 1     
   31   15   40 1     
   32   16   17 1     
   33   16   19 1     
   34   16   21 1     
   35   17   18 1     
   36   17   41 1     
   37   17   42 1     
   38   18   43 1     
   39   19   20 1     
   40   19   44 1     
   41   19   45 1     
   42   20   46 1     
   43   21   47 1     
   44   21   48 1     
   45   22   23 1     
   46   22   49 1     
   47   22   50 1     
   48   23   24 1     
   49   23   51 1     
   50   24   29 1     
   51   24   25 1     
   52   25   26 1     
   53   25   52 1     
   54   25   53 1     
   55   26   27 1     
   56   26   54 1     
   57   26   55 1     
   58   27   28 1     
   59   28   29 1     
   60   28   56 1     
   61   28   57 1     
   62   29   58 1     
   63   29   59 1     
   64    4   60 1     
   65    6   61 1     
   66    8   62 1     
   67   11   63 1     
   68   18   64 1     
   69   18   65 1     
   70   20   66 1     
   71   20   67 1     
   72   24   68 1     
   73   27   69 1     
   74   27   70 1     
@<TRIPOS>SUBSTRUCTURE
      1 S1             1
@<TRIPOS>SET
LONE_PAIRS      STATIC     ATOMS    <user>   **** ""
11 60 61 62 63 64 65 66 67 68 69 70
DONOR_HYDROGENS      STATIC     ATOMS    <user>   **** ""
2 43 46
ATOM$BLUE        STATIC     ATOMS    COLORGROUP SYSTEM
11 60 61 62 63 64 65 66 67 68 69 70
ATOM$RED        STATIC     ATOMS    COLORGROUP SYSTEM
2 43 46
