#       Name:                AV-unprocessed.smi:1403
#       Creating user name   scv26
#       Creation time:       Fri Mar 27 05:33:30 2020


#       File generated by GOLD software.
#

@<TRIPOS>MOLECULE
AV-unprocessed.smi:1403
    44    45     1
SMALL
NO_CHARGES


@<TRIPOS>ATOM
      1 ****        -2.2656   0.2678  -1.6044 C.3            1 S1                 0.0000
      2 ****        -1.5376   0.7496  -0.3415 C.3            1 S1                 0.0000
      3 ****        -0.1043   0.8006  -0.6182 N.am           1 S1                 0.0000
      4 ****         0.7290   1.8162  -0.3323 C.2            1 S1                 0.0000
      5 ****         0.3586   2.8503   0.2224 O.2            1 S1                 0.0000
      6 ****         2.2139   1.6612  -0.7042 C.3            1 S1                 0.0000
      7 ****         2.5675   0.3689  -1.3201 N.am           1 S1                 0.0000
      8 ****         3.0393  -0.6471  -0.4704 C.2            1 S1                 0.0000
      9 ****         3.3803  -1.8631  -0.9376 C.2            1 S1                 0.0000
     10 ****         3.2500  -2.1144  -2.3674 C.2            1 S1                 0.0000
     11 ****         3.5591  -3.2180  -2.8123 O.2            1 S1                 0.0000
     12 ****         2.7836  -1.0980  -3.1503 N.pl3          1 S1                -1.0000
     13 ****         2.4385   0.1332  -2.6610 C.2            1 S1                 0.0000
     14 ****         2.0093   1.0329  -3.3835 O.2            1 S1                 0.0000
     15 ****        -1.8168  -0.1683   0.8657 C.3            1 S1                 0.0000
     16 ****        -1.1361   0.2490   2.1692 C.3            1 S1                 0.0000
     17 ****        -1.9850  -0.4262   3.2318 C.3            1 S1                 0.0000
     18 ****        -3.3223  -0.6812   2.5293 C.3            1 S1                 0.0000
     19 ****        -3.1881  -0.1213   1.2287 O.3            1 S1                 0.0000
     20 ****        -3.3451   0.2464  -1.4532 H              1 S1                 0.0000
     21 ****        -1.9490  -0.7369  -1.8871 H              1 S1                 0.0000
     22 ****        -2.0659   0.9290  -2.4483 H              1 S1                 0.0000
     23 ****        -1.9064   1.7503  -0.1095 H              1 S1                 0.0000
     24 ****         0.2934  -0.0056  -1.0793 H              1 S1                 0.0000
     25 ****         2.4932   2.4850  -1.3632 H              1 S1                 0.0000
     26 ****         2.8046   1.8135   0.2001 H              1 S1                 0.0000
     27 ****         3.0999  -0.3808   0.5748 H              1 S1                 0.0000
     28 ****         3.7386  -2.6335  -0.2708 H              1 S1                 0.0000
     29 ****        -1.5508  -1.2001   0.6276 H              1 S1                 0.0000
     30 ****        -0.0869  -0.0445   2.2142 H              1 S1                 0.0000
     31 ****        -1.1899   1.3319   2.2905 H              1 S1                 0.0000
     32 ****        -1.5373  -1.3707   3.5427 H              1 S1                 0.0000
     33 ****        -2.0947   0.2019   4.1163 H              1 S1                 0.0000
     34 ****        -3.5139  -1.7516   2.4454 H              1 S1                 0.0000
     35 ****        -4.1615  -0.2263   3.0558 H              1 S1                 0.0000
     36 ****        -0.6007   2.9627   0.4815 LP             1 S1                 0.0000
     37 ****         1.0168   3.5782   0.4141 LP             1 S1                 0.0000
     38 ****         3.8949  -3.9297  -2.1953 LP             1 S1                 0.0000
     39 ****         3.4746  -3.4040  -3.7912 LP             1 S1                 0.0000
     40 ****         2.6890  -1.2612  -4.1323 LP             1 S1                 0.0000
     41 ****         1.7620   1.9172  -2.9874 LP             1 S1                 0.0000
     42 ****         1.9079   0.8794  -4.3664 LP             1 S1                 0.0000
     43 ****        -3.7298  -0.6498   0.5750 LP             1 S1                 0.0000
     44 ****        -3.5047   0.8273   1.2341 LP             1 S1                 0.0000
@<TRIPOS>BOND
    1    1    2 1     
    2    1   20 1     
    3    1   21 1     
    4    1   22 1     
    5    2    3 1     
    6    2   15 1     
    7    2   23 1     
    8    3    4 am    
    9    3   24 1     
   10    4    5 2     
   11    4    6 1     
   12    6    7 1     
   13    6   25 1     
   14    6   26 1     
   15    7   13 am    
   16    7    8 1     
   17    8    9 2     
   18    8   27 1     
   19    9   10 1     
   20    9   28 1     
   21   10   11 2     
   22   10   12 1     
   23   12   13 1     
   24   13   14 2     
   25   15   19 1     
   26   15   16 1     
   27   15   29 1     
   28   16   17 1     
   29   16   30 1     
   30   16   31 1     
   31   17   18 1     
   32   17   32 1     
   33   17   33 1     
   34   18   19 1     
   35   18   34 1     
   36   18   35 1     
   37    5   36 1     
   38    5   37 1     
   39   11   38 1     
   40   11   39 1     
   41   12   40 1     
   42   14   41 1     
   43   14   42 1     
   44   19   43 1     
   45   19   44 1     
@<TRIPOS>SUBSTRUCTURE
      1 S1             1
@<TRIPOS>SET
LONE_PAIRS      STATIC     ATOMS    <user>   **** ""
9 36 37 38 39 40 41 42 43 44
DONOR_HYDROGENS      STATIC     ATOMS    <user>   **** ""
1 24
ATOM$BLUE        STATIC     ATOMS    COLORGROUP SYSTEM
9 36 37 38 39 40 41 42 43 44
ATOM$RED        STATIC     ATOMS    COLORGROUP SYSTEM
1 24
