AV-unprocessed.smi:2215|AV-procd|sdf|8963|dock9
  -GOLD-   2272012183D 1   1.00000     0.00000
 Structure written by MMmdl.
 40 41  0  0  0  0  0  0  0  0  1 V2000
  145.1842  131.8202  150.3565 C   0  0  0  0  0  0  0  0  0  0  0  0
  144.7357  133.1689  150.8787 C   0  0  0  0  0  0  0  0  0  0  0  0
  143.7920  133.2680  151.9183 C   0  0  0  0  0  0  0  0  0  0  0  0
  143.4145  134.5461  152.3725 C   0  0  0  0  0  0  0  0  0  0  0  0
  143.9892  135.6932  151.7802 C   0  0  0  0  0  0  0  0  0  0  0  0
  143.5496  136.9318  152.3188 N   0  0  0  0  0  0  0  0  0  0  0  0
  143.0269  137.1718  153.5343 C   0  0  0  0  0  0  0  0  0  0  0  0
  142.8819  136.3356  154.4265 O   0  0  0  0  0  0  0  0  0  0  0  0
  142.6762  138.4592  153.6650 N   0  0  0  0  0  0  0  0  0  0  0  0
  142.0777  139.0479  154.8592 C   0  0  0  0  0  0  0  0  0  0  0  0
  140.5797  138.6910  155.0161 C   0  0  1  0  0  0  0  0  0  0  0  0
  139.7756  139.0688  153.7495 C   0  0  0  0  0  0  0  0  0  0  0  0
  138.2925  138.6855  153.8653 C   0  0  0  0  0  0  0  0  0  0  0  0
  138.1301  137.1904  154.1687 C   0  0  0  0  0  0  0  0  0  0  0  0
  138.8939  136.8106  155.4440 C   0  0  0  0  0  0  0  0  0  0  0  0
  140.3832  137.1894  155.3430 C   0  0  2  0  0  0  0  0  0  0  0  0
  140.9903  136.8712  156.5795 O   0  0  0  0  0  0  0  0  0  0  0  0
  144.8971  135.5873  150.7779 N   0  0  0  0  0  0  0  0  0  0  0  0
  145.2579  134.3619  150.3425 C   0  0  0  0  0  0  0  0  0  0  0  0
  144.4329  131.0550  150.5545 H   0  0  0  0  0  0  0  0  0  0  0  0
  146.1149  131.5218  150.8392 H   0  0  0  0  0  0  0  0  0  0  0  0
  145.3516  131.8602  149.2798 H   0  0  0  0  0  0  0  0  0  0  0  0
  143.3643  132.3819  152.3642 H   0  0  0  0  0  0  0  0  0  0  0  0
  142.6929  134.6396  153.1709 H   0  0  0  0  0  0  0  0  0  0  0  0
  143.6217  137.7241  151.6979 H   0  0  0  0  0  0  0  0  0  0  0  0
  142.8321  139.0776  152.8826 H   0  0  0  0  0  0  0  0  0  0  0  0
  142.6364  138.6909  155.7248 H   0  0  0  0  0  0  0  0  0  0  0  0
  142.2198  140.1293  154.8325 H   0  0  0  0  0  0  0  0  0  0  0  0
  140.1761  139.2688  155.8497 H   0  0  0  0  0  0  0  0  0  0  0  0
  139.8470  140.1398  153.5579 H   0  0  0  0  0  0  0  0  0  0  0  0
  140.2085  138.5721  152.8802 H   0  0  0  0  0  0  0  0  0  0  0  0
  137.8223  139.2738  154.6546 H   0  0  0  0  0  0  0  0  0  0  0  0
  137.7713  138.9354  152.9408 H   0  0  0  0  0  0  0  0  0  0  0  0
  137.0737  136.9444  154.2797 H   0  0  0  0  0  0  0  0  0  0  0  0
  138.5000  136.6012  153.3284 H   0  0  0  0  0  0  0  0  0  0  0  0
  138.4402  137.3166  156.2976 H   0  0  0  0  0  0  0  0  0  0  0  0
  138.7908  135.7406  155.6289 H   0  0  0  0  0  0  0  0  0  0  0  0
  140.8551  136.5837  154.5681 H   0  0  0  0  0  0  0  0  0  0  0  0
  141.1428  135.9390  156.6094 H   0  0  0  0  0  0  0  0  0  0  0  0
  145.9866  134.3348  149.5457 H   0  0  0  0  0  0  0  0  0  0  0  0
  1  2  1  0  0  0  0
  1 20  1  0  0  0  0
  1 21  1  0  0  0  0
  1 22  1  0  0  0  0
  2 19  1  0  0  0  0
  2  3  2  0  0  0  0
  3  4  1  0  0  0  0
  3 23  1  0  0  0  0
  4  5  2  0  0  0  0
  4 24  1  0  0  0  0
  5  6  1  0  0  0  0
  5 18  1  0  0  0  0
  6  7  1  0  0  0  0
  6 25  1  0  0  0  0
  7  8  2  0  0  0  0
  7  9  1  0  0  0  0
  9 10  1  0  0  0  0
  9 26  1  0  0  0  0
 10 11  1  0  0  0  0
 10 27  1  0  0  0  0
 10 28  1  0  0  0  0
 11 16  1  0  0  0  0
 11 12  1  0  0  0  0
 11 29  1  0  0  0  0
 12 13  1  0  0  0  0
 12 30  1  0  0  0  0
 12 31  1  0  0  0  0
 13 14  1  0  0  0  0
 13 32  1  0  0  0  0
 13 33  1  0  0  0  0
 14 15  1  0  0  0  0
 14 34  1  0  0  0  0
 14 35  1  0  0  0  0
 15 16  1  0  0  0  0
 15 36  1  0  0  0  0
 15 37  1  0  0  0  0
 16 17  1  0  0  0  0
 16 38  1  0  0  0  0
 17 39  1  0  0  0  0
 18 19  2  0  0  0  0
 19 40  1  0  0  0  0
M  END
> <s_m_source_file>
AV-unprocessed.smi

> <i_m_source_file_index>
2215

> <i_lp_mmshare_version>
43012

> <i_f3d_flags>
0

> <s_epik_input>
W0NIM11jMVtjSF1bY0hdYyhuW2NIXTEpW05IXUMoPU8pW05IXVtDSDJdW0NAQEhdMltDSDJdW0NIMl1bQ0gyXVtDSDJdW0NASF0yW09IXQ==

> <s_epik_cmdline>
J2VwaWtfcHl0aG9uJywgJy1waCcsICc3LjAnLCAnLXRuJywgJzgnLCAnLW1hJywgJzIwMCcsICctbWV0YWxfYmluZGluZycsICctaW1hZScsICc8aW5maWxlLm1hZT4nLCAnLW9tYWUnLCAnPG91dGZpbGUubWFlPic=

> <r_lp_tautomer_probability>
1

> <r_epik_Ionization_Penalty>
6.08491e-05

> <r_epik_Ionization_Penalty_Charging>
0

> <r_epik_Ionization_Penalty_Neutral>
6.08491e-05

> <r_epik_State_Penalty>
-0

> <r_epik_Charging_Adjusted_Penalty>
0

> <i_epik_Tot_Q>
0

> <i_epik_Tot_abs_Q>
0

> <r_epik_Metal_State_Penalty>
-0

> <b_epik_Metal_Only>
0

> <s_lp_Force_Field>
OPLS_2005

> <r_lp_Energy>
14.1492

> <b_lp_Chiralities_Consistent>
1

> <s_lp_Variant>
AV-unprocessed.smi:2215-4

> <Gold.Version>
5.8.1

> <Gold.Id.Protein>
6NUR|6NUR_protein|mol2

> <Gold.PLP.Fitness>
41.2507

> <Gold.PLP.PLP>
-30.2273

> <Gold.PLP.part.hbond>
-2.8630

> <Gold.PLP.part.metal>
0.0000

> <Gold.PLP.part.buried>
-2.2823

> <Gold.PLP.part.nonpolar>
-24.7625

> <Gold.PLP.part.repulsive>
0.3252

> <Gold.PLP.ligand.clash>
0.0000

> <Gold.PLP.ligand.torsion>
0.2511

> <Gold.PLP.Chemscore.Hbond>
2.8406

> <Gold.PLP.Chemscore.CHOScore>
1.0000

> <Gold.PLP.Chemscore.Metal>
0.0000

> <Gold.Chemscore.Hbonds>
donor molecule, donor type, donor heavy atom, donor atom, acceptor molecule, acceptor atom, score
      L1  H     6    25       P1 10171  0.88
      L1  H     9    26       P1 10175  0.85
      L1  H    17    39       P1 11000  0.65
      L1  C    19    40       P1  7921  0.85

> <Gold.PLP.Chemscore.Internal.Correction>
0.0038

> <Gold.Rescore>
     Score         DG    S(hbond)    S(metal)    S(lipo)     H(rot)  DE(clash)    DE(int)     intcor
     14.29     -17.34       2.36        0.00      71.84       1.73       0.06       2.98       ----

> <Gold.Chemscore.Fitness>
14.2863

> <Gold.Chemscore.DG>
-17.3354

> <Gold.Chemscore.ZeroCoef>
-5.4800

> <Gold.Chemscore.Hbond>
2.3619

> <Gold.Chemscore.Metal>
0.0000

> <Gold.Chemscore.Lipo>
71.8415

> <Gold.Chemscore.Internal_Hbond>
0.0000

> <Gold.Chemscore.DEClash>
0.0643

> <Gold.Chemscore.DEInternal>
2.9848

> <Gold.Chemscore.Rot>
1.7339

> <Gold.Chemscore.Internal.Correction>
   9.000000E+99

> <Gold.Chemscore.Hbonds>
donor molecule, donor type, donor heavy atom, donor atom, acceptor molecule, acceptor atom, score
      L1  H     6    25       P1 10171  0.81
      L1  H     9    26       P1 10175  0.82
      L1  H    17    39       P1 11000  0.07

> <Gold.Chemscore.Hbond.Weighted>
-7.8886

> <Gold.Chemscore.Metal.Weighted>
-0.0000

> <Gold.Chemscore.Lipo.Weighted>
-8.4055

> <Gold.Chemscore.Internal_Hbond.Weighted>
0.0000

> <Gold.Chemscore.DEClash.Weighted>
0.0643

> <Gold.Chemscore.DEInternal.Weighted>
2.9848

> <Gold.Chemscore.Rot.Weighted>
4.4387

> <Gold.Chemscore.Internal.Correction.Weighted>
   9.000000E+99

> <Gold.Protein.RotatedTorsions>
[ 6907 6896 6895 6894 ] final  -50.94 input  -60.11 | X-H torsion
[ 7974 7965 7964 7962 ] final  102.37 input  175.53 | X-H torsion
[ 8008 7997 7996 7995 ] final -149.33 input   59.86 | X-H torsion
[ 10167 10162 10161 10158 ] final   67.33 input  -65.29 | X-H torsion
[ 10718 10713 10712 10709 ] final  113.69 input   66.30 | X-H torsion
[ 10763 10752 10751 10750 ] final -169.88 input  -60.55 | X-H torsion
[ 11005 11000 10999 10996 ] final  -40.32 input  -57.11 | X-H torsion

> <Gold.Protein.ActiveResidues>
 VAL166  LYS551  ARG553  GLY616  TRP617  ASP618  TYR619  PRO620  LYS621  CYS622 
 ASP623  PHE694  ASN695  SER759  ASP760  ASP761  ALA762  ILE779  LEU786  VAL792 
 PHE793  MET794  SER795  GLU796  ALA797  LYS798  CYS799  TRP800  GLU811  SER814 

> <Gold.Protein.RotatedAtoms>
  150.8659  134.8021  159.7117 H   0  0  0  0  0  0  0  0  0  0  0  0  # atno 6907 bound_to 6896
  152.4680  134.5025  159.9739 H   0  0  0  0  0  0  0  0  0  0  0  0  # atno 6908 bound_to 6896
  151.5122  133.3444  159.2922 H   0  0  0  0  0  0  0  0  0  0  0  0  # atno 6909 bound_to 6896
  145.3600  139.2420  143.3512 H   0  0  0  0  0  0  0  0  0  0  0  0  # atno 7974 bound_to 7965
  155.6058  140.0666  157.2720 H   0  0  0  0  0  0  0  0  0  0  0  0  # atno 8008 bound_to 7997
  154.4266  140.1810  156.1269 H   0  0  0  0  0  0  0  0  0  0  0  0  # atno 8009 bound_to 7997
  156.0123  140.3325  155.6957 H   0  0  0  0  0  0  0  0  0  0  0  0  # atno 8010 bound_to 7997
  140.0907  144.4990  150.7101 H   0  0  0  0  0  0  0  0  0  0  0  0  # atno 10167 bound_to 10162
  157.6324  131.0987  150.7077 H   0  0  0  0  0  0  0  0  0  0  0  0  # atno 10718 bound_to 10713
  154.6476  135.2907  155.0027 H   0  0  0  0  0  0  0  0  0  0  0  0  # atno 10763 bound_to 10752
  154.1132  135.6559  153.4893 H   0  0  0  0  0  0  0  0  0  0  0  0  # atno 10764 bound_to 10752
  153.0359  135.5270  154.7369 H   0  0  0  0  0  0  0  0  0  0  0  0  # atno 10765 bound_to 10752
  141.0166  133.6882  156.2305 H   0  0  0  0  0  0  0  0  0  0  0  0  # atno 11005 bound_to 11000
  146.2931  140.4232  142.8732 LP  0  0  0  0  0  0  0  0  0  0  0  0  # atno 17320 bound_to 7965
  144.8654  140.7198  143.6081 LP  0  0  0  0  0  0  0  0  0  0  0  0  # atno 17321 bound_to 7965
  140.7030  143.2448  151.4809 LP  0  0  0  0  0  0  0  0  0  0  0  0  # atno 17342 bound_to 10162
  139.5726  144.1892  152.1858 LP  0  0  0  0  0  0  0  0  0  0  0  0  # atno 17343 bound_to 10162
  156.7414  130.4740  149.5476 LP  0  0  0  0  0  0  0  0  0  0  0  0  # atno 17370 bound_to 10713
  156.1537  130.6327  151.0629 LP  0  0  0  0  0  0  0  0  0  0  0  0  # atno 17371 bound_to 10713
  140.6644  134.4933  157.5585 LP  0  0  0  0  0  0  0  0  0  0  0  0  # atno 17394 bound_to 11000
  139.9121  134.8324  156.1493 LP  0  0  0  0  0  0  0  0  0  0  0  0  # atno 17395 bound_to 11000

$$$$
