AV-unprocessed.smi:2432|AV-procd|sdf|9588|dock7
  -GOLD-   2272013223D 1   1.00000     0.00000
 Structure written by MMmdl.
 33 34  0  0  0  0  0  0  0  0  1 V2000
  147.0142  141.8918  154.9951 C   0  0  0  0  0  0  0  0  0  0  0  0
  148.3165  141.8185  155.6387 N   0  0  0  0  0  0  0  0  0  0  0  0
  149.4282  141.3542  155.0489 C   0  0  0  0  0  0  0  0  0  0  0  0
  149.4451  140.9384  153.8896 O   0  0  0  0  0  0  0  0  0  0  0  0
  150.7011  141.3384  155.9072 C   0  0  1  0  0  0  0  0  0  0  0  0
  150.5554  142.1638  157.2057 C   0  0  0  0  0  0  0  0  0  0  0  0
  151.7554  142.0435  158.0239 N   0  0  0  0  0  0  0  0  0  0  0  0
  151.8860  142.9337  159.0730 C   0  0  0  0  0  0  0  0  0  0  0  0
  151.5057  144.1995  158.8619 N   0  0  0  0  0  0  0  0  0  0  0  0
  151.6400  145.0583  159.8958 C   0  0  0  0  0  0  0  0  0  0  0  0
  152.1558  144.6465  161.1413 C   0  0  0  0  0  0  0  0  0  0  0  0
  152.5225  143.2882  161.2442 C   0  0  0  0  0  0  0  0  0  0  0  0
  153.0913  142.7154  162.5250 C   0  0  0  0  0  0  0  0  0  0  0  0
  152.3845  142.4334  160.2069 N   0  0  0  0  0  0  0  0  0  0  0  0
  152.1089  140.6572  158.2952 C   0  0  0  0  0  0  0  0  0  0  0  0
  152.2239  139.8721  156.9788 C   0  0  0  0  0  0  0  0  0  0  0  0
  151.0067  139.9856  156.2488 O   0  0  0  0  0  0  0  0  0  0  0  0
  146.2633  142.2234  155.7119 H   0  0  0  0  0  0  0  0  0  0  0  0
  146.7125  140.9157  154.6131 H   0  0  0  0  0  0  0  0  0  0  0  0
  147.0321  142.6001  154.1660 H   0  0  0  0  0  0  0  0  0  0  0  0
  148.3827  142.1438  156.5924 H   0  0  0  0  0  0  0  0  0  0  0  0
  151.5112  141.7469  155.3002 H   0  0  0  0  0  0  0  0  0  0  0  0
  150.3878  143.2153  156.9673 H   0  0  0  0  0  0  0  0  0  0  0  0
  149.6926  141.8224  157.7801 H   0  0  0  0  0  0  0  0  0  0  0  0
  151.3338  146.0804  159.7289 H   0  0  0  0  0  0  0  0  0  0  0  0
  152.2628  145.3359  161.9657 H   0  0  0  0  0  0  0  0  0  0  0  0
  153.1995  143.4870  163.2877 H   0  0  0  0  0  0  0  0  0  0  0  0
  154.0731  142.2778  162.3420 H   0  0  0  0  0  0  0  0  0  0  0  0
  152.4351  141.9379  162.9170 H   0  0  0  0  0  0  0  0  0  0  0  0
  153.0528  140.6165  158.8398 H   0  0  0  0  0  0  0  0  0  0  0  0
  151.3477  140.2082  158.9346 H   0  0  0  0  0  0  0  0  0  0  0  0
  153.0572  140.2393  156.3773 H   0  0  0  0  0  0  0  0  0  0  0  0
  152.4180  138.8194  157.1843 H   0  0  0  0  0  0  0  0  0  0  0  0
  1  2  1  0  0  0  0
  1 18  1  0  0  0  0
  1 19  1  0  0  0  0
  1 20  1  0  0  0  0
  2  3  1  0  0  0  0
  2 21  1  0  0  0  0
  3  4  2  0  0  0  0
  3  5  1  0  0  0  0
  5 17  1  0  0  0  0
  5  6  1  0  0  0  0
  5 22  1  0  0  0  0
  6  7  1  0  0  0  0
  6 23  1  0  0  0  0
  6 24  1  0  0  0  0
  7  8  1  0  0  0  0
  7 15  1  0  0  0  0
  8 14  1  0  0  0  0
  8  9  2  0  0  0  0
  9 10  1  0  0  0  0
 10 11  2  0  0  0  0
 10 25  1  0  0  0  0
 11 12  1  0  0  0  0
 11 26  1  0  0  0  0
 12 13  1  0  0  0  0
 12 14  2  0  0  0  0
 13 27  1  0  0  0  0
 13 28  1  0  0  0  0
 13 29  1  0  0  0  0
 15 16  1  0  0  0  0
 15 30  1  0  0  0  0
 15 31  1  0  0  0  0
 16 17  1  0  0  0  0
 16 32  1  0  0  0  0
 16 33  1  0  0  0  0
M  END
> <s_m_source_file>
AV-unprocessed.smi

> <i_m_source_file_index>
2432

> <i_lp_mmshare_version>
43012

> <i_f3d_flags>
0

> <s_epik_input>
W0NIM11bTkhdQyg9TylbQ0BASF0xW0NIMl1OKFtDSDJdW0NIMl1PMSljMm5bY0hdW2NIXWMobjIpW0NIM10=

> <s_epik_cmdline>
J2VwaWtfcHl0aG9uJywgJy1waCcsICc3LjAnLCAnLXRuJywgJzgnLCAnLW1hJywgJzIwMCcsICctbWV0YWxfYmluZGluZycsICctaW1hZScsICc8aW5maWxlLm1hZT4nLCAnLW9tYWUnLCAnPG91dGZpbGUubWFlPic=

> <r_lp_tautomer_probability>
1

> <r_epik_Ionization_Penalty>
3.16085e-05

> <r_epik_Ionization_Penalty_Charging>
0

> <r_epik_Ionization_Penalty_Neutral>
3.16085e-05

> <r_epik_State_Penalty>
-0

> <r_epik_Charging_Adjusted_Penalty>
0

> <i_epik_Tot_Q>
0

> <i_epik_Tot_abs_Q>
0

> <r_epik_Metal_State_Penalty>
-0

> <b_epik_Metal_Only>
0

> <s_lp_Force_Field>
OPLS_2005

> <r_lp_Energy>
12.5177

> <b_lp_Chiralities_Consistent>
1

> <s_lp_Variant>
AV-unprocessed.smi:2432-2

> <Gold.Version>
5.8.1

> <Gold.Id.Protein>
6NUR|6NUR_protein|mol2

> <Gold.PLP.Fitness>
40.2817

> <Gold.PLP.PLP>
-37.6108

> <Gold.PLP.part.hbond>
-3.0000

> <Gold.PLP.part.metal>
0.0000

> <Gold.PLP.part.buried>
-5.5112

> <Gold.PLP.part.nonpolar>
-29.8036

> <Gold.PLP.part.repulsive>
1.9535

> <Gold.PLP.ligand.clash>
0.0000

> <Gold.PLP.ligand.torsion>
0.5622

> <Gold.PLP.Chemscore.Hbond>
1.1694

> <Gold.PLP.Chemscore.CHOScore>
0.0000

> <Gold.PLP.Chemscore.Metal>
0.0000

> <Gold.Chemscore.Hbonds>
donor molecule, donor type, donor heavy atom, donor atom, acceptor molecule, acceptor atom, score
      P1  H  7989  7998       L1     4  0.24
      P1  H  8011  8017       L1     4  0.62

> <Gold.PLP.Chemscore.Internal.Correction>
0.2870

> <Gold.Rescore>
     Score         DG    S(hbond)    S(metal)    S(lipo)     H(rot)  DE(clash)    DE(int)     intcor
     12.73     -14.72       0.96        0.00      80.30       1.31       1.19       0.80       ----

> <Gold.Chemscore.Fitness>
12.7254

> <Gold.Chemscore.DG>
-14.7180

> <Gold.Chemscore.ZeroCoef>
-5.4800

> <Gold.Chemscore.Hbond>
0.9561

> <Gold.Chemscore.Metal>
0.0000

> <Gold.Chemscore.Lipo>
80.3039

> <Gold.Chemscore.Internal_Hbond>
0.0000

> <Gold.Chemscore.DEClash>
1.1920

> <Gold.Chemscore.DEInternal>
0.8006

> <Gold.Chemscore.Rot>
1.3089

> <Gold.Chemscore.Internal.Correction>
   9.000000E+99

> <Gold.Chemscore.Hbonds>
donor molecule, donor type, donor heavy atom, donor atom, acceptor molecule, acceptor atom, score
      P1  H  7989  7998       L1     4  0.09
      P1  H  8011  8017       L1     4  0.56

> <Gold.Chemscore.Hbond.Weighted>
-3.1933

> <Gold.Chemscore.Metal.Weighted>
-0.0000

> <Gold.Chemscore.Lipo.Weighted>
-9.3956

> <Gold.Chemscore.Internal_Hbond.Weighted>
0.0000

> <Gold.Chemscore.DEClash.Weighted>
1.1920

> <Gold.Chemscore.DEInternal.Weighted>
0.8006

> <Gold.Chemscore.Rot.Weighted>
3.3509

> <Gold.Chemscore.Internal.Correction.Weighted>
   9.000000E+99

> <Gold.Protein.RotatedTorsions>
[ 6907 6896 6895 6894 ] final   48.38 input  -60.11 | X-H torsion
[ 7974 7965 7964 7962 ] final  -57.89 input  175.53 | X-H torsion
[ 8008 7997 7996 7995 ] final  176.69 input   59.86 | X-H torsion
[ 10167 10162 10161 10158 ] final  -37.01 input  -65.29 | X-H torsion
[ 10718 10713 10712 10709 ] final  -59.33 input   66.30 | X-H torsion
[ 10763 10752 10751 10750 ] final -150.34 input  -60.55 | X-H torsion
[ 11005 11000 10999 10996 ] final   67.23 input  -57.11 | X-H torsion

> <Gold.Protein.ActiveResidues>
 VAL166  LYS551  ARG553  GLY616  TRP617  ASP618  TYR619  PRO620  LYS621  CYS622 
 ASP623  PHE694  ASN695  SER759  ASP760  ASP761  ALA762  ILE779  LEU786  VAL792 
 PHE793  MET794  SER795  GLU796  ALA797  LYS798  CYS799  TRP800  GLU811  SER814 

> <Gold.Protein.RotatedAtoms>
  152.2788  134.7852  160.0400 H   0  0  0  0  0  0  0  0  0  0  0  0  # atno 6907 bound_to 6896
  151.8438  133.3423  159.3659 H   0  0  0  0  0  0  0  0  0  0  0  0  # atno 6908 bound_to 6896
  150.7181  134.5293  159.5737 H   0  0  0  0  0  0  0  0  0  0  0  0  # atno 6909 bound_to 6896
  145.8458  140.8386  143.0011 H   0  0  0  0  0  0  0  0  0  0  0  0  # atno 7974 bound_to 7965
  156.0737  140.1377  156.9797 H   0  0  0  0  0  0  0  0  0  0  0  0  # atno 8008 bound_to 7997
  154.4546  140.0966  156.6769 H   0  0  0  0  0  0  0  0  0  0  0  0  # atno 8009 bound_to 7997
  155.5187  140.3455  155.4405 H   0  0  0  0  0  0  0  0  0  0  0  0  # atno 8010 bound_to 7997
  140.7129  143.3370  151.2440 H   0  0  0  0  0  0  0  0  0  0  0  0  # atno 10167 bound_to 10162
  156.1069  130.4179  150.0700 H   0  0  0  0  0  0  0  0  0  0  0  0  # atno 10718 bound_to 10713
  154.8124  135.3286  154.7268 H   0  0  0  0  0  0  0  0  0  0  0  0  # atno 10763 bound_to 10752
  153.7915  135.6910  153.4875 H   0  0  0  0  0  0  0  0  0  0  0  0  # atno 10764 bound_to 10752
  153.1914  135.4549  155.0100 H   0  0  0  0  0  0  0  0  0  0  0  0  # atno 10765 bound_to 10752
  139.9783  134.6786  156.0311 H   0  0  0  0  0  0  0  0  0  0  0  0  # atno 11005 bound_to 11000
  144.6731  140.0879  143.7466 LP  0  0  0  0  0  0  0  0  0  0  0  0  # atno 17320 bound_to 7965
  145.9414  139.2671  143.1266 LP  0  0  0  0  0  0  0  0  0  0  0  0  # atno 17321 bound_to 7965
  139.6868  143.9760  152.2838 LP  0  0  0  0  0  0  0  0  0  0  0  0  # atno 17342 bound_to 10162
  139.9408  144.6683  150.8268 LP  0  0  0  0  0  0  0  0  0  0  0  0  # atno 17343 bound_to 10162
  156.8673  130.9512  151.3612 LP  0  0  0  0  0  0  0  0  0  0  0  0  # atno 17370 bound_to 10713
  157.6247  130.8682  149.9169 LP  0  0  0  0  0  0  0  0  0  0  0  0  # atno 17371 bound_to 10713
  141.1458  133.6556  156.3863 LP  0  0  0  0  0  0  0  0  0  0  0  0  # atno 17394 bound_to 11000
  140.5149  134.6360  157.5297 LP  0  0  0  0  0  0  0  0  0  0  0  0  # atno 17395 bound_to 11000

$$$$
