AV-unprocessed.smi:400|AV-procd|sdf|2492|dock4
  -GOLD-   2262022433D 1   1.00000     0.00000
 Structure written by MMmdl.
 40 41  0  0  0  0  0  0  0  0  1 V2000
  149.2282  142.3733  157.9153 C   0  0  0  0  0  0  0  0  0  0  0  0
  149.8120  141.1192  157.2456 C   0  0  0  0  0  0  0  0  0  0  0  0
  151.3239  141.2081  156.9402 C   0  0  2  0  0  0  0  0  0  0  0  0
  151.7402  140.1421  155.9120 C   0  0  0  0  0  0  0  0  0  0  0  0
  152.1754  141.0753  158.2128 C   0  0  0  0  0  0  0  0  0  0  0  0
  153.0051  140.1690  158.2979 O   0  0  0  0  0  0  0  0  0  0  0  0
  151.9411  141.9889  159.1741 N   0  0  0  0  0  0  0  0  0  0  0  0
  152.5630  142.1096  160.4450 C   0  0  0  0  0  0  0  0  0  0  0  0
  152.2154  143.2656  161.1751 C   0  0  0  0  0  0  0  0  0  0  0  0
  152.7761  143.4773  162.4491 C   0  0  0  0  0  0  0  0  0  0  0  0
  153.6782  142.5256  162.9816 C   0  0  0  0  0  0  0  0  0  0  0  0
  154.2804  142.6693  164.2506 N   0  0  0  0  0  0  0  0  0  0  0  0
  155.1646  141.6074  164.7223 C   0  0  0  0  0  0  0  0  0  0  0  0
  155.4673  141.7876  166.2199 C   0  0  0  0  0  0  0  0  0  0  0  0
  155.9977  143.0888  166.4489 O   0  0  0  0  0  0  0  0  0  0  0  0
  155.0717  144.1080  166.0872 C   0  0  0  0  0  0  0  0  0  0  0  0
  154.7495  144.0118  164.5856 C   0  0  0  0  0  0  0  0  0  0  0  0
  153.9664  141.4042  162.1698 C   0  0  0  0  0  0  0  0  0  0  0  0
  153.4310  141.2002  160.9483 N   0  0  0  0  0  0  0  0  0  0  0  0
  148.1509  142.2724  158.0483 H   0  0  0  0  0  0  0  0  0  0  0  0
  149.4049  143.2615  157.3083 H   0  0  0  0  0  0  0  0  0  0  0  0
  149.6637  142.5460  158.8996 H   0  0  0  0  0  0  0  0  0  0  0  0
  149.6059  140.2484  157.8698 H   0  0  0  0  0  0  0  0  0  0  0  0
  149.2730  140.9488  156.3130 H   0  0  0  0  0  0  0  0  0  0  0  0
  151.5202  142.1847  156.4939 H   0  0  0  0  0  0  0  0  0  0  0  0
  152.8100  140.1861  155.7039 H   0  0  0  0  0  0  0  0  0  0  0  0
  151.2190  140.2891  154.9657 H   0  0  0  0  0  0  0  0  0  0  0  0
  151.5098  139.1349  156.2619 H   0  0  0  0  0  0  0  0  0  0  0  0
  151.2308  142.6765  158.9707 H   0  0  0  0  0  0  0  0  0  0  0  0
  151.5227  143.9878  160.7678 H   0  0  0  0  0  0  0  0  0  0  0  0
  152.4940  144.3634  162.9974 H   0  0  0  0  0  0  0  0  0  0  0  0
  154.7018  140.6325  164.5646 H   0  0  0  0  0  0  0  0  0  0  0  0
  156.0934  141.6286  164.1506 H   0  0  0  0  0  0  0  0  0  0  0  0
  154.5677  141.6391  166.8192 H   0  0  0  0  0  0  0  0  0  0  0  0
  156.1942  141.0446  166.5480 H   0  0  0  0  0  0  0  0  0  0  0  0
  154.1635  144.0185  166.6858 H   0  0  0  0  0  0  0  0  0  0  0  0
  155.5077  145.0806  166.3156 H   0  0  0  0  0  0  0  0  0  0  0  0
  155.6434  144.2280  163.9992 H   0  0  0  0  0  0  0  0  0  0  0  0
  154.0136  144.7737  164.3326 H   0  0  0  0  0  0  0  0  0  0  0  0
  154.6637  140.6459  162.4935 H   0  0  0  0  0  0  0  0  0  0  0  0
  1  2  1  0  0  0  0
  1 20  1  0  0  0  0
  1 21  1  0  0  0  0
  1 22  1  0  0  0  0
  2  3  1  0  0  0  0
  2 23  1  0  0  0  0
  2 24  1  0  0  0  0
  3  4  1  0  0  0  0
  3  5  1  0  0  0  0
  3 25  1  0  0  0  0
  4 26  1  0  0  0  0
  4 27  1  0  0  0  0
  4 28  1  0  0  0  0
  5  6  2  0  0  0  0
  5  7  1  0  0  0  0
  7  8  1  0  0  0  0
  7 29  1  0  0  0  0
  8 19  1  0  0  0  0
  8  9  2  0  0  0  0
  9 10  1  0  0  0  0
  9 30  1  0  0  0  0
 10 11  2  0  0  0  0
 10 31  1  0  0  0  0
 11 12  1  0  0  0  0
 11 18  1  0  0  0  0
 12 17  1  0  0  0  0
 12 13  1  0  0  0  0
 13 14  1  0  0  0  0
 13 32  1  0  0  0  0
 13 33  1  0  0  0  0
 14 15  1  0  0  0  0
 14 34  1  0  0  0  0
 14 35  1  0  0  0  0
 15 16  1  0  0  0  0
 16 17  1  0  0  0  0
 16 36  1  0  0  0  0
 16 37  1  0  0  0  0
 17 38  1  0  0  0  0
 17 39  1  0  0  0  0
 18 19  2  0  0  0  0
 18 40  1  0  0  0  0
M  END
> <s_m_source_file>
AV-unprocessed.smi

> <i_m_source_file_index>
400

> <i_lp_mmshare_version>
43012

> <i_f3d_flags>
0

> <s_epik_input>
W0NIM11bQ0gyXVtDQEhdKFtDSDNdKUMoPU8pW05IXWMxW2NIXVtjSF1jKFtjSF1uMSlOMltDSDJdW0NIMl1PW0NIMl1bQ0gyXTI=

> <s_epik_cmdline>
J2VwaWtfcHl0aG9uJywgJy1waCcsICc3LjAnLCAnLXRuJywgJzgnLCAnLW1hJywgJzIwMCcsICctbWV0YWxfYmluZGluZycsICctaW1hZScsICc8aW5maWxlLm1hZT4nLCAnLW9tYWUnLCAnPG91dGZpbGUubWFlPic=

> <r_lp_tautomer_probability>
1

> <r_epik_Ionization_Penalty>
0.00393323

> <r_epik_Ionization_Penalty_Charging>
0

> <r_epik_Ionization_Penalty_Neutral>
0.00393323

> <r_epik_State_Penalty>
0.00357844

> <r_epik_Charging_Adjusted_Penalty>
0.00357844

> <i_epik_Tot_Q>
0

> <i_epik_Tot_abs_Q>
0

> <r_epik_Metal_State_Penalty>
-0

> <b_epik_Metal_Only>
0

> <s_lp_Force_Field>
OPLS_2005

> <r_lp_Energy>
25.3319

> <b_lp_Chiralities_Consistent>
1

> <s_lp_Variant>
AV-unprocessed.smi:400-1

> <Gold.Version>
5.8.1

> <Gold.Id.Protein>
6NUR|6NUR_protein|mol2

> <Gold.PLP.Fitness>
44.1965

> <Gold.PLP.PLP>
-42.1207

> <Gold.PLP.part.hbond>
-1.1352

> <Gold.PLP.part.metal>
0.0000

> <Gold.PLP.part.buried>
-5.1278

> <Gold.PLP.part.nonpolar>
-33.6048

> <Gold.PLP.part.repulsive>
0.1389

> <Gold.PLP.ligand.clash>
0.0000

> <Gold.PLP.ligand.torsion>
0.3875

> <Gold.PLP.Chemscore.Hbond>
0.8160

> <Gold.PLP.Chemscore.CHOScore>
0.0000

> <Gold.PLP.Chemscore.Metal>
0.0000

> <Gold.Chemscore.Hbonds>
donor molecule, donor type, donor heavy atom, donor atom, acceptor molecule, acceptor atom, score
      P1  H  7997  8010       L1     6  0.69

> <Gold.PLP.Chemscore.Internal.Correction>
0.4029

> <Gold.Rescore>
     Score         DG    S(hbond)    S(metal)    S(lipo)     H(rot)  DE(clash)    DE(int)     intcor
     15.08     -17.18       0.85        0.00     104.22       1.30       0.22       1.88       ----

> <Gold.Chemscore.Fitness>
15.0776

> <Gold.Chemscore.DG>
-17.1801

> <Gold.Chemscore.ZeroCoef>
-5.4800

> <Gold.Chemscore.Hbond>
0.8519

> <Gold.Chemscore.Metal>
0.0000

> <Gold.Chemscore.Lipo>
104.2157

> <Gold.Chemscore.Internal_Hbond>
0.0000

> <Gold.Chemscore.DEClash>
0.2199

> <Gold.Chemscore.DEInternal>
1.8826

> <Gold.Chemscore.Rot>
1.3041

> <Gold.Chemscore.Internal.Correction>
   9.000000E+99

> <Gold.Chemscore.Hbonds>
donor molecule, donor type, donor heavy atom, donor atom, acceptor molecule, acceptor atom, score
      P1  H  7997  8010       L1     6  0.67

> <Gold.Chemscore.Hbond.Weighted>
-2.8454

> <Gold.Chemscore.Metal.Weighted>
-0.0000

> <Gold.Chemscore.Lipo.Weighted>
-12.1932

> <Gold.Chemscore.Internal_Hbond.Weighted>
0.0000

> <Gold.Chemscore.DEClash.Weighted>
0.2199

> <Gold.Chemscore.DEInternal.Weighted>
1.8826

> <Gold.Chemscore.Rot.Weighted>
3.3385

> <Gold.Chemscore.Internal.Correction.Weighted>
   9.000000E+99

> <Gold.Protein.RotatedTorsions>
[ 6907 6896 6895 6894 ] final  116.35 input  -60.11 | X-H torsion
[ 7974 7965 7964 7962 ] final  -67.17 input  175.53 | X-H torsion
[ 8008 7997 7996 7995 ] final   19.66 input   59.86 | X-H torsion
[ 10167 10162 10161 10158 ] final   72.74 input  -65.29 | X-H torsion
[ 10718 10713 10712 10709 ] final -167.99 input   66.30 | X-H torsion
[ 10763 10752 10751 10750 ] final  -72.38 input  -60.55 | X-H torsion
[ 11005 11000 10999 10996 ] final  -47.22 input  -57.11 | X-H torsion

> <Gold.Protein.ActiveResidues>
 VAL166  LYS551  ARG553  GLY616  TRP617  ASP618  TYR619  PRO620  LYS621  CYS622 
 ASP623  PHE694  ASN695  SER759  ASP760  ASP761  ALA762  ILE779  LEU786  VAL792 
 PHE793  MET794  SER795  GLU796  ALA797  LYS798  CYS799  TRP800  GLU811  SER814 

> <Gold.Protein.RotatedAtoms>
  152.4683  133.7972  159.6933 H   0  0  0  0  0  0  0  0  0  0  0  0  # atno 6907 bound_to 6896
  150.8659  133.7566  159.2983 H   0  0  0  0  0  0  0  0  0  0  0  0  # atno 6908 bound_to 6896
  151.5116  135.1068  159.9907 H   0  0  0  0  0  0  0  0  0  0  0  0  # atno 6909 bound_to 6896
  145.7325  140.8990  143.0572 H   0  0  0  0  0  0  0  0  0  0  0  0  # atno 7974 bound_to 7965
  154.9241  140.3031  155.5201 H   0  0  0  0  0  0  0  0  0  0  0  0  # atno 8008 bound_to 7997
  156.3008  140.2366  156.4230 H   0  0  0  0  0  0  0  0  0  0  0  0  # atno 8009 bound_to 7997
  154.8302  140.0419  157.1460 H   0  0  0  0  0  0  0  0  0  0  0  0  # atno 8010 bound_to 7997
  140.0320  144.5458  150.7499 H   0  0  0  0  0  0  0  0  0  0  0  0  # atno 10167 bound_to 10162
  156.6904  130.9157  151.3068 H   0  0  0  0  0  0  0  0  0  0  0  0  # atno 10718 bound_to 10713
  154.4448  135.5932  153.6153 H   0  0  0  0  0  0  0  0  0  0  0  0  # atno 10763 bound_to 10752
  152.9808  135.6007  154.3677 H   0  0  0  0  0  0  0  0  0  0  0  0  # atno 10764 bound_to 10752
  154.3532  135.2841  155.2339 H   0  0  0  0  0  0  0  0  0  0  0  0  # atno 10765 bound_to 10752
  141.0627  133.6704  156.3266 H   0  0  0  0  0  0  0  0  0  0  0  0  # atno 11005 bound_to 11000
  144.6889  139.9351  143.7473 LP  0  0  0  0  0  0  0  0  0  0  0  0  # atno 17320 bound_to 7965
  146.0524  139.3524  143.0631 LP  0  0  0  0  0  0  0  0  0  0  0  0  # atno 17321 bound_to 7965
  140.7298  143.2676  151.3994 LP  0  0  0  0  0  0  0  0  0  0  0  0  # atno 17342 bound_to 10162
  139.6069  144.1178  152.2259 LP  0  0  0  0  0  0  0  0  0  0  0  0  # atno 17343 bound_to 10162
  157.7011  130.9334  150.0788 LP  0  0  0  0  0  0  0  0  0  0  0  0  # atno 17370 bound_to 10713
  156.1802  130.3650  149.9046 LP  0  0  0  0  0  0  0  0  0  0  0  0  # atno 17371 bound_to 10713
  140.5836  134.5721  157.5485 LP  0  0  0  0  0  0  0  0  0  0  0  0  # atno 17394 bound_to 11000
  139.9448  134.7722  156.0590 LP  0  0  0  0  0  0  0  0  0  0  0  0  # atno 17395 bound_to 11000

$$$$
