AV-unprocessed.smi:994|AV-procd|sdf|4341|dock4
  -GOLD-   22720 2243D 1   1.00000     0.00000
 Structure written by MMmdl.
 37 38  0  0  0  0  0  0  0  0  2 V2000
  151.0714  139.6317  157.8856 O   0  0  0  0  0  0  0  0  0  0  0  0
  151.4746  140.5856  157.2191 C   0  0  0  0  0  0  0  0  0  0  0  0
  151.5184  140.5863  155.8781 N   0  0  0  0  0  0  0  0  0  0  0  0
  151.0822  139.4965  155.0060 C   0  0  2  0  0  0  0  0  0  0  0  0
  149.6661  139.0541  155.4333 C   0  0  0  0  0  0  0  0  0  0  0  0
  148.5571  139.9345  154.9084 C   0  0  0  0  0  0  0  0  0  0  0  0
  148.3485  141.2938  154.9942 C   0  0  0  0  0  0  0  0  0  0  0  0
  147.1723  141.6370  154.3226 N   0  0  0  0  0  0  0  0  0  0  0  0
  146.7163  140.4796  153.8574 C   0  0  0  0  0  0  0  0  0  0  0  0
  147.4918  139.4399  154.1756 N   0  0  0  0  0  0  0  0  0  0  0  0
  152.0475  138.3100  155.1483 C   0  0  0  0  0  0  0  0  0  0  0  0
  151.7092  137.2358  154.6050 O   0  0  0  0  0  0  0  0  0  0  0  0
  153.1027  138.4905  155.7979 O   0  5  0  0  0  0  0  0  0  0  0  0
  151.9753  141.8583  157.9140 C   0  0  0  0  0  0  0  0  0  0  0  0
  151.9503  141.6920  159.4484 C   0  0  0  0  0  0  0  0  0  0  0  0
  152.4396  142.9660  160.1570 C   0  0  0  0  0  0  0  0  0  0  0  0
  151.6186  144.1925  159.7277 C   0  0  0  0  0  0  0  0  0  0  0  0
  151.6302  144.3625  158.2003 C   0  0  0  0  0  0  0  0  0  0  0  0
  151.1411  143.0874  157.4940 C   0  0  0  0  0  0  0  0  0  0  0  0
  147.3391  138.4748  153.9188 H   0  0  0  0  0  0  0  0  0  0  0  0
  151.8485  141.4209  155.4167 H   0  0  0  0  0  0  0  0  0  0  0  0
  151.0587  139.8184  153.9629 H   0  0  0  0  0  0  0  0  0  0  0  0
  149.4771  138.0369  155.0874 H   0  0  0  0  0  0  0  0  0  0  0  0
  149.5850  139.0280  156.5213 H   0  0  0  0  0  0  0  0  0  0  0  0
  148.9532  142.0463  155.4787 H   0  0  0  0  0  0  0  0  0  0  0  0
  145.8094  140.3882  153.2782 H   0  0  0  0  0  0  0  0  0  0  0  0
  153.0089  142.0312  157.6080 H   0  0  0  0  0  0  0  0  0  0  0  0
  150.9387  141.4602  159.7856 H   0  0  0  0  0  0  0  0  0  0  0  0
  152.5747  140.8476  159.7446 H   0  0  0  0  0  0  0  0  0  0  0  0
  152.3776  142.8372  161.2380 H   0  0  0  0  0  0  0  0  0  0  0  0
  153.4925  143.1308  159.9250 H   0  0  0  0  0  0  0  0  0  0  0  0
  150.5902  144.0832  160.0747 H   0  0  0  0  0  0  0  0  0  0  0  0
  152.0126  145.0900  160.2048 H   0  0  0  0  0  0  0  0  0  0  0  0
  151.0036  145.2081  157.9157 H   0  0  0  0  0  0  0  0  0  0  0  0
  152.6408  144.6001  157.8661 H   0  0  0  0  0  0  0  0  0  0  0  0
  151.1948  143.2259  156.4132 H   0  0  0  0  0  0  0  0  0  0  0  0
  150.0882  142.9282  157.7322 H   0  0  0  0  0  0  0  0  0  0  0  0
  1  2  2  0  0  0  0
  2  3  1  0  0  0  0
  2 14  1  0  0  0  0
  3  4  1  0  0  0  0
  3 21  1  0  0  0  0
  4  5  1  0  0  0  0
  4 11  1  0  0  0  0
  4 22  1  0  0  0  0
  5 23  1  0  0  0  0
  5 24  1  0  0  0  0
  5  6  1  0  0  0  0
  6  7  2  0  0  0  0
  6 10  1  0  0  0  0
  7 25  1  0  0  0  0
  7  8  1  0  0  0  0
  8  9  2  0  0  0  0
  9 10  1  0  0  0  0
  9 26  1  0  0  0  0
 10 20  1  0  0  0  0
 11 12  2  0  0  0  0
 11 13  1  0  0  0  0
 14 19  1  0  0  0  0
 14 15  1  0  0  0  0
 14 27  1  0  0  0  0
 15 16  1  0  0  0  0
 15 28  1  0  0  0  0
 15 29  1  0  0  0  0
 16 17  1  0  0  0  0
 16 30  1  0  0  0  0
 16 31  1  0  0  0  0
 17 18  1  0  0  0  0
 17 32  1  0  0  0  0
 17 33  1  0  0  0  0
 18 19  1  0  0  0  0
 18 34  1  0  0  0  0
 18 35  1  0  0  0  0
 19 36  1  0  0  0  0
 19 37  1  0  0  0  0
M  CHG  1  13  -1
M  END
> <s_m_source_file>
AV-unprocessed.smi

> <i_m_source_file_index>
994

> <i_lp_mmshare_version>
43012

> <i_f3d_flags>
0

> <s_epik_input>
W0NIMl0xW0NIMl1bQ0gyXVtDSDJdW0NIMl1bQ0hdMUMoPU8pW05IXVtDQEBIXShDKD1PKVtPSF0pW0NIMl1jMltjSF1bbkhdW2NIXW4y

> <s_epik_cmdline>
J2VwaWtfcHl0aG9uJywgJy1waCcsICc3LjAnLCAnLXRuJywgJzgnLCAnLW1hJywgJzIwMCcsICctbWV0YWxfYmluZGluZycsICctaW1hZScsICc8aW5maWxlLm1hZT4nLCAnLW9tYWUnLCAnPG91dGZpbGUubWFlPic=

> <r_lp_tautomer_probability>
0.5

> <r_epik_Ionization_Penalty>
0.540742

> <r_epik_Ionization_Penalty_Charging>
0.540742

> <r_epik_Ionization_Penalty_Neutral>
4.77468e-08

> <r_epik_State_Penalty>
0.78427

> <r_epik_Charging_Adjusted_Penalty>
1.32501

> <i_epik_Tot_Q>
-1

> <i_epik_Tot_abs_Q>
1

> <r_epik_Metal_State_Penalty>
0.663709

> <b_epik_Metal_Only>
0

> <s_lp_Force_Field>
OPLS_2005

> <r_lp_Energy>
10.7007

> <b_lp_Chiralities_Consistent>
1

> <s_lp_Variant>
AV-unprocessed.smi:994-3

> <Gold.Version>
5.8.1

> <Gold.Id.Protein>
6NUR|6NUR_protein|mol2

> <Gold.PLP.Fitness>
53.1640

> <Gold.PLP.PLP>
-36.6163

> <Gold.PLP.part.hbond>
-2.7763

> <Gold.PLP.part.metal>
0.0000

> <Gold.PLP.part.buried>
-2.4096

> <Gold.PLP.part.nonpolar>
-32.4909

> <Gold.PLP.part.repulsive>
1.3512

> <Gold.PLP.ligand.clash>
0.0000

> <Gold.PLP.ligand.torsion>
0.4746

> <Gold.PLP.Chemscore.Hbond>
3.8720

> <Gold.PLP.Chemscore.CHOScore>
1.9415

> <Gold.PLP.Chemscore.Metal>
0.0000

> <Gold.Chemscore.Hbonds>
donor molecule, donor type, donor heavy atom, donor atom, acceptor molecule, acceptor atom, score
      P1  H  7997  8009       L1    13  1.64
      P1  H 10752 10763       L1    12  1.90
      L1  C     7    25       P1  8028  0.64
      L1  C     9    26       P1 10175  1.00

> <Gold.PLP.Chemscore.Internal.Correction>
0.0563

> <Gold.Rescore>
     Score         DG    S(hbond)    S(metal)    S(lipo)     H(rot)  DE(clash)    DE(int)     intcor
     11.67     -14.70       1.67        0.00      89.20       2.66       0.87       2.16       ----

> <Gold.Chemscore.Fitness>
11.6685

> <Gold.Chemscore.DG>
-14.6959

> <Gold.Chemscore.ZeroCoef>
-5.4800

> <Gold.Chemscore.Hbond>
1.6720

> <Gold.Chemscore.Metal>
0.0000

> <Gold.Chemscore.Lipo>
89.1991

> <Gold.Chemscore.Internal_Hbond>
0.0000

> <Gold.Chemscore.DEClash>
0.8686

> <Gold.Chemscore.DEInternal>
2.1588

> <Gold.Chemscore.Rot>
2.6581

> <Gold.Chemscore.Internal.Correction>
   9.000000E+99

> <Gold.Chemscore.Hbonds>
donor molecule, donor type, donor heavy atom, donor atom, acceptor molecule, acceptor atom, score
      P1  H  7997  8009       L1    13  0.77
      P1  H 10752 10763       L1    12  0.85

> <Gold.Chemscore.Hbond.Weighted>
-5.5844

> <Gold.Chemscore.Metal.Weighted>
-0.0000

> <Gold.Chemscore.Lipo.Weighted>
-10.4363

> <Gold.Chemscore.Internal_Hbond.Weighted>
0.0000

> <Gold.Chemscore.DEClash.Weighted>
0.8686

> <Gold.Chemscore.DEInternal.Weighted>
2.1588

> <Gold.Chemscore.Rot.Weighted>
6.8048

> <Gold.Chemscore.Internal.Correction.Weighted>
   9.000000E+99

> <Gold.Protein.RotatedTorsions>
[ 6907 6896 6895 6894 ] final   48.98 input  -60.11 | X-H torsion
[ 7974 7965 7964 7962 ] final -140.64 input  175.53 | X-H torsion
[ 8008 7997 7996 7995 ] final -151.85 input   59.86 | X-H torsion
[ 10167 10162 10161 10158 ] final  -60.41 input  -65.29 | X-H torsion
[ 10718 10713 10712 10709 ] final  102.36 input   66.30 | X-H torsion
[ 10763 10752 10751 10750 ] final   34.41 input  -60.55 | X-H torsion
[ 11005 11000 10999 10996 ] final -148.74 input  -57.11 | X-H torsion

> <Gold.Protein.ActiveResidues>
 VAL166  LYS551  ARG553  GLY616  TRP617  ASP618  TYR619  PRO620  LYS621  CYS622 
 ASP623  PHE694  ASN695  SER759  ASP760  ASP761  ALA762  ILE779  LEU786  VAL792 
 PHE793  MET794  SER795  GLU796  ALA797  LYS798  CYS799  TRP800  GLU811  SER814 

> <Gold.Protein.RotatedAtoms>
  152.2856  134.7780  160.0387 H   0  0  0  0  0  0  0  0  0  0  0  0  # atno 6907 bound_to 6896
  151.8344  133.3408  159.3631 H   0  0  0  0  0  0  0  0  0  0  0  0  # atno 6908 bound_to 6896
  150.7208  134.5381  159.5778 H   0  0  0  0  0  0  0  0  0  0  0  0  # atno 6909 bound_to 6896
  144.8581  140.6176  143.5346 H   0  0  0  0  0  0  0  0  0  0  0  0  # atno 7974 bound_to 7965
  155.6458  140.0706  157.2603 H   0  0  0  0  0  0  0  0  0  0  0  0  # atno 8008 bound_to 7997
  154.4173  140.1742  156.1672 H   0  0  0  0  0  0  0  0  0  0  0  0  # atno 8009 bound_to 7997
  155.9817  140.3353  155.6673 H   0  0  0  0  0  0  0  0  0  0  0  0  # atno 8010 bound_to 7997
  140.6073  143.2377  151.5791 H   0  0  0  0  0  0  0  0  0  0  0  0  # atno 10167 bound_to 10162
  157.6804  131.0751  150.5392 H   0  0  0  0  0  0  0  0  0  0  0  0  # atno 10718 bound_to 10713
  153.0165  135.6361  154.1665 H   0  0  0  0  0  0  0  0  0  0  0  0  # atno 10763 bound_to 10752
  154.1404  135.2835  155.3164 H   0  0  0  0  0  0  0  0  0  0  0  0  # atno 10764 bound_to 10752
  154.6129  135.5550  153.7553 H   0  0  0  0  0  0  0  0  0  0  0  0  # atno 10765 bound_to 10752
  140.7580  134.3330  157.5109 H   0  0  0  0  0  0  0  0  0  0  0  0  # atno 11005 bound_to 11000
  145.4366  139.1541  143.3993 LP  0  0  0  0  0  0  0  0  0  0  0  0  # atno 17320 bound_to 7965
  146.2839  140.4485  142.8765 LP  0  0  0  0  0  0  0  0  0  0  0  0  # atno 17321 bound_to 7965
  139.5334  144.2849  152.1199 LP  0  0  0  0  0  0  0  0  0  0  0  0  # atno 17342 bound_to 10162
  140.2041  144.4628  150.6417 LP  0  0  0  0  0  0  0  0  0  0  0  0  # atno 17343 bound_to 10162
  156.5699  130.4277  149.6024 LP  0  0  0  0  0  0  0  0  0  0  0  0  # atno 17370 bound_to 10713
  156.2749  130.7038  151.1846 LP  0  0  0  0  0  0  0  0  0  0  0  0  # atno 17371 bound_to 10713
  139.8775  134.9184  156.3202 LP  0  0  0  0  0  0  0  0  0  0  0  0  # atno 17394 bound_to 11000
  140.9689  133.7340  156.0506 LP  0  0  0  0  0  0  0  0  0  0  0  0  # atno 17395 bound_to 11000

$$$$
