AV-unprocessed.smi:1356|AV-procd|sdf|5541|dock5
  -GOLD-   22720 5133D 1   1.00000     0.00000
 Structure written by MMmdl.
 41 42  0  0  0  0  0  0  0  0  1 V2000
  151.1764  131.4592  155.5729 C   0  0  0  0  0  0  0  0  0  0  0  0
  150.2878  131.8710  154.4120 C   0  0  1  0  0  0  0  0  0  0  0  0
  148.8705  132.3174  154.6745 C   0  0  0  0  0  0  0  0  0  0  0  0
  149.8729  133.3071  154.1166 C   0  0  1  0  0  0  0  0  0  0  0  0
  150.3638  134.3967  155.0091 C   0  0  0  0  0  0  0  0  0  0  0  0
  151.0930  134.1771  155.9762 O   0  0  0  0  0  0  0  0  0  0  0  0
  149.9892  135.6296  154.6340 N   0  0  0  0  0  0  0  0  0  0  0  0
  150.3509  136.8603  155.3277 C   0  0  0  0  0  0  0  0  0  0  0  0
  151.2502  137.7552  154.4517 C   0  0  0  0  0  0  0  0  0  0  0  0
  151.6116  139.0915  155.1084 C   0  0  0  0  0  0  0  0  0  0  0  0
  152.7711  139.3439  155.4379 O   0  0  0  0  0  0  0  0  0  0  0  0
  150.5937  139.9459  155.2929 N   0  0  0  0  0  0  0  0  0  0  0  0
  150.7021  141.2599  155.9160 C   0  0  0  0  0  0  0  0  0  0  0  0
  150.3187  141.2215  157.4049 C   0  0  0  0  0  0  0  0  0  0  0  0
  150.6995  142.5007  158.1257 C   0  0  0  0  0  0  0  0  0  0  0  0
  150.3251  143.7585  157.6066 C   0  0  0  0  0  0  0  0  0  0  0  0
  150.7145  144.9163  158.3076 C   0  0  0  0  0  0  0  0  0  0  0  0
  151.4595  144.7725  159.4939 C   0  0  0  0  0  0  0  0  0  0  0  0
  151.7841  143.4718  159.9278 C   0  0  0  0  0  0  0  0  0  0  0  0
  151.4169  142.3551  159.2627 N   0  0  0  0  0  0  0  0  0  0  0  0
  150.9262  132.0105  156.4799 H   0  0  0  0  0  0  0  0  0  0  0  0
  152.2225  131.6444  155.3285 H   0  0  0  0  0  0  0  0  0  0  0  0
  151.0520  130.3957  155.7761 H   0  0  0  0  0  0  0  0  0  0  0  0
  150.4473  131.2585  153.5267 H   0  0  0  0  0  0  0  0  0  0  0  0
  148.0920  131.9678  153.9996 H   0  0  0  0  0  0  0  0  0  0  0  0
  148.5614  132.4280  155.7127 H   0  0  0  0  0  0  0  0  0  0  0  0
  149.8044  133.5658  153.0618 H   0  0  0  0  0  0  0  0  0  0  0  0
  149.4065  135.7198  153.8143 H   0  0  0  0  0  0  0  0  0  0  0  0
  149.4481  137.3936  155.6315 H   0  0  0  0  0  0  0  0  0  0  0  0
  150.8735  136.5863  156.2449 H   0  0  0  0  0  0  0  0  0  0  0  0
  152.1728  137.2273  154.2077 H   0  0  0  0  0  0  0  0  0  0  0  0
  150.7500  137.9658  153.5050 H   0  0  0  0  0  0  0  0  0  0  0  0
  149.6735  139.6589  154.9923 H   0  0  0  0  0  0  0  0  0  0  0  0
  151.7331  141.5973  155.8064 H   0  0  0  0  0  0  0  0  0  0  0  0
  150.0812  141.9796  155.3797 H   0  0  0  0  0  0  0  0  0  0  0  0
  149.2457  141.0591  157.5155 H   0  0  0  0  0  0  0  0  0  0  0  0
  150.8078  140.3790  157.8962 H   0  0  0  0  0  0  0  0  0  0  0  0
  149.7563  143.8361  156.6917 H   0  0  0  0  0  0  0  0  0  0  0  0
  150.4479  145.8966  157.9418 H   0  0  0  0  0  0  0  0  0  0  0  0
  151.7757  145.6379  160.0573 H   0  0  0  0  0  0  0  0  0  0  0  0
  152.3552  143.3248  160.8326 H   0  0  0  0  0  0  0  0  0  0  0  0
  1  2  1  0  0  0  0
  1 21  1  0  0  0  0
  1 22  1  0  0  0  0
  1 23  1  0  0  0  0
  2  4  1  0  0  0  0
  2  3  1  0  0  0  0
  2 24  1  0  0  0  0
  3  4  1  0  0  0  0
  3 25  1  0  0  0  0
  3 26  1  0  0  0  0
  4  5  1  0  0  0  0
  4 27  1  0  0  0  0
  5  6  2  0  0  0  0
  5  7  1  0  0  0  0
  7  8  1  0  0  0  0
  7 28  1  0  0  0  0
  8  9  1  0  0  0  0
  8 29  1  0  0  0  0
  8 30  1  0  0  0  0
  9 10  1  0  0  0  0
  9 31  1  0  0  0  0
  9 32  1  0  0  0  0
 10 11  2  0  0  0  0
 10 12  1  0  0  0  0
 12 13  1  0  0  0  0
 12 33  1  0  0  0  0
 13 14  1  0  0  0  0
 13 34  1  0  0  0  0
 13 35  1  0  0  0  0
 14 15  1  0  0  0  0
 14 36  1  0  0  0  0
 14 37  1  0  0  0  0
 15 20  1  0  0  0  0
 15 16  2  0  0  0  0
 16 17  1  0  0  0  0
 16 38  1  0  0  0  0
 17 18  2  0  0  0  0
 17 39  1  0  0  0  0
 18 19  1  0  0  0  0
 18 40  1  0  0  0  0
 19 20  2  0  0  0  0
 19 41  1  0  0  0  0
M  END
> <s_m_source_file>
AV-unprocessed.smi

> <i_m_source_file_index>
1356

> <i_lp_mmshare_version>
43012

> <i_f3d_flags>
0

> <s_epik_input>
W0NIM11bQ0BASF0xW0NIMl1bQ0BIXTFDKD1PKVtOSF1bQ0gyXVtDSDJdQyg9TylbTkhdW0NIMl1bQ0gyXWMyW2NIXVtjSF1bY0hdW2NIXW4y

> <s_epik_cmdline>
J2VwaWtfcHl0aG9uJywgJy1waCcsICc3LjAnLCAnLXRuJywgJzgnLCAnLW1hJywgJzIwMCcsICctbWV0YWxfYmluZGluZycsICctaW1hZScsICc8aW5maWxlLm1hZT4nLCAnLW9tYWUnLCAnPG91dGZpbGUubWFlPic=

> <r_epik_Ionization_Penalty>
0.0258005

> <r_epik_Ionization_Penalty_Charging>
0

> <r_epik_Ionization_Penalty_Neutral>
0.0258005

> <r_epik_State_Penalty>
0.0210245

> <r_epik_Charging_Adjusted_Penalty>
0.0210245

> <i_epik_Tot_Q>
0

> <i_epik_Tot_abs_Q>
0

> <r_epik_Metal_State_Penalty>
0.0201445

> <b_epik_Metal_Only>
0

> <s_lp_Force_Field>
OPLS_2005

> <r_lp_Energy>
8.2515

> <b_lp_Chiralities_Consistent>
1

> <s_lp_Variant>
AV-unprocessed.smi:1356-2

> <Gold.Version>
5.8.1

> <Gold.Id.Protein>
6NUR|6NUR_protein|mol2

> <Gold.PLP.Fitness>
50.4592

> <Gold.PLP.PLP>
-45.1466

> <Gold.PLP.part.hbond>
-2.2640

> <Gold.PLP.part.metal>
0.0000

> <Gold.PLP.part.buried>
-6.0464

> <Gold.PLP.part.nonpolar>
-36.5526

> <Gold.PLP.part.repulsive>
0.4356

> <Gold.PLP.ligand.clash>
0.0396

> <Gold.PLP.ligand.torsion>
0.3965

> <Gold.PLP.Chemscore.Hbond>
2.0000

> <Gold.PLP.Chemscore.CHOScore>
0.0000

> <Gold.PLP.Chemscore.Metal>
0.0000

> <Gold.Chemscore.Hbonds>
donor molecule, donor type, donor heavy atom, donor atom, acceptor molecule, acceptor atom, score
      L1  H     7    28       P1  7948  0.99
      P1  H  7997  8010       L1    11  1.00

> <Gold.PLP.Chemscore.Internal.Correction>
0.1451

> <Gold.Rescore>
     Score         DG    S(hbond)    S(metal)    S(lipo)     H(rot)  DE(clash)    DE(int)     intcor
     15.99     -17.94       1.89        0.00     100.20       2.18       0.12       1.83       ----

> <Gold.Chemscore.Fitness>
15.9869

> <Gold.Chemscore.DG>
-17.9360

> <Gold.Chemscore.ZeroCoef>
-5.4800

> <Gold.Chemscore.Hbond>
1.8867

> <Gold.Chemscore.Metal>
0.0000

> <Gold.Chemscore.Lipo>
100.1970

> <Gold.Chemscore.Internal_Hbond>
0.0000

> <Gold.Chemscore.DEClash>
0.1191

> <Gold.Chemscore.DEInternal>
1.8300

> <Gold.Chemscore.Rot>
2.1753

> <Gold.Chemscore.Internal.Correction>
   9.000000E+99

> <Gold.Chemscore.Hbonds>
donor molecule, donor type, donor heavy atom, donor atom, acceptor molecule, acceptor atom, score
      L1  H     7    28       P1  7948  0.45
      P1  H  7997  8010       L1    11  1.00

> <Gold.Chemscore.Hbond.Weighted>
-6.3016

> <Gold.Chemscore.Metal.Weighted>
-0.0000

> <Gold.Chemscore.Lipo.Weighted>
-11.7230

> <Gold.Chemscore.Internal_Hbond.Weighted>
0.0000

> <Gold.Chemscore.DEClash.Weighted>
0.1191

> <Gold.Chemscore.DEInternal.Weighted>
1.8300

> <Gold.Chemscore.Rot.Weighted>
5.5687

> <Gold.Chemscore.Internal.Correction.Weighted>
   9.000000E+99

> <Gold.Protein.RotatedTorsions>
[ 6907 6896 6895 6894 ] final    0.67 input  -60.11 | X-H torsion
[ 7974 7965 7964 7962 ] final -148.36 input  175.53 | X-H torsion
[ 8008 7997 7996 7995 ] final   84.02 input   59.86 | X-H torsion
[ 10167 10162 10161 10158 ] final  105.89 input  -65.29 | X-H torsion
[ 10718 10713 10712 10709 ] final   25.22 input   66.30 | X-H torsion
[ 10763 10752 10751 10750 ] final   92.13 input  -60.55 | X-H torsion
[ 11005 11000 10999 10996 ] final  140.87 input  -57.11 | X-H torsion

> <Gold.Protein.ActiveResidues>
 VAL166  LYS551  ARG553  GLY616  TRP617  ASP618  TYR619  PRO620  LYS621  CYS622 
 ASP623  PHE694  ASN695  SER759  ASP760  ASP761  ALA762  ILE779  LEU786  VAL792 
 PHE793  MET794  SER795  GLU796  ALA797  LYS798  CYS799  TRP800  GLU811  SER814 

> <Gold.Protein.RotatedAtoms>
  151.5803  135.1059  160.0015 H   0  0  0  0  0  0  0  0  0  0  0  0  # atno 6907 bound_to 6896
  152.4357  133.7353  159.6621 H   0  0  0  0  0  0  0  0  0  0  0  0  # atno 6908 bound_to 6896
  150.8255  133.8109  159.3143 H   0  0  0  0  0  0  0  0  0  0  0  0  # atno 6909 bound_to 6896
  144.8034  140.5207  143.5691 H   0  0  0  0  0  0  0  0  0  0  0  0  # atno 7974 bound_to 7965
  155.9316  140.3414  155.6254 H   0  0  0  0  0  0  0  0  0  0  0  0  # atno 8008 bound_to 7997
  155.7150  140.0776  157.2374 H   0  0  0  0  0  0  0  0  0  0  0  0  # atno 8009 bound_to 7997
  154.4086  140.1616  156.2325 H   0  0  0  0  0  0  0  0  0  0  0  0  # atno 8010 bound_to 7997
  139.7055  144.7087  151.1114 H   0  0  0  0  0  0  0  0  0  0  0  0  # atno 10167 bound_to 10162
  157.1904  130.6843  149.6147 H   0  0  0  0  0  0  0  0  0  0  0  0  # atno 10718 bound_to 10713
  153.2158  135.4372  155.0433 H   0  0  0  0  0  0  0  0  0  0  0  0  # atno 10763 bound_to 10752
  154.8224  135.3344  154.7000 H   0  0  0  0  0  0  0  0  0  0  0  0  # atno 10764 bound_to 10752
  153.7435  135.7003  153.5017 H   0  0  0  0  0  0  0  0  0  0  0  0  # atno 10765 bound_to 10752
  140.0359  134.9329  157.0751 H   0  0  0  0  0  0  0  0  0  0  0  0  # atno 11005 bound_to 11000
  145.5496  139.1476  143.3401 LP  0  0  0  0  0  0  0  0  0  0  0  0  # atno 17320 bound_to 7965
  146.2321  140.5634  142.8971 LP  0  0  0  0  0  0  0  0  0  0  0  0  # atno 17321 bound_to 7965
  140.7720  143.5364  150.9363 LP  0  0  0  0  0  0  0  0  0  0  0  0  # atno 17342 bound_to 10162
  139.9048  143.6792  152.3125 LP  0  0  0  0  0  0  0  0  0  0  0  0  # atno 17343 bound_to 10162
  155.9712  130.4616  150.6117 LP  0  0  0  0  0  0  0  0  0  0  0  0  # atno 17370 bound_to 10713
  157.3866  131.0789  151.1430 LP  0  0  0  0  0  0  0  0  0  0  0  0  # atno 17371 bound_to 10713
  140.4149  134.1942  155.7163 LP  0  0  0  0  0  0  0  0  0  0  0  0  # atno 17394 bound_to 11000
  141.1857  133.8318  157.1096 LP  0  0  0  0  0  0  0  0  0  0  0  0  # atno 17395 bound_to 11000

$$$$
