AV-unprocessed.smi:2749|AV-procd|sdf|10587|dock3
  -GOLD-   2272015 33D 1   1.00000     0.00000
 Structure written by MMmdl.
 32 34  0  0  0  0  0  0  0  0  1 V2000
  153.3125  139.9302  157.8411 O   0  0  0  0  0  0  0  0  0  0  0  0
  152.2323  140.4692  157.6064 C   0  0  0  0  0  0  0  0  0  0  0  0
  151.6903  141.3545  158.4696 N   0  0  0  0  0  0  0  0  0  0  0  0
  152.1508  141.8386  159.7294 C   0  0  0  0  0  0  0  0  0  0  0  0
  153.1145  141.0172  160.3581 C   0  0  0  0  0  0  0  0  0  0  0  0
  153.6317  141.3873  161.6149 C   0  0  0  0  0  0  0  0  0  0  0  0
  153.1659  142.5702  162.2151 C   0  0  0  0  0  0  0  0  0  0  0  0
  153.6327  142.9669  163.4226 F   0  0  0  0  0  0  0  0  0  0  0  0
  152.2013  143.3299  161.5288 C   0  0  0  0  0  0  0  0  0  0  0  0
  151.7065  142.9762  160.3235 N   0  0  0  0  0  0  0  0  0  0  0  0
  151.5295  140.2294  156.4883 N   0  0  0  0  0  0  0  0  0  0  0  0
  151.9052  139.2854  155.4411 C   0  0  2  0  0  0  0  0  0  0  0  0
  150.7235  138.9481  154.5275 C   0  0  0  0  0  0  0  0  0  0  0  0
  150.6221  137.4251  154.6855 C   0  0  2  0  0  0  0  0  0  0  0  0
  150.0666  137.0253  156.0600 C   0  0  0  0  0  0  0  0  0  0  0  0
  151.2564  137.3134  156.9739 C   0  0  0  0  0  0  0  0  0  0  0  0
  152.2808  137.8898  155.9813 C   0  0  1  0  0  0  0  0  0  0  0  0
  151.9903  137.0919  154.8458 O   0  0  0  0  0  0  0  0  0  0  0  0
  150.8402  141.7895  158.1421 H   0  0  0  0  0  0  0  0  0  0  0  0
  153.4595  140.1096  159.8837 H   0  0  0  0  0  0  0  0  0  0  0  0
  154.3710  140.7737  162.1082 H   0  0  0  0  0  0  0  0  0  0  0  0
  151.8162  144.2440  161.9559 H   0  0  0  0  0  0  0  0  0  0  0  0
  150.6510  140.7145  156.3720 H   0  0  0  0  0  0  0  0  0  0  0  0
  152.7221  139.6893  154.8400 H   0  0  0  0  0  0  0  0  0  0  0  0
  149.7955  139.4522  154.8019 H   0  0  0  0  0  0  0  0  0  0  0  0
  150.9571  139.2118  153.4954 H   0  0  0  0  0  0  0  0  0  0  0  0
  150.1323  136.9264  153.8488 H   0  0  0  0  0  0  0  0  0  0  0  0
  149.1784  137.5981  156.3290 H   0  0  0  0  0  0  0  0  0  0  0  0
  149.8123  135.9653  156.0858 H   0  0  0  0  0  0  0  0  0  0  0  0
  151.0134  137.9895  157.7939 H   0  0  0  0  0  0  0  0  0  0  0  0
  151.6304  136.3856  157.4081 H   0  0  0  0  0  0  0  0  0  0  0  0
  153.3130  137.8147  156.3240 H   0  0  0  0  0  0  0  0  0  0  0  0
  1  2  2  0  0  0  0
  2  3  1  0  0  0  0
  2 11  1  0  0  0  0
  3  4  1  0  0  0  0
  3 19  1  0  0  0  0
  4 10  1  0  0  0  0
  4  5  2  0  0  0  0
  5  6  1  0  0  0  0
  5 20  1  0  0  0  0
  6  7  2  0  0  0  0
  6 21  1  0  0  0  0
  7  8  1  0  0  0  0
  7  9  1  0  0  0  0
  9 10  2  0  0  0  0
  9 22  1  0  0  0  0
 11 12  1  0  0  0  0
 11 23  1  0  0  0  0
 12 17  1  0  0  0  0
 12 13  1  0  0  0  0
 12 24  1  0  0  0  0
 13 14  1  0  0  0  0
 13 25  1  0  0  0  0
 13 26  1  0  0  0  0
 14 18  1  0  0  0  0
 14 15  1  0  0  0  0
 14 27  1  0  0  0  0
 15 16  1  0  0  0  0
 15 28  1  0  0  0  0
 15 29  1  0  0  0  0
 16 17  1  0  0  0  0
 16 30  1  0  0  0  0
 16 31  1  0  0  0  0
 17 18  1  0  0  0  0
 17 32  1  0  0  0  0
M  END
> <s_m_source_file>
AV-unprocessed.smi

> <i_m_source_file_index>
2749

> <i_lp_mmshare_version>
43012

> <i_f3d_flags>
0

> <s_epik_input>
W0NIMl0xW0NIMl1bQ0BIXShPMilbQ0BASF0oW0NIMl1bQ0BASF0xMilbTkhdQyg9TylbTkhdYzNbY0hdW2NIXWMoRilbY0hdbjM=

> <s_epik_cmdline>
J2VwaWtfcHl0aG9uJywgJy1waCcsICc3LjAnLCAnLXRuJywgJzgnLCAnLW1hJywgJzIwMCcsICctbWV0YWxfYmluZGluZycsICctaW1hZScsICc8aW5maWxlLm1hZT4nLCAnLW9tYWUnLCAnPG91dGZpbGUubWFlPic=

> <r_lp_tautomer_probability>
1

> <r_epik_Ionization_Penalty>
3.37159e-05

> <r_epik_Ionization_Penalty_Charging>
0

> <r_epik_Ionization_Penalty_Neutral>
3.37159e-05

> <r_epik_State_Penalty>
-0

> <r_epik_Charging_Adjusted_Penalty>
0

> <i_epik_Tot_Q>
0

> <i_epik_Tot_abs_Q>
0

> <r_epik_Metal_State_Penalty>
-0

> <b_epik_Metal_Only>
0

> <s_lp_Force_Field>
OPLS_2005

> <r_lp_Energy>
40.3406

> <b_lp_Chiralities_Consistent>
1

> <s_lp_Variant>
AV-unprocessed.smi:2749-3

> <Gold.Version>
5.8.1

> <Gold.Id.Protein>
6NUR|6NUR_protein|mol2

> <Gold.PLP.Fitness>
42.0884

> <Gold.PLP.PLP>
-36.7739

> <Gold.PLP.part.hbond>
-2.1453

> <Gold.PLP.part.metal>
0.0000

> <Gold.PLP.part.buried>
-4.5357

> <Gold.PLP.part.nonpolar>
-29.9732

> <Gold.PLP.part.repulsive>
0.3780

> <Gold.PLP.ligand.clash>
0.0437

> <Gold.PLP.ligand.torsion>
0.2466

> <Gold.PLP.Chemscore.Hbond>
1.9440

> <Gold.PLP.Chemscore.CHOScore>
0.0000

> <Gold.PLP.Chemscore.Metal>
0.0000

> <Gold.Chemscore.Hbonds>
donor molecule, donor type, donor heavy atom, donor atom, acceptor molecule, acceptor atom, score
      P1  H  7997  8009       L1     1  0.99
      P1  H 10752 10764       L1    18  0.91

> <Gold.PLP.Chemscore.Internal.Correction>
0.0193

> <Gold.Rescore>
     Score         DG    S(hbond)    S(metal)    S(lipo)     H(rot)  DE(clash)    DE(int)     intcor
     15.54     -18.42       1.93        0.00      77.38       1.00       0.00       2.87       ----

> <Gold.Chemscore.Fitness>
15.5428

> <Gold.Chemscore.DG>
-18.4188

> <Gold.Chemscore.ZeroCoef>
-5.4800

> <Gold.Chemscore.Hbond>
1.9297

> <Gold.Chemscore.Metal>
0.0000

> <Gold.Chemscore.Lipo>
77.3801

> <Gold.Chemscore.Internal_Hbond>
0.0000

> <Gold.Chemscore.DEClash>
0.0015

> <Gold.Chemscore.DEInternal>
2.8746

> <Gold.Chemscore.Rot>
1.0000

> <Gold.Chemscore.Internal.Correction>
   9.000000E+99

> <Gold.Chemscore.Hbonds>
donor molecule, donor type, donor heavy atom, donor atom, acceptor molecule, acceptor atom, score
      P1  H  7997  8009       L1     1  0.90
      P1  H 10752 10764       L1    18  0.85

> <Gold.Chemscore.Hbond.Weighted>
-6.4453

> <Gold.Chemscore.Metal.Weighted>
-0.0000

> <Gold.Chemscore.Lipo.Weighted>
-9.0535

> <Gold.Chemscore.Internal_Hbond.Weighted>
0.0000

> <Gold.Chemscore.DEClash.Weighted>
0.0015

> <Gold.Chemscore.DEInternal.Weighted>
2.8746

> <Gold.Chemscore.Rot.Weighted>
2.5600

> <Gold.Chemscore.Internal.Correction.Weighted>
   9.000000E+99

> <Gold.Protein.RotatedTorsions>
[ 6907 6896 6895 6894 ] final -151.42 input  -60.11 | X-H torsion
[ 7974 7965 7964 7962 ] final  -97.24 input  175.53 | X-H torsion
[ 8008 7997 7996 7995 ] final  151.36 input   59.86 | X-H torsion
[ 10167 10162 10161 10158 ] final  -53.66 input  -65.29 | X-H torsion
[ 10718 10713 10712 10709 ] final  172.28 input   66.30 | X-H torsion
[ 10763 10752 10751 10750 ] final  -56.90 input  -60.55 | X-H torsion
[ 11005 11000 10999 10996 ] final   -5.86 input  -57.11 | X-H torsion

> <Gold.Protein.ActiveResidues>
 VAL166  LYS551  ARG553  GLY616  TRP617  ASP618  TYR619  PRO620  LYS621  CYS622 
 ASP623  PHE694  ASN695  SER759  ASP760  ASP761  ALA762  ILE779  LEU786  VAL792 
 PHE793  MET794  SER795  GLU796  ALA797  LYS798  CYS799  TRP800  GLU811  SER814 

> <Gold.Protein.RotatedAtoms>
  151.2129  133.4546  159.2598 H   0  0  0  0  0  0  0  0  0  0  0  0  # atno 6907 bound_to 6896
  151.0959  134.9944  159.8435 H   0  0  0  0  0  0  0  0  0  0  0  0  # atno 6908 bound_to 6896
  152.5439  134.2059  159.8783 H   0  0  0  0  0  0  0  0  0  0  0  0  # atno 6909 bound_to 6896
  145.3363  140.9451  143.2633 H   0  0  0  0  0  0  0  0  0  0  0  0  # atno 7974 bound_to 7965
  156.2677  140.2050  156.6164 H   0  0  0  0  0  0  0  0  0  0  0  0  # atno 8008 bound_to 7997
  154.6791  140.0542  157.0271 H   0  0  0  0  0  0  0  0  0  0  0  0  # atno 8009 bound_to 7997
  155.1026  140.3207  155.4546 H   0  0  0  0  0  0  0  0  0  0  0  0  # atno 8010 bound_to 7997
  140.6473  143.2543  151.4824 H   0  0  0  0  0  0  0  0  0  0  0  0  # atno 10167 bound_to 10162
  156.9813  131.0120  151.2881 H   0  0  0  0  0  0  0  0  0  0  0  0  # atno 10718 bound_to 10713
  154.2139  135.6389  153.5124 H   0  0  0  0  0  0  0  0  0  0  0  0  # atno 10763 bound_to 10752
  152.9983  135.5480  154.6185 H   0  0  0  0  0  0  0  0  0  0  0  0  # atno 10764 bound_to 10752
  154.5629  135.2910  155.0875 H   0  0  0  0  0  0  0  0  0  0  0  0  # atno 10765 bound_to 10752
  140.6957  133.9033  155.8648 H   0  0  0  0  0  0  0  0  0  0  0  0  # atno 11005 bound_to 11000
  144.8825  139.4884  143.6716 LP  0  0  0  0  0  0  0  0  0  0  0  0  # atno 17320 bound_to 7965
  146.3025  139.7474  142.9080 LP  0  0  0  0  0  0  0  0  0  0  0  0  # atno 17321 bound_to 7965
  139.5684  144.1986  152.1800 LP  0  0  0  0  0  0  0  0  0  0  0  0  # atno 17342 bound_to 10162
  140.1275  144.5318  150.6823 LP  0  0  0  0  0  0  0  0  0  0  0  0  # atno 17343 bound_to 10162
  157.5524  130.8191  149.8162 LP  0  0  0  0  0  0  0  0  0  0  0  0  # atno 17370 bound_to 10713
  156.0243  130.3784  150.1868 LP  0  0  0  0  0  0  0  0  0  0  0  0  # atno 17371 bound_to 10713
  141.0205  134.0896  157.4126 LP  0  0  0  0  0  0  0  0  0  0  0  0  # atno 17394 bound_to 11000
  139.8911  135.0116  156.6771 LP  0  0  0  0  0  0  0  0  0  0  0  0  # atno 17395 bound_to 11000

$$$$
