#       Name:                AV-unprocessed.smi:1772
#       Creating user name   scv26
#       Creation time:       Fri Mar 27 08:39:56 2020


#       File generated by GOLD software.
#

@<TRIPOS>MOLECULE
AV-unprocessed.smi:1772
    36    37     1
SMALL
NO_CHARGES


@<TRIPOS>ATOM
      1 ****        -0.0521   1.6182   0.8676 O.2            1 S1                 0.0000
      2 ****        -0.5703   0.5110   1.0089 C.2            1 S1                 0.0000
      3 ****         0.1360  -0.6236   1.1136 N.am           1 S1                 0.0000
      4 ****         1.5916  -0.7116   1.0597 C.3            1 S1                 0.0000
      5 ****         2.1233  -0.6535  -0.3855 C.3            1 S1                 0.0000
      6 ****         3.6604  -0.7424  -0.4496 C.3            1 S1                 0.0000
      7 ****         4.0715  -0.9549  -1.9089 C.3            1 S1                 0.0000
      8 ****         2.7748  -2.0298  -2.6248 S.o2           1 S1                 0.0000
      9 ****         2.2933  -1.4353  -3.8808 O.2            1 S1                 0.0000
     10 ****         3.2194  -3.4307  -2.5716 O.2            1 S1                 0.0000
     11 ****         1.5428  -1.7517  -1.2954 C.3            1 S1                 0.0000
     12 ****        -1.8902   0.2674   1.0895 N.am           1 S1                 0.0000
     13 ****        -2.9775   1.1825   1.0375 C.ar           1 S1                 0.0000
     14 ****        -4.2368   0.7212   1.4737 C.ar           1 S1                 0.0000
     15 ****        -5.3378   1.5992   1.4246 C.ar           1 S1                 0.0000
     16 ****        -5.2549   2.8679   0.9724 N.ar           1 S1                 0.0000
     17 ****        -4.0520   3.3051   0.5441 C.ar           1 S1                 0.0000
     18 ****        -2.8886   2.5093   0.5499 C.ar           1 S1                 0.0000
     19 ****        -0.3680  -1.4900   1.2345 H              1 S1                 0.0000
     20 ****         2.0341   0.0856   1.6594 H              1 S1                 0.0000
     21 ****         1.8891  -1.6494   1.5296 H              1 S1                 0.0000
     22 ****         1.8462   0.3083  -0.8201 H              1 S1                 0.0000
     23 ****         4.1348   0.1438  -0.0271 H              1 S1                 0.0000
     24 ****         3.9975  -1.5963   0.1396 H              1 S1                 0.0000
     25 ****         4.0647  -0.0099  -2.4527 H              1 S1                 0.0000
     26 ****         5.0526  -1.4169  -2.0189 H              1 S1                 0.0000
     27 ****         1.4208  -2.6909  -0.7553 H              1 S1                 0.0000
     28 ****         0.5818  -1.4744  -1.7293 H              1 S1                 0.0000
     29 ****        -2.1489  -0.6932   1.2595 H              1 S1                 0.0000
     30 ****        -4.3623  -0.2856   1.8448 H              1 S1                 0.0000
     31 ****        -6.3118   1.2721   1.7569 H              1 S1                 0.0000
     32 ****        -4.0158   4.3210   0.1795 H              1 S1                 0.0000
     33 ****        -1.9690   2.9291   0.1740 H              1 S1                 0.0000
     34 ****         0.9435   1.7026   0.8259 LP             1 S1                 0.0000
     35 ****        -0.6265   2.4334   0.7946 LP             1 S1                 0.0000
     36 ****        -6.0576   3.4640   0.9552 LP             1 S1                 0.0000
@<TRIPOS>BOND
    1    1    2 2     
    2    2    3 am    
    3    2   12 am    
    4    3    4 1     
    5    3   19 1     
    6    4    5 1     
    7    4   20 1     
    8    4   21 1     
    9    5   11 1     
   10    5    6 1     
   11    5   22 1     
   12    6    7 1     
   13    6   23 1     
   14    6   24 1     
   15    7    8 1     
   16    7   25 1     
   17    7   26 1     
   18    8    9 2     
   19    8   10 2     
   20    8   11 1     
   21   11   27 1     
   22   11   28 1     
   23   12   13 1     
   24   12   29 1     
   25   13   18 ar    
   26   13   14 ar    
   27   14   15 ar    
   28   14   30 1     
   29   15   16 ar    
   30   15   31 1     
   31   16   17 ar    
   32   17   18 ar    
   33   17   32 1     
   34   18   33 1     
   35    1   34 1     
   36    1   35 1     
   37   16   36 1     
@<TRIPOS>SUBSTRUCTURE
      1 S1             1
@<TRIPOS>SET
LONE_PAIRS      STATIC     ATOMS    <user>   **** ""
5 34 35 9 10 36
DONOR_HYDROGENS      STATIC     ATOMS    <user>   **** ""
2 19 29
ATOM$BLUE        STATIC     ATOMS    COLORGROUP SYSTEM
5 34 35 9 10 36
ATOM$RED        STATIC     ATOMS    COLORGROUP SYSTEM
2 19 29
