AV-unprocessed.smi:515|AV-procd|sdf|2781|dock9
  -GOLD-   2262023253D 1   1.00000     0.00000
 Structure written by MMmdl.
 48 50  0  0  0  0  0  0  0  0  2 V2000
  147.2896  135.3810  162.6807 C   0  0  0  0  0  0  0  0  0  0  0  0
  146.9022  135.9143  161.2999 C   0  0  0  0  0  0  0  0  0  0  0  0
  148.0843  136.1347  160.5515 O   0  0  0  0  0  0  0  0  0  0  0  0
  147.8323  136.6432  159.2523 C   0  0  0  0  0  0  0  0  0  0  0  0
  148.1939  135.5804  158.2047 C   0  0  0  0  0  0  0  0  0  0  0  0
  149.0507  136.1170  157.1520 N   0  0  0  0  0  0  0  0  0  0  0  0
  148.8470  136.0651  155.8088 C   0  0  0  0  0  0  0  0  0  0  0  0
  147.6464  135.4240  155.1719 C   0  0  0  0  0  0  0  0  0  0  0  0
  148.2061  134.4728  154.1784 N   0  3  0  0  0  0  0  0  0  0  0  0
  149.1607  133.4908  154.7534 C   0  0  0  0  0  0  0  0  0  0  0  0
  149.7160  132.5737  153.6510 C   0  0  0  0  0  0  0  0  0  0  0  0
  148.6417  131.9230  152.9840 O   0  0  0  0  0  0  0  0  0  0  0  0
  147.7691  132.8510  152.3516 C   0  0  0  0  0  0  0  0  0  0  0  0
  147.1471  133.7769  153.4106 C   0  0  0  0  0  0  0  0  0  0  0  0
  149.8108  136.6461  155.0864 N   0  0  0  0  0  0  0  0  0  0  0  0
  150.6953  137.1119  156.0477 C   0  0  0  0  0  0  0  0  0  0  0  0
  150.2543  136.8091  157.2944 C   0  0  0  0  0  0  0  0  0  0  0  0
  150.9892  137.1998  158.5064 C   0  0  0  0  0  0  0  0  0  0  0  0
  150.6069  136.9422  159.6454 O   0  0  0  0  0  0  0  0  0  0  0  0
  152.1322  137.8768  158.2391 N   0  0  0  0  0  0  0  0  0  0  0  0
  152.6336  138.2101  157.0107 C   0  0  0  0  0  0  0  0  0  0  0  0
  153.6913  138.8338  156.9262 O   0  0  0  0  0  0  0  0  0  0  0  0
  151.9190  137.8254  155.9050 N   0  0  0  0  0  0  0  0  0  0  0  0
  152.4106  138.1542  154.5656 C   0  0  0  0  0  0  0  0  0  0  0  0
  152.6750  138.1706  159.0381 H   0  0  0  0  0  0  0  0  0  0  0  0
  146.4045  135.1977  163.2898 H   0  0  0  0  0  0  0  0  0  0  0  0
  147.9213  136.0932  163.2120 H   0  0  0  0  0  0  0  0  0  0  0  0
  147.8390  134.4429  162.5973 H   0  0  0  0  0  0  0  0  0  0  0  0
  146.2601  135.1952  160.7894 H   0  0  0  0  0  0  0  0  0  0  0  0
  146.3427  136.8452  161.4027 H   0  0  0  0  0  0  0  0  0  0  0  0
  146.7807  136.9156  159.1545 H   0  0  0  0  0  0  0  0  0  0  0  0
  148.4207  137.5470  159.0874 H   0  0  0  0  0  0  0  0  0  0  0  0
  148.6885  134.7345  158.6788 H   0  0  0  0  0  0  0  0  0  0  0  0
  147.2907  135.1655  157.7589 H   0  0  0  0  0  0  0  0  0  0  0  0
  146.9928  134.9291  155.8890 H   0  0  0  0  0  0  0  0  0  0  0  0
  147.0644  136.2032  154.6778 H   0  0  0  0  0  0  0  0  0  0  0  0
  149.9892  134.0022  155.2438 H   0  0  0  0  0  0  0  0  0  0  0  0
  148.6569  132.8946  155.5157 H   0  0  0  0  0  0  0  0  0  0  0  0
  150.3143  133.1415  152.9366 H   0  0  0  0  0  0  0  0  0  0  0  0
  150.3711  131.8187  154.0856 H   0  0  0  0  0  0  0  0  0  0  0  0
  148.3116  133.4263  151.5996 H   0  0  0  0  0  0  0  0  0  0  0  0
  146.9872  132.3008  151.8282 H   0  0  0  0  0  0  0  0  0  0  0  0
  146.5207  133.1988  154.0920 H   0  0  0  0  0  0  0  0  0  0  0  0
  146.5015  134.5087  152.9231 H   0  0  0  0  0  0  0  0  0  0  0  0
  153.4131  137.7513  154.4144 H   0  0  0  0  0  0  0  0  0  0  0  0
  152.4542  139.2359  154.4313 H   0  0  0  0  0  0  0  0  0  0  0  0
  151.7777  137.7515  153.7750 H   0  0  0  0  0  0  0  0  0  0  0  0
  148.7205  135.0308  153.5111 H   0  0  0  0  0  0  0  0  0  0  0  0
  1  2  1  0  0  0  0
  1 26  1  0  0  0  0
  1 27  1  0  0  0  0
  1 28  1  0  0  0  0
  2  3  1  0  0  0  0
  2 29  1  0  0  0  0
  2 30  1  0  0  0  0
  3  4  1  0  0  0  0
  4  5  1  0  0  0  0
  4 31  1  0  0  0  0
  4 32  1  0  0  0  0
  5  6  1  0  0  0  0
  5 33  1  0  0  0  0
  5 34  1  0  0  0  0
  6 17  1  0  0  0  0
  6  7  1  0  0  0  0
  7  8  1  0  0  0  0
  7 15  2  0  0  0  0
  8  9  1  0  0  0  0
  8 35  1  0  0  0  0
  8 36  1  0  0  0  0
  9 14  1  0  0  0  0
  9 10  1  0  0  0  0
  9 48  1  0  0  0  0
 10 11  1  0  0  0  0
 10 37  1  0  0  0  0
 10 38  1  0  0  0  0
 11 12  1  0  0  0  0
 11 39  1  0  0  0  0
 11 40  1  0  0  0  0
 12 13  1  0  0  0  0
 13 14  1  0  0  0  0
 13 41  1  0  0  0  0
 13 42  1  0  0  0  0
 14 43  1  0  0  0  0
 14 44  1  0  0  0  0
 15 16  1  0  0  0  0
 16 23  1  0  0  0  0
 16 17  2  0  0  0  0
 17 18  1  0  0  0  0
 18 19  2  0  0  0  0
 18 20  1  0  0  0  0
 20 25  1  0  0  0  0
 20 21  1  0  0  0  0
 21 22  2  0  0  0  0
 21 23  1  0  0  0  0
 23 24  1  0  0  0  0
 24 45  1  0  0  0  0
 24 46  1  0  0  0  0
 24 47  1  0  0  0  0
M  CHG  1   9   1
M  END
> <s_m_source_file>
AV-unprocessed.smi

> <i_m_source_file_index>
515

> <i_lp_mmshare_version>
43012

> <i_f3d_flags>
0

> <s_epik_input>
W0NIM11uMWMoPU8pW25IXWMoPU8pYyhjMTIpbihbQ0gyXVtDSDJdT1tDSDJdW0NIM10pYyhuMilbQ0gyXU4zW0NIMl1bQ0gyXU9bQ0gyXVtDSDJdMw==

> <s_epik_cmdline>
J2VwaWtfcHl0aG9uJywgJy1waCcsICc3LjAnLCAnLXRuJywgJzgnLCAnLW1hJywgJzIwMCcsICctbWV0YWxfYmluZGluZycsICctaW1hZScsICc8aW5maWxlLm1hZT4nLCAnLW9tYWUnLCAnPG91dGZpbGUubWFlPic=

> <r_epik_Ionization_Penalty>
1.12075

> <r_epik_Ionization_Penalty_Charging>
1.12075

> <r_epik_Ionization_Penalty_Neutral>
5.33793e-09

> <r_epik_State_Penalty>
1.17893

> <r_epik_Charging_Adjusted_Penalty>
2.29968

> <i_epik_Tot_Q>
1

> <i_epik_Tot_abs_Q>
1

> <r_epik_Metal_State_Penalty>
1.3264

> <b_epik_Metal_Only>
0

> <s_lp_Force_Field>
OPLS_2005

> <r_lp_Energy>
34.9817

> <b_lp_Chiralities_Consistent>
1

> <s_lp_Variant>
AV-unprocessed.smi:515-2

> <Gold.Version>
5.8.1

> <Gold.Id.Protein>
6NUR|6NUR_protein|mol2

> <Gold.PLP.Fitness>
39.9750

> <Gold.PLP.PLP>
-29.9088

> <Gold.PLP.part.hbond>
-2.6025

> <Gold.PLP.part.metal>
0.0000

> <Gold.PLP.part.buried>
-6.9974

> <Gold.PLP.part.nonpolar>
-21.7475

> <Gold.PLP.part.repulsive>
0.6077

> <Gold.PLP.ligand.clash>
0.0000

> <Gold.PLP.ligand.torsion>
0.8069

> <Gold.PLP.Chemscore.Hbond>
3.8723

> <Gold.PLP.Chemscore.CHOScore>
0.0000

> <Gold.PLP.Chemscore.Metal>
0.0000

> <Gold.Chemscore.Hbonds>
donor molecule, donor type, donor heavy atom, donor atom, acceptor molecule, acceptor atom, score
      L1  H     9    48       P1  7948  2.00
      P1  H  6896  6909       L1    19  1.00
      P1  H  7997  8008       L1    22  0.71

> <Gold.PLP.Chemscore.Internal.Correction>
0.0630

> <Gold.Rescore>
     Score         DG    S(hbond)    S(metal)    S(lipo)     H(rot)  DE(clash)    DE(int)     intcor
     13.56     -15.56       2.95        0.00      50.41       2.22       0.05       1.95       ----

> <Gold.Chemscore.Fitness>
13.5570

> <Gold.Chemscore.DG>
-15.5582

> <Gold.Chemscore.ZeroCoef>
-5.4800

> <Gold.Chemscore.Hbond>
2.9517

> <Gold.Chemscore.Metal>
0.0000

> <Gold.Chemscore.Lipo>
50.4117

> <Gold.Chemscore.Internal_Hbond>
0.0000

> <Gold.Chemscore.DEClash>
0.0549

> <Gold.Chemscore.DEInternal>
1.9463

> <Gold.Chemscore.Rot>
2.2182

> <Gold.Chemscore.Internal.Correction>
   9.000000E+99

> <Gold.Chemscore.Hbonds>
donor molecule, donor type, donor heavy atom, donor atom, acceptor molecule, acceptor atom, score
      L1  H     9    48       P1  7948  0.64
      P1  H  6896  6909       L1    19  0.39
      P1  H  7997  8008       L1    22  0.68

> <Gold.Chemscore.Hbond.Weighted>
-9.8586

> <Gold.Chemscore.Metal.Weighted>
-0.0000

> <Gold.Chemscore.Lipo.Weighted>
-5.8982

> <Gold.Chemscore.Internal_Hbond.Weighted>
0.0000

> <Gold.Chemscore.DEClash.Weighted>
0.0549

> <Gold.Chemscore.DEInternal.Weighted>
1.9463

> <Gold.Chemscore.Rot.Weighted>
5.6785

> <Gold.Chemscore.Internal.Correction.Weighted>
   9.000000E+99

> <Gold.Protein.RotatedTorsions>
[ 6907 6896 6895 6894 ] final   95.25 input  -60.11 | X-H torsion
[ 7974 7965 7964 7962 ] final -116.31 input  175.53 | X-H torsion
[ 8008 7997 7996 7995 ] final  -56.33 input   59.86 | X-H torsion
[ 10167 10162 10161 10158 ] final   -6.07 input  -65.29 | X-H torsion
[ 10718 10713 10712 10709 ] final  -35.34 input   66.30 | X-H torsion
[ 10763 10752 10751 10750 ] final   53.81 input  -60.55 | X-H torsion
[ 11005 11000 10999 10996 ] final   14.89 input  -57.11 | X-H torsion

> <Gold.Protein.ActiveResidues>
 VAL166  LYS551  ARG553  GLY616  TRP617  ASP618  TYR619  PRO620  LYS621  CYS622 
 ASP623  PHE694  ASN695  SER759  ASP760  ASP761  ALA762  ILE779  LEU786  VAL792 
 PHE793  MET794  SER795  GLU796  ALA797  LYS798  CYS799  TRP800  GLU811  SER814 

> <Gold.Protein.RotatedAtoms>
  152.5445  134.1068  159.8341 H   0  0  0  0  0  0  0  0  0  0  0  0  # atno 6907 bound_to 6896
  151.1139  133.5145  159.2612 H   0  0  0  0  0  0  0  0  0  0  0  0  # atno 6908 bound_to 6896
  151.1853  135.0388  159.8864 H   0  0  0  0  0  0  0  0  0  0  0  0  # atno 6909 bound_to 6896
  145.0982  140.8534  143.3942 H   0  0  0  0  0  0  0  0  0  0  0  0  # atno 7974 bound_to 7965
  154.4226  140.1132  156.5621 H   0  0  0  0  0  0  0  0  0  0  0  0  # atno 8008 bound_to 7997
  155.6301  140.3495  155.4661 H   0  0  0  0  0  0  0  0  0  0  0  0  # atno 8009 bound_to 7997
  155.9955  140.1188  157.0587 H   0  0  0  0  0  0  0  0  0  0  0  0  # atno 8010 bound_to 7997
  140.6984  143.6236  150.8589 H   0  0  0  0  0  0  0  0  0  0  0  0  # atno 10167 bound_to 10162
  156.3398  130.4292  149.7798 H   0  0  0  0  0  0  0  0  0  0  0  0  # atno 10718 bound_to 10713
  152.9798  135.5766  154.4802 H   0  0  0  0  0  0  0  0  0  0  0  0  # atno 10763 bound_to 10752
  154.4352  135.2774  155.1887 H   0  0  0  0  0  0  0  0  0  0  0  0  # atno 10764 bound_to 10752
  154.3579  135.6195  153.5729 H   0  0  0  0  0  0  0  0  0  0  0  0  # atno 10765 bound_to 10752
  140.4644  134.1094  155.7722 H   0  0  0  0  0  0  0  0  0  0  0  0  # atno 11005 bound_to 11000
  145.0986  139.2838  143.5698 LP  0  0  0  0  0  0  0  0  0  0  0  0  # atno 17320 bound_to 7965
  146.3530  140.0546  142.8633 LP  0  0  0  0  0  0  0  0  0  0  0  0  # atno 17321 bound_to 7965
  139.9956  143.5799  152.2894 LP  0  0  0  0  0  0  0  0  0  0  0  0  # atno 17342 bound_to 10162
  139.6470  144.7659  151.2223 LP  0  0  0  0  0  0  0  0  0  0  0  0  # atno 17343 bound_to 10162
  156.5039  130.8141  151.3143 LP  0  0  0  0  0  0  0  0  0  0  0  0  # atno 17370 bound_to 10713
  157.7445  130.9936  150.2677 LP  0  0  0  0  0  0  0  0  0  0  0  0  # atno 17371 bound_to 10713
  141.1606  133.8800  157.1858 LP  0  0  0  0  0  0  0  0  0  0  0  0  # atno 17394 bound_to 11000
  139.9924  135.0059  157.0006 LP  0  0  0  0  0  0  0  0  0  0  0  0  # atno 17395 bound_to 11000

$$$$
