#       Name:                AV-unprocessed.smi:1728
#       Creating user name   scv26
#       Creation time:       Fri Mar 27 08:18:21 2020


#       File generated by GOLD software.
#

@<TRIPOS>MOLECULE
AV-unprocessed.smi:1728
    54    55     1
SMALL
NO_CHARGES


@<TRIPOS>ATOM
      1 ****        -6.1888  -0.9631  -0.5801 C.3            1 S1                 0.0000
      2 ****        -4.9255  -0.4853  -0.1307 O.3            1 S1                 0.0000
      3 ****        -4.8427   0.8066   0.3535 C.ar           1 S1                 0.0000
      4 ****        -5.9679   1.5643   0.3633 N.ar           1 S1                 0.0000
      5 ****        -5.8906   2.8234   0.8402 C.ar           1 S1                 0.0000
      6 ****        -4.7008   3.3880   1.3343 C.ar           1 S1                 0.0000
      7 ****        -3.5321   2.6043   1.3256 C.ar           1 S1                 0.0000
      8 ****        -3.5935   1.2843   0.8151 C.ar           1 S1                 0.0000
      9 ****        -2.4833   0.3955   0.7705 N.am           1 S1                 0.0000
     10 ****        -1.1709   0.6740   0.8411 C.2            1 S1                 0.0000
     11 ****        -0.6822   1.7971   0.9604 O.2            1 S1                 0.0000
     12 ****        -0.4372  -0.4436   0.7408 N.am           1 S1                 0.0000
     13 ****         1.0230  -0.5110   0.7809 C.3            1 S1                 0.0000
     14 ****         1.6816  -0.6181  -0.6283 C.3            1 S1                 0.0000
     15 ****         1.1222  -1.8557  -1.3732 C.3            1 S1                 0.0000
     16 ****         1.3080   0.6088  -1.4981 C.3            1 S1                 0.0000
     17 ****         3.1822  -0.7217  -0.5247 N.4            1 S1                 1.0000
     18 ****         3.8796   0.4792   0.0171 C.3            1 S1                 0.0000
     19 ****         5.4043   0.3193  -0.1010 C.3            1 S1                 0.0000
     20 ****         5.8177  -0.8528   0.5863 O.3            1 S1                 0.0000
     21 ****         5.2350  -2.0207   0.0262 C.3            1 S1                 0.0000
     22 ****         3.7039  -1.9459   0.1472 C.3            1 S1                 0.0000
     23 ****        -6.0830  -1.9913  -0.9259 H              1 S1                 0.0000
     24 ****        -6.5661  -0.3710  -1.4150 H              1 S1                 0.0000
     25 ****        -6.9259  -0.9587   0.2243 H              1 S1                 0.0000
     26 ****        -6.8069   3.3949   0.8335 H              1 S1                 0.0000
     27 ****        -4.6858   4.3979   1.7164 H              1 S1                 0.0000
     28 ****        -2.6236   3.0287   1.7226 H              1 S1                 0.0000
     29 ****        -2.7206  -0.5719   0.6061 H              1 S1                 0.0000
     30 ****        -0.9277  -1.3204   0.6391 H              1 S1                 0.0000
     31 ****         1.4129   0.3443   1.3332 H              1 S1                 0.0000
     32 ****         1.2661  -1.3867   1.3815 H              1 S1                 0.0000
     33 ****         0.0741  -1.7242  -1.6445 H              1 S1                 0.0000
     34 ****         1.1652  -2.7599  -0.7667 H              1 S1                 0.0000
     35 ****         1.6696  -2.0438  -2.2975 H              1 S1                 0.0000
     36 ****         0.2535   0.6021  -1.7764 H              1 S1                 0.0000
     37 ****         1.8801   0.6285  -2.4265 H              1 S1                 0.0000
     38 ****         1.4763   1.5520  -0.9789 H              1 S1                 0.0000
     39 ****         3.6002   1.3832  -0.5205 H              1 S1                 0.0000
     40 ****         3.6153   0.6314   1.0636 H              1 S1                 0.0000
     41 ****         5.7117   0.2726  -1.1470 H              1 S1                 0.0000
     42 ****         5.9065   1.1806   0.3399 H              1 S1                 0.0000
     43 ****         5.5391  -2.1327  -1.0157 H              1 S1                 0.0000
     44 ****         5.6113  -2.8923   0.5622 H              1 S1                 0.0000
     45 ****         3.4286  -1.9451   1.2021 H              1 S1                 0.0000
     46 ****         3.2924  -2.8519  -0.2935 H              1 S1                 0.0000
     47 ****         3.4962  -0.7950  -1.4820 H              1 S1                 0.0000
     48 ****        -4.2932  -0.5523  -0.9025 LP             1 S1                 0.0000
     49 ****        -4.6231  -1.0950   0.6019 LP             1 S1                 0.0000
     50 ****        -6.8345   1.1978   0.0248 LP             1 S1                 0.0000
     51 ****        -1.2779   2.5986   1.0130 LP             1 S1                 0.0000
     52 ****         0.3106   1.9083   1.0047 LP             1 S1                 0.0000
     53 ****         5.5426  -0.7807   1.5450 LP             1 S1                 0.0000
     54 ****         6.8132  -0.9279   0.5299 LP             1 S1                 0.0000
@<TRIPOS>BOND
    1    1    2 1     
    2    1   23 1     
    3    1   24 1     
    4    1   25 1     
    5    2    3 1     
    6    3    8 ar    
    7    3    4 ar    
    8    4    5 ar    
    9    5    6 ar    
   10    5   26 1     
   11    6    7 ar    
   12    6   27 1     
   13    7    8 ar    
   14    7   28 1     
   15    8    9 1     
   16    9   10 am    
   17    9   29 1     
   18   10   11 2     
   19   10   12 am    
   20   12   13 1     
   21   12   30 1     
   22   13   14 1     
   23   13   31 1     
   24   13   32 1     
   25   14   15 1     
   26   14   16 1     
   27   14   17 1     
   28   15   33 1     
   29   15   34 1     
   30   15   35 1     
   31   16   36 1     
   32   16   37 1     
   33   16   38 1     
   34   17   22 1     
   35   17   18 1     
   36   17   47 1     
   37   18   19 1     
   38   18   39 1     
   39   18   40 1     
   40   19   20 1     
   41   19   41 1     
   42   19   42 1     
   43   20   21 1     
   44   21   22 1     
   45   21   43 1     
   46   21   44 1     
   47   22   45 1     
   48   22   46 1     
   49    2   48 1     
   50    2   49 1     
   51    4   50 1     
   52   11   51 1     
   53   11   52 1     
   54   20   53 1     
   55   20   54 1     
@<TRIPOS>SUBSTRUCTURE
      1 S1             1
@<TRIPOS>SET
LONE_PAIRS      STATIC     ATOMS    <user>   **** ""
7 48 49 50 51 52 53 54
DONOR_HYDROGENS      STATIC     ATOMS    <user>   **** ""
3 29 30 47
ATOM$BLUE        STATIC     ATOMS    COLORGROUP SYSTEM
7 48 49 50 51 52 53 54
ATOM$RED        STATIC     ATOMS    COLORGROUP SYSTEM
3 29 30 47
