AV-unprocessed.smi:1947|AV-procd|sdf|7867|dock3
  -GOLD-   2272010 13D 1   1.00000     0.00000
 Structure written by MMmdl.
 39 40  0  0  0  0  0  0  0  0  1 V2000
  151.6677  138.9898  154.9877 C   0  0  0  0  0  0  0  0  0  0  0  0
  150.7450  140.1779  155.3050 C   0  0  2  0  0  0  0  0  0  0  0  0
  150.3340  140.2048  156.7905 C   0  0  0  0  0  0  0  0  0  0  0  0
  149.4339  141.4110  157.1029 C   0  0  0  0  0  0  0  0  0  0  0  0
  148.1955  141.4344  156.1938 C   0  0  0  0  0  0  0  0  0  0  0  0
  148.5911  141.4049  154.7077 C   0  0  0  0  0  0  0  0  0  0  0  0
  149.5055  140.2083  154.3838 C   0  0  2  0  0  0  0  0  0  0  0  0
  148.7677  139.0075  154.5721 O   0  0  0  0  0  0  0  0  0  0  0  0
  147.5363  138.9609  153.8696 C   0  0  0  0  0  0  0  0  0  0  0  0
  146.7588  137.7119  154.3140 C   0  0  0  0  0  0  0  0  0  0  0  0
  146.8997  136.6169  153.3593 N   0  0  0  0  0  0  0  0  0  0  0  0
  145.9221  135.7792  152.9871 C   0  0  0  0  0  0  0  0  0  0  0  0
  144.7913  135.7952  153.4731 O   0  0  0  0  0  0  0  0  0  0  0  0
  146.3430  134.9456  152.0227 N   0  0  0  0  0  0  0  0  0  0  0  0
  145.5826  133.9907  151.3034 C   0  0  0  0  0  0  0  0  0  0  0  0
  144.2523  134.0098  151.4476 N   0  0  0  0  0  0  0  0  0  0  0  0
  143.6331  133.0179  150.6967 N   0  0  0  0  0  0  0  0  0  0  0  0
  144.5224  132.2879  150.0166 C   0  0  0  0  0  0  0  0  0  0  0  0
  146.2055  132.7382  150.2256 S   0  0  0  0  0  0  0  0  0  0  0  0
  151.1752  138.0368  155.1825 H   0  0  0  0  0  0  0  0  0  0  0  0
  152.5729  139.0234  155.5943 H   0  0  0  0  0  0  0  0  0  0  0  0
  151.9720  138.9977  153.9407 H   0  0  0  0  0  0  0  0  0  0  0  0
  151.3180  141.0855  155.1090 H   0  0  0  0  0  0  0  0  0  0  0  0
  149.8113  139.2824  157.0477 H   0  0  0  0  0  0  0  0  0  0  0  0
  151.2223  140.2402  157.4220 H   0  0  0  0  0  0  0  0  0  0  0  0
  149.1263  141.3837  158.1486 H   0  0  0  0  0  0  0  0  0  0  0  0
  150.0009  142.3333  156.9715 H   0  0  0  0  0  0  0  0  0  0  0  0
  147.5601  140.5774  156.4212 H   0  0  0  0  0  0  0  0  0  0  0  0
  147.5988  142.3228  156.4013 H   0  0  0  0  0  0  0  0  0  0  0  0
  147.6968  141.3728  154.0848 H   0  0  0  0  0  0  0  0  0  0  0  0
  149.1074  142.3317  154.4548 H   0  0  0  0  0  0  0  0  0  0  0  0
  149.8490  140.2967  153.3510 H   0  0  0  0  0  0  0  0  0  0  0  0
  146.9540  139.8606  154.0733 H   0  0  0  0  0  0  0  0  0  0  0  0
  147.7199  138.9272  152.7946 H   0  0  0  0  0  0  0  0  0  0  0  0
  147.1363  137.3685  155.2774 H   0  0  0  0  0  0  0  0  0  0  0  0
  145.7038  137.9501  154.4573 H   0  0  0  0  0  0  0  0  0  0  0  0
  147.7982  136.5266  152.9081 H   0  0  0  0  0  0  0  0  0  0  0  0
  147.3091  135.0304  151.7427 H   0  0  0  0  0  0  0  0  0  0  0  0
  144.1843  131.4772  149.3884 H   0  0  0  0  0  0  0  0  0  0  0  0
  1  2  1  0  0  0  0
  1 20  1  0  0  0  0
  1 21  1  0  0  0  0
  1 22  1  0  0  0  0
  2  7  1  0  0  0  0
  2  3  1  0  0  0  0
  2 23  1  0  0  0  0
  3  4  1  0  0  0  0
  3 24  1  0  0  0  0
  3 25  1  0  0  0  0
  4  5  1  0  0  0  0
  4 26  1  0  0  0  0
  4 27  1  0  0  0  0
  5  6  1  0  0  0  0
  5 28  1  0  0  0  0
  5 29  1  0  0  0  0
  6  7  1  0  0  0  0
  6 30  1  0  0  0  0
  6 31  1  0  0  0  0
  7  8  1  0  0  0  0
  7 32  1  0  0  0  0
  8  9  1  0  0  0  0
  9 10  1  0  0  0  0
  9 33  1  0  0  0  0
  9 34  1  0  0  0  0
 10 11  1  0  0  0  0
 10 35  1  0  0  0  0
 10 36  1  0  0  0  0
 11 12  1  0  0  0  0
 11 37  1  0  0  0  0
 12 13  2  0  0  0  0
 12 14  1  0  0  0  0
 14 15  1  0  0  0  0
 14 38  1  0  0  0  0
 15 19  1  0  0  0  0
 15 16  2  0  0  0  0
 16 17  1  0  0  0  0
 17 18  2  0  0  0  0
 18 19  1  0  0  0  0
 18 39  1  0  0  0  0
M  END
> <s_m_source_file>
AV-unprocessed.smi

> <i_m_source_file_index>
1947

> <i_lp_mmshare_version>
43012

> <i_f3d_flags>
0

> <s_epik_input>
W0NIM11bQ0BASF0xW0NIMl1bQ0gyXVtDSDJdW0NIMl1bQ0BIXTFPW0NIMl1bQ0gyXVtOSF1DKD1PKVtOSF1jMm5uW2NIXXMy

> <s_epik_cmdline>
J2VwaWtfcHl0aG9uJywgJy1waCcsICc3LjAnLCAnLXRuJywgJzgnLCAnLW1hJywgJzIwMCcsICctbWV0YWxfYmluZGluZycsICctaW1hZScsICc8aW5maWxlLm1hZT4nLCAnLW9tYWUnLCAnPG91dGZpbGUubWFlPic=

> <r_lp_tautomer_probability>
1

> <r_epik_Ionization_Penalty>
0.00220897

> <r_epik_Ionization_Penalty_Charging>
0

> <r_epik_Ionization_Penalty_Neutral>
0.00220897

> <r_epik_State_Penalty>
-0

> <r_epik_Charging_Adjusted_Penalty>
0

> <i_epik_Tot_Q>
0

> <i_epik_Tot_abs_Q>
0

> <r_epik_Metal_State_Penalty>
0.345002

> <b_epik_Metal_Only>
0

> <s_lp_Force_Field>
OPLS_2005

> <r_lp_Energy>
8.93842

> <b_lp_Chiralities_Consistent>
1

> <s_lp_Variant>
AV-unprocessed.smi:1947-3

> <Gold.Version>
5.8.1

> <Gold.Id.Protein>
6NUR|6NUR_protein|mol2

> <Gold.PLP.Fitness>
33.4435

> <Gold.PLP.PLP>
-28.6393

> <Gold.PLP.part.hbond>
-2.0000

> <Gold.PLP.part.metal>
0.0000

> <Gold.PLP.part.buried>
-3.9727

> <Gold.PLP.part.nonpolar>
-23.5516

> <Gold.PLP.part.repulsive>
0.5514

> <Gold.PLP.ligand.clash>
0.0000

> <Gold.PLP.ligand.torsion>
0.4769

> <Gold.PLP.Chemscore.Hbond>
1.9120

> <Gold.PLP.Chemscore.CHOScore>
0.0000

> <Gold.PLP.Chemscore.Metal>
0.0000

> <Gold.Chemscore.Hbonds>
donor molecule, donor type, donor heavy atom, donor atom, acceptor molecule, acceptor atom, score
      L1  H    11    37       P1  7948  1.00
      L1  H    14    38       P1  7948  0.91

> <Gold.PLP.Chemscore.Internal.Correction>
0.0221

> <Gold.Rescore>
     Score         DG    S(hbond)    S(metal)    S(lipo)     H(rot)  DE(clash)    DE(int)     intcor
     12.59     -14.54       1.79        0.00      68.73       1.94       0.02       1.93       ----

> <Gold.Chemscore.Fitness>
12.5858

> <Gold.Chemscore.DG>
-14.5366

> <Gold.Chemscore.ZeroCoef>
-5.4800

> <Gold.Chemscore.Hbond>
1.7896

> <Gold.Chemscore.Metal>
0.0000

> <Gold.Chemscore.Lipo>
68.7348

> <Gold.Chemscore.Internal_Hbond>
0.0000

> <Gold.Chemscore.DEClash>
0.0228

> <Gold.Chemscore.DEInternal>
1.9280

> <Gold.Chemscore.Rot>
1.9385

> <Gold.Chemscore.Internal.Correction>
   9.000000E+99

> <Gold.Chemscore.Hbonds>
donor molecule, donor type, donor heavy atom, donor atom, acceptor molecule, acceptor atom, score
      L1  H    11    37       P1  7948  0.98
      L1  H    14    38       P1  7948  0.75

> <Gold.Chemscore.Hbond.Weighted>
-5.9772

> <Gold.Chemscore.Metal.Weighted>
-0.0000

> <Gold.Chemscore.Lipo.Weighted>
-8.0420

> <Gold.Chemscore.Internal_Hbond.Weighted>
0.0000

> <Gold.Chemscore.DEClash.Weighted>
0.0228

> <Gold.Chemscore.DEInternal.Weighted>
1.9280

> <Gold.Chemscore.Rot.Weighted>
4.9625

> <Gold.Chemscore.Internal.Correction.Weighted>
   9.000000E+99

> <Gold.Protein.RotatedTorsions>
[ 6907 6896 6895 6894 ] final  -54.79 input  -60.11 | X-H torsion
[ 7974 7965 7964 7962 ] final   38.41 input  175.53 | X-H torsion
[ 8008 7997 7996 7995 ] final    4.11 input   59.86 | X-H torsion
[ 10167 10162 10161 10158 ] final -148.54 input  -65.29 | X-H torsion
[ 10718 10713 10712 10709 ] final  112.91 input   66.30 | X-H torsion
[ 10763 10752 10751 10750 ] final   99.78 input  -60.55 | X-H torsion
[ 11005 11000 10999 10996 ] final -135.65 input  -57.11 | X-H torsion

> <Gold.Protein.ActiveResidues>
 VAL166  LYS551  ARG553  GLY616  TRP617  ASP618  TYR619  PRO620  LYS621  CYS622 
 ASP623  PHE694  ASN695  SER759  ASP760  ASP761  ALA762  ILE779  LEU786  VAL792 
 PHE793  MET794  SER795  GLU796  ALA797  LYS798  CYS799  TRP800  GLU811  SER814 

> <Gold.Protein.RotatedAtoms>
  150.8307  134.7559  159.6851 H   0  0  0  0  0  0  0  0  0  0  0  0  # atno 6907 bound_to 6896
  152.4412  134.5583  159.9896 H   0  0  0  0  0  0  0  0  0  0  0  0  # atno 6908 bound_to 6896
  151.5745  133.3348  159.3032 H   0  0  0  0  0  0  0  0  0  0  0  0  # atno 6909 bound_to 6896
  146.1064  139.5776  142.9381 H   0  0  0  0  0  0  0  0  0  0  0  0  # atno 7974 bound_to 7965
  154.7118  140.2694  155.6622 H   0  0  0  0  0  0  0  0  0  0  0  0  # atno 8008 bound_to 7997
  156.2798  140.2751  156.1687 H   0  0  0  0  0  0  0  0  0  0  0  0  # atno 8009 bound_to 7997
  155.0624  140.0371  157.2571 H   0  0  0  0  0  0  0  0  0  0  0  0  # atno 8010 bound_to 7997
  139.7522  143.8501  152.2589 H   0  0  0  0  0  0  0  0  0  0  0  0  # atno 10167 bound_to 10162
  157.6367  131.0975  150.6963 H   0  0  0  0  0  0  0  0  0  0  0  0  # atno 10718 bound_to 10713
  153.3056  135.4102  155.1291 H   0  0  0  0  0  0  0  0  0  0  0  0  # atno 10763 bound_to 10752
  154.8562  135.3552  154.5792 H   0  0  0  0  0  0  0  0  0  0  0  0  # atno 10764 bound_to 10752
  153.6219  135.7064  153.5366 H   0  0  0  0  0  0  0  0  0  0  0  0  # atno 10765 bound_to 10752
  140.8878  134.1850  157.4548 H   0  0  0  0  0  0  0  0  0  0  0  0  # atno 11005 bound_to 11000
  145.5752  141.0389  143.2152 LP  0  0  0  0  0  0  0  0  0  0  0  0  # atno 17320 bound_to 7965
  144.7474  139.7282  143.7286 LP  0  0  0  0  0  0  0  0  0  0  0  0  # atno 17321 bound_to 7965
  139.8482  144.7177  150.9246 LP  0  0  0  0  0  0  0  0  0  0  0  0  # atno 17342 bound_to 10162
  140.7799  143.3922  151.1290 LP  0  0  0  0  0  0  0  0  0  0  0  0  # atno 17343 bound_to 10162
  156.7294  130.4705  149.5503 LP  0  0  0  0  0  0  0  0  0  0  0  0  # atno 17370 bound_to 10713
  156.1612  130.6375  151.0721 LP  0  0  0  0  0  0  0  0  0  0  0  0  # atno 17371 bound_to 10713
  139.8726  134.9845  156.5244 LP  0  0  0  0  0  0  0  0  0  0  0  0  # atno 17394 bound_to 11000
  140.8383  133.8225  155.9050 LP  0  0  0  0  0  0  0  0  0  0  0  0  # atno 17395 bound_to 11000

$$$$
