AV-unprocessed.smi:2502|AV-procd|sdf|9845|dock7
  -GOLD-   2272013473D 1   1.00000     0.00000
 Structure written by MMmdl.
 39 41  0  0  0  0  0  0  0  0  1 V2000
  150.1877  139.9966  154.2881 O   0  0  0  0  0  0  0  0  0  0  0  0
  150.3196  140.2905  155.6652 C   0  0  2  0  0  0  0  0  0  0  0  0
  149.0152  140.9237  156.1758 C   0  0  0  0  0  0  0  0  0  0  0  0
  147.8972  140.1729  155.7216 O   0  0  0  0  0  0  0  0  0  0  0  0
  146.8484  140.9519  155.1603 C   0  0  0  0  0  0  0  0  0  0  0  0
  147.3862  142.0001  154.1701 C   0  0  0  0  0  0  0  0  0  0  0  0
  146.2631  142.9558  153.7353 C   0  0  0  0  0  0  0  0  0  0  0  0
  145.6775  143.5747  154.8762 O   0  0  0  0  0  0  0  0  0  0  0  0
  145.0712  142.6423  155.7650 C   0  0  0  0  0  0  0  0  0  0  0  0
  146.1321  141.6722  156.3100 C   0  0  0  0  0  0  0  0  0  0  0  0
  151.5739  141.1432  155.9428 C   0  0  0  0  0  0  0  0  0  0  0  0
  152.0787  140.9595  157.2920 N   0  0  0  0  0  0  0  0  0  0  0  0
  152.6265  139.7616  157.6427 N   0  0  0  0  0  0  0  0  0  0  0  0
  153.0172  139.8290  158.8802 N   0  0  0  0  0  0  0  0  0  0  0  0
  152.7188  141.0952  159.3553 C   0  0  0  0  0  0  0  0  0  0  0  0
  152.9246  141.7016  160.6145 C   0  0  0  0  0  0  0  0  0  0  0  0
  152.5179  143.0350  160.8400 C   0  0  0  0  0  0  0  0  0  0  0  0
  152.7880  143.7416  162.3935 Cl  0  0  0  0  0  0  0  0  0  0  0  0
  151.8995  143.7781  159.8055 C   0  0  0  0  0  0  0  0  0  0  0  0
  151.3944  145.4097  160.0655 Cl  0  0  0  0  0  0  0  0  0  0  0  0
  151.6902  143.1867  158.5436 C   0  0  0  0  0  0  0  0  0  0  0  0
  152.1018  141.8585  158.3404 C   0  0  0  0  0  0  0  0  0  0  0  0
  149.8229  139.1294  154.1992 H   0  0  0  0  0  0  0  0  0  0  0  0
  150.4343  139.3294  156.1681 H   0  0  0  0  0  0  0  0  0  0  0  0
  149.0335  140.9992  157.2632 H   0  0  0  0  0  0  0  0  0  0  0  0
  148.9384  141.9399  155.7859 H   0  0  0  0  0  0  0  0  0  0  0  0
  146.1288  140.3018  154.6590 H   0  0  0  0  0  0  0  0  0  0  0  0
  148.1879  142.5723  154.6383 H   0  0  0  0  0  0  0  0  0  0  0  0
  147.8152  141.5221  153.2900 H   0  0  0  0  0  0  0  0  0  0  0  0
  146.6636  143.7309  153.0819 H   0  0  0  0  0  0  0  0  0  0  0  0
  145.4993  142.4241  153.1658 H   0  0  0  0  0  0  0  0  0  0  0  0
  144.6073  143.1898  156.5858 H   0  0  0  0  0  0  0  0  0  0  0  0
  144.2740  142.1012  155.2529 H   0  0  0  0  0  0  0  0  0  0  0  0
  145.6699  140.9459  156.9792 H   0  0  0  0  0  0  0  0  0  0  0  0
  146.8572  142.2287  156.9051 H   0  0  0  0  0  0  0  0  0  0  0  0
  152.3712  140.8966  155.2405 H   0  0  0  0  0  0  0  0  0  0  0  0
  151.3498  142.2011  155.7985 H   0  0  0  0  0  0  0  0  0  0  0  0
  153.3966  141.1406  161.4076 H   0  0  0  0  0  0  0  0  0  0  0  0
  151.2217  143.7436  157.7454 H   0  0  0  0  0  0  0  0  0  0  0  0
  1  2  1  0  0  0  0
  1 23  1  0  0  0  0
  2  3  1  0  0  0  0
  2 11  1  0  0  0  0
  2 24  1  0  0  0  0
  3  4  1  0  0  0  0
  3 25  1  0  0  0  0
  3 26  1  0  0  0  0
  4  5  1  0  0  0  0
  5 10  1  0  0  0  0
  5  6  1  0  0  0  0
  5 27  1  0  0  0  0
  6  7  1  0  0  0  0
  6 28  1  0  0  0  0
  6 29  1  0  0  0  0
  7  8  1  0  0  0  0
  7 30  1  0  0  0  0
  7 31  1  0  0  0  0
  8  9  1  0  0  0  0
  9 10  1  0  0  0  0
  9 32  1  0  0  0  0
  9 33  1  0  0  0  0
 10 34  1  0  0  0  0
 10 35  1  0  0  0  0
 11 12  1  0  0  0  0
 11 36  1  0  0  0  0
 11 37  1  0  0  0  0
 12 22  1  0  0  0  0
 12 13  1  0  0  0  0
 13 14  2  0  0  0  0
 14 15  1  0  0  0  0
 15 22  2  0  0  0  0
 15 16  1  0  0  0  0
 16 17  2  0  0  0  0
 16 38  1  0  0  0  0
 17 18  1  0  0  0  0
 17 19  1  0  0  0  0
 19 20  1  0  0  0  0
 19 21  2  0  0  0  0
 21 22  1  0  0  0  0
 21 39  1  0  0  0  0
M  END
> <s_m_source_file>
AV-unprocessed.smi

> <i_m_source_file_index>
2502

> <i_lp_mmshare_version>
43012

> <i_f3d_flags>
0

> <s_epik_input>
W2NIXTFjKENsKWMoQ2wpW2NIXWMoYzEyKW4obm4yKVtDSDJdW0NASF0oW09IXSlbQ0gyXU9bQ0hdM1tDSDJdW0NIMl1PW0NIMl1bQ0gyXTM=

> <s_epik_cmdline>
J2VwaWtfcHl0aG9uJywgJy1waCcsICc3LjAnLCAnLXRuJywgJzgnLCAnLW1hJywgJzIwMCcsICctbWV0YWxfYmluZGluZycsICctaW1hZScsICc8aW5maWxlLm1hZT4nLCAnLW9tYWUnLCAnPG91dGZpbGUubWFlPic=

> <r_lp_tautomer_probability>
1

> <r_epik_Ionization_Penalty>
2.65748e-06

> <r_epik_Ionization_Penalty_Charging>
0

> <r_epik_Ionization_Penalty_Neutral>
2.65748e-06

> <r_epik_State_Penalty>
-0

> <r_epik_Charging_Adjusted_Penalty>
0

> <i_epik_Tot_Q>
0

> <i_epik_Tot_abs_Q>
0

> <r_epik_Metal_State_Penalty>
-0

> <b_epik_Metal_Only>
0

> <s_lp_Force_Field>
OPLS_2005

> <r_lp_Energy>
14.9544

> <b_lp_Chiralities_Consistent>
1

> <s_lp_Variant>
AV-unprocessed.smi:2502-1

> <Gold.Version>
5.8.1

> <Gold.Id.Protein>
6NUR|6NUR_protein|mol2

> <Gold.PLP.Fitness>
46.9905

> <Gold.PLP.PLP>
-43.0127

> <Gold.PLP.part.hbond>
-2.7066

> <Gold.PLP.part.metal>
0.0000

> <Gold.PLP.part.buried>
-6.6555

> <Gold.PLP.part.nonpolar>
-32.1178

> <Gold.PLP.part.repulsive>
0.2228

> <Gold.PLP.ligand.clash>
0.0000

> <Gold.PLP.ligand.torsion>
0.8131

> <Gold.PLP.Chemscore.Hbond>
1.8500

> <Gold.PLP.Chemscore.CHOScore>
0.0000

> <Gold.PLP.Chemscore.Metal>
0.0000

> <Gold.Chemscore.Hbonds>
donor molecule, donor type, donor heavy atom, donor atom, acceptor molecule, acceptor atom, score
      P1  H  7989  7998       L1     1  1.00
      P1  H  7997  8008       L1    13  0.68

> <Gold.PLP.Chemscore.Internal.Correction>
0.0540

> <Gold.Rescore>
     Score         DG    S(hbond)    S(metal)    S(lipo)     H(rot)  DE(clash)    DE(int)     intcor
     15.55     -18.12       1.08        0.00     125.48       2.21       1.68       0.89       ----

> <Gold.Chemscore.Fitness>
15.5536

> <Gold.Chemscore.DG>
-18.1235

> <Gold.Chemscore.ZeroCoef>
-5.4800

> <Gold.Chemscore.Hbond>
1.0812

> <Gold.Chemscore.Metal>
0.0000

> <Gold.Chemscore.Lipo>
125.4773

> <Gold.Chemscore.Internal_Hbond>
0.0000

> <Gold.Chemscore.DEClash>
1.6811

> <Gold.Chemscore.DEInternal>
0.8888

> <Gold.Chemscore.Rot>
2.2065

> <Gold.Chemscore.Internal.Correction>
   9.000000E+99

> <Gold.Chemscore.Hbonds>
donor molecule, donor type, donor heavy atom, donor atom, acceptor molecule, acceptor atom, score
      P1  H  7989  7998       L1     1  0.49
      P1  H  7997  8008       L1    13  0.02

> <Gold.Chemscore.Hbond.Weighted>
-3.6111

> <Gold.Chemscore.Metal.Weighted>
-0.0000

> <Gold.Chemscore.Lipo.Weighted>
-14.6808

> <Gold.Chemscore.Internal_Hbond.Weighted>
0.0000

> <Gold.Chemscore.DEClash.Weighted>
1.6811

> <Gold.Chemscore.DEInternal.Weighted>
0.8888

> <Gold.Chemscore.Rot.Weighted>
5.6485

> <Gold.Chemscore.Internal.Correction.Weighted>
   9.000000E+99

> <Gold.Protein.RotatedTorsions>
[ 6907 6896 6895 6894 ] final  -18.19 input  -60.11 | X-H torsion
[ 7974 7965 7964 7962 ] final   42.16 input  175.53 | X-H torsion
[ 8008 7997 7996 7995 ] final  -59.12 input   59.86 | X-H torsion
[ 10167 10162 10161 10158 ] final  -24.02 input  -65.29 | X-H torsion
[ 10718 10713 10712 10709 ] final -157.42 input   66.30 | X-H torsion
[ 10763 10752 10751 10750 ] final   21.43 input  -60.55 | X-H torsion
[ 11005 11000 10999 10996 ] final  110.89 input  -57.11 | X-H torsion

> <Gold.Protein.ActiveResidues>
 VAL166  LYS551  ARG553  GLY616  TRP617  ASP618  TYR619  PRO620  LYS621  CYS622 
 ASP623  PHE694  ASN695  SER759  ASP760  ASP761  ALA762  ILE779  LEU786  VAL792 
 PHE793  MET794  SER795  GLU796  ALA797  LYS798  CYS799  TRP800  GLU811  SER814 

> <Gold.Protein.RotatedAtoms>
  151.2820  135.0716  159.9172 H   0  0  0  0  0  0  0  0  0  0  0  0  # atno 6907 bound_to 6896
  152.5332  134.0021  159.7910 H   0  0  0  0  0  0  0  0  0  0  0  0  # atno 6908 bound_to 6896
  151.0276  133.5769  159.2695 H   0  0  0  0  0  0  0  0  0  0  0  0  # atno 6909 bound_to 6896
  146.0764  139.5333  142.9565 H   0  0  0  0  0  0  0  0  0  0  0  0  # atno 7974 bound_to 7965
  154.4338  140.1069  156.6065 H   0  0  0  0  0  0  0  0  0  0  0  0  # atno 8008 bound_to 7997
  155.5855  140.3491  155.4533 H   0  0  0  0  0  0  0  0  0  0  0  0  # atno 8009 bound_to 7997
  156.0286  140.1255  157.0272 H   0  0  0  0  0  0  0  0  0  0  0  0  # atno 8010 bound_to 7997
  140.7288  143.4390  151.0685 H   0  0  0  0  0  0  0  0  0  0  0  0  # atno 10167 bound_to 10162
  156.5400  130.8559  151.2745 H   0  0  0  0  0  0  0  0  0  0  0  0  # atno 10718 bound_to 10713
  153.0996  135.6669  153.9698 H   0  0  0  0  0  0  0  0  0  0  0  0  # atno 10763 bound_to 10752
  153.9272  135.3008  155.3448 H   0  0  0  0  0  0  0  0  0  0  0  0  # atno 10764 bound_to 10752
  154.7416  135.5077  153.9208 H   0  0  0  0  0  0  0  0  0  0  0  0  # atno 10765 bound_to 10752
  139.8891  134.9495  156.6348 H   0  0  0  0  0  0  0  0  0  0  0  0  # atno 11005 bound_to 11000
  145.6299  141.0306  143.1869 LP  0  0  0  0  0  0  0  0  0  0  0  0  # atno 17320 bound_to 7965
  144.7264  139.7862  143.7363 LP  0  0  0  0  0  0  0  0  0  0  0  0  # atno 17321 bound_to 7965
  139.8056  143.8023  152.3167 LP  0  0  0  0  0  0  0  0  0  0  0  0  # atno 17342 bound_to 10162
  139.8055  144.7357  150.9767 LP  0  0  0  0  0  0  0  0  0  0  0  0  # atno 17343 bound_to 10162
  157.7407  130.9855  150.2395 LP  0  0  0  0  0  0  0  0  0  0  0  0  # atno 17370 bound_to 10713
  156.2980  130.3754  149.7777 LP  0  0  0  0  0  0  0  0  0  0  0  0  # atno 17371 bound_to 10713
  140.7639  133.8794  155.8439 LP  0  0  0  0  0  0  0  0  0  0  0  0  # atno 17394 bound_to 11000
  140.9899  134.1293  157.4418 LP  0  0  0  0  0  0  0  0  0  0  0  0  # atno 17395 bound_to 11000

$$$$
