AV-unprocessed.smi:866|AV-procd|sdf|3992|dock6
  -GOLD-   22720 1473D 1   1.00000     0.00000
 Structure written by MMmdl.
 34 34  0  0  0  0  0  0  0  0  2 V2000
  153.2595  142.5389  162.2902 C   0  0  0  0  0  0  0  0  0  0  0  0
  152.6492  143.1946  161.0850 C   0  0  0  0  0  0  0  0  0  0  0  0
  151.9494  144.4331  161.0229 C   0  0  0  0  0  0  0  0  0  0  0  0
  151.5345  144.7284  159.8018 N   0  0  0  0  0  0  0  0  0  0  0  0
  151.9508  143.6920  159.0444 N   0  0  0  0  0  0  0  0  0  0  0  0
  151.6640  143.6804  157.6230 C   0  0  0  0  0  0  0  0  0  0  0  0
  150.9243  142.4024  157.2029 C   0  0  0  0  0  0  0  0  0  0  0  0
  150.3548  142.5445  155.8473 N   0  3  0  0  0  0  0  0  0  0  0  0
  149.6260  141.3578  155.3380 C   0  0  2  0  0  0  0  0  0  0  0  0
  150.5989  140.2097  155.0192 C   0  0  0  0  0  0  0  0  0  0  0  0
  148.7897  141.7236  154.0891 C   0  0  0  0  0  0  0  0  0  0  0  0
  147.6791  140.7228  153.7386 C   0  0  0  0  0  0  0  0  0  0  0  0
  147.7813  140.1065  152.5589 N   0  0  0  0  0  0  0  0  0  0  0  0
  146.7460  140.5046  154.5094 O   0  0  0  0  0  0  0  0  0  0  0  0
  152.6297  142.7535  159.7921 C   0  0  0  0  0  0  0  0  0  0  0  0
  153.1531  143.1537  163.1842 H   0  0  0  0  0  0  0  0  0  0  0  0
  154.3251  142.3557  162.1521 H   0  0  0  0  0  0  0  0  0  0  0  0
  152.7919  141.5777  162.5045 H   0  0  0  0  0  0  0  0  0  0  0  0
  151.7315  145.1223  161.8255 H   0  0  0  0  0  0  0  0  0  0  0  0
  151.0707  144.5640  157.3825 H   0  0  0  0  0  0  0  0  0  0  0  0
  152.6048  143.7717  157.0788 H   0  0  0  0  0  0  0  0  0  0  0  0
  151.6103  141.5557  157.2310 H   0  0  0  0  0  0  0  0  0  0  0  0
  150.1186  142.1900  157.9071 H   0  0  0  0  0  0  0  0  0  0  0  0
  149.6940  143.3080  155.8848 H   0  0  0  0  0  0  0  0  0  0  0  0
  148.9408  141.0153  156.1155 H   0  0  0  0  0  0  0  0  0  0  0  0
  150.0644  139.3434  154.6279 H   0  0  0  0  0  0  0  0  0  0  0  0
  151.1384  139.8760  155.9054 H   0  0  0  0  0  0  0  0  0  0  0  0
  151.3352  140.5084  154.2721 H   0  0  0  0  0  0  0  0  0  0  0  0
  148.3433  142.7105  154.2204 H   0  0  0  0  0  0  0  0  0  0  0  0
  149.4470  141.7975  153.2215 H   0  0  0  0  0  0  0  0  0  0  0  0
  147.0762  139.4441  152.2692 H   0  0  0  0  0  0  0  0  0  0  0  0
  148.5627  140.3121  151.9525 H   0  0  0  0  0  0  0  0  0  0  0  0
  153.0375  141.8573  159.3484 H   0  0  0  0  0  0  0  0  0  0  0  0
  151.0885  142.7870  155.1972 H   0  0  0  0  0  0  0  0  0  0  0  0
  1  2  1  0  0  0  0
  1 16  1  0  0  0  0
  1 17  1  0  0  0  0
  1 18  1  0  0  0  0
  2 15  2  0  0  0  0
  2  3  1  0  0  0  0
  3  4  2  0  0  0  0
  3 19  1  0  0  0  0
  4  5  1  0  0  0  0
  5  6  1  0  0  0  0
  5 15  1  0  0  0  0
  6  7  1  0  0  0  0
  6 20  1  0  0  0  0
  6 21  1  0  0  0  0
  7  8  1  0  0  0  0
  7 22  1  0  0  0  0
  7 23  1  0  0  0  0
  8  9  1  0  0  0  0
  8 24  1  0  0  0  0
  8 34  1  0  0  0  0
  9 10  1  0  0  0  0
  9 11  1  0  0  0  0
  9 25  1  0  0  0  0
 10 26  1  0  0  0  0
 10 27  1  0  0  0  0
 10 28  1  0  0  0  0
 11 12  1  0  0  0  0
 11 29  1  0  0  0  0
 11 30  1  0  0  0  0
 12 13  1  0  0  0  0
 12 14  2  0  0  0  0
 13 31  1  0  0  0  0
 13 32  1  0  0  0  0
 15 33  1  0  0  0  0
M  CHG  1   8   1
M  END
> <s_m_source_file>
AV-unprocessed.smi

> <i_m_source_file_index>
866

> <i_lp_mmshare_version>
43012

> <i_f3d_flags>
0

> <s_epik_input>
W0NIM11jMVtjSF1ubihbY0hdMSlbQ0gyXVtDSDJdW05IXVtDQEhdKFtDSDNdKVtDSDJdQyg9TylbTkgyXQ==

> <s_epik_cmdline>
J2VwaWtfcHl0aG9uJywgJy1waCcsICc3LjAnLCAnLXRuJywgJzgnLCAnLW1hJywgJzIwMCcsICctbWV0YWxfYmluZGluZycsICctaW1hZScsICc8aW5maWxlLm1hZT4nLCAnLW9tYWUnLCAnPG91dGZpbGUubWFlPic=

> <r_lp_tautomer_probability>
1

> <r_epik_Ionization_Penalty>
0.0061413

> <r_epik_Ionization_Penalty_Charging>
0.00613574

> <r_epik_Ionization_Penalty_Neutral>
5.56035e-06

> <r_epik_State_Penalty>
0.00452343

> <r_epik_Charging_Adjusted_Penalty>
0.0106592

> <i_epik_Tot_Q>
1

> <i_epik_Tot_abs_Q>
1

> <r_epik_Metal_State_Penalty>
-0

> <b_epik_Metal_Only>
0

> <s_lp_Force_Field>
OPLS_2005

> <r_lp_Energy>
1.4749

> <b_lp_Chiralities_Consistent>
1

> <s_lp_Variant>
AV-unprocessed.smi:866-1

> <Gold.Version>
5.8.1

> <Gold.Id.Protein>
6NUR|6NUR_protein|mol2

> <Gold.PLP.Fitness>
47.6776

> <Gold.PLP.PLP>
-39.1627

> <Gold.PLP.part.hbond>
-2.0000

> <Gold.PLP.part.metal>
0.0000

> <Gold.PLP.part.buried>
-3.5978

> <Gold.PLP.part.nonpolar>
-34.2878

> <Gold.PLP.part.repulsive>
0.4162

> <Gold.PLP.ligand.clash>
0.0000

> <Gold.PLP.ligand.torsion>
0.2807

> <Gold.PLP.Chemscore.Hbond>
3.0000

> <Gold.PLP.Chemscore.CHOScore>
0.0000

> <Gold.PLP.Chemscore.Metal>
0.0000

> <Gold.Chemscore.Hbonds>
donor molecule, donor type, donor heavy atom, donor atom, acceptor molecule, acceptor atom, score
      L1  H     8    24       P1  8028  2.00
      L1  H    13    32       P1  7957  0.49

> <Gold.PLP.Chemscore.Internal.Correction>
0.0763

> <Gold.Rescore>
     Score         DG    S(hbond)    S(metal)    S(lipo)     H(rot)  DE(clash)    DE(int)     intcor
     14.95     -15.38       2.00        0.00      88.29       2.77       0.20       0.23       ----

> <Gold.Chemscore.Fitness>
14.9483

> <Gold.Chemscore.DG>
-15.3838

> <Gold.Chemscore.ZeroCoef>
-5.4800

> <Gold.Chemscore.Hbond>
1.9985

> <Gold.Chemscore.Metal>
0.0000

> <Gold.Chemscore.Lipo>
88.2915

> <Gold.Chemscore.Internal_Hbond>
0.0000

> <Gold.Chemscore.DEClash>
0.2038

> <Gold.Chemscore.DEInternal>
0.2317

> <Gold.Chemscore.Rot>
2.7740

> <Gold.Chemscore.Internal.Correction>
   9.000000E+99

> <Gold.Chemscore.Hbonds>
donor molecule, donor type, donor heavy atom, donor atom, acceptor molecule, acceptor atom, score
      L1  H     8    24       P1  8028  1.00
      L1  H    13    32       P1  7957  0.47

> <Gold.Chemscore.Hbond.Weighted>
-6.6752

> <Gold.Chemscore.Metal.Weighted>
-0.0000

> <Gold.Chemscore.Lipo.Weighted>
-10.3301

> <Gold.Chemscore.Internal_Hbond.Weighted>
0.0000

> <Gold.Chemscore.DEClash.Weighted>
0.2038

> <Gold.Chemscore.DEInternal.Weighted>
0.2317

> <Gold.Chemscore.Rot.Weighted>
7.1014

> <Gold.Chemscore.Internal.Correction.Weighted>
   9.000000E+99

> <Gold.Protein.RotatedTorsions>
[ 6907 6896 6895 6894 ] final -127.21 input  -60.11 | X-H torsion
[ 7974 7965 7964 7962 ] final  -82.93 input  175.53 | X-H torsion
[ 8008 7997 7996 7995 ] final  121.01 input   59.86 | X-H torsion
[ 10167 10162 10161 10158 ] final  -49.11 input  -65.29 | X-H torsion
[ 10718 10713 10712 10709 ] final -163.52 input   66.30 | X-H torsion
[ 10763 10752 10751 10750 ] final  118.36 input  -60.55 | X-H torsion
[ 11005 11000 10999 10996 ] final -173.67 input  -57.11 | X-H torsion

> <Gold.Protein.ActiveResidues>
 VAL166  LYS551  ARG553  GLY616  TRP617  ASP618  TYR619  PRO620  LYS621  CYS622 
 ASP623  PHE694  ASN695  SER759  ASP760  ASP761  ALA762  ILE779  LEU786  VAL792 
 PHE793  MET794  SER795  GLU796  ALA797  LYS798  CYS799  TRP800  GLU811  SER814 

> <Gold.Protein.RotatedAtoms>
  150.9049  133.7071  159.2869 H   0  0  0  0  0  0  0  0  0  0  0  0  # atno 6907 bound_to 6896
  151.4577  135.1034  159.9725 H   0  0  0  0  0  0  0  0  0  0  0  0  # atno 6908 bound_to 6896
  152.4898  133.8419  159.7212 H   0  0  0  0  0  0  0  0  0  0  0  0  # atno 6909 bound_to 6896
  145.5268  140.9525  143.1625 H   0  0  0  0  0  0  0  0  0  0  0  0  # atno 7974 bound_to 7965
  156.2668  140.2818  156.1240 H   0  0  0  0  0  0  0  0  0  0  0  0  # atno 8008 bound_to 7997
  155.1125  140.0391  157.2745 H   0  0  0  0  0  0  0  0  0  0  0  0  # atno 8009 bound_to 7997
  154.6731  140.2592  155.6992 H   0  0  0  0  0  0  0  0  0  0  0  0  # atno 8010 bound_to 7997
  140.6700  143.2711  151.4168 H   0  0  0  0  0  0  0  0  0  0  0  0  # atno 10167 bound_to 10162
  156.6258  130.8909  151.2967 H   0  0  0  0  0  0  0  0  0  0  0  0  # atno 10718 bound_to 10713
  153.5664  135.3510  155.2820 H   0  0  0  0  0  0  0  0  0  0  0  0  # atno 10763 bound_to 10752
  154.8688  135.4149  154.2773 H   0  0  0  0  0  0  0  0  0  0  0  0  # atno 10764 bound_to 10752
  153.3530  135.7056  153.6843 H   0  0  0  0  0  0  0  0  0  0  0  0  # atno 10765 bound_to 10752
  140.4831  134.6056  157.4927 H   0  0  0  0  0  0  0  0  0  0  0  0  # atno 11005 bound_to 11000
  144.7647  139.6873  143.7220 LP  0  0  0  0  0  0  0  0  0  0  0  0  # atno 17320 bound_to 7965
  146.2070  139.5401  142.9706 LP  0  0  0  0  0  0  0  0  0  0  0  0  # atno 17321 bound_to 7965
  139.5964  144.1388  152.2149 LP  0  0  0  0  0  0  0  0  0  0  0  0  # atno 17342 bound_to 10162
  140.0759  144.5741  150.7158 LP  0  0  0  0  0  0  0  0  0  0  0  0  # atno 17343 bound_to 10162
  157.7214  130.9564  150.1456 LP  0  0  0  0  0  0  0  0  0  0  0  0  # atno 17370 bound_to 10713
  156.2274  130.3679  149.8484 LP  0  0  0  0  0  0  0  0  0  0  0  0  # atno 17371 bound_to 10713
  139.9814  134.7130  155.9852 LP  0  0  0  0  0  0  0  0  0  0  0  0  # atno 17394 bound_to 11000
  141.1521  133.6547  156.4047 LP  0  0  0  0  0  0  0  0  0  0  0  0  # atno 17395 bound_to 11000

$$$$
