#       Name:                AV-unprocessed.smi:99
#       Creating user name   scv26
#       Creation time:       Thu Mar 26 17:31:36 2020


#       File generated by GOLD software.
#

@<TRIPOS>MOLECULE
AV-unprocessed.smi:99
    65    68     1
SMALL
NO_CHARGES


@<TRIPOS>ATOM
      1 ****        -4.1086  -0.7192   0.5068 O.2            1 S1                 0.0000
      2 ****        -3.2528  -0.0428  -0.0664 C.2            1 S1                 0.0000
      3 ****        -2.0464  -0.5170  -0.4327 O.3            1 S1                 0.0000
      4 ****        -1.6484  -1.8329  -0.0822 C.3            1 S1                 0.0000
      5 ****        -0.1166  -1.9095  -0.1038 C.3            1 S1                 0.0000
      6 ****         0.3054  -3.2616   0.0486 O.3            1 S1                 0.0000
      7 ****         1.5883  -3.3062   0.6109 C.3            1 S1                 0.0000
      8 ****         2.5617  -3.8825  -0.3981 N.am           1 S1                 0.0000
      9 ****         2.3230  -3.8425  -1.7664 C.2            1 S1                 0.0000
     10 ****         3.1865  -4.3452  -2.6805 C.2            1 S1                 0.0000
     11 ****         4.4386  -4.9635  -2.2563 C.2            1 S1                 0.0000
     12 ****         5.2801  -5.4491  -3.0090 O.2            1 S1                 0.0000
     13 ****         4.6419  -4.9724  -0.8735 N.am           1 S1                 0.0000
     14 ****         3.7618  -4.4540   0.0775 C.2            1 S1                 0.0000
     15 ****         4.0469  -4.5007   1.2737 O.2            1 S1                 0.0000
     16 ****         1.9524  -1.8690   1.0535 C.3            1 S1                 0.0000
     17 ****         2.8215  -1.2128   0.1412 O.3            1 S1                 0.0000
     18 ****         0.5761  -1.2232   1.0725 C.3            1 S1                 0.0000
     19 ****         0.6487   0.1976   0.9793 O.3            1 S1                 0.0000
     20 ****        -0.1500   0.9920   1.7264 C.2            1 S1                 0.0000
     21 ****        -0.9405   0.5702   2.5726 O.2            1 S1                 0.0000
     22 ****        -0.0061   2.4363   1.3882 C.ar           1 S1                 0.0000
     23 ****        -0.8754   3.3771   1.9878 C.ar           1 S1                 0.0000
     24 ****        -0.7814   4.7454   1.6682 C.ar           1 S1                 0.0000
     25 ****         0.1850   5.1896   0.7475 C.ar           1 S1                 0.0000
     26 ****         1.0577   4.2640   0.1467 C.ar           1 S1                 0.0000
     27 ****         0.9642   2.8948   0.4636 C.ar           1 S1                 0.0000
     28 ****        -3.4294   1.3997  -0.4028 C.ar           1 S1                 0.0000
     29 ****        -4.6045   2.0696   0.0098 C.ar           1 S1                 0.0000
     30 ****        -4.7868   3.4374  -0.2723 C.ar           1 S1                 0.0000
     31 ****        -3.7971   4.1519  -0.9720 C.ar           1 S1                 0.0000
     32 ****        -2.6257   3.4959  -1.3923 C.ar           1 S1                 0.0000
     33 ****        -2.4421   2.1281  -1.1117 C.ar           1 S1                 0.0000
     34 ****         5.4995  -5.3843  -0.5351 H              1 S1                 0.0000
     35 ****        -2.0194  -2.1128   0.9050 H              1 S1                 0.0000
     36 ****        -2.0732  -2.5312  -0.8038 H              1 S1                 0.0000
     37 ****         0.2707  -1.5295  -1.0508 H              1 S1                 0.0000
     38 ****         1.5496  -4.0166   1.4390 H              1 S1                 0.0000
     39 ****         1.4174  -3.3907  -2.1416 H              1 S1                 0.0000
     40 ****         2.9506  -4.2882  -3.7333 H              1 S1                 0.0000
     41 ****         2.4147  -1.8843   2.0409 H              1 S1                 0.0000
     42 ****         2.9499  -0.3246   0.4370 H              1 S1                 0.0000
     43 ****         0.0830  -1.5346   1.9947 H              1 S1                 0.0000
     44 ****        -1.6314   3.0585   2.6908 H              1 S1                 0.0000
     45 ****        -1.4547   5.4538   2.1279 H              1 S1                 0.0000
     46 ****         0.2562   6.2389   0.5017 H              1 S1                 0.0000
     47 ****         1.7999   4.6037  -0.5604 H              1 S1                 0.0000
     48 ****         1.6471   2.2105  -0.0179 H              1 S1                 0.0000
     49 ****        -5.3756   1.5435   0.5542 H              1 S1                 0.0000
     50 ****        -5.6867   3.9395   0.0514 H              1 S1                 0.0000
     51 ****        -3.9360   5.2015  -1.1853 H              1 S1                 0.0000
     52 ****        -1.8630   4.0434  -1.9263 H              1 S1                 0.0000
     53 ****        -1.5275   1.6579  -1.4422 H              1 S1                 0.0000
     54 ****        -3.9248  -1.6776   0.7252 LP             1 S1                 0.0000
     55 ****        -4.9869  -0.3097   0.7536 LP             1 S1                 0.0000
     56 ****         0.3215  -3.7059  -0.8472 LP             1 S1                 0.0000
     57 ****        -0.3350  -3.7423   0.6476 LP             1 S1                 0.0000
     58 ****         5.1316  -5.4391  -3.9979 LP             1 S1                 0.0000
     59 ****         6.1133  -5.8542  -2.6326 LP             1 S1                 0.0000
     60 ****         3.4169  -4.1243   1.9529 LP             1 S1                 0.0000
     61 ****         4.9086  -4.9151   1.5665 LP             1 S1                 0.0000
     62 ****         2.4125  -1.2089  -0.7713 LP             1 S1                 0.0000
     63 ****         3.7004  -1.6888   0.1105 LP             1 S1                 0.0000
     64 ****        -1.0178  -0.4129   2.7386 LP             1 S1                 0.0000
     65 ****        -1.5046   1.2110   3.0932 LP             1 S1                 0.0000
@<TRIPOS>BOND
    1    1    2 2     
    2    2    3 1     
    3    2   28 1     
    4    3    4 1     
    5    4    5 1     
    6    4   35 1     
    7    4   36 1     
    8    5   18 1     
    9    5    6 1     
   10    5   37 1     
   11    6    7 1     
   12    7    8 1     
   13    7   16 1     
   14    7   38 1     
   15    8   14 1     
   16    8    9 1     
   17    9   10 2     
   18    9   39 1     
   19   10   11 1     
   20   10   40 1     
   21   11   12 2     
   22   11   13 1     
   23   13   34 1     
   24   13   14 1     
   25   14   15 2     
   26   16   17 1     
   27   16   18 1     
   28   16   41 1     
   29   17   42 1     
   30   18   19 1     
   31   18   43 1     
   32   19   20 1     
   33   20   21 2     
   34   20   22 1     
   35   22   27 ar    
   36   22   23 ar    
   37   23   24 ar    
   38   23   44 1     
   39   24   25 ar    
   40   24   45 1     
   41   25   26 ar    
   42   25   46 1     
   43   26   27 ar    
   44   26   47 1     
   45   27   48 1     
   46   28   33 ar    
   47   28   29 ar    
   48   29   30 ar    
   49   29   49 1     
   50   30   31 ar    
   51   30   50 1     
   52   31   32 ar    
   53   31   51 1     
   54   32   33 ar    
   55   32   52 1     
   56   33   53 1     
   57    1   54 1     
   58    1   55 1     
   59    6   56 1     
   60    6   57 1     
   61   12   58 1     
   62   12   59 1     
   63   15   60 1     
   64   15   61 1     
   65   17   62 1     
   66   17   63 1     
   67   21   64 1     
   68   21   65 1     
@<TRIPOS>SUBSTRUCTURE
      1 S1             1
@<TRIPOS>SET
LONE_PAIRS      STATIC     ATOMS    <user>   **** ""
12 54 55 56 57 58 59 60 61 62 63 64 65
DONOR_HYDROGENS      STATIC     ATOMS    <user>   **** ""
2 34 42
ATOM$BLUE        STATIC     ATOMS    COLORGROUP SYSTEM
12 54 55 56 57 58 59 60 61 62 63 64 65
ATOM$RED        STATIC     ATOMS    COLORGROUP SYSTEM
2 34 42
