AV-unprocessed.smi:1849|AV-procd|sdf|7521|dock7
  -GOLD-   22720 9233D 1   1.00000     0.00000
 Structure written by MMmdl.
 40 41  0  0  0  0  0  0  0  0  1 V2000
  146.9219  138.8309  152.2672 C   0  0  0  0  0  0  0  0  0  0  0  0
  147.5100  139.9327  153.0048 N   0  0  0  0  0  0  0  0  0  0  0  0
  147.2149  141.2789  152.8349 C   0  0  0  0  0  0  0  0  0  0  0  0
  148.0017  141.9699  153.7244 C   0  0  0  0  0  0  0  0  0  0  0  0
  148.7816  141.0719  154.4453 N   0  0  0  0  0  0  0  0  0  0  0  0
  148.4386  139.8749  153.9789 C   0  0  0  0  0  0  0  0  0  0  0  0
  149.0456  138.5921  154.4543 C   0  0  0  0  0  0  0  0  0  0  0  0
  150.4224  138.8021  155.1049 C   0  0  0  0  0  0  0  0  0  0  0  0
  150.4342  139.9765  155.9687 N   0  0  0  0  0  0  0  0  0  0  0  0
  151.4536  140.3304  156.7636 C   0  0  0  0  0  0  0  0  0  0  0  0
  152.5070  139.6992  156.8559 O   0  0  0  0  0  0  0  0  0  0  0  0
  151.1847  141.4509  157.4481 N   0  0  0  0  0  0  0  0  0  0  0  0
  152.0865  142.0946  158.3986 C   0  0  0  0  0  0  0  0  0  0  0  0
  152.1827  141.2730  159.7014 C   0  0  0  0  0  0  0  0  0  0  0  0
  153.0627  141.9764  160.7473 C   0  0  0  0  0  0  0  0  0  0  0  0
  152.5633  143.4020  161.0299 C   0  0  0  0  0  0  0  0  0  0  0  0
  152.4766  144.2246  159.7347 C   0  0  0  0  0  0  0  0  0  0  0  0
  151.5930  143.5248  158.6895 C   0  0  0  0  0  0  0  0  0  0  0  0
  146.3008  139.2104  151.4555 H   0  0  0  0  0  0  0  0  0  0  0  0
  146.3037  138.2297  152.9341 H   0  0  0  0  0  0  0  0  0  0  0  0
  147.7078  138.2044  151.8444 H   0  0  0  0  0  0  0  0  0  0  0  0
  146.4912  141.6250  152.1118 H   0  0  0  0  0  0  0  0  0  0  0  0
  148.0675  143.0337  153.8988 H   0  0  0  0  0  0  0  0  0  0  0  0
  148.3645  138.1345  155.1729 H   0  0  0  0  0  0  0  0  0  0  0  0
  149.1161  137.8950  153.6189 H   0  0  0  0  0  0  0  0  0  0  0  0
  150.7160  137.9194  155.6754 H   0  0  0  0  0  0  0  0  0  0  0  0
  151.1808  138.9384  154.3334 H   0  0  0  0  0  0  0  0  0  0  0  0
  149.6084  140.5572  155.9613 H   0  0  0  0  0  0  0  0  0  0  0  0
  150.2892  141.8932  157.3018 H   0  0  0  0  0  0  0  0  0  0  0  0
  153.0806  142.1645  157.9523 H   0  0  0  0  0  0  0  0  0  0  0  0
  151.1850  141.1173  160.1145 H   0  0  0  0  0  0  0  0  0  0  0  0
  152.5878  140.2820  159.4939 H   0  0  0  0  0  0  0  0  0  0  0  0
  153.0770  141.3975  161.6712 H   0  0  0  0  0  0  0  0  0  0  0  0
  154.0926  142.0147  160.3905 H   0  0  0  0  0  0  0  0  0  0  0  0
  151.5811  143.3588  161.5025 H   0  0  0  0  0  0  0  0  0  0  0  0
  153.2276  143.8944  161.7406 H   0  0  0  0  0  0  0  0  0  0  0  0
  152.0812  145.2177  159.9504 H   0  0  0  0  0  0  0  0  0  0  0  0
  153.4777  144.3722  159.3274 H   0  0  0  0  0  0  0  0  0  0  0  0
  151.5799  144.1107  157.7696 H   0  0  0  0  0  0  0  0  0  0  0  0
  150.5640  143.4949  159.0514 H   0  0  0  0  0  0  0  0  0  0  0  0
  1  2  1  0  0  0  0
  1 19  1  0  0  0  0
  1 20  1  0  0  0  0
  1 21  1  0  0  0  0
  2  6  1  0  0  0  0
  2  3  1  0  0  0  0
  3  4  2  0  0  0  0
  3 22  1  0  0  0  0
  4  5  1  0  0  0  0
  4 23  1  0  0  0  0
  5  6  2  0  0  0  0
  6  7  1  0  0  0  0
  7  8  1  0  0  0  0
  7 24  1  0  0  0  0
  7 25  1  0  0  0  0
  8  9  1  0  0  0  0
  8 26  1  0  0  0  0
  8 27  1  0  0  0  0
  9 10  1  0  0  0  0
  9 28  1  0  0  0  0
 10 11  2  0  0  0  0
 10 12  1  0  0  0  0
 12 13  1  0  0  0  0
 12 29  1  0  0  0  0
 13 18  1  0  0  0  0
 13 14  1  0  0  0  0
 13 30  1  0  0  0  0
 14 15  1  0  0  0  0
 14 31  1  0  0  0  0
 14 32  1  0  0  0  0
 15 16  1  0  0  0  0
 15 33  1  0  0  0  0
 15 34  1  0  0  0  0
 16 17  1  0  0  0  0
 16 35  1  0  0  0  0
 16 36  1  0  0  0  0
 17 18  1  0  0  0  0
 17 37  1  0  0  0  0
 17 38  1  0  0  0  0
 18 39  1  0  0  0  0
 18 40  1  0  0  0  0
M  END
> <s_m_source_file>
AV-unprocessed.smi

> <i_m_source_file_index>
1849

> <i_lp_mmshare_version>
43012

> <i_f3d_flags>
0

> <s_epik_input>
W0NIM11uMVtjSF1bY0hdbmMxW0NIMl1bQ0gyXVtOSF1DKD1PKVtOSF1bQ0hdMltDSDJdW0NIMl1bQ0gyXVtDSDJdW0NIMl0y

> <s_epik_cmdline>
J2VwaWtfcHl0aG9uJywgJy1waCcsICc3LjAnLCAnLXRuJywgJzgnLCAnLW1hJywgJzIwMCcsICctbWV0YWxfYmluZGluZycsICctaW1hZScsICc8aW5maWxlLm1hZT4nLCAnLW9tYWUnLCAnPG91dGZpbGUubWFlPic=

> <r_lp_tautomer_probability>
1

> <r_epik_Ionization_Penalty>
1.48237

> <r_epik_Ionization_Penalty_Charging>
1.48231

> <r_epik_Ionization_Penalty_Neutral>
5.84917e-05

> <r_epik_State_Penalty>
1.57104

> <r_epik_Charging_Adjusted_Penalty>
3.05335

> <i_epik_Tot_Q>
0

> <i_epik_Tot_abs_Q>
0

> <r_epik_Metal_State_Penalty>
0.437242

> <b_epik_Metal_Only>
0

> <s_lp_Force_Field>
OPLS_2005

> <r_lp_Energy>
3.77176

> <b_lp_Chiralities_Consistent>
1

> <s_lp_Variant>
AV-unprocessed.smi:1849-2

> <Gold.Version>
5.8.1

> <Gold.Id.Protein>
6NUR|6NUR_protein|mol2

> <Gold.PLP.Fitness>
44.4028

> <Gold.PLP.PLP>
-38.4176

> <Gold.PLP.part.hbond>
-1.0000

> <Gold.PLP.part.metal>
0.0000

> <Gold.PLP.part.buried>
-3.1290

> <Gold.PLP.part.nonpolar>
-34.4954

> <Gold.PLP.part.repulsive>
0.2566

> <Gold.PLP.ligand.clash>
0.0000

> <Gold.PLP.ligand.torsion>
0.5845

> <Gold.PLP.Chemscore.Hbond>
1.0000

> <Gold.PLP.Chemscore.CHOScore>
1.3813

> <Gold.PLP.Chemscore.Metal>
0.0000

> <Gold.Chemscore.Hbonds>
donor molecule, donor type, donor heavy atom, donor atom, acceptor molecule, acceptor atom, score
      P1  H  7997  8010       L1    11  1.00
      L1  C     4    23       P1  8028  1.00

> <Gold.PLP.Chemscore.Internal.Correction>
0.0101

> <Gold.Rescore>
     Score         DG    S(hbond)    S(metal)    S(lipo)     H(rot)  DE(clash)    DE(int)     intcor
     15.69     -16.38       0.99        0.00     101.07       1.66       0.01       0.68       ----

> <Gold.Chemscore.Fitness>
15.6889

> <Gold.Chemscore.DG>
-16.3813

> <Gold.Chemscore.ZeroCoef>
-5.4800

> <Gold.Chemscore.Hbond>
0.9937

> <Gold.Chemscore.Metal>
0.0000

> <Gold.Chemscore.Lipo>
101.0724

> <Gold.Chemscore.Internal_Hbond>
0.0000

> <Gold.Chemscore.DEClash>
0.0127

> <Gold.Chemscore.DEInternal>
0.6797

> <Gold.Chemscore.Rot>
1.6575

> <Gold.Chemscore.Internal.Correction>
   9.000000E+99

> <Gold.Chemscore.Hbonds>
donor molecule, donor type, donor heavy atom, donor atom, acceptor molecule, acceptor atom, score
      P1  H  7997  8010       L1    11  1.00

> <Gold.Chemscore.Hbond.Weighted>
-3.3190

> <Gold.Chemscore.Metal.Weighted>
-0.0000

> <Gold.Chemscore.Lipo.Weighted>
-11.8255

> <Gold.Chemscore.Internal_Hbond.Weighted>
0.0000

> <Gold.Chemscore.DEClash.Weighted>
0.0127

> <Gold.Chemscore.DEInternal.Weighted>
0.6797

> <Gold.Chemscore.Rot.Weighted>
4.2432

> <Gold.Chemscore.Internal.Correction.Weighted>
   9.000000E+99

> <Gold.Protein.RotatedTorsions>
[ 6907 6896 6895 6894 ] final -173.89 input  -60.11 | X-H torsion
[ 7974 7965 7964 7962 ] final  -74.74 input  175.53 | X-H torsion
[ 8008 7997 7996 7995 ] final   69.67 input   59.86 | X-H torsion
[ 10167 10162 10161 10158 ] final   75.73 input  -65.29 | X-H torsion
[ 10718 10713 10712 10709 ] final  -90.74 input   66.30 | X-H torsion
[ 10763 10752 10751 10750 ] final  -40.12 input  -60.55 | X-H torsion
[ 11005 11000 10999 10996 ] final  -39.74 input  -57.11 | X-H torsion

> <Gold.Protein.ActiveResidues>
 VAL166  LYS551  ARG553  GLY616  TRP617  ASP618  TYR619  PRO620  LYS621  CYS622 
 ASP623  PHE694  ASN695  SER759  ASP760  ASP761  ALA762  ILE779  LEU786  VAL792 
 PHE793  MET794  SER795  GLU796  ALA797  LYS798  CYS799  TRP800  GLU811  SER814 

> <Gold.Protein.RotatedAtoms>
  151.5635  133.3400  159.2975 H   0  0  0  0  0  0  0  0  0  0  0  0  # atno 6907 bound_to 6896
  150.8409  134.7703  159.6942 H   0  0  0  0  0  0  0  0  0  0  0  0  # atno 6908 bound_to 6896
  152.4476  134.5468  159.9907 H   0  0  0  0  0  0  0  0  0  0  0  0  # atno 6909 bound_to 6896
  145.6351  140.9327  143.1066 H   0  0  0  0  0  0  0  0  0  0  0  0  # atno 7974 bound_to 7965
  155.7272  140.3492  155.5042 H   0  0  0  0  0  0  0  0  0  0  0  0  # atno 8008 bound_to 7997
  155.9216  140.1068  157.1224 H   0  0  0  0  0  0  0  0  0  0  0  0  # atno 8009 bound_to 7997
  154.4070  140.1248  156.4673 H   0  0  0  0  0  0  0  0  0  0  0  0  # atno 8010 bound_to 7997
  139.9998  144.5694  150.7746 H   0  0  0  0  0  0  0  0  0  0  0  0  # atno 10167 bound_to 10162
  155.9989  130.4921  150.5368 H   0  0  0  0  0  0  0  0  0  0  0  0  # atno 10718 bound_to 10713
  153.9407  135.6761  153.4744 H   0  0  0  0  0  0  0  0  0  0  0  0  # atno 10763 bound_to 10752
  153.0933  135.4864  154.8728 H   0  0  0  0  0  0  0  0  0  0  0  0  # atno 10764 bound_to 10752
  154.7379  135.3153  154.8738 H   0  0  0  0  0  0  0  0  0  0  0  0  # atno 10765 bound_to 10752
  141.0124  133.6902  156.2227 H   0  0  0  0  0  0  0  0  0  0  0  0  # atno 11005 bound_to 11000
  144.7178  139.8134  143.7392 LP  0  0  0  0  0  0  0  0  0  0  0  0  # atno 17320 bound_to 7965
  146.1325  139.4364  143.0159 LP  0  0  0  0  0  0  0  0  0  0  0  0  # atno 17321 bound_to 7965
  140.7423  143.2830  151.3544 LP  0  0  0  0  0  0  0  0  0  0  0  0  # atno 17342 bound_to 10162
  139.6280  144.0777  152.2451 LP  0  0  0  0  0  0  0  0  0  0  0  0  # atno 17343 bound_to 10162
  157.3310  131.0699  151.1861 LP  0  0  0  0  0  0  0  0  0  0  0  0  # atno 17370 bound_to 10713
  157.2742  130.6719  149.6034 LP  0  0  0  0  0  0  0  0  0  0  0  0  # atno 17371 bound_to 10713
  140.6712  134.4866  157.5587 LP  0  0  0  0  0  0  0  0  0  0  0  0  # atno 17394 bound_to 11000
  139.9097  134.8371  156.1573 LP  0  0  0  0  0  0  0  0  0  0  0  0  # atno 17395 bound_to 11000

$$$$
