AV-unprocessed.smi:1401|AV-procd|sdf|5690|dock10
  -GOLD-   22720 5313D 1   1.00000     0.00000
 Structure written by MMmdl.
 48 50  0  0  0  0  0  0  0  0  1 V2000
  144.1814  142.1438  156.3714 C   0  0  0  0  0  0  0  0  0  0  0  0
  145.2372  141.0973  156.1370 C   0  0  0  0  0  0  0  0  0  0  0  0
  146.3286  141.4913  155.5675 N   0  0  0  0  0  0  0  0  0  0  0  0
  147.3586  140.6106  155.2994 N   0  0  0  0  0  0  0  0  0  0  0  0
  148.5145  141.2252  154.6303 C   0  0  0  0  0  0  0  0  0  0  0  0
  149.8288  141.0479  155.4042 C   0  0  0  0  0  0  0  0  0  0  0  0
  150.7516  140.3798  154.9357 O   0  0  0  0  0  0  0  0  0  0  0  0
  149.9017  141.6760  156.5876 N   0  0  0  0  0  0  0  0  0  0  0  0
  151.0581  141.6741  157.4811 C   0  0  2  0  0  0  0  0  0  0  0  0
  151.2641  140.2539  158.0391 C   0  0  0  0  0  0  0  0  0  0  0  0
  150.8570  142.7210  158.6040 C   0  0  1  0  0  0  0  0  0  0  0  0
  152.0539  142.8202  159.5813 C   0  0  0  0  0  0  0  0  0  0  0  0
  152.4022  144.3191  159.5671 C   0  0  2  0  0  0  0  0  0  0  0  0
  151.2841  145.1160  160.2632 C   0  0  0  0  0  0  0  0  0  0  0  0
  150.1344  145.0468  159.2409 C   0  0  0  0  0  0  0  0  0  0  0  0
  150.7345  144.1870  158.1116 C   0  0  1  0  0  0  0  0  0  0  0  0
  152.1812  144.6699  158.1019 C   0  0  0  0  0  0  0  0  0  0  0  0
  147.3405  139.2798  155.5989 C   0  0  0  0  0  0  0  0  0  0  0  0
  148.2824  138.5295  155.3388 O   0  0  0  0  0  0  0  0  0  0  0  0
  146.1037  138.8417  156.2496 C   0  0  0  0  0  0  0  0  0  0  0  0
  146.0438  137.4551  156.5831 C   0  0  0  0  0  0  0  0  0  0  0  0
  146.0050  136.3261  156.8356 N   0  0  0  0  0  0  0  0  0  0  0  0
  145.0845  139.6965  156.5164 C   0  0  0  0  0  0  0  0  0  0  0  0
  143.7796  139.2919  157.1885 C   0  0  0  0  0  0  0  0  0  0  0  0
  143.9944  142.2714  157.4379 H   0  0  0  0  0  0  0  0  0  0  0  0
  143.2431  141.8617  155.8935 H   0  0  0  0  0  0  0  0  0  0  0  0
  144.4743  143.1148  155.9690 H   0  0  0  0  0  0  0  0  0  0  0  0
  148.6486  140.7924  153.6372 H   0  0  0  0  0  0  0  0  0  0  0  0
  148.3283  142.2878  154.4618 H   0  0  0  0  0  0  0  0  0  0  0  0
  149.0965  142.2040  156.8915 H   0  0  0  0  0  0  0  0  0  0  0  0
  151.9449  141.9510  156.9079 H   0  0  0  0  0  0  0  0  0  0  0  0
  152.1417  140.1979  158.6827 H   0  0  0  0  0  0  0  0  0  0  0  0
  151.4095  139.5313  157.2354 H   0  0  0  0  0  0  0  0  0  0  0  0
  150.4033  139.9292  158.6244 H   0  0  0  0  0  0  0  0  0  0  0  0
  149.9548  142.4514  159.1557 H   0  0  0  0  0  0  0  0  0  0  0  0
  151.8043  142.4605  160.5801 H   0  0  0  0  0  0  0  0  0  0  0  0
  152.9090  142.2427  159.2278 H   0  0  0  0  0  0  0  0  0  0  0  0
  153.3997  144.5399  159.9483 H   0  0  0  0  0  0  0  0  0  0  0  0
  151.0107  144.6867  161.2278 H   0  0  0  0  0  0  0  0  0  0  0  0
  151.5873  146.1505  160.4298 H   0  0  0  0  0  0  0  0  0  0  0  0
  149.2264  144.6129  159.6613 H   0  0  0  0  0  0  0  0  0  0  0  0
  149.8874  146.0449  158.8768 H   0  0  0  0  0  0  0  0  0  0  0  0
  150.2081  144.3096  157.1652 H   0  0  0  0  0  0  0  0  0  0  0  0
  152.2801  145.7365  157.8928 H   0  0  0  0  0  0  0  0  0  0  0  0
  152.8241  144.1120  157.4191 H   0  0  0  0  0  0  0  0  0  0  0  0
  143.7646  138.2371  157.4613 H   0  0  0  0  0  0  0  0  0  0  0  0
  142.9355  139.4700  156.5217 H   0  0  0  0  0  0  0  0  0  0  0  0
  143.6240  139.8673  158.1014 H   0  0  0  0  0  0  0  0  0  0  0  0
  1  2  1  0  0  0  0
  1 25  1  0  0  0  0
  1 26  1  0  0  0  0
  1 27  1  0  0  0  0
  2 23  1  0  0  0  0
  2  3  2  0  0  0  0
  3  4  1  0  0  0  0
  4  5  1  0  0  0  0
  4 18  1  0  0  0  0
  5  6  1  0  0  0  0
  5 28  1  0  0  0  0
  5 29  1  0  0  0  0
  6  7  2  0  0  0  0
  6  8  1  0  0  0  0
  8  9  1  0  0  0  0
  8 30  1  0  0  0  0
  9 10  1  0  0  0  0
  9 11  1  0  0  0  0
  9 31  1  0  0  0  0
 10 32  1  0  0  0  0
 10 33  1  0  0  0  0
 10 34  1  0  0  0  0
 11 16  1  0  0  0  0
 11 12  1  0  0  0  0
 11 35  1  0  0  0  0
 12 13  1  0  0  0  0
 12 36  1  0  0  0  0
 12 37  1  0  0  0  0
 13 17  1  0  0  0  0
 13 14  1  0  0  0  0
 13 38  1  0  0  0  0
 14 15  1  0  0  0  0
 14 39  1  0  0  0  0
 14 40  1  0  0  0  0
 15 16  1  0  0  0  0
 15 41  1  0  0  0  0
 15 42  1  0  0  0  0
 16 17  1  0  0  0  0
 16 43  1  0  0  0  0
 17 44  1  0  0  0  0
 17 45  1  0  0  0  0
 18 19  2  0  0  0  0
 18 20  1  0  0  0  0
 20 21  1  0  0  0  0
 20 23  2  0  0  0  0
 21 22  3  0  0  0  0
 23 24  1  0  0  0  0
 24 46  1  0  0  0  0
 24 47  1  0  0  0  0
 24 48  1  0  0  0  0
M  END
> <s_m_source_file>
AV-unprocessed.smi

> <i_m_source_file_index>
1401

> <i_lp_mmshare_version>
43012

> <i_f3d_flags>
0

> <s_epik_input>
TiNDYyhjMVtDSDNdKWMoPU8pbihuYzFbQ0gzXSlbQ0gyXUMoPU8pW05IXVtDQEhdKFtDSDNdKVtDQEhdKFtDSDJdW0NASF0yMylbQ0BIXShbQ0gyXTMpW0NIMl1bQ0gyXTI=

> <s_epik_cmdline>
J2VwaWtfcHl0aG9uJywgJy1waCcsICc3LjAnLCAnLXRuJywgJzgnLCAnLW1hJywgJzIwMCcsICctbWV0YWxfYmluZGluZycsICctaW1hZScsICc8aW5maWxlLm1hZT4nLCAnLW9tYWUnLCAnPG91dGZpbGUubWFlPic=

> <r_lp_tautomer_probability>
1

> <r_epik_Ionization_Penalty>
2.16501e-08

> <r_epik_Ionization_Penalty_Charging>
2.29436e-11

> <r_epik_Ionization_Penalty_Neutral>
2.16271e-08

> <r_epik_State_Penalty>
-0

> <r_epik_Charging_Adjusted_Penalty>
2.29436e-11

> <i_epik_Tot_Q>
0

> <i_epik_Tot_abs_Q>
0

> <r_epik_Metal_State_Penalty>
-0

> <b_epik_Metal_Only>
0

> <s_lp_Force_Field>
OPLS_2005

> <r_lp_Energy>
65.9265

> <b_lp_Chiralities_Consistent>
1

> <s_lp_Variant>
AV-unprocessed.smi:1401-3

> <Gold.Version>
5.8.1

> <Gold.Id.Protein>
6NUR|6NUR_protein|mol2

> <Gold.PLP.Fitness>
47.0581

> <Gold.PLP.PLP>
-43.6214

> <Gold.PLP.part.hbond>
-1.6569

> <Gold.PLP.part.metal>
0.0000

> <Gold.PLP.part.buried>
-4.5764

> <Gold.PLP.part.nonpolar>
-38.1534

> <Gold.PLP.part.repulsive>
0.8119

> <Gold.PLP.ligand.clash>
0.0000

> <Gold.PLP.ligand.torsion>
0.1215

> <Gold.PLP.Chemscore.Hbond>
1.2200

> <Gold.PLP.Chemscore.CHOScore>
0.0000

> <Gold.PLP.Chemscore.Metal>
0.0000

> <Gold.Chemscore.Hbonds>
donor molecule, donor type, donor heavy atom, donor atom, acceptor molecule, acceptor atom, score
      P1  H  7989  7998       L1     7  1.00

> <Gold.PLP.Chemscore.Internal.Correction>
0.0199

> <Gold.Rescore>
     Score         DG    S(hbond)    S(metal)    S(lipo)     H(rot)  DE(clash)    DE(int)     intcor
     16.38     -16.79       0.96        0.00     105.02       1.63       0.03       0.38       ----

> <Gold.Chemscore.Fitness>
16.3787

> <Gold.Chemscore.DG>
-16.7928

> <Gold.Chemscore.ZeroCoef>
-5.4800

> <Gold.Chemscore.Hbond>
0.9562

> <Gold.Chemscore.Metal>
0.0000

> <Gold.Chemscore.Lipo>
105.0178

> <Gold.Chemscore.Internal_Hbond>
0.0000

> <Gold.Chemscore.DEClash>
0.0300

> <Gold.Chemscore.DEInternal>
0.3842

> <Gold.Chemscore.Rot>
1.6281

> <Gold.Chemscore.Internal.Correction>
   9.000000E+99

> <Gold.Chemscore.Hbonds>
donor molecule, donor type, donor heavy atom, donor atom, acceptor molecule, acceptor atom, score
      P1  H  7989  7998       L1     7  0.97

> <Gold.Chemscore.Hbond.Weighted>
-3.1936

> <Gold.Chemscore.Metal.Weighted>
-0.0000

> <Gold.Chemscore.Lipo.Weighted>
-12.2871

> <Gold.Chemscore.Internal_Hbond.Weighted>
0.0000

> <Gold.Chemscore.DEClash.Weighted>
0.0300

> <Gold.Chemscore.DEInternal.Weighted>
0.3842

> <Gold.Chemscore.Rot.Weighted>
4.1678

> <Gold.Chemscore.Internal.Correction.Weighted>
   9.000000E+99

> <Gold.Protein.RotatedTorsions>
[ 6907 6896 6895 6894 ] final  127.74 input  -60.11 | X-H torsion
[ 7974 7965 7964 7962 ] final  174.88 input  175.53 | X-H torsion
[ 8008 7997 7996 7995 ] final   90.15 input   59.86 | X-H torsion
[ 10167 10162 10161 10158 ] final  -90.82 input  -65.29 | X-H torsion
[ 10718 10713 10712 10709 ] final  -33.53 input   66.30 | X-H torsion
[ 10763 10752 10751 10750 ] final  -59.82 input  -60.55 | X-H torsion
[ 11005 11000 10999 10996 ] final   88.11 input  -57.11 | X-H torsion

> <Gold.Protein.ActiveResidues>
 VAL166  LYS551  ARG553  GLY616  TRP617  ASP618  TYR619  PRO620  LYS621  CYS622 
 ASP623  PHE694  ASN695  SER759  ASP760  ASP761  ALA762  ILE779  LEU786  VAL792 
 PHE793  MET794  SER795  GLU796  ALA797  LYS798  CYS799  TRP800  GLU811  SER814 

> <Gold.Protein.RotatedAtoms>
  152.3784  133.6513  159.6141 H   0  0  0  0  0  0  0  0  0  0  0  0  # atno 6907 bound_to 6896
  150.7722  133.9154  159.3391 H   0  0  0  0  0  0  0  0  0  0  0  0  # atno 6908 bound_to 6896
  151.6964  135.0939  160.0294 H   0  0  0  0  0  0  0  0  0  0  0  0  # atno 6909 bound_to 6896
  144.7212  139.9864  143.6439 H   0  0  0  0  0  0  0  0  0  0  0  0  # atno 7974 bound_to 7965
  156.0085  140.3352  155.6917 H   0  0  0  0  0  0  0  0  0  0  0  0  # atno 8008 bound_to 7997
  155.6190  140.0673  157.2701 H   0  0  0  0  0  0  0  0  0  0  0  0  # atno 8009 bound_to 7997
  154.4273  140.1780  156.1340 H   0  0  0  0  0  0  0  0  0  0  0  0  # atno 8010 bound_to 7997
  140.3510  143.2891  151.9725 H   0  0  0  0  0  0  0  0  0  0  0  0  # atno 10167 bound_to 10162
  156.3616  130.4324  149.7619 H   0  0  0  0  0  0  0  0  0  0  0  0  # atno 10718 bound_to 10713
  154.2596  135.6311  153.5270 H   0  0  0  0  0  0  0  0  0  0  0  0  # atno 10763 bound_to 10752
  152.9898  135.5584  154.5719 H   0  0  0  0  0  0  0  0  0  0  0  0  # atno 10764 bound_to 10752
  154.5265  135.2885  155.1193 H   0  0  0  0  0  0  0  0  0  0  0  0  # atno 10765 bound_to 10752
  139.8904  134.8466  156.2955 H   0  0  0  0  0  0  0  0  0  0  0  0  # atno 11005 bound_to 11000
  146.0447  139.3454  143.0676 LP  0  0  0  0  0  0  0  0  0  0  0  0  # atno 17320 bound_to 7965
  145.8291  140.9640  143.0858 LP  0  0  0  0  0  0  0  0  0  0  0  0  # atno 17321 bound_to 7965
  139.4826  144.6075  151.7494 LP  0  0  0  0  0  0  0  0  0  0  0  0  # atno 17342 bound_to 10162
  140.5218  144.0866  150.6025 LP  0  0  0  0  0  0  0  0  0  0  0  0  # atno 17343 bound_to 10162
  156.4781  130.8028  151.3043 LP  0  0  0  0  0  0  0  0  0  0  0  0  # atno 17370 bound_to 10713
  157.7474  131.0014  150.2963 LP  0  0  0  0  0  0  0  0  0  0  0  0  # atno 17371 bound_to 10713
  140.9948  133.7187  156.0869 LP  0  0  0  0  0  0  0  0  0  0  0  0  # atno 17394 bound_to 11000
  140.7577  134.3974  157.5531 LP  0  0  0  0  0  0  0  0  0  0  0  0  # atno 17395 bound_to 11000

$$$$
