#       Name:                AV-unprocessed.smi:2723
#       Creating user name   scv26
#       Creation time:       Fri Mar 27 14:54:58 2020


#       File generated by GOLD software.
#

@<TRIPOS>MOLECULE
AV-unprocessed.smi:2723
    40    41     1
SMALL
NO_CHARGES


@<TRIPOS>ATOM
      1 ****        -5.1241  -1.1747  -0.5869 C.3            1 S1                 0.0000
      2 ****        -3.6147  -1.0400  -0.8146 C.3            1 S1                 0.0000
      3 ****        -2.8378  -2.2847  -0.3555 C.3            1 S1                 0.0000
      4 ****        -1.4033  -2.1285  -0.5642 N.am           1 S1                 0.0000
      5 ****        -0.7681  -2.3189  -1.7317 C.2            1 S1                 0.0000
      6 ****        -1.3392  -2.6671  -2.7651 O.2            1 S1                 0.0000
      7 ****         0.7438  -2.0843  -1.7367 C.3            1 S1                 0.0000
      8 ****         1.0509  -0.6255  -1.5536 C.2            1 S1                 0.0000
      9 ****         0.8985   0.3736  -2.4844 C.2            1 S1                 0.0000
     10 ****         1.3706   1.9289  -1.8579 S.3            1 S1                 0.0000
     11 ****         1.7743   1.1508  -0.3245 C.2            1 S1                 0.0000
     12 ****         2.2955   1.7925   0.8383 N.am           1 S1                 0.0000
     13 ****         2.7134   1.0325   2.0128 C.3            1 S1                 0.0000
     14 ****         3.4204   2.0344   2.9318 C.3            1 S1                 0.0000
     15 ****         3.0314   3.4129   2.4015 C.3            1 S1                 0.0000
     16 ****         2.4473   3.1150   1.0303 C.2            1 S1                 0.0000
     17 ****         2.1631   4.0168   0.2433 O.2            1 S1                 0.0000
     18 ****         1.5542  -0.1683  -0.3309 N.2            1 S1                 0.0000
     19 ****        -5.6483  -0.2778  -0.9179 H              1 S1                 0.0000
     20 ****        -5.3518  -1.3229   0.4691 H              1 S1                 0.0000
     21 ****        -5.5312  -2.0211  -1.1407 H              1 S1                 0.0000
     22 ****        -3.4307  -0.8567  -1.8739 H              1 S1                 0.0000
     23 ****        -3.2479  -0.1617  -0.2819 H              1 S1                 0.0000
     24 ****        -3.0070  -2.4561   0.7078 H              1 S1                 0.0000
     25 ****        -3.1979  -3.1749  -0.8743 H              1 S1                 0.0000
     26 ****        -0.8538  -1.8422   0.2332 H              1 S1                 0.0000
     27 ****         1.1993  -2.6850  -0.9479 H              1 S1                 0.0000
     28 ****         1.1625  -2.4446  -2.6771 H              1 S1                 0.0000
     29 ****         0.5329   0.2882  -3.4970 H              1 S1                 0.0000
     30 ****         1.8319   0.6145   2.5012 H              1 S1                 0.0000
     31 ****         3.3756   0.2079   1.7440 H              1 S1                 0.0000
     32 ****         3.1345   1.8992   3.9754 H              1 S1                 0.0000
     33 ****         4.5017   1.9044   2.8666 H              1 S1                 0.0000
     34 ****         2.2683   3.8785   3.0262 H              1 S1                 0.0000
     35 ****         3.8871   4.0854   2.3340 H              1 S1                 0.0000
     36 ****        -2.3270  -2.8230  -2.7623 LP             1 S1                 0.0000
     37 ****        -0.8154  -2.7941  -3.6074 LP             1 S1                 0.0000
     38 ****         1.7736   3.7958  -0.6508 LP             1 S1                 0.0000
     39 ****         2.3215   4.9708   0.4977 LP             1 S1                 0.0000
     40 ****         1.7302  -0.7634   0.4533 LP             1 S1                 0.0000
@<TRIPOS>BOND
    1    1    2 1     
    2    1   19 1     
    3    1   20 1     
    4    1   21 1     
    5    2    3 1     
    6    2   22 1     
    7    2   23 1     
    8    3    4 1     
    9    3   24 1     
   10    3   25 1     
   11    4    5 am    
   12    4   26 1     
   13    5    6 2     
   14    5    7 1     
   15    7    8 1     
   16    7   27 1     
   17    7   28 1     
   18    8   18 1     
   19    8    9 2     
   20    9   10 1     
   21    9   29 1     
   22   10   11 1     
   23   11   12 1     
   24   11   18 2     
   25   12   16 am    
   26   12   13 1     
   27   13   14 1     
   28   13   30 1     
   29   13   31 1     
   30   14   15 1     
   31   14   32 1     
   32   14   33 1     
   33   15   16 1     
   34   15   34 1     
   35   15   35 1     
   36   16   17 2     
   37    6   36 1     
   38    6   37 1     
   39   17   38 1     
   40   17   39 1     
   41   18   40 1     
@<TRIPOS>SUBSTRUCTURE
      1 S1             1
@<TRIPOS>SET
LONE_PAIRS      STATIC     ATOMS    <user>   **** ""
5 36 37 38 39 40
DONOR_HYDROGENS      STATIC     ATOMS    <user>   **** ""
1 26
ATOM$BLUE        STATIC     ATOMS    COLORGROUP SYSTEM
5 36 37 38 39 40
ATOM$RED        STATIC     ATOMS    COLORGROUP SYSTEM
1 26
