AV-unprocessed.smi:446|AV-procd|sdf|2593|dock8
  -GOLD-   2262022593D 1   1.00000     0.00000
 Structure written by MMmdl.
 35 37  0  0  0  0  0  0  0  0  1 V2000
  151.8397  137.7968  155.7525 C   0  0  0  0  0  0  0  0  0  0  0  0
  150.7305  138.6136  155.1697 C   0  0  0  0  0  0  0  0  0  0  0  0
  149.7224  138.0623  154.4933 N   0  0  0  0  0  0  0  0  0  0  0  0
  148.9503  139.1569  154.1545 C   0  0  0  0  0  0  0  0  0  0  0  0
  147.7403  139.2398  153.4286 C   0  0  0  0  0  0  0  0  0  0  0  0
  147.1250  140.4896  153.2071 C   0  0  0  0  0  0  0  0  0  0  0  0
  147.7087  141.6718  153.7071 C   0  0  0  0  0  0  0  0  0  0  0  0
  148.9147  141.6118  154.4315 C   0  0  0  0  0  0  0  0  0  0  0  0
  149.5253  140.3621  154.6484 C   0  0  0  0  0  0  0  0  0  0  0  0
  150.6880  139.9628  155.2990 N   0  0  0  0  0  0  0  0  0  0  0  0
  151.6380  140.8397  155.9700 C   0  0  0  0  0  0  0  0  0  0  0  0
  150.9508  141.8160  156.9454 C   0  0  2  0  0  0  0  0  0  0  0  0
  150.8636  143.1016  156.3617 O   0  0  0  0  0  0  0  0  0  0  0  0
  151.6565  141.8419  158.2921 C   0  0  0  0  0  0  0  0  0  0  0  0
  151.5023  142.9558  159.1453 C   0  0  0  0  0  0  0  0  0  0  0  0
  152.1477  142.9865  160.3971 C   0  0  0  0  0  0  0  0  0  0  0  0
  152.9487  141.9023  160.8039 C   0  0  0  0  0  0  0  0  0  0  0  0
  153.5691  141.9321  162.0069 F   0  0  0  0  0  0  0  0  0  0  0  0
  153.1027  140.7864  159.9590 C   0  0  0  0  0  0  0  0  0  0  0  0
  152.4574  140.7548  158.7075 C   0  0  0  0  0  0  0  0  0  0  0  0
  151.7241  136.7465  155.4831 H   0  0  0  0  0  0  0  0  0  0  0  0
  151.8324  137.8748  156.8398 H   0  0  0  0  0  0  0  0  0  0  0  0
  152.8034  138.1418  155.3784 H   0  0  0  0  0  0  0  0  0  0  0  0
  147.2853  138.3401  153.0417 H   0  0  0  0  0  0  0  0  0  0  0  0
  146.2002  140.5411  152.6513 H   0  0  0  0  0  0  0  0  0  0  0  0
  147.2304  142.6247  153.5342 H   0  0  0  0  0  0  0  0  0  0  0  0
  149.3658  142.5147  154.8158 H   0  0  0  0  0  0  0  0  0  0  0  0
  152.3443  140.2108  156.5134 H   0  0  0  0  0  0  0  0  0  0  0  0
  152.2254  141.3836  155.2301 H   0  0  0  0  0  0  0  0  0  0  0  0
  149.9250  141.4837  157.1091 H   0  0  0  0  0  0  0  0  0  0  0  0
  149.9538  143.2906  156.1891 H   0  0  0  0  0  0  0  0  0  0  0  0
  150.8877  143.7915  158.8436 H   0  0  0  0  0  0  0  0  0  0  0  0
  152.0273  143.8420  161.0453 H   0  0  0  0  0  0  0  0  0  0  0  0
  153.7149  139.9535  160.2716 H   0  0  0  0  0  0  0  0  0  0  0  0
  152.5781  139.8924  158.0683 H   0  0  0  0  0  0  0  0  0  0  0  0
  1  2  1  0  0  0  0
  1 21  1  0  0  0  0
  1 22  1  0  0  0  0
  1 23  1  0  0  0  0
  2 10  1  0  0  0  0
  2  3  2  0  0  0  0
  3  4  1  0  0  0  0
  4  9  2  0  0  0  0
  4  5  1  0  0  0  0
  5  6  2  0  0  0  0
  5 24  1  0  0  0  0
  6  7  1  0  0  0  0
  6 25  1  0  0  0  0
  7  8  2  0  0  0  0
  7 26  1  0  0  0  0
  8  9  1  0  0  0  0
  8 27  1  0  0  0  0
  9 10  1  0  0  0  0
 10 11  1  0  0  0  0
 11 12  1  0  0  0  0
 11 28  1  0  0  0  0
 11 29  1  0  0  0  0
 12 13  1  0  0  0  0
 12 14  1  0  0  0  0
 12 30  1  0  0  0  0
 13 31  1  0  0  0  0
 14 20  1  0  0  0  0
 14 15  2  0  0  0  0
 15 16  1  0  0  0  0
 15 32  1  0  0  0  0
 16 17  2  0  0  0  0
 16 33  1  0  0  0  0
 17 18  1  0  0  0  0
 17 19  1  0  0  0  0
 19 20  2  0  0  0  0
 19 34  1  0  0  0  0
 20 35  1  0  0  0  0
M  END
> <s_m_source_file>
AV-unprocessed.smi

> <i_m_source_file_index>
446

> <i_lp_mmshare_version>
43012

> <i_f3d_flags>
0

> <s_epik_input>
W2NIXTFbY0hdW2NIXVtjSF1jKGMxMiluKGMobjIpW0NIM10pW0NIMl1bQ0BIXShbT0hdKWMzW2NIXVtjSF1jKEYpW2NIXVtjSF0z

> <s_epik_cmdline>
J2VwaWtfcHl0aG9uJywgJy1waCcsICc3LjAnLCAnLXRuJywgJzgnLCAnLW1hJywgJzIwMCcsICctbWV0YWxfYmluZGluZycsICctaW1hZScsICc8aW5maWxlLm1hZT4nLCAnLW9tYWUnLCAnPG91dGZpbGUubWFlPic=

> <r_epik_Ionization_Penalty>
0.129663

> <r_epik_Ionization_Penalty_Charging>
0

> <r_epik_Ionization_Penalty_Neutral>
0.129663

> <r_epik_State_Penalty>
0.119073

> <r_epik_Charging_Adjusted_Penalty>
0.119073

> <i_epik_Tot_Q>
0

> <i_epik_Tot_abs_Q>
0

> <r_epik_Metal_State_Penalty>
0.000131867

> <b_epik_Metal_Only>
0

> <s_lp_Force_Field>
OPLS_2005

> <r_lp_Energy>
11.4063

> <b_lp_Chiralities_Consistent>
1

> <s_lp_Variant>
AV-unprocessed.smi:446-1

> <Gold.Version>
5.8.1

> <Gold.Id.Protein>
6NUR|6NUR_protein|mol2

> <Gold.PLP.Fitness>
46.0548

> <Gold.PLP.PLP>
-46.6466

> <Gold.PLP.part.hbond>
-1.0000

> <Gold.PLP.part.metal>
0.0000

> <Gold.PLP.part.buried>
-2.7168

> <Gold.PLP.part.nonpolar>
-41.3510

> <Gold.PLP.part.repulsive>
0.2044

> <Gold.PLP.ligand.clash>
0.0000

> <Gold.PLP.ligand.torsion>
1.4111

> <Gold.PLP.Chemscore.Hbond>
0.7360

> <Gold.PLP.Chemscore.CHOScore>
0.0000

> <Gold.PLP.Chemscore.Metal>
0.0000

> <Gold.Chemscore.Hbonds>
donor molecule, donor type, donor heavy atom, donor atom, acceptor molecule, acceptor atom, score
      L1  H    13    31       P1  8028  0.77

> <Gold.PLP.Chemscore.Internal.Correction>
0.0223

> <Gold.Rescore>
     Score         DG    S(hbond)    S(metal)    S(lipo)     H(rot)  DE(clash)    DE(int)     intcor
     16.20     -17.43       0.91        0.00     115.38       1.79       0.16       1.07       ----

> <Gold.Chemscore.Fitness>
16.2031

> <Gold.Chemscore.DG>
-17.4268

> <Gold.Chemscore.ZeroCoef>
-5.4800

> <Gold.Chemscore.Hbond>
0.9091

> <Gold.Chemscore.Metal>
0.0000

> <Gold.Chemscore.Lipo>
115.3786

> <Gold.Chemscore.Internal_Hbond>
0.0000

> <Gold.Chemscore.DEClash>
0.1551

> <Gold.Chemscore.DEInternal>
1.0685

> <Gold.Chemscore.Rot>
1.7926

> <Gold.Chemscore.Internal.Correction>
   9.000000E+99

> <Gold.Chemscore.Hbonds>
donor molecule, donor type, donor heavy atom, donor atom, acceptor molecule, acceptor atom, score
      L1  H    13    31       P1  8028  0.78

> <Gold.Chemscore.Hbond.Weighted>
-3.0365

> <Gold.Chemscore.Metal.Weighted>
-0.0000

> <Gold.Chemscore.Lipo.Weighted>
-13.4993

> <Gold.Chemscore.Internal_Hbond.Weighted>
0.0000

> <Gold.Chemscore.DEClash.Weighted>
0.1551

> <Gold.Chemscore.DEInternal.Weighted>
1.0685

> <Gold.Chemscore.Rot.Weighted>
4.5890

> <Gold.Chemscore.Internal.Correction.Weighted>
   9.000000E+99

> <Gold.Protein.RotatedTorsions>
[ 6907 6896 6895 6894 ] final -138.97 input  -60.11 | X-H torsion
[ 7974 7965 7964 7962 ] final   22.01 input  175.53 | X-H torsion
[ 8008 7997 7996 7995 ] final   -8.90 input   59.86 | X-H torsion
[ 10167 10162 10161 10158 ] final   50.78 input  -65.29 | X-H torsion
[ 10718 10713 10712 10709 ] final   -7.05 input   66.30 | X-H torsion
[ 10763 10752 10751 10750 ] final   29.34 input  -60.55 | X-H torsion
[ 11005 11000 10999 10996 ] final -124.31 input  -57.11 | X-H torsion

> <Gold.Protein.ActiveResidues>
 VAL166  LYS551  ARG553  GLY616  TRP617  ASP618  TYR619  PRO620  LYS621  CYS622 
 ASP623  PHE694  ASN695  SER759  ASP760  ASP761  ALA762  ILE779  LEU786  VAL792 
 PHE793  MET794  SER795  GLU796  ALA797  LYS798  CYS799  TRP800  GLU811  SER814 

> <Gold.Protein.RotatedAtoms>
  151.0417  133.5700  159.2650 H   0  0  0  0  0  0  0  0  0  0  0  0  # atno 6907 bound_to 6896
  151.2744  135.0693  159.9156 H   0  0  0  0  0  0  0  0  0  0  0  0  # atno 6908 bound_to 6896
  152.5365  134.0142  159.8006 H   0  0  0  0  0  0  0  0  0  0  0  0  # atno 6909 bound_to 6896
  146.2047  139.7945  142.8735 H   0  0  0  0  0  0  0  0  0  0  0  0  # atno 7974 bound_to 7965
  154.5697  140.2369  155.8210 H   0  0  0  0  0  0  0  0  0  0  0  0  # atno 8008 bound_to 7997
  156.2097  140.3029  155.9663 H   0  0  0  0  0  0  0  0  0  0  0  0  # atno 8009 bound_to 7997
  155.2735  140.0419  157.2999 H   0  0  0  0  0  0  0  0  0  0  0  0  # atno 8010 bound_to 7997
  140.2688  144.3289  150.6296 H   0  0  0  0  0  0  0  0  0  0  0  0  # atno 10167 bound_to 10162
  156.7229  130.5156  149.5864 H   0  0  0  0  0  0  0  0  0  0  0  0  # atno 10718 bound_to 10713
  153.0436  135.6491  154.0875 H   0  0  0  0  0  0  0  0  0  0  0  0  # atno 10763 bound_to 10752
  154.0577  135.2890  155.3331 H   0  0  0  0  0  0  0  0  0  0  0  0  # atno 10764 bound_to 10752
  154.6678  135.5367  153.8165 H   0  0  0  0  0  0  0  0  0  0  0  0  # atno 10765 bound_to 10752
  140.9851  134.0618  157.3720 H   0  0  0  0  0  0  0  0  0  0  0  0  # atno 11005 bound_to 11000
  145.3361  141.0277  143.3418 LP  0  0  0  0  0  0  0  0  0  0  0  0  # atno 17320 bound_to 7965
  144.8764  139.4965  143.6743 LP  0  0  0  0  0  0  0  0  0  0  0  0  # atno 17321 bound_to 7965
  140.5906  143.2168  151.7259 LP  0  0  0  0  0  0  0  0  0  0  0  0  # atno 17342 bound_to 10162
  139.4995  144.3944  152.0246 LP  0  0  0  0  0  0  0  0  0  0  0  0  # atno 17343 bound_to 10162
  156.1582  130.6356  151.0684 LP  0  0  0  0  0  0  0  0  0  0  0  0  # atno 17370 bound_to 10713
  157.6890  131.0816  150.7160 LP  0  0  0  0  0  0  0  0  0  0  0  0  # atno 17371 bound_to 10713
  139.8967  135.0147  156.7065 LP  0  0  0  0  0  0  0  0  0  0  0  0  # atno 17394 bound_to 11000
  140.7126  133.9210  155.8094 LP  0  0  0  0  0  0  0  0  0  0  0  0  # atno 17395 bound_to 11000

$$$$
