AV-unprocessed.smi:1809|AV-procd|sdf|7330|dock5
  -GOLD-   22720 8583D 1   1.00000     0.00000
 Structure written by MMmdl.
 38 40  0  0  0  0  0  0  0  0  2 V2000
  149.4820  132.7952  154.0831 C   0  0  0  0  0  0  0  0  0  0  0  0
  149.8286  133.8974  155.0243 C   0  0  0  0  0  0  0  0  0  0  0  0
  149.9558  135.1679  154.6341 N   0  0  0  0  0  0  0  0  0  0  0  0
  150.2841  136.0079  155.6884 N   0  0  0  0  0  0  0  0  0  0  0  0
  150.4134  135.3613  156.8557 C   0  0  0  0  0  0  0  0  0  0  0  0
  150.7250  135.9942  157.9990 N   0  5  0  0  0  0  0  0  0  0  0  0
  150.2105  137.2182  158.2563 C   0  0  0  0  0  0  0  0  0  0  0  0
  149.0423  137.4715  158.5598 O   0  0  0  0  0  0  0  0  0  0  0  0
  151.1025  138.2120  158.1547 N   0  0  0  0  0  0  0  0  0  0  0  0
  150.8156  139.6223  158.3822 C   0  0  0  0  0  0  0  0  0  0  0  0
  151.9721  140.5048  157.8744 C   0  0  1  0  0  0  0  0  0  0  0  0
  151.6726  142.0174  158.0024 C   0  0  0  0  0  0  0  0  0  0  0  0
  151.7861  142.4483  159.3835 N   0  0  0  0  0  0  0  0  0  0  0  0
  151.6250  143.8603  159.6401 C   0  0  0  0  0  0  0  0  0  0  0  0
  152.1933  144.0567  161.0562 C   0  0  0  0  0  0  0  0  0  0  0  0
  153.1014  142.8274  161.2803 C   0  0  0  0  0  0  0  0  0  0  0  0
  153.0859  142.1395  159.9139 C   0  0  1  0  0  0  0  0  0  0  0  0
  153.3415  140.6267  159.8808 C   0  0  0  0  0  0  0  0  0  0  0  0
  153.2103  140.1796  158.5278 O   0  0  0  0  0  0  0  0  0  0  0  0
  150.1090  133.6283  156.7363 S   0  0  0  0  0  0  0  0  0  0  0  0
  150.3792  132.4487  153.5704 H   0  0  0  0  0  0  0  0  0  0  0  0
  148.7637  133.1429  153.3402 H   0  0  0  0  0  0  0  0  0  0  0  0
  149.0431  131.9585  154.6266 H   0  0  0  0  0  0  0  0  0  0  0  0
  152.0514  137.9692  157.9102 H   0  0  0  0  0  0  0  0  0  0  0  0
  149.8968  139.8850  157.8558 H   0  0  0  0  0  0  0  0  0  0  0  0
  150.6280  139.7903  159.4432 H   0  0  0  0  0  0  0  0  0  0  0  0
  152.1094  140.2827  156.8154 H   0  0  0  0  0  0  0  0  0  0  0  0
  152.3802  142.5750  157.3872 H   0  0  0  0  0  0  0  0  0  0  0  0
  150.6780  142.2442  157.6173 H   0  0  0  0  0  0  0  0  0  0  0  0
  152.2073  144.4420  158.9237 H   0  0  0  0  0  0  0  0  0  0  0  0
  150.5822  144.1679  159.5585 H   0  0  0  0  0  0  0  0  0  0  0  0
  152.7460  144.9935  161.1315 H   0  0  0  0  0  0  0  0  0  0  0  0
  151.3942  144.0777  161.7981 H   0  0  0  0  0  0  0  0  0  0  0  0
  154.1099  143.0998  161.5925 H   0  0  0  0  0  0  0  0  0  0  0  0
  152.6724  142.1779  162.0447 H   0  0  0  0  0  0  0  0  0  0  0  0
  153.8430  142.6221  159.2920 H   0  0  0  0  0  0  0  0  0  0  0  0
  154.3465  140.3996  160.2366 H   0  0  0  0  0  0  0  0  0  0  0  0
  152.6449  140.0928  160.5280 H   0  0  0  0  0  0  0  0  0  0  0  0
  1  2  1  0  0  0  0
  1 21  1  0  0  0  0
  1 22  1  0  0  0  0
  1 23  1  0  0  0  0
  2 20  1  0  0  0  0
  2  3  2  0  0  0  0
  3  4  1  0  0  0  0
  4  5  2  0  0  0  0
  5  6  1  0  0  0  0
  5 20  1  0  0  0  0
  6  7  1  0  0  0  0
  7  8  2  0  0  0  0
  7  9  1  0  0  0  0
  9 10  1  0  0  0  0
  9 24  1  0  0  0  0
 10 11  1  0  0  0  0
 10 25  1  0  0  0  0
 10 26  1  0  0  0  0
 11 19  1  0  0  0  0
 11 12  1  0  0  0  0
 11 27  1  0  0  0  0
 12 13  1  0  0  0  0
 12 28  1  0  0  0  0
 12 29  1  0  0  0  0
 13 17  1  0  0  0  0
 13 14  1  0  0  0  0
 14 15  1  0  0  0  0
 14 30  1  0  0  0  0
 14 31  1  0  0  0  0
 15 16  1  0  0  0  0
 15 32  1  0  0  0  0
 15 33  1  0  0  0  0
 16 17  1  0  0  0  0
 16 34  1  0  0  0  0
 16 35  1  0  0  0  0
 17 18  1  0  0  0  0
 17 36  1  0  0  0  0
 18 19  1  0  0  0  0
 18 37  1  0  0  0  0
 18 38  1  0  0  0  0
M  CHG  1   6  -1
M  END
> <s_m_source_file>
AV-unprocessed.smi

> <i_m_source_file_index>
1809

> <i_lp_mmshare_version>
43012

> <i_f3d_flags>
0

> <s_epik_input>
W0NIM11jMW5uYyhzMSlbTkhdQyg9TylbTkhdW0NIMl1bQ0BIXShbQ0gyXTIpT1tDSDJdW0NAQEhdKE4yMylbQ0gyXVtDSDJdW0NIMl0z

> <s_epik_cmdline>
J2VwaWtfcHl0aG9uJywgJy1waCcsICc3LjAnLCAnLXRuJywgJzgnLCAnLW1hJywgJzIwMCcsICctbWV0YWxfYmluZGluZycsICctaW1hZScsICc8aW5maWxlLm1hZT4nLCAnLW9tYWUnLCAnPG91dGZpbGUubWFlPic=

> <r_lp_tautomer_probability>
1

> <r_epik_Ionization_Penalty>
4.48809

> <r_epik_Ionization_Penalty_Charging>
3.27284

> <r_epik_Ionization_Penalty_Neutral>
1.21525

> <r_epik_State_Penalty>
4.69427

> <r_epik_Charging_Adjusted_Penalty>
7.96711

> <i_epik_Tot_Q>
-1

> <i_epik_Tot_abs_Q>
1

> <r_epik_Metal_State_Penalty>
1.91976

> <b_epik_Metal_Only>
1

> <s_lp_Force_Field>
OPLS_2005

> <r_lp_Energy>
48.8238

> <b_lp_Chiralities_Consistent>
1

> <s_lp_Variant>
AV-unprocessed.smi:1809-22

> <Gold.Version>
5.8.1

> <Gold.Id.Protein>
6NUR|6NUR_protein|mol2

> <Gold.PLP.Fitness>
39.0112

> <Gold.PLP.PLP>
-34.5477

> <Gold.PLP.part.hbond>
-2.0000

> <Gold.PLP.part.metal>
0.0000

> <Gold.PLP.part.buried>
-5.7945

> <Gold.PLP.part.nonpolar>
-26.5594

> <Gold.PLP.part.repulsive>
0.5538

> <Gold.PLP.ligand.clash>
0.0000

> <Gold.PLP.ligand.torsion>
1.0526

> <Gold.PLP.Chemscore.Hbond>
2.1835

> <Gold.PLP.Chemscore.CHOScore>
0.0000

> <Gold.PLP.Chemscore.Metal>
0.0000

> <Gold.Chemscore.Hbonds>
donor molecule, donor type, donor heavy atom, donor atom, acceptor molecule, acceptor atom, score
      P1  H  6896  6909       L1     6  1.22
      P1  H  7997  8010       L1    19  0.97

> <Gold.PLP.Chemscore.Internal.Correction>
0.0182

> <Gold.Rescore>
     Score         DG    S(hbond)    S(metal)    S(lipo)     H(rot)  DE(clash)    DE(int)     intcor
     16.02     -16.92       1.42        0.00      85.78       1.31       0.02       0.89       ----

> <Gold.Chemscore.Fitness>
16.0227

> <Gold.Chemscore.DG>
-16.9249

> <Gold.Chemscore.ZeroCoef>
-5.4800

> <Gold.Chemscore.Hbond>
1.4219

> <Gold.Chemscore.Metal>
0.0000

> <Gold.Chemscore.Lipo>
85.7846

> <Gold.Chemscore.Internal_Hbond>
0.0000

> <Gold.Chemscore.DEClash>
0.0153

> <Gold.Chemscore.DEInternal>
0.8870

> <Gold.Chemscore.Rot>
1.3051

> <Gold.Chemscore.Internal.Correction>
   9.000000E+99

> <Gold.Chemscore.Hbonds>
donor molecule, donor type, donor heavy atom, donor atom, acceptor molecule, acceptor atom, score
      P1  H  6896  6909       L1     6  0.44
      P1  H  7997  8010       L1    19  0.51

> <Gold.Chemscore.Hbond.Weighted>
-4.7493

> <Gold.Chemscore.Metal.Weighted>
-0.0000

> <Gold.Chemscore.Lipo.Weighted>
-10.0368

> <Gold.Chemscore.Internal_Hbond.Weighted>
0.0000

> <Gold.Chemscore.DEClash.Weighted>
0.0153

> <Gold.Chemscore.DEInternal.Weighted>
0.8870

> <Gold.Chemscore.Rot.Weighted>
3.3412

> <Gold.Chemscore.Internal.Correction.Weighted>
   9.000000E+99

> <Gold.Protein.RotatedTorsions>
[ 6907 6896 6895 6894 ] final   71.94 input  -60.11 | X-H torsion
[ 7974 7965 7964 7962 ] final   38.61 input  175.53 | X-H torsion
[ 8008 7997 7996 7995 ] final   30.39 input   59.86 | X-H torsion
[ 10167 10162 10161 10158 ] final  140.30 input  -65.29 | X-H torsion
[ 10718 10713 10712 10709 ] final   89.15 input   66.30 | X-H torsion
[ 10763 10752 10751 10750 ] final  104.12 input  -60.55 | X-H torsion
[ 11005 11000 10999 10996 ] final  152.14 input  -57.11 | X-H torsion

> <Gold.Protein.ActiveResidues>
 VAL166  LYS551  ARG553  GLY616  TRP617  ASP618  TYR619  PRO620  LYS621  CYS622 
 ASP623  PHE694  ASN695  SER759  ASP760  ASP761  ALA762  ILE779  LEU786  VAL792 
 PHE793  MET794  SER795  GLU796  ALA797  LYS798  CYS799  TRP800  GLU811  SER814 

> <Gold.Protein.RotatedAtoms>
  152.4839  134.4646  159.9615 H   0  0  0  0  0  0  0  0  0  0  0  0  # atno 6907 bound_to 6896
  151.4646  133.3578  159.2822 H   0  0  0  0  0  0  0  0  0  0  0  0  # atno 6908 bound_to 6896
  150.8933  134.8364  159.7369 H   0  0  0  0  0  0  0  0  0  0  0  0  # atno 6909 bound_to 6896
  146.1048  139.5751  142.9390 H   0  0  0  0  0  0  0  0  0  0  0  0  # atno 7974 bound_to 7965
  155.0896  140.3218  155.4577 H   0  0  0  0  0  0  0  0  0  0  0  0  # atno 8008 bound_to 7997
  156.2746  140.2080  156.5969 H   0  0  0  0  0  0  0  0  0  0  0  0  # atno 8009 bound_to 7997
  154.6914  140.0516  157.0354 H   0  0  0  0  0  0  0  0  0  0  0  0  # atno 8010 bound_to 7997
  139.5053  144.6243  151.5976 H   0  0  0  0  0  0  0  0  0  0  0  0  # atno 10167 bound_to 10162
  157.6953  131.0322  150.3382 H   0  0  0  0  0  0  0  0  0  0  0  0  # atno 10718 bound_to 10713
  153.3616  135.3954  155.1723 H   0  0  0  0  0  0  0  0  0  0  0  0  # atno 10763 bound_to 10752
  154.8680  135.3681  154.5091 H   0  0  0  0  0  0  0  0  0  0  0  0  # atno 10764 bound_to 10752
  153.5551  135.7082  153.5633 H   0  0  0  0  0  0  0  0  0  0  0  0  # atno 10765 bound_to 10752
  140.1281  134.8820  157.2165 H   0  0  0  0  0  0  0  0  0  0  0  0  # atno 11005 bound_to 11000
  145.5782  141.0386  143.2137 LP  0  0  0  0  0  0  0  0  0  0  0  0  # atno 17320 bound_to 7965
  144.7462  139.7314  143.7291 LP  0  0  0  0  0  0  0  0  0  0  0  0  # atno 17321 bound_to 7965
  140.5954  143.9704  150.6351 LP  0  0  0  0  0  0  0  0  0  0  0  0  # atno 17342 bound_to 10162
  140.2899  143.3331  152.1072 LP  0  0  0  0  0  0  0  0  0  0  0  0  # atno 17343 bound_to 10162
  156.3846  130.3887  149.7075 LP  0  0  0  0  0  0  0  0  0  0  0  0  # atno 17370 bound_to 10713
  156.4446  130.7877  151.2899 LP  0  0  0  0  0  0  0  0  0  0  0  0  # atno 17371 bound_to 10713
  140.2878  134.3275  155.7324 LP  0  0  0  0  0  0  0  0  0  0  0  0  # atno 17394 bound_to 11000
  141.2165  133.7516  156.9458 LP  0  0  0  0  0  0  0  0  0  0  0  0  # atno 17395 bound_to 11000

$$$$
