AV-unprocessed.smi:2782|AV-procd|sdf|10721|dock5
  -GOLD-   2272015163D 1   1.00000     0.00000
 Structure written by MMmdl.
 38 39  0  0  0  0  0  0  0  0  1 V2000
  151.6071  145.5912  159.3405 C   0  0  0  0  0  0  0  0  0  0  0  0
  151.9791  144.1229  159.3137 C   0  0  0  0  0  0  0  0  0  0  0  0
  152.9051  143.6061  160.2409 C   0  0  0  0  0  0  0  0  0  0  0  0
  153.2429  142.2411  160.2083 C   0  0  0  0  0  0  0  0  0  0  0  0
  152.6575  141.3890  159.2518 C   0  0  0  0  0  0  0  0  0  0  0  0
  153.0886  139.7163  159.2352 Cl  0  0  0  0  0  0  0  0  0  0  0  0
  151.7280  141.8920  158.3144 C   0  0  0  0  0  0  0  0  0  0  0  0
  151.1958  140.9983  157.4090 O   0  0  0  0  0  0  0  0  0  0  0  0
  150.1971  141.4563  156.5057 C   0  0  0  0  0  0  0  0  0  0  0  0
  149.9845  140.4173  155.3916 C   0  0  2  0  0  0  0  0  0  0  0  0
  151.2348  140.1767  154.7774 O   0  0  0  0  0  0  0  0  0  0  0  0
  148.9457  140.8622  154.3389 C   0  0  0  0  0  0  0  0  0  0  0  0
  147.5807  140.8670  154.8775 N   0  0  0  0  0  0  0  0  0  0  0  0
  146.8470  141.9920  154.5415 N   0  0  0  0  0  0  0  0  0  0  0  0
  145.6269  142.1369  154.9435 C   0  0  0  0  0  0  0  0  0  0  0  0
  144.9040  143.3858  154.5339 C   0  0  0  0  0  0  0  0  0  0  0  0
  145.0171  141.1052  155.7608 C   0  0  0  0  0  0  0  0  0  0  0  0
  145.7341  140.0077  156.0843 C   0  0  0  0  0  0  0  0  0  0  0  0
  147.1126  139.8300  155.6328 C   0  0  0  0  0  0  0  0  0  0  0  0
  147.7888  138.8376  155.9023 O   0  0  0  0  0  0  0  0  0  0  0  0
  151.3956  143.2701  158.3544 C   0  0  0  0  0  0  0  0  0  0  0  0
  152.0642  146.1030  160.1879 H   0  0  0  0  0  0  0  0  0  0  0  0
  150.5255  145.7067  159.4175 H   0  0  0  0  0  0  0  0  0  0  0  0
  151.9409  146.0810  158.4255 H   0  0  0  0  0  0  0  0  0  0  0  0
  153.3591  144.2516  160.9786 H   0  0  0  0  0  0  0  0  0  0  0  0
  153.9530  141.8468  160.9203 H   0  0  0  0  0  0  0  0  0  0  0  0
  149.2575  141.6576  157.0232 H   0  0  0  0  0  0  0  0  0  0  0  0
  150.5326  142.3906  156.0524 H   0  0  0  0  0  0  0  0  0  0  0  0
  149.6707  139.4849  155.8623 H   0  0  0  0  0  0  0  0  0  0  0  0
  151.5290  139.3142  155.0275 H   0  0  0  0  0  0  0  0  0  0  0  0
  149.1877  141.8671  153.9876 H   0  0  0  0  0  0  0  0  0  0  0  0
  149.0099  140.2318  153.4495 H   0  0  0  0  0  0  0  0  0  0  0  0
  143.8584  143.3551  154.8414 H   0  0  0  0  0  0  0  0  0  0  0  0
  144.9289  143.5136  153.4512 H   0  0  0  0  0  0  0  0  0  0  0  0
  145.3610  144.2646  154.9895 H   0  0  0  0  0  0  0  0  0  0  0  0
  143.9993  141.2214  156.1027 H   0  0  0  0  0  0  0  0  0  0  0  0
  145.2791  139.2398  156.6925 H   0  0  0  0  0  0  0  0  0  0  0  0
  150.6915  143.6978  157.6570 H   0  0  0  0  0  0  0  0  0  0  0  0
  1  2  1  0  0  0  0
  1 22  1  0  0  0  0
  1 23  1  0  0  0  0
  1 24  1  0  0  0  0
  2 21  1  0  0  0  0
  2  3  2  0  0  0  0
  3  4  1  0  0  0  0
  3 25  1  0  0  0  0
  4  5  2  0  0  0  0
  4 26  1  0  0  0  0
  5  6  1  0  0  0  0
  5  7  1  0  0  0  0
  7  8  1  0  0  0  0
  7 21  2  0  0  0  0
  8  9  1  0  0  0  0
  9 10  1  0  0  0  0
  9 27  1  0  0  0  0
  9 28  1  0  0  0  0
 10 11  1  0  0  0  0
 10 12  1  0  0  0  0
 10 29  1  0  0  0  0
 11 30  1  0  0  0  0
 12 13  1  0  0  0  0
 12 31  1  0  0  0  0
 12 32  1  0  0  0  0
 13 19  1  0  0  0  0
 13 14  1  0  0  0  0
 14 15  2  0  0  0  0
 15 16  1  0  0  0  0
 15 17  1  0  0  0  0
 16 33  1  0  0  0  0
 16 34  1  0  0  0  0
 16 35  1  0  0  0  0
 17 18  2  0  0  0  0
 17 36  1  0  0  0  0
 18 19  1  0  0  0  0
 18 37  1  0  0  0  0
 19 20  2  0  0  0  0
 21 38  1  0  0  0  0
M  END
> <s_m_source_file>
AV-unprocessed.smi

> <i_m_source_file_index>
2782

> <i_lp_mmshare_version>
43012

> <i_f3d_flags>
0

> <s_epik_input>
W0NIM11jMVtjSF1bY0hdYyhDbCljKFtjSF0xKU9bQ0gyXVtDQEhdKFtPSF0pW0NIMl1uMm5jKFtDSDNdKVtjSF1bY0hdYzI9Tw==

> <s_epik_cmdline>
J2VwaWtfcHl0aG9uJywgJy1waCcsICc3LjAnLCAnLXRuJywgJzgnLCAnLW1hJywgJzIwMCcsICctbWV0YWxfYmluZGluZycsICctaW1hZScsICc8aW5maWxlLm1hZT4nLCAnLW9tYWUnLCAnPG91dGZpbGUubWFlPic=

> <r_lp_tautomer_probability>
1

> <r_epik_Ionization_Penalty>
2.96353e-07

> <r_epik_Ionization_Penalty_Charging>
1.79179e-07

> <r_epik_Ionization_Penalty_Neutral>
1.17174e-07

> <r_epik_State_Penalty>
-0

> <r_epik_Charging_Adjusted_Penalty>
1.79179e-07

> <i_epik_Tot_Q>
0

> <i_epik_Tot_abs_Q>
0

> <r_epik_Metal_State_Penalty>
-0

> <b_epik_Metal_Only>
0

> <s_lp_Force_Field>
OPLS_2005

> <r_lp_Energy>
32.0669

> <b_lp_Chiralities_Consistent>
1

> <s_lp_Variant>
AV-unprocessed.smi:2782-1

> <Gold.Version>
5.8.1

> <Gold.Id.Protein>
6NUR|6NUR_protein|mol2

> <Gold.PLP.Fitness>
46.4809

> <Gold.PLP.PLP>
-44.0608

> <Gold.PLP.part.hbond>
-0.9323

> <Gold.PLP.part.metal>
0.0000

> <Gold.PLP.part.buried>
-3.7696

> <Gold.PLP.part.nonpolar>
-38.7766

> <Gold.PLP.part.repulsive>
0.1856

> <Gold.PLP.ligand.clash>
0.0000

> <Gold.PLP.ligand.torsion>
0.3134

> <Gold.PLP.Chemscore.Hbond>
1.0000

> <Gold.PLP.Chemscore.CHOScore>
0.0000

> <Gold.PLP.Chemscore.Metal>
0.0000

> <Gold.Chemscore.Hbonds>
donor molecule, donor type, donor heavy atom, donor atom, acceptor molecule, acceptor atom, score
      P1  H  7989  7998       L1    11  0.94

> <Gold.PLP.Chemscore.Internal.Correction>
0.0468

> <Gold.Rescore>
     Score         DG    S(hbond)    S(metal)    S(lipo)     H(rot)  DE(clash)    DE(int)     intcor
     15.26     -17.31       0.98        0.00     121.76       2.22       0.12       1.93       ----

> <Gold.Chemscore.Fitness>
15.2619

> <Gold.Chemscore.DG>
-17.3108

> <Gold.Chemscore.ZeroCoef>
-5.4800

> <Gold.Chemscore.Hbond>
0.9784

> <Gold.Chemscore.Metal>
0.0000

> <Gold.Chemscore.Lipo>
121.7605

> <Gold.Chemscore.Internal_Hbond>
0.0000

> <Gold.Chemscore.DEClash>
0.1171

> <Gold.Chemscore.DEInternal>
1.9318

> <Gold.Chemscore.Rot>
2.2199

> <Gold.Chemscore.Internal.Correction>
   9.000000E+99

> <Gold.Chemscore.Hbonds>
donor molecule, donor type, donor heavy atom, donor atom, acceptor molecule, acceptor atom, score
      P1  H  7989  7998       L1    11  0.88

> <Gold.Chemscore.Hbond.Weighted>
-3.2677

> <Gold.Chemscore.Metal.Weighted>
-0.0000

> <Gold.Chemscore.Lipo.Weighted>
-14.2460

> <Gold.Chemscore.Internal_Hbond.Weighted>
0.0000

> <Gold.Chemscore.DEClash.Weighted>
0.1171

> <Gold.Chemscore.DEInternal.Weighted>
1.9318

> <Gold.Chemscore.Rot.Weighted>
5.6829

> <Gold.Chemscore.Internal.Correction.Weighted>
   9.000000E+99

> <Gold.Protein.RotatedTorsions>
[ 6907 6896 6895 6894 ] final  -16.36 input  -60.11 | X-H torsion
[ 7974 7965 7964 7962 ] final  109.84 input  175.53 | X-H torsion
[ 8008 7997 7996 7995 ] final  123.90 input   59.86 | X-H torsion
[ 10167 10162 10161 10158 ] final  113.04 input  -65.29 | X-H torsion
[ 10718 10713 10712 10709 ] final   54.17 input   66.30 | X-H torsion
[ 10763 10752 10751 10750 ] final   94.26 input  -60.55 | X-H torsion
[ 11005 11000 10999 10996 ] final -153.62 input  -57.11 | X-H torsion

> <Gold.Protein.ActiveResidues>
 VAL166  LYS551  ARG553  GLY616  TRP617  ASP618  TYR619  PRO620  LYS621  CYS622 
 ASP623  PHE694  ASN695  SER759  ASP760  ASP761  ALA762  ILE779  LEU786  VAL792 
 PHE793  MET794  SER795  GLU796  ALA797  LYS798  CYS799  TRP800  GLU811  SER814 

> <Gold.Protein.RotatedAtoms>
  151.3097  135.0791  159.9267 H   0  0  0  0  0  0  0  0  0  0  0  0  # atno 6907 bound_to 6896
  152.5280  133.9748  159.7789 H   0  0  0  0  0  0  0  0  0  0  0  0  # atno 6908 bound_to 6896
  151.0049  133.5968  159.2720 H   0  0  0  0  0  0  0  0  0  0  0  0  # atno 6909 bound_to 6896
  145.2627  139.2696  143.4008 H   0  0  0  0  0  0  0  0  0  0  0  0  # atno 7974 bound_to 7965
  156.2783  140.2752  156.1702 H   0  0  0  0  0  0  0  0  0  0  0  0  # atno 8008 bound_to 7997
  155.0662  140.0387  157.2611 H   0  0  0  0  0  0  0  0  0  0  0  0  # atno 8009 bound_to 7997
  154.7077  140.2662  155.6664 H   0  0  0  0  0  0  0  0  0  0  0  0  # atno 8010 bound_to 7997
  139.6491  144.7128  151.2084 H   0  0  0  0  0  0  0  0  0  0  0  0  # atno 10167 bound_to 10162
  157.5232  130.8579  149.8587 H   0  0  0  0  0  0  0  0  0  0  0  0  # atno 10718 bound_to 10713
  153.2396  135.4296  155.0684 H   0  0  0  0  0  0  0  0  0  0  0  0  # atno 10763 bound_to 10752
  154.8334  135.3399  154.6668 H   0  0  0  0  0  0  0  0  0  0  0  0  # atno 10764 bound_to 10752
  153.7092  135.7024  153.5098 H   0  0  0  0  0  0  0  0  0  0  0  0  # atno 10765 bound_to 10752
  140.7061  134.3883  157.5204 H   0  0  0  0  0  0  0  0  0  0  0  0  # atno 11005 bound_to 11000
  146.3270  140.3048  142.8623 LP  0  0  0  0  0  0  0  0  0  0  0  0  # atno 17320 bound_to 7965
  144.9404  140.8072  143.5634 LP  0  0  0  0  0  0  0  0  0  0  0  0  # atno 17321 bound_to 7965
  140.7529  143.6181  150.8540 LP  0  0  0  0  0  0  0  0  0  0  0  0  # atno 17342 bound_to 10162
  139.9827  143.5933  152.2937 LP  0  0  0  0  0  0  0  0  0  0  0  0  # atno 17343 bound_to 10162
  156.0368  130.3749  150.1538 LP  0  0  0  0  0  0  0  0  0  0  0  0  # atno 17370 bound_to 10713
  156.9725  130.9839  151.3455 LP  0  0  0  0  0  0  0  0  0  0  0  0  # atno 17371 bound_to 10713
  139.8884  134.8858  156.2478 LP  0  0  0  0  0  0  0  0  0  0  0  0  # atno 17394 bound_to 11000
  141.0123  133.7088  156.1132 LP  0  0  0  0  0  0  0  0  0  0  0  0  # atno 17395 bound_to 11000

$$$$
