AV-unprocessed.smi:2893|AV-procd|sdf|11125|dock6
  -GOLD-   2272015593D 1   1.00000     0.00000
 Structure written by MMmdl.
 37 39  0  0  0  0  0  0  0  0  1 V2000
  139.9007  141.6147  154.3010 C   0  0  0  0  0  0  0  0  0  0  0  0
  141.3158  141.2278  154.7504 C   0  0  0  0  0  0  0  0  0  0  0  0
  141.6570  139.8709  154.3401 N   0  0  0  0  0  0  0  0  0  0  0  0
  141.1134  138.7485  154.8416 C   0  0  0  0  0  0  0  0  0  0  0  0
  140.2430  138.7517  155.7132 O   0  0  0  0  0  0  0  0  0  0  0  0
  141.6020  137.4566  154.2422 C   0  0  0  0  0  0  0  0  0  0  0  0
  142.4443  137.4747  153.1093 C   0  0  0  0  0  0  0  0  0  0  0  0
  142.8614  136.2409  152.5813 C   0  0  0  0  0  0  0  0  0  0  0  0
  142.4064  135.0698  153.2160 C   0  0  0  0  0  0  0  0  0  0  0  0
  142.8058  133.8252  152.7092 N   0  0  0  0  0  0  0  0  0  0  0  0
  143.8136  133.7272  151.6589 C   0  0  1  0  0  0  0  0  0  0  0  0
  145.2089  134.1687  152.1197 C   0  0  0  0  0  0  0  0  0  0  0  0
  146.0549  132.9302  151.8008 C   0  0  2  0  0  0  0  0  0  0  0  0
  146.2094  132.7037  150.2907 C   0  0  0  0  0  0  0  0  0  0  0  0
  144.8183  132.2008  149.9063 C   0  0  0  0  0  0  0  0  0  0  0  0
  144.0759  132.2685  151.2476 C   0  0  1  0  0  0  0  0  0  0  0  0
  145.1290  131.9092  152.1275 O   0  0  0  0  0  0  0  0  0  0  0  0
  141.5962  135.1150  154.3019 N   0  0  0  0  0  0  0  0  0  0  0  0
  141.1982  136.2885  154.8037 N   0  0  0  0  0  0  0  0  0  0  0  0
  139.6486  142.6196  154.6403 H   0  0  0  0  0  0  0  0  0  0  0  0
  139.1565  140.9301  154.7089 H   0  0  0  0  0  0  0  0  0  0  0  0
  139.8107  141.6008  153.2144 H   0  0  0  0  0  0  0  0  0  0  0  0
  142.0467  141.9373  154.3591 H   0  0  0  0  0  0  0  0  0  0  0  0
  141.3834  141.2808  155.8371 H   0  0  0  0  0  0  0  0  0  0  0  0
  142.3586  139.7716  153.6201 H   0  0  0  0  0  0  0  0  0  0  0  0
  142.7654  138.4005  152.6545 H   0  0  0  0  0  0  0  0  0  0  0  0
  143.5073  136.1985  151.7165 H   0  0  0  0  0  0  0  0  0  0  0  0
  142.5405  132.9830  153.1990 H   0  0  0  0  0  0  0  0  0  0  0  0
  143.4806  134.2984  150.7912 H   0  0  0  0  0  0  0  0  0  0  0  0
  145.5602  135.0598  151.5988 H   0  0  0  0  0  0  0  0  0  0  0  0
  145.2335  134.3731  153.1913 H   0  0  0  0  0  0  0  0  0  0  0  0
  146.9923  132.8804  152.3552 H   0  0  0  0  0  0  0  0  0  0  0  0
  146.4919  133.6153  149.7628 H   0  0  0  0  0  0  0  0  0  0  0  0
  146.9617  131.9414  150.0854 H   0  0  0  0  0  0  0  0  0  0  0  0
  144.3448  132.8083  149.1343 H   0  0  0  0  0  0  0  0  0  0  0  0
  144.8714  131.1726  149.5464 H   0  0  0  0  0  0  0  0  0  0  0  0
  143.2011  131.6186  151.2944 H   0  0  0  0  0  0  0  0  0  0  0  0
  1  2  1  0  0  0  0
  1 20  1  0  0  0  0
  1 21  1  0  0  0  0
  1 22  1  0  0  0  0
  2  3  1  0  0  0  0
  2 23  1  0  0  0  0
  2 24  1  0  0  0  0
  3  4  1  0  0  0  0
  3 25  1  0  0  0  0
  4  5  2  0  0  0  0
  4  6  1  0  0  0  0
  6 19  1  0  0  0  0
  6  7  2  0  0  0  0
  7  8  1  0  0  0  0
  7 26  1  0  0  0  0
  8  9  2  0  0  0  0
  8 27  1  0  0  0  0
  9 10  1  0  0  0  0
  9 18  1  0  0  0  0
 10 11  1  0  0  0  0
 10 28  1  0  0  0  0
 11 16  1  0  0  0  0
 11 12  1  0  0  0  0
 11 29  1  0  0  0  0
 12 13  1  0  0  0  0
 12 30  1  0  0  0  0
 12 31  1  0  0  0  0
 13 17  1  0  0  0  0
 13 14  1  0  0  0  0
 13 32  1  0  0  0  0
 14 15  1  0  0  0  0
 14 33  1  0  0  0  0
 14 34  1  0  0  0  0
 15 16  1  0  0  0  0
 15 35  1  0  0  0  0
 15 36  1  0  0  0  0
 16 17  1  0  0  0  0
 16 37  1  0  0  0  0
 18 19  2  0  0  0  0
M  END
> <s_m_source_file>
AV-unprocessed.smi

> <i_m_source_file_index>
2893

> <i_lp_mmshare_version>
43012

> <i_f3d_flags>
0

> <s_epik_input>
W0NIM11bQ0gyXVtOSF1DKD1PKWMxW2NIXVtjSF1jKG5uMSlbTkhdW0NASF0oW0NIMl1bQ0BASF0yMylbQ0BASF0oTzMpW0NIMl1bQ0gyXTI=

> <s_epik_cmdline>
J2VwaWtfcHl0aG9uJywgJy1waCcsICc3LjAnLCAnLXRuJywgJzgnLCAnLW1hJywgJzIwMCcsICctbWV0YWxfYmluZGluZycsICctaW1hZScsICc8aW5maWxlLm1hZT4nLCAnLW9tYWUnLCAnPG91dGZpbGUubWFlPic=

> <r_lp_tautomer_probability>
1

> <r_epik_Ionization_Penalty>
0.00432031

> <r_epik_Ionization_Penalty_Charging>
0

> <r_epik_Ionization_Penalty_Neutral>
0.00432031

> <r_epik_State_Penalty>
-0

> <r_epik_Charging_Adjusted_Penalty>
0

> <i_epik_Tot_Q>
0

> <i_epik_Tot_abs_Q>
0

> <r_epik_Metal_State_Penalty>
-0

> <b_epik_Metal_Only>
0

> <s_lp_Force_Field>
OPLS_2005

> <r_lp_Energy>
49.39

> <b_lp_Chiralities_Consistent>
1

> <s_lp_Variant>
AV-unprocessed.smi:2893-4

> <Gold.Version>
5.8.1

> <Gold.Id.Protein>
6NUR|6NUR_protein|mol2

> <Gold.PLP.Fitness>
38.6286

> <Gold.PLP.PLP>
-31.3950

> <Gold.PLP.part.hbond>
-4.0000

> <Gold.PLP.part.metal>
0.0000

> <Gold.PLP.part.buried>
-6.1072

> <Gold.PLP.part.nonpolar>
-20.9052

> <Gold.PLP.part.repulsive>
0.3075

> <Gold.PLP.ligand.clash>
0.0000

> <Gold.PLP.ligand.torsion>
0.1123

> <Gold.PLP.Chemscore.Hbond>
2.4786

> <Gold.PLP.Chemscore.CHOScore>
0.0000

> <Gold.PLP.Chemscore.Metal>
0.0000

> <Gold.Chemscore.Hbonds>
donor molecule, donor type, donor heavy atom, donor atom, acceptor molecule, acceptor atom, score
      L1  H     3    25       P1 10175  1.00
      L1  H    10    28       P1 10957  1.00
      P1  H 11000 11005       L1    18  0.47

> <Gold.PLP.Chemscore.Internal.Correction>
0.0224

> <Gold.Rescore>
     Score         DG    S(hbond)    S(metal)    S(lipo)     H(rot)  DE(clash)    DE(int)     intcor
     16.38     -16.47       2.22        0.00      57.09       1.21       0.00       0.09       ----

> <Gold.Chemscore.Fitness>
16.3825

> <Gold.Chemscore.DG>
-16.4703

> <Gold.Chemscore.ZeroCoef>
-5.4800

> <Gold.Chemscore.Hbond>
2.2150

> <Gold.Chemscore.Metal>
0.0000

> <Gold.Chemscore.Lipo>
57.0914

> <Gold.Chemscore.Internal_Hbond>
0.0000

> <Gold.Chemscore.DEClash>
0.0024

> <Gold.Chemscore.DEInternal>
0.0855

> <Gold.Chemscore.Rot>
1.2061

> <Gold.Chemscore.Internal.Correction>
   9.000000E+99

> <Gold.Chemscore.Hbonds>
donor molecule, donor type, donor heavy atom, donor atom, acceptor molecule, acceptor atom, score
      L1  H     3    25       P1 10175  0.93
      L1  H    10    28       P1 10957  0.61
      P1  H 11000 11005       L1    18  0.04

> <Gold.Chemscore.Hbond.Weighted>
-7.3983

> <Gold.Chemscore.Metal.Weighted>
-0.0000

> <Gold.Chemscore.Lipo.Weighted>
-6.6797

> <Gold.Chemscore.Internal_Hbond.Weighted>
0.0000

> <Gold.Chemscore.DEClash.Weighted>
0.0024

> <Gold.Chemscore.DEInternal.Weighted>
0.0855

> <Gold.Chemscore.Rot.Weighted>
3.0876

> <Gold.Chemscore.Internal.Correction.Weighted>
   9.000000E+99

> <Gold.Protein.RotatedTorsions>
[ 6907 6896 6895 6894 ] final  141.27 input  -60.11 | X-H torsion
[ 7974 7965 7964 7962 ] final  -70.71 input  175.53 | X-H torsion
[ 8008 7997 7996 7995 ] final    6.09 input   59.86 | X-H torsion
[ 10167 10162 10161 10158 ] final   22.74 input  -65.29 | X-H torsion
[ 10718 10713 10712 10709 ] final   75.38 input   66.30 | X-H torsion
[ 10763 10752 10751 10750 ] final  -87.62 input  -60.55 | X-H torsion
[ 11005 11000 10999 10996 ] final    5.18 input  -57.11 | X-H torsion

> <Gold.Protein.ActiveResidues>
 VAL166  LYS551  ARG553  GLY616  TRP617  ASP618  TYR619  PRO620  LYS621  CYS622 
 ASP623  PHE694  ASN695  SER759  ASP760  ASP761  ALA762  ILE779  LEU786  VAL792 
 PHE793  MET794  SER795  GLU796  ALA797  LYS798  CYS799  TRP800  GLU811  SER814 

> <Gold.Protein.RotatedAtoms>
  152.2330  133.5073  159.5226 H   0  0  0  0  0  0  0  0  0  0  0  0  # atno 6907 bound_to 6896
  150.7043  134.1191  159.4037 H   0  0  0  0  0  0  0  0  0  0  0  0  # atno 6908 bound_to 6896
  151.9112  135.0338  160.0565 H   0  0  0  0  0  0  0  0  0  0  0  0  # atno 6909 bound_to 6896
  145.6874  140.9166  143.0800 H   0  0  0  0  0  0  0  0  0  0  0  0  # atno 7974 bound_to 7965
  154.7366  140.2741  155.6410 H   0  0  0  0  0  0  0  0  0  0  0  0  # atno 8008 bound_to 7997
  156.2863  140.2705  156.2007 H   0  0  0  0  0  0  0  0  0  0  0  0  # atno 8009 bound_to 7997
  155.0313  140.0371  157.2465 H   0  0  0  0  0  0  0  0  0  0  0  0  # atno 8010 bound_to 7997
  140.5325  143.9817  150.6473 H   0  0  0  0  0  0  0  0  0  0  0  0  # atno 10167 bound_to 10162
  157.6631  130.9723  150.1345 H   0  0  0  0  0  0  0  0  0  0  0  0  # atno 10718 bound_to 10713
  154.6356  135.5406  153.7730 H   0  0  0  0  0  0  0  0  0  0  0  0  # atno 10763 bound_to 10752
  153.0307  135.6446  154.1236 H   0  0  0  0  0  0  0  0  0  0  0  0  # atno 10764 bound_to 10752
  154.1163  135.2923  155.3199 H   0  0  0  0  0  0  0  0  0  0  0  0  # atno 10765 bound_to 10752
  140.5736  134.0079  155.8018 H   0  0  0  0  0  0  0  0  0  0  0  0  # atno 11005 bound_to 11000
  144.7007  139.8776  143.7445 LP  0  0  0  0  0  0  0  0  0  0  0  0  # atno 17320 bound_to 7965
  146.0912  139.3901  143.0405 LP  0  0  0  0  0  0  0  0  0  0  0  0  # atno 17321 bound_to 7965
  140.3196  143.3146  152.0797 LP  0  0  0  0  0  0  0  0  0  0  0  0  # atno 17342 bound_to 10162
  139.4959  144.6582  151.6524 LP  0  0  0  0  0  0  0  0  0  0  0  0  # atno 17343 bound_to 10162
  156.2183  130.3672  149.8586 LP  0  0  0  0  0  0  0  0  0  0  0  0  # atno 17370 bound_to 10713
  156.6446  130.8719  151.3520 LP  0  0  0  0  0  0  0  0  0  0  0  0  # atno 17371 bound_to 10713
  141.1041  133.9722  157.3028 LP  0  0  0  0  0  0  0  0  0  0  0  0  # atno 17394 bound_to 11000
  139.9350  135.0197  156.8527 LP  0  0  0  0  0  0  0  0  0  0  0  0  # atno 17395 bound_to 11000

$$$$
