AV-unprocessed.smi:3158|AV-procd|sdf|12045|dock8
  -GOLD-   2272017473D 1   1.00000     0.00000
 Structure written by MMmdl.
 39 39  0  0  0  0  0  0  0  0  1 V2000
  150.6205  140.8070  155.5721 C   0  0  0  0  0  0  0  0  0  0  0  0
  149.5326  140.1436  154.7150 C   0  0  0  0  0  0  0  0  0  0  0  0
  149.6167  138.6060  154.6870 C   0  0  2  0  0  0  0  0  0  0  0  0
  150.9699  138.1250  154.1393 C   0  0  0  0  0  0  0  0  0  0  0  0
  148.5305  138.0555  153.8804 N   0  0  0  0  0  0  0  0  0  0  0  0
  147.2217  138.1524  154.1627 C   0  0  0  0  0  0  0  0  0  0  0  0
  146.7846  138.7339  155.1563 O   0  0  0  0  0  0  0  0  0  0  0  0
  146.2585  137.4491  153.1915 C   0  0  2  0  0  0  0  0  0  0  0  0
  144.8169  137.4941  153.7231 C   0  0  0  0  0  0  0  0  0  0  0  0
  146.6387  136.0542  152.9036 N   0  0  0  0  0  0  0  0  0  0  0  0
  145.7207  135.3504  152.0146 C   0  0  0  0  0  0  0  0  0  0  0  0
  145.9700  133.8394  152.1156 C   0  0  0  0  0  0  0  0  0  0  0  0
  145.2035  133.1086  151.1255 N   0  0  0  0  0  0  0  0  0  0  0  0
  145.6644  132.2701  150.1329 C   0  0  0  0  0  0  0  0  0  0  0  0
  144.5749  131.8204  149.4433 C   0  0  0  0  0  0  0  0  0  0  0  0
  143.4784  132.4494  150.0963 C   0  0  0  0  0  0  0  0  0  0  0  0
  143.8579  133.2208  151.1023 N   0  0  0  0  0  0  0  0  0  0  0  0
  150.5437  141.8931  155.5203 H   0  0  0  0  0  0  0  0  0  0  0  0
  151.6166  140.5285  155.2276 H   0  0  0  0  0  0  0  0  0  0  0  0
  150.5360  140.5211  156.6207 H   0  0  0  0  0  0  0  0  0  0  0  0
  148.5510  140.4536  155.0759 H   0  0  0  0  0  0  0  0  0  0  0  0
  149.6141  140.5244  153.6963 H   0  0  0  0  0  0  0  0  0  0  0  0
  149.5169  138.2479  155.7135 H   0  0  0  0  0  0  0  0  0  0  0  0
  151.7945  138.5083  154.7409 H   0  0  0  0  0  0  0  0  0  0  0  0
  151.1238  138.4582  153.1124 H   0  0  0  0  0  0  0  0  0  0  0  0
  151.0372  137.0366  154.1490 H   0  0  0  0  0  0  0  0  0  0  0  0
  148.7956  137.5495  153.0477 H   0  0  0  0  0  0  0  0  0  0  0  0
  146.2709  137.9981  152.2480 H   0  0  0  0  0  0  0  0  0  0  0  0
  144.5009  138.5180  153.9270 H   0  0  0  0  0  0  0  0  0  0  0  0
  144.7087  136.9217  154.6455 H   0  0  0  0  0  0  0  0  0  0  0  0
  144.1201  137.0786  152.9944 H   0  0  0  0  0  0  0  0  0  0  0  0
  147.5803  135.9936  152.5426 H   0  0  0  0  0  0  0  0  0  0  0  0
  144.6909  135.5793  152.2929 H   0  0  0  0  0  0  0  0  0  0  0  0
  145.8619  135.6706  150.9816 H   0  0  0  0  0  0  0  0  0  0  0  0
  147.0273  133.6152  151.9668 H   0  0  0  0  0  0  0  0  0  0  0  0
  145.7034  133.4697  153.1074 H   0  0  0  0  0  0  0  0  0  0  0  0
  146.7169  132.0665  150.0009 H   0  0  0  0  0  0  0  0  0  0  0  0
  144.5629  131.1458  148.6003 H   0  0  0  0  0  0  0  0  0  0  0  0
  142.4251  132.3696  149.8707 H   0  0  0  0  0  0  0  0  0  0  0  0
  1  2  1  0  0  0  0
  1 18  1  0  0  0  0
  1 19  1  0  0  0  0
  1 20  1  0  0  0  0
  2  3  1  0  0  0  0
  2 21  1  0  0  0  0
  2 22  1  0  0  0  0
  3  4  1  0  0  0  0
  3  5  1  0  0  0  0
  3 23  1  0  0  0  0
  4 24  1  0  0  0  0
  4 25  1  0  0  0  0
  4 26  1  0  0  0  0
  5  6  1  0  0  0  0
  5 27  1  0  0  0  0
  6  7  2  0  0  0  0
  6  8  1  0  0  0  0
  8  9  1  0  0  0  0
  8 10  1  0  0  0  0
  8 28  1  0  0  0  0
  9 29  1  0  0  0  0
  9 30  1  0  0  0  0
  9 31  1  0  0  0  0
 10 11  1  0  0  0  0
 10 32  1  0  0  0  0
 11 12  1  0  0  0  0
 11 33  1  0  0  0  0
 11 34  1  0  0  0  0
 12 13  1  0  0  0  0
 12 35  1  0  0  0  0
 12 36  1  0  0  0  0
 13 17  1  0  0  0  0
 13 14  1  0  0  0  0
 14 15  2  0  0  0  0
 14 37  1  0  0  0  0
 15 16  1  0  0  0  0
 15 38  1  0  0  0  0
 16 17  2  0  0  0  0
 16 39  1  0  0  0  0
M  END
> <s_m_source_file>
AV-unprocessed.smi

> <i_m_source_file_index>
3158

> <i_lp_mmshare_version>
43012

> <i_f3d_flags>
0

> <s_epik_input>
W0NIM11bQ0gyXVtDQEhdKFtDSDNdKVtOSF1DKD1PKVtDQEhdKFtDSDNdKVtOSF1bQ0gyXVtDSDJdbjFbY0hdW2NIXVtjSF1uMQ==

> <s_epik_cmdline>
J2VwaWtfcHl0aG9uJywgJy1waCcsICc3LjAnLCAnLXRuJywgJzgnLCAnLW1hJywgJzIwMCcsICctbWV0YWxfYmluZGluZycsICctaW1hZScsICc8aW5maWxlLm1hZT4nLCAnLW9tYWUnLCAnPG91dGZpbGUubWFlPic=

> <r_lp_tautomer_probability>
1

> <r_epik_Ionization_Penalty>
0.724013

> <r_epik_Ionization_Penalty_Charging>
0

> <r_epik_Ionization_Penalty_Neutral>
0.724013

> <r_epik_State_Penalty>
0.74758

> <r_epik_Charging_Adjusted_Penalty>
0.74758

> <i_epik_Tot_Q>
0

> <i_epik_Tot_abs_Q>
0

> <r_epik_Metal_State_Penalty>
0.746846

> <b_epik_Metal_Only>
0

> <s_lp_Force_Field>
OPLS_2005

> <r_lp_Energy>
5.18205

> <b_lp_Chiralities_Consistent>
1

> <s_lp_Variant>
AV-unprocessed.smi:3158-5

> <Gold.Version>
5.8.1

> <Gold.Id.Protein>
6NUR|6NUR_protein|mol2

> <Gold.PLP.Fitness>
40.9594

> <Gold.PLP.PLP>
-27.2444

> <Gold.PLP.part.hbond>
-1.9789

> <Gold.PLP.part.metal>
0.0000

> <Gold.PLP.part.buried>
-2.0566

> <Gold.PLP.part.nonpolar>
-24.5624

> <Gold.PLP.part.repulsive>
0.2313

> <Gold.PLP.ligand.clash>
0.0000

> <Gold.PLP.ligand.torsion>
0.2563

> <Gold.PLP.Chemscore.Hbond>
2.0000

> <Gold.PLP.Chemscore.CHOScore>
2.6670

> <Gold.PLP.Chemscore.Metal>
0.0000

> <Gold.Chemscore.Hbonds>
donor molecule, donor type, donor heavy atom, donor atom, acceptor molecule, acceptor atom, score
      L1  H     5    27       P1  7948  1.00
      L1  H    10    32       P1  7948  1.00
      L1  C    14    37       P1 10747  0.91
      L1  C    16    39       P1 10186  0.84
      L1  C    16    39       P1 10952  0.85

> <Gold.PLP.Chemscore.Internal.Correction>
0.2265

> <Gold.Rescore>
     Score         DG    S(hbond)    S(metal)    S(lipo)     H(rot)  DE(clash)    DE(int)     intcor
     15.61     -15.92       1.99        0.00      78.83       2.12       0.03       0.28       ----

> <Gold.Chemscore.Fitness>
15.6150

> <Gold.Chemscore.DG>
-15.9170

> <Gold.Chemscore.ZeroCoef>
-5.4800

> <Gold.Chemscore.Hbond>
1.9910

> <Gold.Chemscore.Metal>
0.0000

> <Gold.Chemscore.Lipo>
78.8276

> <Gold.Chemscore.Internal_Hbond>
0.0000

> <Gold.Chemscore.DEClash>
0.0252

> <Gold.Chemscore.DEInternal>
0.2768

> <Gold.Chemscore.Rot>
2.1234

> <Gold.Chemscore.Internal.Correction>
   9.000000E+99

> <Gold.Chemscore.Hbonds>
donor molecule, donor type, donor heavy atom, donor atom, acceptor molecule, acceptor atom, score
      L1  H     5    27       P1  7948  1.00
      L1  H    10    32       P1  7948  0.94

> <Gold.Chemscore.Hbond.Weighted>
-6.6501

> <Gold.Chemscore.Metal.Weighted>
-0.0000

> <Gold.Chemscore.Lipo.Weighted>
-9.2228

> <Gold.Chemscore.Internal_Hbond.Weighted>
0.0000

> <Gold.Chemscore.DEClash.Weighted>
0.0252

> <Gold.Chemscore.DEInternal.Weighted>
0.2768

> <Gold.Chemscore.Rot.Weighted>
5.4359

> <Gold.Chemscore.Internal.Correction.Weighted>
   9.000000E+99

> <Gold.Protein.RotatedTorsions>
[ 6907 6896 6895 6894 ] final  -50.15 input  -60.11 | X-H torsion
[ 7974 7965 7964 7962 ] final  -40.52 input  175.53 | X-H torsion
[ 8008 7997 7996 7995 ] final -143.76 input   59.86 | X-H torsion
[ 10167 10162 10161 10158 ] final   68.17 input  -65.29 | X-H torsion
[ 10718 10713 10712 10709 ] final  -19.67 input   66.30 | X-H torsion
[ 10763 10752 10751 10750 ] final -107.80 input  -60.55 | X-H torsion
[ 11005 11000 10999 10996 ] final   13.31 input  -57.11 | X-H torsion

> <Gold.Protein.ActiveResidues>
 VAL166  LYS551  ARG553  GLY616  TRP617  ASP618  TYR619  PRO620  LYS621  CYS622 
 ASP623  PHE694  ASN695  SER759  ASP760  ASP761  ALA762  ILE779  LEU786  VAL792 
 PHE793  MET794  SER795  GLU796  ALA797  LYS798  CYS799  TRP800  GLU811  SER814 

> <Gold.Protein.RotatedAtoms>
  150.8735  134.8113  159.7171 H   0  0  0  0  0  0  0  0  0  0  0  0  # atno 6907 bound_to 6896
  152.4730  134.4909  159.9705 H   0  0  0  0  0  0  0  0  0  0  0  0  # atno 6908 bound_to 6896
  151.4994  133.3469  159.2902 H   0  0  0  0  0  0  0  0  0  0  0  0  # atno 6909 bound_to 6896
  146.0297  140.6747  142.9139 H   0  0  0  0  0  0  0  0  0  0  0  0  # atno 7974 bound_to 7965
  155.5158  140.0587  157.2915 H   0  0  0  0  0  0  0  0  0  0  0  0  # atno 8008 bound_to 7997
  154.4535  140.1961  156.0395 H   0  0  0  0  0  0  0  0  0  0  0  0  # atno 8009 bound_to 7997
  156.0753  140.3254  155.7630 H   0  0  0  0  0  0  0  0  0  0  0  0  # atno 8010 bound_to 7997
  140.0816  144.5066  150.7158 H   0  0  0  0  0  0  0  0  0  0  0  0  # atno 10167 bound_to 10162
  156.5424  130.4681  149.6492 H   0  0  0  0  0  0  0  0  0  0  0  0  # atno 10718 bound_to 10713
  154.8097  135.4661  154.0484 H   0  0  0  0  0  0  0  0  0  0  0  0  # atno 10763 bound_to 10752
  153.1925  135.6857  153.8341 H   0  0  0  0  0  0  0  0  0  0  0  0  # atno 10764 bound_to 10752
  153.7854  135.3250  155.3349 H   0  0  0  0  0  0  0  0  0  0  0  0  # atno 10765 bound_to 10752
  140.4822  134.0924  155.7753 H   0  0  0  0  0  0  0  0  0  0  0  0  # atno 11005 bound_to 11000
  144.7025  140.3713  143.7145 LP  0  0  0  0  0  0  0  0  0  0  0  0  # atno 17320 bound_to 7965
  145.7061  139.1673  143.2565 LP  0  0  0  0  0  0  0  0  0  0  0  0  # atno 17321 bound_to 7965
  140.7075  143.2479  151.4682 LP  0  0  0  0  0  0  0  0  0  0  0  0  # atno 17342 bound_to 10162
  139.5776  144.1782  152.1925 LP  0  0  0  0  0  0  0  0  0  0  0  0  # atno 17343 bound_to 10162
  156.2959  130.7150  151.2010 LP  0  0  0  0  0  0  0  0  0  0  0  0  # atno 17370 bound_to 10713
  157.7403  131.0519  150.5177 LP  0  0  0  0  0  0  0  0  0  0  0  0  # atno 17371 bound_to 10713
  141.1525  133.8942  157.2061 LP  0  0  0  0  0  0  0  0  0  0  0  0  # atno 17394 bound_to 11000
  139.9819  135.0095  156.9771 LP  0  0  0  0  0  0  0  0  0  0  0  0  # atno 17395 bound_to 11000

$$$$
