AV-unprocessed.smi:2198|AV-procd|sdf|8921|dock8
  -GOLD-   2272012133D 1   1.00000     0.00000
 Structure written by MMmdl.
 42 43  0  0  0  0  0  0  0  0  2 V2000
  150.7911  134.9823  155.5258 C   0  0  0  0  0  0  0  0  0  0  0  0
  150.7842  136.4959  155.4924 C   0  0  0  0  0  0  0  0  0  0  0  0
  149.6704  137.1182  155.5740 N   0  0  0  0  0  0  0  0  0  0  0  0
  149.6600  138.5231  155.5499 C   0  0  0  0  0  0  0  0  0  0  0  0
  148.2928  139.1760  155.6574 C   0  0  0  0  0  0  0  0  0  0  0  0
  150.8174  139.2364  155.4380 C   0  0  0  0  0  0  0  0  0  0  0  0
  150.8600  140.7638  155.4161 C   0  0  0  0  0  0  0  0  0  0  0  0
  150.4346  141.4498  156.7151 C   0  0  0  0  0  0  0  0  0  0  0  0
  149.2961  141.2887  157.1543 O   0  0  0  0  0  0  0  0  0  0  0  0
  151.3594  142.2109  157.3206 N   0  0  0  0  0  0  0  0  0  0  0  0
  151.1686  142.9404  158.5698 C   0  0  2  0  0  0  0  0  0  0  0  0
  151.2850  144.4600  158.3353 C   0  0  0  0  0  0  0  0  0  0  0  0
  151.1623  145.2386  159.6536 C   0  0  0  0  0  0  0  0  0  0  0  0
  152.1972  144.7585  160.6830 C   0  0  0  0  0  0  0  0  0  0  0  0
  152.0847  143.2422  160.9328 C   0  0  2  0  0  0  0  0  0  0  0  0
  153.1224  142.7653  161.9589 C   0  0  0  0  0  0  0  0  0  0  0  0
  152.2047  142.4660  159.6065 C   0  0  0  0  0  0  0  0  0  0  0  0
  152.0791  138.4804  155.3392 C   0  0  0  0  0  0  0  0  0  0  0  0
  153.1515  139.0725  155.2236 O   0  0  0  0  0  0  0  0  0  0  0  0
  152.0061  137.1193  155.3776 N   0  5  0  0  0  0  0  0  0  0  0  0
  149.7803  134.5823  155.4342 H   0  0  0  0  0  0  0  0  0  0  0  0
  151.2163  134.6291  156.4657 H   0  0  0  0  0  0  0  0  0  0  0  0
  151.3887  134.5860  154.7043 H   0  0  0  0  0  0  0  0  0  0  0  0
  148.2462  139.8342  156.5250 H   0  0  0  0  0  0  0  0  0  0  0  0
  147.5059  138.4284  155.7647 H   0  0  0  0  0  0  0  0  0  0  0  0
  148.0773  139.7605  154.7632 H   0  0  0  0  0  0  0  0  0  0  0  0
  151.8724  141.0766  155.1590 H   0  0  0  0  0  0  0  0  0  0  0  0
  150.2439  141.1570  154.6072 H   0  0  0  0  0  0  0  0  0  0  0  0
  152.2681  142.2817  156.8864 H   0  0  0  0  0  0  0  0  0  0  0  0
  150.1736  142.7183  158.9609 H   0  0  0  0  0  0  0  0  0  0  0  0
  152.2434  144.6898  157.8673 H   0  0  0  0  0  0  0  0  0  0  0  0
  150.5137  144.7956  157.6412 H   0  0  0  0  0  0  0  0  0  0  0  0
  151.2902  146.3054  159.4681 H   0  0  0  0  0  0  0  0  0  0  0  0
  150.1574  145.1140  160.0591 H   0  0  0  0  0  0  0  0  0  0  0  0
  153.2002  145.0013  160.3292 H   0  0  0  0  0  0  0  0  0  0  0  0
  152.0602  145.3025  161.6181 H   0  0  0  0  0  0  0  0  0  0  0  0
  151.0963  143.0428  161.3496 H   0  0  0  0  0  0  0  0  0  0  0  0
  154.1392  142.9384  161.6045 H   0  0  0  0  0  0  0  0  0  0  0  0
  153.0164  141.6987  162.1590 H   0  0  0  0  0  0  0  0  0  0  0  0
  153.0064  143.2907  162.9072 H   0  0  0  0  0  0  0  0  0  0  0  0
  152.0752  141.3986  159.7914 H   0  0  0  0  0  0  0  0  0  0  0  0
  153.2111  142.5882  159.2026 H   0  0  0  0  0  0  0  0  0  0  0  0
  1  2  1  0  0  0  0
  1 21  1  0  0  0  0
  1 22  1  0  0  0  0
  1 23  1  0  0  0  0
  2 20  1  0  0  0  0
  2  3  2  0  0  0  0
  3  4  1  0  0  0  0
  4  5  1  0  0  0  0
  4  6  2  0  0  0  0
  5 24  1  0  0  0  0
  5 25  1  0  0  0  0
  5 26  1  0  0  0  0
  6  7  1  0  0  0  0
  6 18  1  0  0  0  0
  7  8  1  0  0  0  0
  7 27  1  0  0  0  0
  7 28  1  0  0  0  0
  8  9  2  0  0  0  0
  8 10  1  0  0  0  0
 10 11  1  0  0  0  0
 10 29  1  0  0  0  0
 11 17  1  0  0  0  0
 11 12  1  0  0  0  0
 11 30  1  0  0  0  0
 12 13  1  0  0  0  0
 12 31  1  0  0  0  0
 12 32  1  0  0  0  0
 13 14  1  0  0  0  0
 13 33  1  0  0  0  0
 13 34  1  0  0  0  0
 14 15  1  0  0  0  0
 14 35  1  0  0  0  0
 14 36  1  0  0  0  0
 15 16  1  0  0  0  0
 15 17  1  0  0  0  0
 15 37  1  0  0  0  0
 16 38  1  0  0  0  0
 16 39  1  0  0  0  0
 16 40  1  0  0  0  0
 17 41  1  0  0  0  0
 17 42  1  0  0  0  0
 18 19  2  0  0  0  0
 18 20  1  0  0  0  0
M  CHG  1  20  -1
M  END
> <s_m_source_file>
AV-unprocessed.smi

> <i_m_source_file_index>
2198

> <i_lp_mmshare_version>
43012

> <i_f3d_flags>
0

> <s_epik_input>
W0NIM11jMW5jKFtDSDNdKWMoYyg9TylbbkhdMSlbQ0gyXUMoPU8pW05IXVtDQEBIXTJbQ0gyXVtDSDJdW0NIMl1bQ0BASF0oW0NIM10pW0NIMl0y

> <s_epik_cmdline>
J2VwaWtfcHl0aG9uJywgJy1waCcsICc3LjAnLCAnLXRuJywgJzgnLCAnLW1hJywgJzIwMCcsICctbWV0YWxfYmluZGluZycsICctaW1hZScsICc8aW5maWxlLm1hZT4nLCAnLW9tYWUnLCAnPG91dGZpbGUubWFlPic=

> <r_lp_tautomer_probability>
0.839158

> <r_epik_Ionization_Penalty>
6.67193

> <r_epik_Ionization_Penalty_Charging>
7.66837e-08

> <r_epik_Ionization_Penalty_Neutral>
6.67193

> <r_epik_State_Penalty>
4.51643

> <r_epik_Charging_Adjusted_Penalty>
4.51643

> <i_epik_Tot_Q>
-1

> <i_epik_Tot_abs_Q>
1

> <r_epik_Metal_State_Penalty>
0.851582

> <b_epik_Metal_Only>
1

> <s_lp_Force_Field>
OPLS_2005

> <r_lp_Energy>
13.6631

> <b_lp_Chiralities_Consistent>
1

> <s_lp_Variant>
AV-unprocessed.smi:2198-11

> <Gold.Version>
5.8.1

> <Gold.Id.Protein>
6NUR|6NUR_protein|mol2

> <Gold.PLP.Fitness>
47.9893

> <Gold.PLP.PLP>
-39.1308

> <Gold.PLP.part.hbond>
-2.0000

> <Gold.PLP.part.metal>
0.0000

> <Gold.PLP.part.buried>
-4.8715

> <Gold.PLP.part.nonpolar>
-32.3594

> <Gold.PLP.part.repulsive>
0.2808

> <Gold.PLP.ligand.clash>
0.0000

> <Gold.PLP.ligand.torsion>
0.0485

> <Gold.PLP.Chemscore.Hbond>
2.9840

> <Gold.PLP.Chemscore.CHOScore>
0.0000

> <Gold.PLP.Chemscore.Metal>
0.0000

> <Gold.Chemscore.Hbonds>
donor molecule, donor type, donor heavy atom, donor atom, acceptor molecule, acceptor atom, score
      P1  H  7997  8009       L1    19  1.00
      P1  H 10752 10764       L1    20  1.60

> <Gold.PLP.Chemscore.Internal.Correction>
0.0036

> <Gold.Rescore>
     Score         DG    S(hbond)    S(metal)    S(lipo)     H(rot)  DE(clash)    DE(int)     intcor
     16.94     -18.41       1.57        0.00      97.38       1.45       0.00       1.47       ----

> <Gold.Chemscore.Fitness>
16.9379

> <Gold.Chemscore.DG>
-18.4078

> <Gold.Chemscore.ZeroCoef>
-5.4800

> <Gold.Chemscore.Hbond>
1.5668

> <Gold.Chemscore.Metal>
0.0000

> <Gold.Chemscore.Lipo>
97.3827

> <Gold.Chemscore.Internal_Hbond>
0.0000

> <Gold.Chemscore.DEClash>
0.0021

> <Gold.Chemscore.DEInternal>
1.4677

> <Gold.Chemscore.Rot>
1.4450

> <Gold.Chemscore.Internal.Correction>
   9.000000E+99

> <Gold.Chemscore.Hbonds>
donor molecule, donor type, donor heavy atom, donor atom, acceptor molecule, acceptor atom, score
      P1  H  7997  8009       L1    19  1.00
      P1  H 10752 10764       L1    20  0.13

> <Gold.Chemscore.Hbond.Weighted>
-5.2332

> <Gold.Chemscore.Metal.Weighted>
-0.0000

> <Gold.Chemscore.Lipo.Weighted>
-11.3938

> <Gold.Chemscore.Internal_Hbond.Weighted>
0.0000

> <Gold.Chemscore.DEClash.Weighted>
0.0021

> <Gold.Chemscore.DEInternal.Weighted>
1.4677

> <Gold.Chemscore.Rot.Weighted>
3.6992

> <Gold.Chemscore.Internal.Correction.Weighted>
   9.000000E+99

> <Gold.Protein.RotatedTorsions>
[ 6907 6896 6895 6894 ] final   10.31 input  -60.11 | X-H torsion
[ 7974 7965 7964 7962 ] final  150.91 input  175.53 | X-H torsion
[ 8008 7997 7996 7995 ] final -143.68 input   59.86 | X-H torsion
[ 10167 10162 10161 10158 ] final -160.80 input  -65.29 | X-H torsion
[ 10718 10713 10712 10709 ] final -105.09 input   66.30 | X-H torsion
[ 10763 10752 10751 10750 ] final  -48.34 input  -60.55 | X-H torsion
[ 11005 11000 10999 10996 ] final  -28.21 input  -57.11 | X-H torsion

> <Gold.Protein.ActiveResidues>
 VAL166  LYS551  ARG553  GLY616  TRP617  ASP618  TYR619  PRO620  LYS621  CYS622 
 ASP623  PHE694  ASN695  SER759  ASP760  ASP761  ALA762  ILE779  LEU786  VAL792 
 PHE793  MET794  SER795  GLU796  ALA797  LYS798  CYS799  TRP800  GLU811  SER814 

> <Gold.Protein.RotatedAtoms>
  151.7362  135.0864  160.0307 H   0  0  0  0  0  0  0  0  0  0  0  0  # atno 6907 bound_to 6896
  152.3509  133.6174  159.5953 H   0  0  0  0  0  0  0  0  0  0  0  0  # atno 6908 bound_to 6896
  150.7539  133.9491  159.3522 H   0  0  0  0  0  0  0  0  0  0  0  0  # atno 6909 bound_to 6896
  144.8330  139.6470  143.6050 H   0  0  0  0  0  0  0  0  0  0  0  0  # atno 7974 bound_to 7965
  155.5145  140.0586  157.2917 H   0  0  0  0  0  0  0  0  0  0  0  0  # atno 8008 bound_to 7997
  154.4540  140.1963  156.0383 H   0  0  0  0  0  0  0  0  0  0  0  0  # atno 8009 bound_to 7997
  156.0761  140.3253  155.7640 H   0  0  0  0  0  0  0  0  0  0  0  0  # atno 8010 bound_to 7997
  139.6512  144.0080  152.2163 H   0  0  0  0  0  0  0  0  0  0  0  0  # atno 10167 bound_to 10162
  156.0331  130.5547  150.7490 H   0  0  0  0  0  0  0  0  0  0  0  0  # atno 10718 bound_to 10713
  154.0761  135.6597  153.4831 H   0  0  0  0  0  0  0  0  0  0  0  0  # atno 10763 bound_to 10752
  153.0373  135.5169  154.7519 H   0  0  0  0  0  0  0  0  0  0  0  0  # atno 10764 bound_to 10752
  154.6600  135.3013  154.9847 H   0  0  0  0  0  0  0  0  0  0  0  0  # atno 10765 bound_to 10752
  140.9188  133.7412  156.0773 H   0  0  0  0  0  0  0  0  0  0  0  0  # atno 11005 bound_to 11000
  146.2631  139.6456  142.9348 LP  0  0  0  0  0  0  0  0  0  0  0  0  # atno 17320 bound_to 7965
  145.4855  141.0438  143.2622 LP  0  0  0  0  0  0  0  0  0  0  0  0  # atno 17321 bound_to 7965
  139.9795  144.6438  150.7914 LP  0  0  0  0  0  0  0  0  0  0  0  0  # atno 17342 bound_to 10162
  140.7538  143.3016  151.3066 LP  0  0  0  0  0  0  0  0  0  0  0  0  # atno 17343 bound_to 10162
  157.5039  131.0920  151.0281 LP  0  0  0  0  0  0  0  0  0  0  0  0  # atno 17370 bound_to 10713
  157.0654  130.5842  149.5393 LP  0  0  0  0  0  0  0  0  0  0  0  0  # atno 17371 bound_to 10713
  140.8014  134.3504  157.5438 LP  0  0  0  0  0  0  0  0  0  0  0  0  # atno 17394 bound_to 11000
  139.8771  134.9200  156.3240 LP  0  0  0  0  0  0  0  0  0  0  0  0  # atno 17395 bound_to 11000

$$$$
