AV-unprocessed.smi:49|AV-procd|sdf|478|dock8
  -GOLD-   2262016343D 1   1.00000     0.00000
 Structure written by MMmdl.
 27 28  0  0  0  0  0  0  0  0  1 V2000
  145.9941  137.5870  152.7877 C   0  0  0  0  0  0  0  0  0  0  0  0
  146.5233  136.5768  153.8119 C   0  0  0  0  0  0  0  0  0  0  0  0
  146.0279  135.1931  153.5501 C   0  0  0  0  0  0  0  0  0  0  0  0
  146.2636  134.5350  152.3755 N   0  0  0  0  0  0  0  0  0  0  0  0
  145.6128  133.3978  152.6062 C   0  0  0  0  0  0  0  0  0  0  0  0
  145.5031  132.2442  151.6568 C   0  0  1  0  0  0  0  0  0  0  0  0
  144.0626  132.0421  151.1494 C   0  0  0  0  0  0  0  0  0  0  0  0
  144.1225  132.4560  149.6824 C   0  0  2  0  0  0  0  0  0  0  0  0
  143.1596  131.7994  148.8856 O   0  0  0  0  0  0  0  0  0  0  0  0
  145.5476  132.0796  149.2989 C   0  0  0  0  0  0  0  0  0  0  0  0
  146.3440  132.4256  150.4678 N   0  0  0  0  0  0  0  0  0  0  0  0
  145.0243  133.3847  153.8041 N   0  0  0  0  0  0  0  0  0  0  0  0
  145.2731  134.5494  154.4393 N   0  0  0  0  0  0  0  0  0  0  0  0
  145.8149  131.3416  152.1843 H   0  0  0  0  0  0  0  0  0  0  0  0
  143.9889  133.5356  149.5970 H   0  0  0  0  0  0  0  0  0  0  0  0
  144.4678  132.6446  154.2073 H   0  0  0  0  0  0  0  0  0  0  0  0
  146.3742  138.5871  152.9964 H   0  0  0  0  0  0  0  0  0  0  0  0
  144.9049  137.6336  152.8075 H   0  0  0  0  0  0  0  0  0  0  0  0
  146.3001  137.3181  151.7762 H   0  0  0  0  0  0  0  0  0  0  0  0
  147.6138  136.5722  153.7971 H   0  0  0  0  0  0  0  0  0  0  0  0
  146.2295  136.8799  154.8178 H   0  0  0  0  0  0  0  0  0  0  0  0
  143.8077  130.9837  151.2234 H   0  0  0  0  0  0  0  0  0  0  0  0
  143.3137  132.5974  151.7158 H   0  0  0  0  0  0  0  0  0  0  0  0
  142.3133  131.9016  149.2937 H   0  0  0  0  0  0  0  0  0  0  0  0
  145.6137  131.0061  149.1164 H   0  0  0  0  0  0  0  0  0  0  0  0
  145.8941  132.5942  148.4024 H   0  0  0  0  0  0  0  0  0  0  0  0
  147.1482  131.8083  150.5131 H   0  0  0  0  0  0  0  0  0  0  0  0
  1  2  1  0  0  0  0
  1 17  1  0  0  0  0
  1 18  1  0  0  0  0
  1 19  1  0  0  0  0
  2 20  1  0  0  0  0
  2 21  1  0  0  0  0
  2  3  1  0  0  0  0
  3  4  1  0  0  0  0
  3 13  2  0  0  0  0
  4  5  2  0  0  0  0
  5  6  1  0  0  0  0
  5 12  1  0  0  0  0
  6 14  1  0  0  0  0
  6 11  1  0  0  0  0
  6  7  1  0  0  0  0
  7  8  1  0  0  0  0
  7 22  1  0  0  0  0
  7 23  1  0  0  0  0
  8 15  1  0  0  0  0
  8  9  1  0  0  0  0
  8 10  1  0  0  0  0
  9 24  1  0  0  0  0
 10 11  1  0  0  0  0
 10 25  1  0  0  0  0
 10 26  1  0  0  0  0
 11 27  1  0  0  0  0
 12 13  1  0  0  0  0
 12 16  1  0  0  0  0
M  END
> <s_m_source_file>
AV-unprocessed.smi

> <i_m_source_file_index>
49

> <i_lp_mmshare_version>
43012

> <i_f3d_flags>
0

> <s_epik_input>
W0NIM11bQ0gyXWMxbmMobltuSF0xKVtDQEBIXTJbQ0gyXVtDQEBIXShbT0hdKVtDSDJdW05IXTI=

> <s_epik_cmdline>
J2VwaWtfcHl0aG9uJywgJy1waCcsICc3LjAnLCAnLXRuJywgJzgnLCAnLW1hJywgJzIwMCcsICctbWV0YWxfYmluZGluZycsICctaW1hZScsICc8aW5maWxlLm1hZT4nLCAnLW9tYWUnLCAnPG91dGZpbGUubWFlPic=

> <r_epik_Ionization_Penalty>
1.31544

> <r_epik_Ionization_Penalty_Charging>
0

> <r_epik_Ionization_Penalty_Neutral>
1.31544

> <r_epik_State_Penalty>
2.06074

> <r_epik_Charging_Adjusted_Penalty>
2.06074

> <i_epik_Tot_Q>
0

> <i_epik_Tot_abs_Q>
0

> <r_epik_Metal_State_Penalty>
2.32913

> <b_epik_Metal_Only>
0

> <s_lp_Force_Field>
OPLS_2005

> <r_lp_Energy>
17.94

> <b_lp_Chiralities_Consistent>
1

> <s_lp_Variant>
AV-unprocessed.smi:49-16

> <Gold.Version>
5.8.1

> <Gold.Id.Protein>
6NUR|6NUR_protein|mol2

> <Gold.PLP.Fitness>
31.2503

> <Gold.PLP.PLP>
-21.8807

> <Gold.PLP.part.hbond>
-3.8376

> <Gold.PLP.part.metal>
0.0000

> <Gold.PLP.part.buried>
-4.2073

> <Gold.PLP.part.nonpolar>
-14.1660

> <Gold.PLP.part.repulsive>
0.1760

> <Gold.PLP.ligand.clash>
0.0000

> <Gold.PLP.ligand.torsion>
0.0909

> <Gold.PLP.Chemscore.Hbond>
3.1819

> <Gold.PLP.Chemscore.CHOScore>
0.0000

> <Gold.PLP.Chemscore.Metal>
0.0000

> <Gold.Chemscore.Hbonds>
donor molecule, donor type, donor heavy atom, donor atom, acceptor molecule, acceptor atom, score
      L1  H     9    24       P1 10952  0.36
      L1  H    11    27       P1 10747  0.89
      L1  H    12    16       P1 10957  0.89
      P1  H 10785 10796       L1     9  1.00

> <Gold.PLP.Chemscore.Internal.Correction>
0.0059

> <Gold.Rescore>
     Score         DG    S(hbond)    S(metal)    S(lipo)     H(rot)  DE(clash)    DE(int)     intcor
     15.30     -15.42       2.87        0.00      43.67       1.86       0.11       0.01       ----

> <Gold.Chemscore.Fitness>
15.3018

> <Gold.Chemscore.DG>
-15.4247

> <Gold.Chemscore.ZeroCoef>
-5.4800

> <Gold.Chemscore.Hbond>
2.8700

> <Gold.Chemscore.Metal>
0.0000

> <Gold.Chemscore.Lipo>
43.6721

> <Gold.Chemscore.Internal_Hbond>
0.0000

> <Gold.Chemscore.DEClash>
0.1100

> <Gold.Chemscore.DEInternal>
0.0129

> <Gold.Chemscore.Rot>
1.8558

> <Gold.Chemscore.Internal.Correction>
   9.000000E+99

> <Gold.Chemscore.Hbonds>
donor molecule, donor type, donor heavy atom, donor atom, acceptor molecule, acceptor atom, score
      L1  H     9    24       P1 10952  0.36
      L1  H    11    27       P1 10747  0.87
      L1  H    12    16       P1 10957  0.69
      P1  H 10785 10796       L1     9  0.24

> <Gold.Chemscore.Hbond.Weighted>
-9.5858

> <Gold.Chemscore.Metal.Weighted>
-0.0000

> <Gold.Chemscore.Lipo.Weighted>
-5.1096

> <Gold.Chemscore.Internal_Hbond.Weighted>
0.0000

> <Gold.Chemscore.DEClash.Weighted>
0.1100

> <Gold.Chemscore.DEInternal.Weighted>
0.0129

> <Gold.Chemscore.Rot.Weighted>
4.7507

> <Gold.Chemscore.Internal.Correction.Weighted>
   9.000000E+99

> <Gold.Protein.RotatedTorsions>
[ 6907 6896 6895 6894 ] final  -43.23 input  -60.11 | X-H torsion
[ 7974 7965 7964 7962 ] final   97.18 input  175.53 | X-H torsion
[ 8008 7997 7996 7995 ] final   46.04 input   59.86 | X-H torsion
[ 10167 10162 10161 10158 ] final  146.13 input  -65.29 | X-H torsion
[ 10718 10713 10712 10709 ] final  -85.68 input   66.30 | X-H torsion
[ 10763 10752 10751 10750 ] final  -47.88 input  -60.55 | X-H torsion
[ 11005 11000 10999 10996 ] final  160.77 input  -57.11 | X-H torsion

> <Gold.Protein.ActiveResidues>
 VAL166  LYS551  ARG553  GLY616  TRP617  ASP618  TYR619  PRO620  LYS621  CYS622 
 ASP623  PHE694  ASN695  SER759  ASP760  ASP761  ALA762  ILE779  LEU786  VAL792 
 PHE793  MET794  SER795  GLU796  ALA797  LYS798  CYS799  TRP800  GLU811  SER814 

> <Gold.Protein.RotatedAtoms>
  150.9462  134.8867  159.7643 H   0  0  0  0  0  0  0  0  0  0  0  0  # atno 6907 bound_to 6896
  152.5101  134.3871  159.9381 H   0  0  0  0  0  0  0  0  0  0  0  0  # atno 6908 bound_to 6896
  151.3889  133.3755  159.2753 H   0  0  0  0  0  0  0  0  0  0  0  0  # atno 6909 bound_to 6896
  145.4289  139.2313  143.3155 H   0  0  0  0  0  0  0  0  0  0  0  0  # atno 7974 bound_to 7965
  155.3459  140.3411  155.4239 H   0  0  0  0  0  0  0  0  0  0  0  0  # atno 8008 bound_to 7997
  156.1789  140.1657  156.8347 H   0  0  0  0  0  0  0  0  0  0  0  0  # atno 8009 bound_to 7997
  154.5312  140.0745  156.8331 H   0  0  0  0  0  0  0  0  0  0  0  0  # atno 8010 bound_to 7997
  139.4913  144.5851  151.6793 H   0  0  0  0  0  0  0  0  0  0  0  0  # atno 10167 bound_to 10162
  155.9995  130.4739  150.4599 H   0  0  0  0  0  0  0  0  0  0  0  0  # atno 10718 bound_to 10713
  154.0687  135.6608  153.4821 H   0  0  0  0  0  0  0  0  0  0  0  0  # atno 10763 bound_to 10752
  153.0399  135.5152  154.7588 H   0  0  0  0  0  0  0  0  0  0  0  0  # atno 10764 bound_to 10752
  154.6647  135.3020  154.9788 H   0  0  0  0  0  0  0  0  0  0  0  0  # atno 10765 bound_to 10752
  140.2092  134.8280  157.3102 H   0  0  0  0  0  0  0  0  0  0  0  0  # atno 11005 bound_to 11000
  146.2617  140.5023  142.8850 LP  0  0  0  0  0  0  0  0  0  0  0  0  # atno 17320 bound_to 7965
  144.8196  140.6527  143.6362 LP  0  0  0  0  0  0  0  0  0  0  0  0  # atno 17321 bound_to 7965
  140.5466  144.0493  150.6109 LP  0  0  0  0  0  0  0  0  0  0  0  0  # atno 17342 bound_to 10162
  140.3533  143.2950  152.0463 LP  0  0  0  0  0  0  0  0  0  0  0  0  # atno 17343 bound_to 10162
  157.2624  131.0570  151.2312 LP  0  0  0  0  0  0  0  0  0  0  0  0  # atno 17370 bound_to 10713
  157.3421  130.7039  149.6388 LP  0  0  0  0  0  0  0  0  0  0  0  0  # atno 17371 bound_to 10713
  140.1969  134.4302  155.7684 LP  0  0  0  0  0  0  0  0  0  0  0  0  # atno 17394 bound_to 11000
  141.2226  133.7053  156.8120 LP  0  0  0  0  0  0  0  0  0  0  0  0  # atno 17395 bound_to 11000

$$$$
