#       Name:                AV-unprocessed.smi:1053
#       Creating user name   scv26
#       Creation time:       Fri Mar 27 03:11:57 2020


#       File generated by GOLD software.
#

@<TRIPOS>MOLECULE
AV-unprocessed.smi:1053
    42    43     1
SMALL
NO_CHARGES


@<TRIPOS>ATOM
      1 ****        -2.6824  -4.0582   1.9146 C.3            1 S1                 0.0000
      2 ****        -2.7734  -2.5758   2.3031 C.3            1 S1                 0.0000
      3 ****        -2.1559  -1.6818   1.2919 N.4            1 S1                 1.0000
      4 ****        -2.6194  -0.2802   1.4231 C.3            1 S1                 0.0000
      5 ****        -1.9893   0.5992   0.3318 C.3            1 S1                 0.0000
      6 ****        -0.5737   0.5037   0.4103 O.3            1 S1                 0.0000
      7 ****        -0.1043  -0.8200   0.1753 C.3            1 S1                 0.0000
      8 ****         1.4337  -0.8119   0.1845 C.3            1 S1                 0.0000
      9 ****         1.9902  -0.1625  -0.9952 N.pl3          1 S1                 0.0000
     10 ****         2.2129   1.1970  -1.1206 C.ar           1 S1                 0.0000
     11 ****         2.0576   1.9723  -0.0414 N.ar           1 S1                 0.0000
     12 ****         2.2834   3.2945  -0.1968 C.ar           1 S1                 0.0000
     13 ****         2.6654   3.8407  -1.4377 C.ar           1 S1                 0.0000
     14 ****         2.8002   2.9289  -2.5085 C.ar           1 S1                 0.0000
     15 ****         3.2063   3.3752  -3.9051 C.3            1 S1                 0.0000
     16 ****         2.2496   3.0525  -4.7756 F              1 S1                 0.0000
     17 ****         3.4013   4.6932  -3.9604 F              1 S1                 0.0000
     18 ****         4.3369   2.7653  -4.2617 F              1 S1                 0.0000
     19 ****         2.5711   1.6055  -2.3393 N.ar           1 S1                 0.0000
     20 ****        -0.6725  -1.7363   1.2772 C.3            1 S1                 0.0000
     21 ****        -3.2290  -4.6742   2.6291 H              1 S1                 0.0000
     22 ****        -1.6534  -4.4164   1.9023 H              1 S1                 0.0000
     23 ****        -3.1140  -4.2350   0.9290 H              1 S1                 0.0000
     24 ****        -3.8295  -2.3217   2.4032 H              1 S1                 0.0000
     25 ****        -2.3206  -2.4060   3.2809 H              1 S1                 0.0000
     26 ****        -3.7064  -0.2380   1.3446 H              1 S1                 0.0000
     27 ****        -2.3530   0.1024   2.4097 H              1 S1                 0.0000
     28 ****        -2.3342   0.3025  -0.6601 H              1 S1                 0.0000
     29 ****        -2.2811   1.6400   0.4723 H              1 S1                 0.0000
     30 ****        -0.4533  -1.1681  -0.7991 H              1 S1                 0.0000
     31 ****         1.8154  -0.3531   1.0974 H              1 S1                 0.0000
     32 ****         1.8006  -1.8385   0.1836 H              1 S1                 0.0000
     33 ****         2.1167  -0.7219  -1.8263 H              1 S1                 0.0000
     34 ****         2.1575   3.9204   0.6743 H              1 S1                 0.0000
     35 ****         2.8441   4.8994  -1.5532 H              1 S1                 0.0000
     36 ****        -0.2871  -1.4350   2.2528 H              1 S1                 0.0000
     37 ****        -0.3358  -2.7577   1.1023 H              1 S1                 0.0000
     38 ****        -2.4739  -2.0022   0.3882 H              1 S1                 0.0000
     39 ****        -0.2828   0.7902   1.3231 LP             1 S1                 0.0000
     40 ****        -0.1725   1.1128  -0.2738 LP             1 S1                 0.0000
     41 ****         1.7862   1.5895   0.8416 LP             1 S1                 0.0000
     42 ****         2.6664   0.9601  -3.0971 LP             1 S1                 0.0000
@<TRIPOS>BOND
    1    1    2 1     
    2    1   21 1     
    3    1   22 1     
    4    1   23 1     
    5    2    3 1     
    6    2   24 1     
    7    2   25 1     
    8    3   20 1     
    9    3    4 1     
   10    3   38 1     
   11    4    5 1     
   12    4   26 1     
   13    4   27 1     
   14    5    6 1     
   15    5   28 1     
   16    5   29 1     
   17    6    7 1     
   18    7    8 1     
   19    7   20 1     
   20    7   30 1     
   21    8    9 1     
   22    8   31 1     
   23    8   32 1     
   24    9   10 1     
   25    9   33 1     
   26   10   19 ar    
   27   10   11 ar    
   28   11   12 ar    
   29   12   13 ar    
   30   12   34 1     
   31   13   14 ar    
   32   13   35 1     
   33   14   15 1     
   34   14   19 ar    
   35   15   16 1     
   36   15   17 1     
   37   15   18 1     
   38   20   36 1     
   39   20   37 1     
   40    6   39 1     
   41    6   40 1     
   42   11   41 1     
   43   19   42 1     
@<TRIPOS>SUBSTRUCTURE
      1 S1             1
@<TRIPOS>SET
LONE_PAIRS      STATIC     ATOMS    <user>   **** ""
4 39 40 41 42
DONOR_HYDROGENS      STATIC     ATOMS    <user>   **** ""
2 38 33
ATOM$BLUE        STATIC     ATOMS    COLORGROUP SYSTEM
4 39 40 41 42
ATOM$RED        STATIC     ATOMS    COLORGROUP SYSTEM
2 38 33
