AV-unprocessed.smi:1302|AV-procd|sdf|5426|dock2
  -GOLD-   22720 4583D 1   1.00000     0.00000
 Structure written by MMmdl.
 43 44  0  0  0  0  0  0  0  0  1 V2000
  152.8981  143.2735  160.5447 C   0  0  0  0  0  0  0  0  0  0  0  0
  152.7085  142.1483  159.5178 C   0  0  0  0  0  0  0  0  0  0  0  0
  151.2518  142.0434  159.0473 C   0  0  0  0  0  0  0  0  0  0  0  0
  153.1265  140.8762  160.1004 N   0  0  0  0  0  0  0  0  0  0  0  0
  153.1253  139.6853  159.4783 C   0  0  0  0  0  0  0  0  0  0  0  0
  152.7281  139.5130  158.3259 O   0  0  0  0  0  0  0  0  0  0  0  0
  153.5900  138.5252  160.3093 C   0  0  0  0  0  0  0  0  0  0  0  0
  154.4208  138.7318  161.4316 C   0  0  0  0  0  0  0  0  0  0  0  0
  154.8203  137.6220  162.2009 C   0  0  0  0  0  0  0  0  0  0  0  0
  154.3633  136.3402  161.8319 C   0  0  0  0  0  0  0  0  0  0  0  0
  154.7621  135.2322  162.5921 N   0  0  0  0  0  0  0  0  0  0  0  0
  154.4016  133.9607  161.9819 C   0  0  0  0  0  0  0  0  0  0  0  0
  155.0262  132.7977  162.7743 C   0  0  2  0  0  0  0  0  0  0  0  0
  154.5704  131.4351  162.2425 C   0  0  0  0  0  0  0  0  0  0  0  0
  154.6371  132.8891  164.1456 O   0  0  0  0  0  0  0  0  0  0  0  0
  154.9701  134.1242  164.7855 C   0  0  1  0  0  0  0  0  0  0  0  0
  156.4826  134.2581  165.0387 C   0  0  0  0  0  0  0  0  0  0  0  0
  154.3714  135.3038  163.9946 C   0  0  0  0  0  0  0  0  0  0  0  0
  153.5565  136.1333  160.7641 N   0  0  0  0  0  0  0  0  0  0  0  0
  153.1811  137.2014  160.0285 C   0  0  0  0  0  0  0  0  0  0  0  0
  152.6003  144.2366  160.1293 H   0  0  0  0  0  0  0  0  0  0  0  0
  153.9419  143.3554  160.8496 H   0  0  0  0  0  0  0  0  0  0  0  0
  152.3016  143.0986  161.4408 H   0  0  0  0  0  0  0  0  0  0  0  0
  153.3200  142.3818  158.6448 H   0  0  0  0  0  0  0  0  0  0  0  0
  150.9172  142.9794  158.5992 H   0  0  0  0  0  0  0  0  0  0  0  0
  150.5811  141.8122  159.8756 H   0  0  0  0  0  0  0  0  0  0  0  0
  151.1377  141.2608  158.2963 H   0  0  0  0  0  0  0  0  0  0  0  0
  153.4477  140.9042  161.0573 H   0  0  0  0  0  0  0  0  0  0  0  0
  154.7564  139.7228  161.7008 H   0  0  0  0  0  0  0  0  0  0  0  0
  155.4631  137.7549  163.0589 H   0  0  0  0  0  0  0  0  0  0  0  0
  153.3151  133.8608  161.9627 H   0  0  0  0  0  0  0  0  0  0  0  0
  154.7464  133.9377  160.9474 H   0  0  0  0  0  0  0  0  0  0  0  0
  156.1129  132.8445  162.6980 H   0  0  0  0  0  0  0  0  0  0  0  0
  154.8489  131.3083  161.1960 H   0  0  0  0  0  0  0  0  0  0  0  0
  153.4881  131.3248  162.3167 H   0  0  0  0  0  0  0  0  0  0  0  0
  155.0274  130.6232  162.8086 H   0  0  0  0  0  0  0  0  0  0  0  0
  154.4880  134.1010  165.7632 H   0  0  0  0  0  0  0  0  0  0  0  0
  156.6968  135.1455  165.6345 H   0  0  0  0  0  0  0  0  0  0  0  0
  157.0518  134.3463  164.1135 H   0  0  0  0  0  0  0  0  0  0  0  0
  156.8630  133.3950  165.5851 H   0  0  0  0  0  0  0  0  0  0  0  0
  154.6914  136.2536  164.4253 H   0  0  0  0  0  0  0  0  0  0  0  0
  153.2834  135.2718  164.0673 H   0  0  0  0  0  0  0  0  0  0  0  0
  152.5297  136.9839  159.1946 H   0  0  0  0  0  0  0  0  0  0  0  0
  1  2  1  0  0  0  0
  1 21  1  0  0  0  0
  1 22  1  0  0  0  0
  1 23  1  0  0  0  0
  2  3  1  0  0  0  0
  2  4  1  0  0  0  0
  2 24  1  0  0  0  0
  3 25  1  0  0  0  0
  3 26  1  0  0  0  0
  3 27  1  0  0  0  0
  4  5  1  0  0  0  0
  4 28  1  0  0  0  0
  5  6  2  0  0  0  0
  5  7  1  0  0  0  0
  7 20  1  0  0  0  0
  7  8  2  0  0  0  0
  8  9  1  0  0  0  0
  8 29  1  0  0  0  0
  9 10  2  0  0  0  0
  9 30  1  0  0  0  0
 10 11  1  0  0  0  0
 10 19  1  0  0  0  0
 11 18  1  0  0  0  0
 11 12  1  0  0  0  0
 12 13  1  0  0  0  0
 12 31  1  0  0  0  0
 12 32  1  0  0  0  0
 13 14  1  0  0  0  0
 13 15  1  0  0  0  0
 13 33  1  0  0  0  0
 14 34  1  0  0  0  0
 14 35  1  0  0  0  0
 14 36  1  0  0  0  0
 15 16  1  0  0  0  0
 16 17  1  0  0  0  0
 16 18  1  0  0  0  0
 16 37  1  0  0  0  0
 17 38  1  0  0  0  0
 17 39  1  0  0  0  0
 17 40  1  0  0  0  0
 18 41  1  0  0  0  0
 18 42  1  0  0  0  0
 19 20  2  0  0  0  0
 20 43  1  0  0  0  0
M  END
> <s_m_source_file>
AV-unprocessed.smi

> <i_m_source_file_index>
1302

> <i_lp_mmshare_version>
43012

> <i_f3d_flags>
0

> <s_epik_input>
W0NIM11bQ0hdKFtDSDNdKVtOSF1DKD1PKWMxW2NIXVtjSF1jKG5bY0hdMSlOMltDSDJdW0NAQEhdKFtDSDNdKU9bQ0BASF0oW0NIM10pW0NIMl0y

> <s_epik_cmdline>
J2VwaWtfcHl0aG9uJywgJy1waCcsICc3LjAnLCAnLXRuJywgJzgnLCAnLW1hJywgJzIwMCcsICctbWV0YWxfYmluZGluZycsICctaW1hZScsICc8aW5maWxlLm1hZT4nLCAnLW9tYWUnLCAnPG91dGZpbGUubWFlPic=

> <r_lp_tautomer_probability>
1

> <r_epik_Ionization_Penalty>
2.23089e-05

> <r_epik_Ionization_Penalty_Charging>
0

> <r_epik_Ionization_Penalty_Neutral>
2.23089e-05

> <r_epik_State_Penalty>
-0

> <r_epik_Charging_Adjusted_Penalty>
0

> <i_epik_Tot_Q>
0

> <i_epik_Tot_abs_Q>
0

> <r_epik_Metal_State_Penalty>
-0

> <b_epik_Metal_Only>
0

> <s_lp_Force_Field>
OPLS_2005

> <r_lp_Energy>
23.1748

> <b_lp_Chiralities_Consistent>
1

> <s_lp_Variant>
AV-unprocessed.smi:1302-2

> <Gold.Version>
5.8.1

> <Gold.Id.Protein>
6NUR|6NUR_protein|mol2

> <Gold.PLP.Fitness>
35.5625

> <Gold.PLP.PLP>
-30.1866

> <Gold.PLP.part.hbond>
-1.9514

> <Gold.PLP.part.metal>
0.0000

> <Gold.PLP.part.buried>
-4.6660

> <Gold.PLP.part.nonpolar>
-24.7015

> <Gold.PLP.part.repulsive>
0.1112

> <Gold.PLP.ligand.clash>
0.0000

> <Gold.PLP.ligand.torsion>
0.3043

> <Gold.PLP.Chemscore.Hbond>
1.9588

> <Gold.PLP.Chemscore.CHOScore>
0.0000

> <Gold.PLP.Chemscore.Metal>
0.0000

> <Gold.Chemscore.Hbonds>
donor molecule, donor type, donor heavy atom, donor atom, acceptor molecule, acceptor atom, score
      P1  H  6896  6908       L1    19  0.90
      P1  H  7997  8008       L1     6  0.26

> <Gold.PLP.Chemscore.Internal.Correction>
0.1083

> <Gold.Rescore>
     Score         DG    S(hbond)    S(metal)    S(lipo)     H(rot)  DE(clash)    DE(int)     intcor
     18.34     -19.05       1.81        0.00      89.58       1.15       0.32       0.40       ----

> <Gold.Chemscore.Fitness>
18.3361

> <Gold.Chemscore.DG>
-19.0523

> <Gold.Chemscore.ZeroCoef>
-5.4800

> <Gold.Chemscore.Hbond>
1.8075

> <Gold.Chemscore.Metal>
0.0000

> <Gold.Chemscore.Lipo>
89.5848

> <Gold.Chemscore.Internal_Hbond>
0.0000

> <Gold.Chemscore.DEClash>
0.3170

> <Gold.Chemscore.DEInternal>
0.3992

> <Gold.Chemscore.Rot>
1.1508

> <Gold.Chemscore.Internal.Correction>
   9.000000E+99

> <Gold.Chemscore.Hbonds>
donor molecule, donor type, donor heavy atom, donor atom, acceptor molecule, acceptor atom, score
      P1  H  6896  6908       L1    19  0.18
      P1  H  7997  8008       L1     6  0.12

> <Gold.Chemscore.Hbond.Weighted>
-6.0370

> <Gold.Chemscore.Metal.Weighted>
-0.0000

> <Gold.Chemscore.Lipo.Weighted>
-10.4814

> <Gold.Chemscore.Internal_Hbond.Weighted>
0.0000

> <Gold.Chemscore.DEClash.Weighted>
0.3170

> <Gold.Chemscore.DEInternal.Weighted>
0.3992

> <Gold.Chemscore.Rot.Weighted>
2.9461

> <Gold.Chemscore.Internal.Correction.Weighted>
   9.000000E+99

> <Gold.Protein.RotatedTorsions>
[ 6907 6896 6895 6894 ] final  -74.53 input  -60.11 | X-H torsion
[ 7974 7965 7964 7962 ] final   63.87 input  175.53 | X-H torsion
[ 8008 7997 7996 7995 ] final  -83.72 input   59.86 | X-H torsion
[ 10167 10162 10161 10158 ] final   58.43 input  -65.29 | X-H torsion
[ 10718 10713 10712 10709 ] final   76.23 input   66.30 | X-H torsion
[ 10763 10752 10751 10750 ] final   84.12 input  -60.55 | X-H torsion
[ 11005 11000 10999 10996 ] final  -47.42 input  -57.11 | X-H torsion

> <Gold.Protein.ActiveResidues>
 VAL166  LYS551  ARG553  GLY616  TRP617  ASP618  TYR619  PRO620  LYS621  CYS622 
 ASP623  PHE694  ASN695  SER759  ASP760  ASP761  ALA762  ILE779  LEU786  VAL792 
 PHE793  MET794  SER795  GLU796  ALA797  LYS798  CYS799  TRP800  GLU811  SER814 

> <Gold.Protein.RotatedAtoms>
  150.7090  134.4856  159.5490 H   0  0  0  0  0  0  0  0  0  0  0  0  # atno 6907 bound_to 6896
  152.2484  134.8155  160.0459 H   0  0  0  0  0  0  0  0  0  0  0  0  # atno 6908 bound_to 6896
  151.8911  133.3481  159.3835 H   0  0  0  0  0  0  0  0  0  0  0  0  # atno 6909 bound_to 6896
  145.8568  139.3289  143.0842 H   0  0  0  0  0  0  0  0  0  0  0  0  # atno 7974 bound_to 7965
  154.6220  140.0615  156.9627 H   0  0  0  0  0  0  0  0  0  0  0  0  # atno 8008 bound_to 7997
  155.1802  140.3298  155.4358 H   0  0  0  0  0  0  0  0  0  0  0  0  # atno 8009 bound_to 7997
  156.2437  140.1899  156.6898 H   0  0  0  0  0  0  0  0  0  0  0  0  # atno 8010 bound_to 7997
  140.1873  144.4121  150.6587 H   0  0  0  0  0  0  0  0  0  0  0  0  # atno 10167 bound_to 10162
  157.6665  130.9764  150.1467 H   0  0  0  0  0  0  0  0  0  0  0  0  # atno 10718 bound_to 10713
  153.1353  135.4666  154.9412 H   0  0  0  0  0  0  0  0  0  0  0  0  # atno 10763 bound_to 10752
  154.7700  135.3156  154.8211 H   0  0  0  0  0  0  0  0  0  0  0  0  # atno 10764 bound_to 10752
  153.8744  135.6900  153.4826 H   0  0  0  0  0  0  0  0  0  0  0  0  # atno 10765 bound_to 10752
  141.0639  133.6700  156.3295 H   0  0  0  0  0  0  0  0  0  0  0  0  # atno 11005 bound_to 11000
  145.9294  140.9059  143.0364 LP  0  0  0  0  0  0  0  0  0  0  0  0  # atno 17320 bound_to 7965
  144.6727  140.1397  143.7438 LP  0  0  0  0  0  0  0  0  0  0  0  0  # atno 17321 bound_to 7965
  140.6480  143.2218  151.6143 LP  0  0  0  0  0  0  0  0  0  0  0  0  # atno 17342 bound_to 10162
  139.5271  144.3027  152.1059 LP  0  0  0  0  0  0  0  0  0  0  0  0  # atno 17343 bound_to 10162
  156.2276  130.3679  149.8482 LP  0  0  0  0  0  0  0  0  0  0  0  0  # atno 17370 bound_to 10713
  156.6318  130.8669  151.3497 LP  0  0  0  0  0  0  0  0  0  0  0  0  # atno 17371 bound_to 10713
  140.5812  134.5744  157.5480 LP  0  0  0  0  0  0  0  0  0  0  0  0  # atno 17394 bound_to 11000
  139.9458  134.7704  156.0565 LP  0  0  0  0  0  0  0  0  0  0  0  0  # atno 17395 bound_to 11000

$$$$
