#       Name:                AV-unprocessed.smi:2406
#       Creating user name   scv26
#       Creation time:       Fri Mar 27 13:14:49 2020


#       File generated by GOLD software.
#

@<TRIPOS>MOLECULE
AV-unprocessed.smi:2406
    42    43     1
SMALL
NO_CHARGES


@<TRIPOS>ATOM
      1 ****        -6.4704   2.0366  -1.2166 C.3            1 S1                 0.0000
      2 ****        -5.4264   1.0709  -1.2713 O.3            1 S1                 0.0000
      3 ****        -4.1495   1.4730  -0.9386 C.ar           1 S1                 0.0000
      4 ****        -3.0921   0.5429  -1.0080 C.ar           1 S1                 0.0000
      5 ****        -1.7990   0.9969  -0.6642 C.ar           1 S1                 0.0000
      6 ****        -0.7620   0.0312  -0.7564 N.am           1 S1                 0.0000
      7 ****         0.5490   0.1952  -0.5072 C.2            1 S1                 0.0000
      8 ****         1.0737   1.2402  -0.1211 O.2            1 S1                 0.0000
      9 ****         1.2287  -0.9406  -0.7287 N.am           1 S1                 0.0000
     10 ****         2.6718  -1.1204  -0.5736 C.3            1 S1                 0.0000
     11 ****         3.2278  -1.8115  -1.8261 C.3            1 S1                 0.0000
     12 ****         2.9952  -1.9216   0.7034 C.3            1 S1                 0.0000
     13 ****         2.5532  -1.2337   1.9832 C.3            1 S1                 0.0000
     14 ****         3.3688  -0.1142   2.5838 C.3            1 S1                 0.0000
     15 ****         3.2973  -1.4547   3.2784 C.3            1 S1                 0.0000
     16 ****        -1.6137   2.2846  -0.2814 N.ar           1 S1                 0.0000
     17 ****        -2.6800   3.0861  -0.2466 C.ar           1 S1                 0.0000
     18 ****        -3.9345   2.7543  -0.5537 N.ar           1 S1                 0.0000
     19 ****        -7.4104   1.5687  -1.5086 H              1 S1                 0.0000
     20 ****        -6.2844   2.8629  -1.9042 H              1 S1                 0.0000
     21 ****        -6.5972   2.4320  -0.2078 H              1 S1                 0.0000
     22 ****        -3.2714  -0.4767  -1.3170 H              1 S1                 0.0000
     23 ****        -1.0499  -0.8872  -1.0597 H              1 S1                 0.0000
     24 ****         0.7080  -1.7475  -1.0396 H              1 S1                 0.0000
     25 ****         3.1627  -0.1484  -0.4981 H              1 S1                 0.0000
     26 ****         4.3081  -1.9406  -1.7553 H              1 S1                 0.0000
     27 ****         3.0262  -1.2228  -2.7216 H              1 S1                 0.0000
     28 ****         2.7836  -2.7974  -1.9673 H              1 S1                 0.0000
     29 ****         2.5260  -2.9052   0.6606 H              1 S1                 0.0000
     30 ****         4.0706  -2.0966   0.7563 H              1 S1                 0.0000
     31 ****         1.4736  -1.1336   2.0774 H              1 S1                 0.0000
     32 ****         4.3045   0.1496   2.0944 H              1 S1                 0.0000
     33 ****         2.8251   0.7163   3.0293 H              1 S1                 0.0000
     34 ****         2.7089  -1.5171   4.1915 H              1 S1                 0.0000
     35 ****         4.1880  -2.0794   3.2542 H              1 S1                 0.0000
     36 ****        -2.5096   4.1074   0.0598 H              1 S1                 0.0000
     37 ****        -5.3932   0.7227  -2.2081 LP             1 S1                 0.0000
     38 ****        -5.6755   0.3291  -0.6486 LP             1 S1                 0.0000
     39 ****         0.5135   2.0545   0.0310 LP             1 S1                 0.0000
     40 ****         2.0600   1.2745   0.0404 LP             1 S1                 0.0000
     41 ****        -0.7061   2.6230  -0.0329 LP             1 S1                 0.0000
     42 ****        -4.6802   3.4186  -0.5024 LP             1 S1                 0.0000
@<TRIPOS>BOND
    1    1    2 1     
    2    1   19 1     
    3    1   20 1     
    4    1   21 1     
    5    2    3 1     
    6    3   18 ar    
    7    3    4 ar    
    8    4    5 ar    
    9    4   22 1     
   10    5    6 1     
   11    5   16 ar    
   12    6    7 am    
   13    6   23 1     
   14    7    8 2     
   15    7    9 am    
   16    9   10 1     
   17    9   24 1     
   18   10   11 1     
   19   10   12 1     
   20   10   25 1     
   21   11   26 1     
   22   11   27 1     
   23   11   28 1     
   24   12   13 1     
   25   12   29 1     
   26   12   30 1     
   27   13   15 1     
   28   13   14 1     
   29   13   31 1     
   30   14   15 1     
   31   14   32 1     
   32   14   33 1     
   33   15   34 1     
   34   15   35 1     
   35   16   17 ar    
   36   17   18 ar    
   37   17   36 1     
   38    2   37 1     
   39    2   38 1     
   40    8   39 1     
   41    8   40 1     
   42   16   41 1     
   43   18   42 1     
@<TRIPOS>SUBSTRUCTURE
      1 S1             1
@<TRIPOS>SET
LONE_PAIRS      STATIC     ATOMS    <user>   **** ""
6 37 38 39 40 41 42
DONOR_HYDROGENS      STATIC     ATOMS    <user>   **** ""
2 23 24
ATOM$BLUE        STATIC     ATOMS    COLORGROUP SYSTEM
6 37 38 39 40 41 42
ATOM$RED        STATIC     ATOMS    COLORGROUP SYSTEM
2 23 24
