#       Name:                AV-unprocessed.smi:578
#       Creating user name   scv26
#       Creation time:       Thu Mar 26 23:49:16 2020


#       File generated by GOLD software.
#

@<TRIPOS>MOLECULE
AV-unprocessed.smi:578
    40    41     1
SMALL
NO_CHARGES


@<TRIPOS>ATOM
      1 ****        -2.9008  -1.9446  -0.3678 C.3            1 S1                 0.0000
      2 ****        -2.3359  -1.0626   0.7600 C.3            1 S1                 0.0000
      3 ****        -0.7951  -1.0568   0.8247 C.3            1 S1                 0.0000
      4 ****        -0.2359  -0.2554  -0.2562 N.3            1 S1                 0.0000
      5 ****         1.1630  -0.3114  -0.3208 C.ar           1 S1                 0.0000
      6 ****         1.7753  -0.9546  -1.4175 C.ar           1 S1                 0.0000
      7 ****         3.1813  -1.0120  -1.4858 C.ar           1 S1                 0.0000
      8 ****         3.9237  -0.4549  -0.5057 N.pl3          1 S1                 1.0000
      9 ****         3.3896   0.1717   0.5677 C.ar           1 S1                 0.0000
     10 ****         4.3113   0.7540   1.5981 C.2            1 S1                 0.0000
     11 ****         3.8156   1.3334   2.5894 O.co2          1 S1                 0.0000
     12 ****         5.5455   0.6385   1.4273 O.co2          1 S1                -1.0000
     13 ****         1.9827   0.2567   0.6831 C.ar           1 S1                 0.0000
     14 ****        -0.7677   1.1002  -0.2723 C.3            1 S1                 0.0000
     15 ****        -2.3030   1.0613  -0.3773 C.3            1 S1                 0.0000
     16 ****        -2.9190   2.4615  -0.2921 C.3            1 S1                 0.0000
     17 ****        -2.8312   0.2779   0.6937 O.3            1 S1                 0.0000
     18 ****        -2.6110  -2.9858  -0.2248 H              1 S1                 0.0000
     19 ****        -2.5417  -1.6416  -1.3510 H              1 S1                 0.0000
     20 ****        -3.9903  -1.9061  -0.3820 H              1 S1                 0.0000
     21 ****        -2.7055  -1.4770   1.6983 H              1 S1                 0.0000
     22 ****        -0.4760  -0.6400   1.7810 H              1 S1                 0.0000
     23 ****        -0.4094  -2.0761   0.7772 H              1 S1                 0.0000
     24 ****         1.1750  -1.3979  -2.1986 H              1 S1                 0.0000
     25 ****         3.7307  -1.4824  -2.2878 H              1 S1                 0.0000
     26 ****         1.5363   0.7521   1.5336 H              1 S1                 0.0000
     27 ****        -0.4708   1.6248   0.6370 H              1 S1                 0.0000
     28 ****        -0.3477   1.6509  -1.1150 H              1 S1                 0.0000
     29 ****        -2.5944   0.6226  -1.3320 H              1 S1                 0.0000
     30 ****        -2.5517   3.1011  -1.0952 H              1 S1                 0.0000
     31 ****        -2.6776   2.9422   0.6564 H              1 S1                 0.0000
     32 ****        -4.0052   2.4146  -0.3750 H              1 S1                 0.0000
     33 ****         4.9412  -0.5045  -0.5690 H              1 S1                 0.0000
     34 ****        -0.5457  -0.6792  -1.1074 LP             1 S1                 0.0000
     35 ****         4.4124   1.7286   3.2876 LP             1 S1                 0.0000
     36 ****         2.8224   1.4015   2.6837 LP             1 S1                 0.0000
     37 ****         6.1810   1.0182   2.0995 LP             1 S1                 0.0000
     38 ****         5.8963   0.1665   0.6185 LP             1 S1                 0.0000
     39 ****        -2.6058   0.7354   1.5538 LP             1 S1                 0.0000
     40 ****        -3.8248   0.2372   0.5882 LP             1 S1                 0.0000
@<TRIPOS>BOND
    1    1    2 1     
    2    1   18 1     
    3    1   19 1     
    4    1   20 1     
    5    2   17 1     
    6    2    3 1     
    7    2   21 1     
    8    3    4 1     
    9    3   22 1     
   10    3   23 1     
   11    4    5 1     
   12    4   14 1     
   13    5   13 ar    
   14    5    6 ar    
   15    6    7 ar    
   16    6   24 1     
   17    7    8 ar    
   18    7   25 1     
   19    8    9 ar    
   20    8   33 1     
   21    9   10 1     
   22    9   13 ar    
   23   10   11 ar    
   24   10   12 ar    
   25   13   26 1     
   26   14   15 1     
   27   14   27 1     
   28   14   28 1     
   29   15   16 1     
   30   15   17 1     
   31   15   29 1     
   32   16   30 1     
   33   16   31 1     
   34   16   32 1     
   35    4   34 1     
   36   11   35 1     
   37   11   36 1     
   38   12   37 1     
   39   12   38 1     
   40   17   39 1     
   41   17   40 1     
@<TRIPOS>SUBSTRUCTURE
      1 S1             1
@<TRIPOS>SET
LONE_PAIRS      STATIC     ATOMS    <user>   **** ""
7 34 35 36 37 38 39 40
DONOR_HYDROGENS      STATIC     ATOMS    <user>   **** ""
1 33
ATOM$BLUE        STATIC     ATOMS    COLORGROUP SYSTEM
7 34 35 36 37 38 39 40
ATOM$RED        STATIC     ATOMS    COLORGROUP SYSTEM
1 33
