AV-unprocessed.smi:3052|AV-procd|sdf|11635|dock6
  -GOLD-   2272017 23D 1   1.00000     0.00000
 Structure written by MMmdl.
 41 43  0  0  0  0  0  0  0  0  1 V2000
  147.2187  141.3950  153.7839 C   0  0  0  0  0  0  0  0  0  0  0  0
  148.5085  140.6928  154.1057 C   0  0  0  0  0  0  0  0  0  0  0  0
  149.5287  141.4005  154.5674 N   0  0  0  0  0  0  0  0  0  0  0  0
  150.6023  140.5093  154.7168 O   0  0  0  0  0  0  0  0  0  0  0  0
  150.2042  139.2694  154.3300 C   0  0  0  0  0  0  0  0  0  0  0  0
  151.2251  138.1821  154.4109 C   0  0  0  0  0  0  0  0  0  0  0  0
  151.8036  137.7565  155.7373 C   0  0  0  0  0  0  0  0  0  0  0  0
  152.6747  138.4674  154.7247 C   0  0  0  0  0  0  0  0  0  0  0  0
  148.8888  139.3252  153.9716 C   0  0  0  0  0  0  0  0  0  0  0  0
  148.1307  138.2241  153.5014 N   0  0  0  0  0  0  0  0  0  0  0  0
  146.8674  137.9174  153.8310 C   0  0  0  0  0  0  0  0  0  0  0  0
  146.1736  138.5631  154.6155 O   0  0  0  0  0  0  0  0  0  0  0  0
  146.4672  136.7951  153.2112 N   0  0  0  0  0  0  0  0  0  0  0  0
  145.1757  136.1024  153.3150 C   0  0  1  0  0  0  0  0  0  0  0  0
  145.2493  135.2584  154.6114 C   0  0  0  0  0  0  0  0  0  0  0  0
  144.0275  137.1391  153.4544 C   0  0  0  0  0  0  0  0  0  0  0  0
  143.8199  137.8859  152.2705 O   0  0  0  0  0  0  0  0  0  0  0  0
  144.8860  135.2350  152.0774 C   0  0  0  0  0  0  0  0  0  0  0  0
  145.9443  134.4727  151.3127 C   0  0  0  0  0  0  0  0  0  0  0  0
  145.2209  135.6351  150.6593 C   0  0  0  0  0  0  0  0  0  0  0  0
  146.7124  140.9247  152.9410 H   0  0  0  0  0  0  0  0  0  0  0  0
  147.3881  142.4390  153.5184 H   0  0  0  0  0  0  0  0  0  0  0  0
  146.5400  141.3778  154.6366 H   0  0  0  0  0  0  0  0  0  0  0  0
  151.0193  137.4006  153.6820 H   0  0  0  0  0  0  0  0  0  0  0  0
  151.5055  138.3155  156.6223 H   0  0  0  0  0  0  0  0  0  0  0  0
  151.9754  136.6934  155.8923 H   0  0  0  0  0  0  0  0  0  0  0  0
  153.4257  137.8764  154.2045 H   0  0  0  0  0  0  0  0  0  0  0  0
  152.9632  139.4912  154.9536 H   0  0  0  0  0  0  0  0  0  0  0  0
  148.6314  137.5459  152.9461 H   0  0  0  0  0  0  0  0  0  0  0  0
  147.1401  136.3558  152.6005 H   0  0  0  0  0  0  0  0  0  0  0  0
  144.3026  134.7682  154.8368 H   0  0  0  0  0  0  0  0  0  0  0  0
  145.4904  135.8780  155.4759 H   0  0  0  0  0  0  0  0  0  0  0  0
  146.0222  134.4925  154.5620 H   0  0  0  0  0  0  0  0  0  0  0  0
  143.0878  136.6586  153.7274 H   0  0  0  0  0  0  0  0  0  0  0  0
  144.2531  137.8402  154.2587 H   0  0  0  0  0  0  0  0  0  0  0  0
  144.0476  138.7871  152.4411 H   0  0  0  0  0  0  0  0  0  0  0  0
  143.9512  134.6866  152.1735 H   0  0  0  0  0  0  0  0  0  0  0  0
  146.9918  134.6171  151.5631 H   0  0  0  0  0  0  0  0  0  0  0  0
  145.6885  133.4710  150.9732 H   0  0  0  0  0  0  0  0  0  0  0  0
  144.4879  135.3996  149.8906 H   0  0  0  0  0  0  0  0  0  0  0  0
  145.7887  136.5453  150.4858 H   0  0  0  0  0  0  0  0  0  0  0  0
  1  2  1  0  0  0  0
  1 21  1  0  0  0  0
  1 22  1  0  0  0  0
  1 23  1  0  0  0  0
  2  9  1  0  0  0  0
  2  3  2  0  0  0  0
  3  4  1  0  0  0  0
  4  5  1  0  0  0  0
  5  6  1  0  0  0  0
  5  9  2  0  0  0  0
  6  8  1  0  0  0  0
  6  7  1  0  0  0  0
  6 24  1  0  0  0  0
  7  8  1  0  0  0  0
  7 25  1  0  0  0  0
  7 26  1  0  0  0  0
  8 27  1  0  0  0  0
  8 28  1  0  0  0  0
  9 10  1  0  0  0  0
 10 11  1  0  0  0  0
 10 29  1  0  0  0  0
 11 12  2  0  0  0  0
 11 13  1  0  0  0  0
 13 14  1  0  0  0  0
 13 30  1  0  0  0  0
 14 15  1  0  0  0  0
 14 16  1  0  0  0  0
 14 18  1  0  0  0  0
 15 31  1  0  0  0  0
 15 32  1  0  0  0  0
 15 33  1  0  0  0  0
 16 17  1  0  0  0  0
 16 34  1  0  0  0  0
 16 35  1  0  0  0  0
 17 36  1  0  0  0  0
 18 20  1  0  0  0  0
 18 19  1  0  0  0  0
 18 37  1  0  0  0  0
 19 20  1  0  0  0  0
 19 38  1  0  0  0  0
 19 39  1  0  0  0  0
 20 40  1  0  0  0  0
 20 41  1  0  0  0  0
M  END
> <s_m_source_file>
AV-unprocessed.smi

> <i_m_source_file_index>
3052

> <i_lp_mmshare_version>
43012

> <i_f3d_flags>
0

> <s_epik_input>
W0NIM11jMW5vYyhbQ0hdMltDSDJdW0NIMl0yKWMxW05IXUMoPU8pW05IXVtDQEBdKFtDSDNdKShbQ0gyXVtPSF0pW0NIXTNbQ0gyXVtDSDJdMw==

> <s_epik_cmdline>
J2VwaWtfcHl0aG9uJywgJy1waCcsICc3LjAnLCAnLXRuJywgJzgnLCAnLW1hJywgJzIwMCcsICctbWV0YWxfYmluZGluZycsICctaW1hZScsICc8aW5maWxlLm1hZT4nLCAnLW9tYWUnLCAnPG91dGZpbGUubWFlPic=

> <r_lp_tautomer_probability>
1

> <r_epik_Ionization_Penalty>
3.5887e-05

> <r_epik_Ionization_Penalty_Charging>
0

> <r_epik_Ionization_Penalty_Neutral>
3.5887e-05

> <r_epik_State_Penalty>
-0

> <r_epik_Charging_Adjusted_Penalty>
0

> <i_epik_Tot_Q>
0

> <i_epik_Tot_abs_Q>
0

> <r_epik_Metal_State_Penalty>
-0

> <b_epik_Metal_Only>
0

> <s_lp_Force_Field>
OPLS_2005

> <r_lp_Energy>
30.0106

> <b_lp_Chiralities_Consistent>
1

> <s_lp_Variant>
AV-unprocessed.smi:3052-1

> <Gold.Version>
5.8.1

> <Gold.Id.Protein>
6NUR|6NUR_protein|mol2

> <Gold.PLP.Fitness>
45.5058

> <Gold.PLP.PLP>
-34.8537

> <Gold.PLP.part.hbond>
-6.4689

> <Gold.PLP.part.metal>
0.0000

> <Gold.PLP.part.buried>
-3.4905

> <Gold.PLP.part.nonpolar>
-25.6363

> <Gold.PLP.part.repulsive>
0.3640

> <Gold.PLP.ligand.clash>
0.0000

> <Gold.PLP.ligand.torsion>
1.6532

> <Gold.PLP.Chemscore.Hbond>
4.0000

> <Gold.PLP.Chemscore.CHOScore>
0.0000

> <Gold.PLP.Chemscore.Metal>
0.0000

> <Gold.Chemscore.Hbonds>
donor molecule, donor type, donor heavy atom, donor atom, acceptor molecule, acceptor atom, score
      L1  H    10    29       P1  7948  1.00
      L1  H    13    30       P1  7948  1.00
      L1  H    17    36       P1 10175  1.00
      P1  H  7989  7998       L1     4  1.00

> <Gold.PLP.Chemscore.Internal.Correction>
1.9585

> <Gold.Rescore>
     Score         DG    S(hbond)    S(metal)    S(lipo)     H(rot)  DE(clash)    DE(int)     intcor
     15.69     -19.19       3.13        0.00      75.07       2.16       0.38       3.12       ----

> <Gold.Chemscore.Fitness>
15.6897

> <Gold.Chemscore.DG>
-19.1906

> <Gold.Chemscore.ZeroCoef>
-5.4800

> <Gold.Chemscore.Hbond>
3.1285

> <Gold.Chemscore.Metal>
0.0000

> <Gold.Chemscore.Lipo>
75.0690

> <Gold.Chemscore.Internal_Hbond>
0.0000

> <Gold.Chemscore.DEClash>
0.3764

> <Gold.Chemscore.DEInternal>
3.1245

> <Gold.Chemscore.Rot>
2.1569

> <Gold.Chemscore.Internal.Correction>
   9.000000E+99

> <Gold.Chemscore.Hbonds>
donor molecule, donor type, donor heavy atom, donor atom, acceptor molecule, acceptor atom, score
      L1  H    10    29       P1  7948  1.00
      L1  H    13    30       P1  7948  0.94
      L1  H    17    36       P1 10175  0.94
      P1  H  7989  7998       L1     4  0.12

> <Gold.Chemscore.Hbond.Weighted>
-10.4493

> <Gold.Chemscore.Metal.Weighted>
-0.0000

> <Gold.Chemscore.Lipo.Weighted>
-8.7831

> <Gold.Chemscore.Internal_Hbond.Weighted>
0.0000

> <Gold.Chemscore.DEClash.Weighted>
0.3764

> <Gold.Chemscore.DEInternal.Weighted>
3.1245

> <Gold.Chemscore.Rot.Weighted>
5.5218

> <Gold.Chemscore.Internal.Correction.Weighted>
   9.000000E+99

> <Gold.Protein.RotatedTorsions>
[ 6907 6896 6895 6894 ] final  104.32 input  -60.11 | X-H torsion
[ 7974 7965 7964 7962 ] final -168.99 input  175.53 | X-H torsion
[ 8008 7997 7996 7995 ] final  -94.63 input   59.86 | X-H torsion
[ 10167 10162 10161 10158 ] final  109.23 input  -65.29 | X-H torsion
[ 10718 10713 10712 10709 ] final  154.42 input   66.30 | X-H torsion
[ 10763 10752 10751 10750 ] final   48.56 input  -60.55 | X-H torsion
[ 11005 11000 10999 10996 ] final -137.86 input  -57.11 | X-H torsion

> <Gold.Protein.ActiveResidues>
 VAL166  LYS551  ARG553  GLY616  TRP617  ASP618  TYR619  PRO620  LYS621  CYS622 
 ASP623  PHE694  ASN695  SER759  ASP760  ASP761  ALA762  ILE779  LEU786  VAL792 
 PHE793  MET794  SER795  GLU796  ALA797  LYS798  CYS799  TRP800  GLU811  SER814 

> <Gold.Protein.RotatedAtoms>
  152.5268  133.9695  159.7754 H   0  0  0  0  0  0  0  0  0  0  0  0  # atno 6907 bound_to 6896
  150.9970  133.6086  159.2707 H   0  0  0  0  0  0  0  0  0  0  0  0  # atno 6908 bound_to 6896
  151.3208  135.0824  159.9358 H   0  0  0  0  0  0  0  0  0  0  0  0  # atno 6909 bound_to 6896
  144.7193  140.2287  143.6307 H   0  0  0  0  0  0  0  0  0  0  0  0  # atno 7974 bound_to 7965
  154.7509  140.0487  157.0892 H   0  0  0  0  0  0  0  0  0  0  0  0  # atno 8008 bound_to 7997
  155.0058  140.3130  155.4830 H   0  0  0  0  0  0  0  0  0  0  0  0  # atno 8009 bound_to 7997
  156.2885  140.2193  156.5170 H   0  0  0  0  0  0  0  0  0  0  0  0  # atno 8010 bound_to 7997
  139.6783  144.7120  151.1562 H   0  0  0  0  0  0  0  0  0  0  0  0  # atno 10167 bound_to 10162
  157.2318  131.0741  151.1848 H   0  0  0  0  0  0  0  0  0  0  0  0  # atno 10718 bound_to 10713
  152.9791  135.5940  154.3947 H   0  0  0  0  0  0  0  0  0  0  0  0  # atno 10763 bound_to 10752
  154.3598  135.2767  155.2328 H   0  0  0  0  0  0  0  0  0  0  0  0  # atno 10764 bound_to 10752
  154.4330  135.6031  153.6135 H   0  0  0  0  0  0  0  0  0  0  0  0  # atno 10765 bound_to 10752
  140.8671  134.2097  157.4673 H   0  0  0  0  0  0  0  0  0  0  0  0  # atno 11005 bound_to 11000
  145.8431  139.2139  143.1816 LP  0  0  0  0  0  0  0  0  0  0  0  0  # atno 17320 bound_to 7965
  146.0328  140.8241  142.9867 LP  0  0  0  0  0  0  0  0  0  0  0  0  # atno 17321 bound_to 7965
  140.7643  143.5738  150.8967 LP  0  0  0  0  0  0  0  0  0  0  0  0  # atno 17342 bound_to 10162
  139.9408  143.6384  152.3054 LP  0  0  0  0  0  0  0  0  0  0  0  0  # atno 17343 bound_to 10162
  157.3470  130.7062  149.6416 LP  0  0  0  0  0  0  0  0  0  0  0  0  # atno 17370 bound_to 10713
  155.9675  130.4263  150.4695 LP  0  0  0  0  0  0  0  0  0  0  0  0  # atno 17371 bound_to 10713
  139.8710  134.9757  156.4892 LP  0  0  0  0  0  0  0  0  0  0  0  0  # atno 17394 bound_to 11000
  140.8616  133.8055  155.9271 LP  0  0  0  0  0  0  0  0  0  0  0  0  # atno 17395 bound_to 11000

$$$$
