AV-unprocessed.smi:1560|AV-procd|sdf|6279|dock6
  -GOLD-   22720 6473D 1   1.00000     0.00000
 Structure written by MMmdl.
 46 47  0  0  0  0  0  0  0  0  2 V2000
  148.8855  132.9412  153.3716 C   0  0  0  0  0  0  0  0  0  0  0  0
  148.1002  134.2623  153.4683 C   0  0  0  0  0  0  0  0  0  0  0  0
  146.5718  134.1210  153.7572 C   0  0  1  0  0  0  0  0  0  0  0  0
  146.4336  133.0328  154.8560 C   0  0  0  0  0  0  0  0  0  0  0  0
  146.0446  135.4723  154.3401 C   0  0  0  0  0  0  0  0  0  0  0  0
  146.7419  136.6525  153.8297 N   0  0  0  0  0  0  0  0  0  0  0  0
  146.9824  137.7811  154.5148 C   0  0  0  0  0  0  0  0  0  0  0  0
  146.6013  137.9662  155.6714 O   0  0  0  0  0  0  0  0  0  0  0  0
  147.7400  138.8799  153.7583 C   0  0  0  0  0  0  0  0  0  0  0  0
  149.0709  139.1489  154.3264 N   0  0  0  0  0  0  0  0  0  0  0  0
  149.9253  138.0533  154.5439 C   0  0  0  0  0  0  0  0  0  0  0  0
  151.1601  138.2070  155.0590 C   0  0  0  0  0  0  0  0  0  0  0  0
  151.6059  139.5539  155.3941 C   0  0  0  0  0  0  0  0  0  0  0  0
  152.7282  139.7127  155.8707 O   0  0  0  0  0  0  0  0  0  0  0  0
  150.7422  140.5850  155.1590 N   0  5  0  0  0  0  0  0  0  0  0  0
  149.4898  140.4140  154.6330 C   0  0  0  0  0  0  0  0  0  0  0  0
  148.7266  141.3589  154.4280 O   0  0  0  0  0  0  0  0  0  0  0  0
  145.8335  133.7186  152.5262 N   0  0  0  0  0  0  0  0  0  0  0  0
  144.3752  133.6302  152.6743 C   0  0  0  0  0  0  0  0  0  0  0  0
  143.6756  133.3576  151.3322 C   0  0  0  0  0  0  0  0  0  0  0  0
  144.1923  132.1638  150.7565 O   0  0  0  0  0  0  0  0  0  0  0  0
  145.5972  132.2276  150.5435 C   0  0  0  0  0  0  0  0  0  0  0  0
  146.3127  132.4910  151.8796 C   0  0  0  0  0  0  0  0  0  0  0  0
  149.9373  133.1387  153.1650 H   0  0  0  0  0  0  0  0  0  0  0  0
  148.5125  132.3040  152.5700 H   0  0  0  0  0  0  0  0  0  0  0  0
  148.8398  132.3738  154.3006 H   0  0  0  0  0  0  0  0  0  0  0  0
  148.5721  134.8598  154.2485 H   0  0  0  0  0  0  0  0  0  0  0  0
  148.2609  134.8351  152.5548 H   0  0  0  0  0  0  0  0  0  0  0  0
  147.1443  133.1793  155.6700 H   0  0  0  0  0  0  0  0  0  0  0  0
  146.6055  132.0329  154.4566 H   0  0  0  0  0  0  0  0  0  0  0  0
  145.4426  133.0353  155.3103 H   0  0  0  0  0  0  0  0  0  0  0  0
  144.9728  135.5784  154.1709 H   0  0  0  0  0  0  0  0  0  0  0  0
  146.1737  135.4968  155.4214 H   0  0  0  0  0  0  0  0  0  0  0  0
  147.0885  136.5977  152.8830 H   0  0  0  0  0  0  0  0  0  0  0  0
  147.8320  138.6128  152.7038 H   0  0  0  0  0  0  0  0  0  0  0  0
  147.1279  139.7827  153.7728 H   0  0  0  0  0  0  0  0  0  0  0  0
  149.5212  137.0915  154.2635 H   0  0  0  0  0  0  0  0  0  0  0  0
  151.8055  137.3554  155.2175 H   0  0  0  0  0  0  0  0  0  0  0  0
  144.1127  132.8332  153.3697 H   0  0  0  0  0  0  0  0  0  0  0  0
  143.9658  134.5524  153.0825 H   0  0  0  0  0  0  0  0  0  0  0  0
  142.6016  133.2446  151.4814 H   0  0  0  0  0  0  0  0  0  0  0  0
  143.8179  134.1940  150.6461 H   0  0  0  0  0  0  0  0  0  0  0  0
  145.9351  131.2854  150.1118 H   0  0  0  0  0  0  0  0  0  0  0  0
  145.8282  133.0120  149.8212 H   0  0  0  0  0  0  0  0  0  0  0  0
  147.3807  132.5478  151.6770 H   0  0  0  0  0  0  0  0  0  0  0  0
  146.1587  131.6324  152.5329 H   0  0  0  0  0  0  0  0  0  0  0  0
  1  2  1  0  0  0  0
  1 24  1  0  0  0  0
  1 25  1  0  0  0  0
  1 26  1  0  0  0  0
  2  3  1  0  0  0  0
  2 27  1  0  0  0  0
  2 28  1  0  0  0  0
  3  4  1  0  0  0  0
  3  5  1  0  0  0  0
  3 18  1  0  0  0  0
  4 29  1  0  0  0  0
  4 30  1  0  0  0  0
  4 31  1  0  0  0  0
  5  6  1  0  0  0  0
  5 32  1  0  0  0  0
  5 33  1  0  0  0  0
  6  7  1  0  0  0  0
  6 34  1  0  0  0  0
  7  8  2  0  0  0  0
  7  9  1  0  0  0  0
  9 10  1  0  0  0  0
  9 35  1  0  0  0  0
  9 36  1  0  0  0  0
 10 16  1  0  0  0  0
 10 11  1  0  0  0  0
 11 12  2  0  0  0  0
 11 37  1  0  0  0  0
 12 13  1  0  0  0  0
 12 38  1  0  0  0  0
 13 14  2  0  0  0  0
 13 15  1  0  0  0  0
 15 16  1  0  0  0  0
 16 17  2  0  0  0  0
 18 23  1  0  0  0  0
 18 19  1  0  0  0  0
 19 20  1  0  0  0  0
 19 39  1  0  0  0  0
 19 40  1  0  0  0  0
 20 21  1  0  0  0  0
 20 41  1  0  0  0  0
 20 42  1  0  0  0  0
 21 22  1  0  0  0  0
 22 23  1  0  0  0  0
 22 43  1  0  0  0  0
 22 44  1  0  0  0  0
 23 45  1  0  0  0  0
 23 46  1  0  0  0  0
M  CHG  1  15  -1
M  END
> <s_m_source_file>
AV-unprocessed.smi

> <i_m_source_file_index>
1560

> <i_lp_mmshare_version>
43012

> <i_f3d_flags>
0

> <s_epik_input>
W0NIMl0xW0NIMl1PW0NIMl1bQ0gyXU4xW0NAQF0oW0NIM10pKFtDSDJdW0NIM10pW0NIMl1bTkhdQyg9TylbQ0gyXW4yW2NIXVtjSF1jKD1PKVtuSF1jMj1P

> <s_epik_cmdline>
J2VwaWtfcHl0aG9uJywgJy1waCcsICc3LjAnLCAnLXRuJywgJzgnLCAnLW1hJywgJzIwMCcsICctbWV0YWxfYmluZGluZycsICctaW1hZScsICc8aW5maWxlLm1hZT4nLCAnLW9tYWUnLCAnPG91dGZpbGUubWFlPic=

> <r_lp_tautomer_probability>
0.999537

> <r_epik_Ionization_Penalty>
3.35108

> <r_epik_Ionization_Penalty_Charging>
2.65778e-08

> <r_epik_Ionization_Penalty_Neutral>
3.35108

> <r_epik_State_Penalty>
3.36199

> <r_epik_Charging_Adjusted_Penalty>
3.36199

> <i_epik_Tot_Q>
-1

> <i_epik_Tot_abs_Q>
1

> <r_epik_Metal_State_Penalty>
0.748914

> <b_epik_Metal_Only>
1

> <s_lp_Force_Field>
OPLS_2005

> <r_lp_Energy>
51.7621

> <b_lp_Chiralities_Consistent>
1

> <s_lp_Variant>
AV-unprocessed.smi:1560-5

> <Gold.Version>
5.8.1

> <Gold.Id.Protein>
6NUR|6NUR_protein|mol2

> <Gold.PLP.Fitness>
39.4820

> <Gold.PLP.PLP>
-30.6986

> <Gold.PLP.part.hbond>
-4.0894

> <Gold.PLP.part.metal>
0.0000

> <Gold.PLP.part.buried>
3.0371

> <Gold.PLP.part.nonpolar>
-28.3771

> <Gold.PLP.part.repulsive>
0.5026

> <Gold.PLP.ligand.clash>
0.0000

> <Gold.PLP.ligand.torsion>
1.1574

> <Gold.PLP.Chemscore.Hbond>
2.7262

> <Gold.PLP.Chemscore.CHOScore>
0.9151

> <Gold.PLP.Chemscore.Metal>
0.0000

> <Gold.Chemscore.Hbonds>
donor molecule, donor type, donor heavy atom, donor atom, acceptor molecule, acceptor atom, score
      L1  H     6    34       P1  7948  0.55
      P1  H  7989  7998       L1    15  0.37
      P1  H  7997  8008       L1    14  1.00
      L1  C    11    37       P1  7948  0.81

> <Gold.PLP.Chemscore.Internal.Correction>
0.1745

> <Gold.Rescore>
     Score         DG    S(hbond)    S(metal)    S(lipo)     H(rot)  DE(clash)    DE(int)     intcor
     11.16     -13.99       2.24        0.00      61.81       2.42       1.49       1.34       ----

> <Gold.Chemscore.Fitness>
11.1620

> <Gold.Chemscore.DG>
-13.9945

> <Gold.Chemscore.ZeroCoef>
-5.4800

> <Gold.Chemscore.Hbond>
2.2386

> <Gold.Chemscore.Metal>
0.0000

> <Gold.Chemscore.Lipo>
61.8114

> <Gold.Chemscore.Internal_Hbond>
0.0000

> <Gold.Chemscore.DEClash>
1.4907

> <Gold.Chemscore.DEInternal>
1.3418

> <Gold.Chemscore.Rot>
2.4197

> <Gold.Chemscore.Internal.Correction>
   9.000000E+99

> <Gold.Chemscore.Hbonds>
donor molecule, donor type, donor heavy atom, donor atom, acceptor molecule, acceptor atom, score
      L1  H     6    34       P1  7948  0.53
      P1  H  7997  8008       L1    14  1.00

> <Gold.Chemscore.Hbond.Weighted>
-7.4769

> <Gold.Chemscore.Metal.Weighted>
-0.0000

> <Gold.Chemscore.Lipo.Weighted>
-7.2319

> <Gold.Chemscore.Internal_Hbond.Weighted>
0.0000

> <Gold.Chemscore.DEClash.Weighted>
1.4907

> <Gold.Chemscore.DEInternal.Weighted>
1.3418

> <Gold.Chemscore.Rot.Weighted>
6.1943

> <Gold.Chemscore.Internal.Correction.Weighted>
   9.000000E+99

> <Gold.Protein.RotatedTorsions>
[ 6907 6896 6895 6894 ] final -158.68 input  -60.11 | X-H torsion
[ 7974 7965 7964 7962 ] final -135.11 input  175.53 | X-H torsion
[ 8008 7997 7996 7995 ] final  -22.64 input   59.86 | X-H torsion
[ 10167 10162 10161 10158 ] final  159.89 input  -65.29 | X-H torsion
[ 10718 10713 10712 10709 ] final  126.56 input   66.30 | X-H torsion
[ 10763 10752 10751 10750 ] final  -21.75 input  -60.55 | X-H torsion
[ 11005 11000 10999 10996 ] final -109.63 input  -57.11 | X-H torsion

> <Gold.Protein.ActiveResidues>
 VAL166  LYS551  ARG553  GLY616  TRP617  ASP618  TYR619  PRO620  LYS621  CYS622 
 ASP623  PHE694  ASN695  SER759  ASP760  ASP761  ALA762  ILE779  LEU786  VAL792 
 PHE793  MET794  SER795  GLU796  ALA797  LYS798  CYS799  TRP800  GLU811  SER814 

> <Gold.Protein.RotatedAtoms>
  151.3219  133.4036  159.2654 H   0  0  0  0  0  0  0  0  0  0  0  0  # atno 6907 bound_to 6896
  151.0027  134.9336  159.7973 H   0  0  0  0  0  0  0  0  0  0  0  0  # atno 6908 bound_to 6896
  152.5279  134.3184  159.9191 H   0  0  0  0  0  0  0  0  0  0  0  0  # atno 6909 bound_to 6896
  144.9043  140.6812  143.5065 H   0  0  0  0  0  0  0  0  0  0  0  0  # atno 7974 bound_to 7965
  154.4632  140.2002  156.0189 H   0  0  0  0  0  0  0  0  0  0  0  0  # atno 8008 bound_to 7997
  156.0878  140.3262  155.7748 H   0  0  0  0  0  0  0  0  0  0  0  0  # atno 8009 bound_to 7997
  155.5005  140.0553  157.2930 H   0  0  0  0  0  0  0  0  0  0  0  0  # atno 8010 bound_to 7997
  139.4835  144.4687  151.8606 H   0  0  0  0  0  0  0  0  0  0  0  0  # atno 10167 bound_to 10162
  157.5408  131.1097  150.8861 H   0  0  0  0  0  0  0  0  0  0  0  0  # atno 10718 bound_to 10713
  153.6411  135.6985  153.5241 H   0  0  0  0  0  0  0  0  0  0  0  0  # atno 10763 bound_to 10752
  153.2782  135.4194  155.1053 H   0  0  0  0  0  0  0  0  0  0  0  0  # atno 10764 bound_to 10752
  154.8499  135.3595  154.5955 H   0  0  0  0  0  0  0  0  0  0  0  0  # atno 10765 bound_to 10752
  141.0837  133.9176  157.2232 H   0  0  0  0  0  0  0  0  0  0  0  0  # atno 11005 bound_to 11000
  145.3563  139.1693  143.4407 LP  0  0  0  0  0  0  0  0  0  0  0  0  # atno 17320 bound_to 7965
  146.3125  140.3620  142.8666 LP  0  0  0  0  0  0  0  0  0  0  0  0  # atno 17321 bound_to 7965
  140.4154  144.2313  150.5888 LP  0  0  0  0  0  0  0  0  0  0  0  0  # atno 17342 bound_to 10162
  140.4925  143.2343  151.8797 LP  0  0  0  0  0  0  0  0  0  0  0  0  # atno 17343 bound_to 10162
  156.9415  130.5386  149.5280 LP  0  0  0  0  0  0  0  0  0  0  0  0  # atno 17370 bound_to 10713
  156.0495  130.5567  150.8958 LP  0  0  0  0  0  0  0  0  0  0  0  0  # atno 17371 bound_to 10713
  139.9653  135.0143  156.9370 LP  0  0  0  0  0  0  0  0  0  0  0  0  # atno 17394 bound_to 11000
  140.5411  134.0719  155.7342 LP  0  0  0  0  0  0  0  0  0  0  0  0  # atno 17395 bound_to 11000

$$$$
