#       Name:                AV-unprocessed.smi:2807
#       Creating user name   scv26
#       Creation time:       Fri Mar 27 15:25:40 2020


#       File generated by GOLD software.
#

@<TRIPOS>MOLECULE
AV-unprocessed.smi:2807
    37    38     1
SMALL
NO_CHARGES


@<TRIPOS>ATOM
      1 ****        -0.2858   1.3874   0.2236 O.2            1 S1                 0.0000
      2 ****         0.3326   0.3261   0.1236 C.2            1 S1                 0.0000
      3 ****        -0.2613  -0.8735   0.2322 N.am           1 S1                 0.0000
      4 ****        -1.6820  -1.0940   0.4925 C.3            1 S1                 0.0000
      5 ****        -2.4966  -0.9727  -0.8096 C.3            1 S1                 0.0000
      6 ****        -2.7309  -2.4073  -1.2789 C.3            1 S1                 0.0000
      7 ****        -2.9024  -3.1878   0.0200 C.3            1 S1                 0.0000
      8 ****        -1.9186  -2.5348   1.0011 C.3            1 S1                 0.0000
      9 ****        -2.4566  -2.5448   2.3072 O.3            1 S1                 0.0000
     10 ****         1.8446   0.3085  -0.1593 C.3            1 S1                 0.0000
     11 ****         2.4333  -0.5320   0.6952 F              1 S1                 0.0000
     12 ****         2.0264  -0.1722  -1.3909 F              1 S1                 0.0000
     13 ****         2.4739   1.6956  -0.0336 C.ar           1 S1                 0.0000
     14 ****         2.7142   2.4931  -1.1760 C.ar           1 S1                 0.0000
     15 ****         3.2827   3.7693  -1.0014 C.ar           1 S1                 0.0000
     16 ****         3.5897   4.2030   0.3019 C.ar           1 S1                 0.0000
     17 ****         3.3119   3.3377   1.3779 C.ar           1 S1                 0.0000
     18 ****         2.7670   2.1124   1.2216 N.ar           1 S1                 0.0000
     19 ****         0.3158  -1.6960   0.1317 H              1 S1                 0.0000
     20 ****        -2.0339  -0.3581   1.2188 H              1 S1                 0.0000
     21 ****        -3.4590  -0.5099  -0.5874 H              1 S1                 0.0000
     22 ****        -2.0166  -0.3593  -1.5733 H              1 S1                 0.0000
     23 ****        -3.5919  -2.4980  -1.9416 H              1 S1                 0.0000
     24 ****        -1.8533  -2.7692  -1.8162 H              1 S1                 0.0000
     25 ****        -3.9290  -3.0660   0.3700 H              1 S1                 0.0000
     26 ****        -2.7224  -4.2560  -0.1044 H              1 S1                 0.0000
     27 ****        -0.9864  -3.1022   1.0074 H              1 S1                 0.0000
     28 ****        -3.2666  -2.0579   2.3021 H              1 S1                 0.0000
     29 ****         2.4642   2.1418  -2.1661 H              1 S1                 0.0000
     30 ****         3.4780   4.4048  -1.8525 H              1 S1                 0.0000
     31 ****         4.0260   5.1759   0.4734 H              1 S1                 0.0000
     32 ****         3.5337   3.6376   2.3913 H              1 S1                 0.0000
     33 ****        -1.2714   1.3778   0.3926 LP             1 S1                 0.0000
     34 ****         0.1980   2.2581   0.1357 LP             1 S1                 0.0000
     35 ****        -1.8111  -2.1188   2.9411 LP             1 S1                 0.0000
     36 ****        -2.6314  -3.4872   2.5927 LP             1 S1                 0.0000
     37 ****         2.5844   1.5276   2.0120 LP             1 S1                 0.0000
@<TRIPOS>BOND
    1    1    2 2     
    2    2    3 am    
    3    2   10 1     
    4    3    4 1     
    5    3   19 1     
    6    4    8 1     
    7    4    5 1     
    8    4   20 1     
    9    5    6 1     
   10    5   21 1     
   11    5   22 1     
   12    6    7 1     
   13    6   23 1     
   14    6   24 1     
   15    7    8 1     
   16    7   25 1     
   17    7   26 1     
   18    8    9 1     
   19    8   27 1     
   20    9   28 1     
   21   10   11 1     
   22   10   12 1     
   23   10   13 1     
   24   13   18 ar    
   25   13   14 ar    
   26   14   15 ar    
   27   14   29 1     
   28   15   16 ar    
   29   15   30 1     
   30   16   17 ar    
   31   16   31 1     
   32   17   18 ar    
   33   17   32 1     
   34    1   33 1     
   35    1   34 1     
   36    9   35 1     
   37    9   36 1     
   38   18   37 1     
@<TRIPOS>SUBSTRUCTURE
      1 S1             1
@<TRIPOS>SET
LONE_PAIRS      STATIC     ATOMS    <user>   **** ""
5 33 34 35 36 37
DONOR_HYDROGENS      STATIC     ATOMS    <user>   **** ""
2 19 28
ATOM$BLUE        STATIC     ATOMS    COLORGROUP SYSTEM
5 33 34 35 36 37
ATOM$RED        STATIC     ATOMS    COLORGROUP SYSTEM
2 19 28
