AV-unprocessed.smi:2013|AV-procd|sdf|8160|dock9
  -GOLD-   2272010403D 1   1.00000     0.00000
 Structure written by MMmdl.
 50 51  0  0  0  0  0  0  0  0  1 V2000
  149.5357  140.8366  155.5696 C   0  0  0  0  0  0  0  0  0  0  0  0
  150.9935  141.1468  155.9655 C   0  0  0  0  0  0  0  0  0  0  0  0
  151.9866  140.4599  155.0125 C   0  0  0  0  0  0  0  0  0  0  0  0
  151.3727  140.9485  157.4687 C   0  0  1  0  0  0  0  0  0  0  0  0
  151.8969  139.5215  157.8015 C   0  0  0  0  0  0  0  0  0  0  0  0
  150.9068  138.4828  157.5378 N   0  0  0  0  0  0  0  0  0  0  0  0
  151.1507  137.1643  157.5652 C   0  0  0  0  0  0  0  0  0  0  0  0
  152.2697  136.6875  157.7589 O   0  0  0  0  0  0  0  0  0  0  0  0
  149.9450  136.2462  157.3311 C   0  0  0  0  0  0  0  0  0  0  0  0
  149.9962  135.0380  158.1633 N   0  0  0  0  0  0  0  0  0  0  0  0
  150.0852  133.7941  157.5654 C   0  0  0  0  0  0  0  0  0  0  0  0
  150.1605  132.6379  158.2601 C   0  0  0  0  0  0  0  0  0  0  0  0
  150.1504  132.6372  159.7181 C   0  0  0  0  0  0  0  0  0  0  0  0
  150.2329  131.6069  160.3875 O   0  0  0  0  0  0  0  0  0  0  0  0
  150.0466  133.9221  160.3037 N   0  0  0  0  0  0  0  0  0  0  0  0
  150.0441  134.0380  161.7474 C   0  0  0  0  0  0  0  0  0  0  0  0
  149.9781  135.1278  159.5721 C   0  0  0  0  0  0  0  0  0  0  0  0
  149.9110  136.2251  160.1323 O   0  0  0  0  0  0  0  0  0  0  0  0
  152.1537  142.0490  158.0673 N   0  0  0  0  0  0  0  0  0  0  0  0
  151.4519  143.3309  158.0362 C   0  0  0  0  0  0  0  0  0  0  0  0
  152.3414  144.4801  158.5389 C   0  0  0  0  0  0  0  0  0  0  0  0
  152.7988  144.1855  159.8544 O   0  0  0  0  0  0  0  0  0  0  0  0
  153.5307  142.9660  159.9195 C   0  0  0  0  0  0  0  0  0  0  0  0
  152.6554  141.8039  159.4182 C   0  0  0  0  0  0  0  0  0  0  0  0
  149.3197  139.7710  155.5531 H   0  0  0  0  0  0  0  0  0  0  0  0
  149.3351  141.2055  154.5634 H   0  0  0  0  0  0  0  0  0  0  0  0
  148.8152  141.3201  156.2280 H   0  0  0  0  0  0  0  0  0  0  0  0
  151.1122  142.2138  155.7732 H   0  0  0  0  0  0  0  0  0  0  0  0
  151.9161  139.3736  155.0755 H   0  0  0  0  0  0  0  0  0  0  0  0
  153.0139  140.7427  155.2447 H   0  0  0  0  0  0  0  0  0  0  0  0
  151.7951  140.7420  153.9768 H   0  0  0  0  0  0  0  0  0  0  0  0
  150.4004  141.0044  157.9607 H   0  0  0  0  0  0  0  0  0  0  0  0
  152.7835  139.2890  157.2125 H   0  0  0  0  0  0  0  0  0  0  0  0
  152.2040  139.4465  158.8447 H   0  0  0  0  0  0  0  0  0  0  0  0
  149.9602  138.7883  157.3635 H   0  0  0  0  0  0  0  0  0  0  0  0
  149.0152  136.7870  157.5174 H   0  0  0  0  0  0  0  0  0  0  0  0
  149.9241  135.9752  156.2749 H   0  0  0  0  0  0  0  0  0  0  0  0
  150.1023  133.7411  156.4864 H   0  0  0  0  0  0  0  0  0  0  0  0
  150.2336  131.6999  157.7295 H   0  0  0  0  0  0  0  0  0  0  0  0
  149.2195  134.6951  162.0299 H   0  0  0  0  0  0  0  0  0  0  0  0
  151.0081  134.4617  162.0335 H   0  0  0  0  0  0  0  0  0  0  0  0
  149.8946  133.0671  162.2188 H   0  0  0  0  0  0  0  0  0  0  0  0
  151.1228  143.5517  157.0204 H   0  0  0  0  0  0  0  0  0  0  0  0
  150.5556  143.2884  158.6547 H   0  0  0  0  0  0  0  0  0  0  0  0
  153.1933  144.6293  157.8738 H   0  0  0  0  0  0  0  0  0  0  0  0
  151.7805  145.4146  158.5564 H   0  0  0  0  0  0  0  0  0  0  0  0
  154.4399  143.0482  159.3220 H   0  0  0  0  0  0  0  0  0  0  0  0
  153.8398  142.7903  160.9498 H   0  0  0  0  0  0  0  0  0  0  0  0
  151.8236  141.6645  160.1091 H   0  0  0  0  0  0  0  0  0  0  0  0
  153.2495  140.8966  159.4502 H   0  0  0  0  0  0  0  0  0  0  0  0
  1  2  1  0  0  0  0
  1 25  1  0  0  0  0
  1 26  1  0  0  0  0
  1 27  1  0  0  0  0
  2  3  1  0  0  0  0
  2  4  1  0  0  0  0
  2 28  1  0  0  0  0
  3 29  1  0  0  0  0
  3 30  1  0  0  0  0
  3 31  1  0  0  0  0
  4  5  1  0  0  0  0
  4 19  1  0  0  0  0
  4 32  1  0  0  0  0
  5  6  1  0  0  0  0
  5 33  1  0  0  0  0
  5 34  1  0  0  0  0
  6  7  1  0  0  0  0
  6 35  1  0  0  0  0
  7  8  2  0  0  0  0
  7  9  1  0  0  0  0
  9 10  1  0  0  0  0
  9 36  1  0  0  0  0
  9 37  1  0  0  0  0
 10 17  1  0  0  0  0
 10 11  1  0  0  0  0
 11 12  2  0  0  0  0
 11 38  1  0  0  0  0
 12 13  1  0  0  0  0
 12 39  1  0  0  0  0
 13 14  2  0  0  0  0
 13 15  1  0  0  0  0
 15 16  1  0  0  0  0
 15 17  1  0  0  0  0
 16 40  1  0  0  0  0
 16 41  1  0  0  0  0
 16 42  1  0  0  0  0
 17 18  2  0  0  0  0
 19 24  1  0  0  0  0
 19 20  1  0  0  0  0
 20 21  1  0  0  0  0
 20 43  1  0  0  0  0
 20 44  1  0  0  0  0
 21 22  1  0  0  0  0
 21 45  1  0  0  0  0
 21 46  1  0  0  0  0
 22 23  1  0  0  0  0
 23 24  1  0  0  0  0
 23 47  1  0  0  0  0
 23 48  1  0  0  0  0
 24 49  1  0  0  0  0
 24 50  1  0  0  0  0
M  END
> <s_m_source_file>
AV-unprocessed.smi

> <i_m_source_file_index>
2013

> <i_lp_mmshare_version>
43012

> <i_f3d_flags>
0

> <s_epik_input>
W0NIMl0xW0NIMl1PW0NIMl1bQ0gyXU4xW0NASF0oW0NIXShbQ0gzXSlbQ0gzXSlbQ0gyXVtOSF1DKD1PKVtDSDJdbjJbY0hdW2NIXWMoPU8pbihbQ0gzXSljMj1P

> <s_epik_cmdline>
J2VwaWtfcHl0aG9uJywgJy1waCcsICc3LjAnLCAnLXRuJywgJzgnLCAnLW1hJywgJzIwMCcsICctbWV0YWxfYmluZGluZycsICctaW1hZScsICc8aW5maWxlLm1hZT4nLCAnLW9tYWUnLCAnPG91dGZpbGUubWFlPic=

> <r_lp_tautomer_probability>
1

> <r_epik_Ionization_Penalty>
0.45351

> <r_epik_Ionization_Penalty_Charging>
1.24653e-08

> <r_epik_Ionization_Penalty_Neutral>
0.45351

> <r_epik_State_Penalty>
0.456487

> <r_epik_Charging_Adjusted_Penalty>
0.456487

> <i_epik_Tot_Q>
0

> <i_epik_Tot_abs_Q>
0

> <r_epik_Metal_State_Penalty>
0.456449

> <b_epik_Metal_Only>
0

> <s_lp_Force_Field>
OPLS_2005

> <r_lp_Energy>
45.5307

> <b_lp_Chiralities_Consistent>
1

> <s_lp_Variant>
AV-unprocessed.smi:2013-4

> <Gold.Version>
5.8.1

> <Gold.Id.Protein>
6NUR|6NUR_protein|mol2

> <Gold.PLP.Fitness>
51.7668

> <Gold.PLP.PLP>
-46.5253

> <Gold.PLP.part.hbond>
-3.0000

> <Gold.PLP.part.metal>
0.0000

> <Gold.PLP.part.buried>
-6.2417

> <Gold.PLP.part.nonpolar>
-38.6060

> <Gold.PLP.part.repulsive>
0.1419

> <Gold.PLP.ligand.clash>
0.0000

> <Gold.PLP.ligand.torsion>
1.4741

> <Gold.PLP.Chemscore.Hbond>
2.5440

> <Gold.PLP.Chemscore.CHOScore>
0.0000

> <Gold.PLP.Chemscore.Metal>
0.0000

> <Gold.PLP.Chemscore.Internal.Correction>
0.5577

> <Gold.Rescore>
     Score         DG    S(hbond)    S(metal)    S(lipo)     H(rot)  DE(clash)    DE(int)     intcor
     17.95     -19.23       2.61        0.00      91.18       2.20       0.02       1.26       ----

> <Gold.Chemscore.Fitness>
17.9469

> <Gold.Chemscore.DG>
-19.2276

> <Gold.Chemscore.ZeroCoef>
-5.4800

> <Gold.Chemscore.Hbond>
2.6113

> <Gold.Chemscore.Metal>
0.0000

> <Gold.Chemscore.Lipo>
91.1776

> <Gold.Chemscore.Internal_Hbond>
0.0000

> <Gold.Chemscore.DEClash>
0.0234

> <Gold.Chemscore.DEInternal>
1.2573

> <Gold.Chemscore.Rot>
2.2039

> <Gold.Chemscore.Internal.Correction>
   9.000000E+99

> <Gold.Chemscore.Hbond.Weighted>
-8.7218

> <Gold.Chemscore.Metal.Weighted>
-0.0000

> <Gold.Chemscore.Lipo.Weighted>
-10.6678

> <Gold.Chemscore.Internal_Hbond.Weighted>
0.0000

> <Gold.Chemscore.DEClash.Weighted>
0.0234

> <Gold.Chemscore.DEInternal.Weighted>
1.2573

> <Gold.Chemscore.Rot.Weighted>
5.6420

> <Gold.Chemscore.Internal.Correction.Weighted>
   9.000000E+99

> <Gold.Protein.RotatedTorsions>
[ 6907 6896 6895 6894 ] final -128.38 input  -60.11 | X-H torsion
[ 7974 7965 7964 7962 ] final  112.01 input  175.53 | X-H torsion
[ 8008 7997 7996 7995 ] final -141.40 input   59.86 | X-H torsion
[ 10167 10162 10161 10158 ] final   22.42 input  -65.29 | X-H torsion
[ 10718 10713 10712 10709 ] final  177.71 input   66.30 | X-H torsion
[ 10763 10752 10751 10750 ] final -176.17 input  -60.55 | X-H torsion
[ 11005 11000 10999 10996 ] final -175.63 input  -57.11 | X-H torsion

> <Gold.Protein.ActiveResidues>
 VAL166  LYS551  ARG553  GLY616  TRP617  ASP618  TYR619  PRO620  LYS621  CYS622 
 ASP623  PHE694  ASN695  SER759  ASP760  ASP761  ALA762  ILE779  LEU786  VAL792 
 PHE793  MET794  SER795  GLU796  ALA797  LYS798  CYS799  TRP800  GLU811  SER814 

> <Gold.Protein.RotatedAtoms>
  150.9173  133.6924  159.2840 H   0  0  0  0  0  0  0  0  0  0  0  0  # atno 6907 bound_to 6896
  151.4390  135.1017  159.9674 H   0  0  0  0  0  0  0  0  0  0  0  0  # atno 6908 bound_to 6896
  152.4961  133.8585  159.7293 H   0  0  0  0  0  0  0  0  0  0  0  0  # atno 6909 bound_to 6896
  145.2349  139.2803  143.4148 H   0  0  0  0  0  0  0  0  0  0  0  0  # atno 7974 bound_to 7965
  155.4773  140.0557  157.2972 H   0  0  0  0  0  0  0  0  0  0  0  0  # atno 8008 bound_to 7997
  154.4674  140.2025  156.0035 H   0  0  0  0  0  0  0  0  0  0  0  0  # atno 8009 bound_to 7997
  156.0998  140.3221  155.7931 H   0  0  0  0  0  0  0  0  0  0  0  0  # atno 8010 bound_to 7997
  140.5349  143.9777  150.6486 H   0  0  0  0  0  0  0  0  0  0  0  0  # atno 10167 bound_to 10162
  156.9013  130.9880  151.3035 H   0  0  0  0  0  0  0  0  0  0  0  0  # atno 10718 bound_to 10713
  154.5756  135.2831  155.0784 H   0  0  0  0  0  0  0  0  0  0  0  0  # atno 10763 bound_to 10752
  154.2140  135.6403  153.5128 H   0  0  0  0  0  0  0  0  0  0  0  0  # atno 10764 bound_to 10752
  153.0071  135.5498  154.6393 H   0  0  0  0  0  0  0  0  0  0  0  0  # atno 10765 bound_to 10752
  140.4611  134.6253  157.4843 H   0  0  0  0  0  0  0  0  0  0  0  0  # atno 11005 bound_to 11000
  146.3343  140.2695  142.8605 LP  0  0  0  0  0  0  0  0  0  0  0  0  # atno 17320 bound_to 7965
  144.9642  140.8305  143.5495 LP  0  0  0  0  0  0  0  0  0  0  0  0  # atno 17321 bound_to 7965
  140.3162  143.3166  152.0830 LP  0  0  0  0  0  0  0  0  0  0  0  0  # atno 17342 bound_to 10162
  139.4967  144.6604  151.6478 LP  0  0  0  0  0  0  0  0  0  0  0  0  # atno 17343 bound_to 10162
  157.6024  130.8522  149.8823 LP  0  0  0  0  0  0  0  0  0  0  0  0  # atno 17370 bound_to 10713
  156.0580  130.3705  150.1046 LP  0  0  0  0  0  0  0  0  0  0  0  0  # atno 17371 bound_to 10713
  139.9944  134.6934  155.9634 LP  0  0  0  0  0  0  0  0  0  0  0  0  # atno 17394 bound_to 11000
  141.1620  133.6538  156.4352 LP  0  0  0  0  0  0  0  0  0  0  0  0  # atno 17395 bound_to 11000

$$$$
