AV-unprocessed.smi:922|AV-procd|sdf|4176|dock2
  -GOLD-   22720 2 83D 1   1.00000     0.00000
 Structure written by MMmdl.
 33 34  0  0  0  0  0  0  0  0  1 V2000
  152.1481  141.3911  158.4273 C   0  0  0  0  0  0  0  0  0  0  0  0
  151.4055  140.6017  157.3448 C   0  0  1  0  0  0  0  0  0  0  0  0
  150.5218  141.5145  156.4744 C   0  0  0  0  0  0  0  0  0  0  0  0
  149.9221  140.7541  155.3858 N   0  0  0  0  0  0  0  0  0  0  0  0
  148.5584  140.7074  155.0916 C   0  0  0  0  0  0  0  0  0  0  0  0
  148.0972  141.0329  153.7459 C   0  0  0  0  0  0  0  0  0  0  0  0
  146.8562  141.0137  153.3994 N   0  0  0  0  0  0  0  0  0  0  0  0
  145.9226  140.6719  154.3439 N   0  0  0  0  0  0  0  0  0  0  0  0
  146.1646  140.3372  155.6323 C   0  0  0  0  0  0  0  0  0  0  0  0
  145.2488  140.0415  156.3978 O   0  0  0  0  0  0  0  0  0  0  0  0
  147.5896  140.3647  155.9949 C   0  0  0  0  0  0  0  0  0  0  0  0
  147.9737  139.8837  157.6139 Cl  0  0  0  0  0  0  0  0  0  0  0  0
  150.9509  140.1255  154.5647 C   0  0  0  0  0  0  0  0  0  0  0  0
  151.8585  139.2081  155.4161 C   0  0  0  0  0  0  0  0  0  0  0  0
  151.1138  137.9462  155.9019 C   0  0  0  0  0  0  0  0  0  0  0  0
  153.0858  138.7852  154.5943 C   0  0  0  0  0  0  0  0  0  0  0  0
  152.3784  139.9582  156.5203 O   0  0  0  0  0  0  0  0  0  0  0  0
  144.9705  140.6801  154.0069 H   0  0  0  0  0  0  0  0  0  0  0  0
  151.4481  141.8930  159.0959 H   0  0  0  0  0  0  0  0  0  0  0  0
  152.7959  142.1505  157.9883 H   0  0  0  0  0  0  0  0  0  0  0  0
  152.7702  140.7314  159.0324 H   0  0  0  0  0  0  0  0  0  0  0  0
  150.7946  139.8486  157.8409 H   0  0  0  0  0  0  0  0  0  0  0  0
  149.7546  142.0010  157.0764 H   0  0  0  0  0  0  0  0  0  0  0  0
  151.1240  142.3160  156.0447 H   0  0  0  0  0  0  0  0  0  0  0  0
  148.8765  141.3047  153.0336 H   0  0  0  0  0  0  0  0  0  0  0  0
  150.5011  139.5472  153.7568 H   0  0  0  0  0  0  0  0  0  0  0  0
  151.5421  140.9120  154.0938 H   0  0  0  0  0  0  0  0  0  0  0  0
  150.8172  137.3212  155.0592 H   0  0  0  0  0  0  0  0  0  0  0  0
  150.2044  138.1830  156.4532 H   0  0  0  0  0  0  0  0  0  0  0  0
  151.7469  137.3431  156.5531 H   0  0  0  0  0  0  0  0  0  0  0  0
  152.7953  138.2158  153.7106 H   0  0  0  0  0  0  0  0  0  0  0  0
  153.7600  138.1622  155.1833 H   0  0  0  0  0  0  0  0  0  0  0  0
  153.6535  139.6530  154.2570 H   0  0  0  0  0  0  0  0  0  0  0  0
  1  2  1  0  0  0  0
  1 19  1  0  0  0  0
  1 20  1  0  0  0  0
  1 21  1  0  0  0  0
  2 17  1  0  0  0  0
  2  3  1  0  0  0  0
  2 22  1  0  0  0  0
  3  4  1  0  0  0  0
  3 23  1  0  0  0  0
  3 24  1  0  0  0  0
  4  5  1  0  0  0  0
  4 13  1  0  0  0  0
  5 11  2  0  0  0  0
  5  6  1  0  0  0  0
  6  7  2  0  0  0  0
  6 25  1  0  0  0  0
  7  8  1  0  0  0  0
  8 18  1  0  0  0  0
  8  9  1  0  0  0  0
  9 10  2  0  0  0  0
  9 11  1  0  0  0  0
 11 12  1  0  0  0  0
 13 14  1  0  0  0  0
 13 26  1  0  0  0  0
 13 27  1  0  0  0  0
 14 15  1  0  0  0  0
 14 16  1  0  0  0  0
 14 17  1  0  0  0  0
 15 28  1  0  0  0  0
 15 29  1  0  0  0  0
 15 30  1  0  0  0  0
 16 31  1  0  0  0  0
 16 32  1  0  0  0  0
 16 33  1  0  0  0  0
M  END
> <s_m_source_file>
AV-unprocessed.smi

> <i_m_source_file_index>
922

> <i_lp_mmshare_version>
43012

> <i_f3d_flags>
0

> <s_epik_input>
W0NIM11bQ0BASF0oTzEpW0NIMl1OKFtDSDJdQzEoW0NIM10pW0NIM10pYzJbY0hdbltuSF1jKD1PKWMyQ2w=

> <s_epik_cmdline>
J2VwaWtfcHl0aG9uJywgJy1waCcsICc3LjAnLCAnLXRuJywgJzgnLCAnLW1hJywgJzIwMCcsICctbWV0YWxfYmluZGluZycsICctaW1hZScsICc8aW5maWxlLm1hZT4nLCAnLW9tYWUnLCAnPG91dGZpbGUubWFlPic=

> <r_lp_tautomer_probability>
0.986175

> <r_epik_Ionization_Penalty>
0.00909695

> <r_epik_Ionization_Penalty_Charging>
0.00909694

> <r_epik_Ionization_Penalty_Neutral>
4.87729e-09

> <r_epik_State_Penalty>
1.54226

> <r_epik_Charging_Adjusted_Penalty>
1.55136

> <i_epik_Tot_Q>
0

> <i_epik_Tot_abs_Q>
0

> <r_epik_Metal_State_Penalty>
3.93934

> <b_epik_Metal_Only>
0

> <s_lp_Force_Field>
OPLS_2005

> <r_lp_Energy>
35.5656

> <b_lp_Chiralities_Consistent>
1

> <s_lp_Variant>
AV-unprocessed.smi:922-4

> <Gold.Version>
5.8.1

> <Gold.Id.Protein>
6NUR|6NUR_protein|mol2

> <Gold.PLP.Fitness>
31.0353

> <Gold.PLP.PLP>
-22.9588

> <Gold.PLP.part.hbond>
-2.0000

> <Gold.PLP.part.metal>
0.0000

> <Gold.PLP.part.buried>
0.6439

> <Gold.PLP.part.nonpolar>
-22.7912

> <Gold.PLP.part.repulsive>
0.2241

> <Gold.PLP.ligand.clash>
0.0000

> <Gold.PLP.ligand.torsion>
0.9199

> <Gold.PLP.Chemscore.Hbond>
2.0000

> <Gold.PLP.Chemscore.CHOScore>
0.9907

> <Gold.PLP.Chemscore.Metal>
0.0000

> <Gold.Chemscore.Hbonds>
donor molecule, donor type, donor heavy atom, donor atom, acceptor molecule, acceptor atom, score
      L1  H     8    18       P1 10175  0.99
      P1  H  7997  8009       L1    17  1.00
      L1  C     6    25       P1  7957  0.95

> <Gold.PLP.Chemscore.Internal.Correction>
0.9441

> <Gold.Rescore>
     Score         DG    S(hbond)    S(metal)    S(lipo)     H(rot)  DE(clash)    DE(int)     intcor
     16.45     -19.22       1.89        0.00      63.51       0.00       1.49       1.28       ----

> <Gold.Chemscore.Fitness>
16.4476

> <Gold.Chemscore.DG>
-19.2220

> <Gold.Chemscore.ZeroCoef>
-5.4800

> <Gold.Chemscore.Hbond>
1.8895

> <Gold.Chemscore.Metal>
0.0000

> <Gold.Chemscore.Lipo>
63.5123

> <Gold.Chemscore.Internal_Hbond>
0.0000

> <Gold.Chemscore.DEClash>
1.4912

> <Gold.Chemscore.DEInternal>
1.2831

> <Gold.Chemscore.Rot>
0.0000

> <Gold.Chemscore.Internal.Correction>
   9.000000E+99

> <Gold.Chemscore.Hbonds>
donor molecule, donor type, donor heavy atom, donor atom, acceptor molecule, acceptor atom, score
      L1  H     8    18       P1 10175  0.90
      P1  H  7997  8009       L1    17  0.68

> <Gold.Chemscore.Hbond.Weighted>
-6.3111

> <Gold.Chemscore.Metal.Weighted>
-0.0000

> <Gold.Chemscore.Lipo.Weighted>
-7.4309

> <Gold.Chemscore.Internal_Hbond.Weighted>
0.0000

> <Gold.Chemscore.DEClash.Weighted>
1.4912

> <Gold.Chemscore.DEInternal.Weighted>
1.2831

> <Gold.Chemscore.Rot.Weighted>
0.0000

> <Gold.Chemscore.Internal.Correction.Weighted>
   9.000000E+99

> <Gold.Protein.RotatedTorsions>
[ 6907 6896 6895 6894 ] final   59.12 input  -60.11 | X-H torsion
[ 7974 7965 7964 7962 ] final  -95.99 input  175.53 | X-H torsion
[ 8008 7997 7996 7995 ] final -160.88 input   59.86 | X-H torsion
[ 10167 10162 10161 10158 ] final  139.59 input  -65.29 | X-H torsion
[ 10718 10713 10712 10709 ] final   75.73 input   66.30 | X-H torsion
[ 10763 10752 10751 10750 ] final -100.00 input  -60.55 | X-H torsion
[ 11005 11000 10999 10996 ] final  161.23 input  -57.11 | X-H torsion

> <Gold.Protein.ActiveResidues>
 VAL166  LYS551  ARG553  GLY616  TRP617  ASP618  TYR619  PRO620  LYS621  CYS622 
 ASP623  PHE694  ASN695  SER759  ASP760  ASP761  ALA762  ILE779  LEU786  VAL792 
 PHE793  MET794  SER795  GLU796  ALA797  LYS798  CYS799  TRP800  GLU811  SER814 

> <Gold.Protein.RotatedAtoms>
  152.3886  134.6477  160.0115 H   0  0  0  0  0  0  0  0  0  0  0  0  # atno 6907 bound_to 6896
  151.6718  133.3308  159.3206 H   0  0  0  0  0  0  0  0  0  0  0  0  # atno 6908 bound_to 6896
  150.7807  134.6793  159.6479 H   0  0  0  0  0  0  0  0  0  0  0  0  # atno 6909 bound_to 6896
  145.3527  140.9479  143.2545 H   0  0  0  0  0  0  0  0  0  0  0  0  # atno 7974 bound_to 7965
  155.7839  140.0869  157.2044 H   0  0  0  0  0  0  0  0  0  0  0  0  # atno 8008 bound_to 7997
  154.3988  140.1502  156.3142 H   0  0  0  0  0  0  0  0  0  0  0  0  # atno 8009 bound_to 7997
  155.8626  140.3429  155.5769 H   0  0  0  0  0  0  0  0  0  0  0  0  # atno 8010 bound_to 7997
  139.5074  144.6285  151.5876 H   0  0  0  0  0  0  0  0  0  0  0  0  # atno 10167 bound_to 10162
  157.6646  130.9740  150.1395 H   0  0  0  0  0  0  0  0  0  0  0  0  # atno 10718 bound_to 10713
  154.7544  135.4951  153.9347 H   0  0  0  0  0  0  0  0  0  0  0  0  # atno 10763 bound_to 10752
  153.1179  135.6725  153.9394 H   0  0  0  0  0  0  0  0  0  0  0  0  # atno 10764 bound_to 10752
  153.9134  135.3096  155.3427 H   0  0  0  0  0  0  0  0  0  0  0  0  # atno 10765 bound_to 10752
  140.2137  134.8248  157.3148 H   0  0  0  0  0  0  0  0  0  0  0  0  # atno 11005 bound_to 11000
  144.8705  139.5045  143.6770 LP  0  0  0  0  0  0  0  0  0  0  0  0  # atno 17320 bound_to 7965
  146.2961  139.7282  142.9126 LP  0  0  0  0  0  0  0  0  0  0  0  0  # atno 17321 bound_to 7965
  140.6010  143.9609  150.6386 LP  0  0  0  0  0  0  0  0  0  0  0  0  # atno 17342 bound_to 10162
  140.2821  143.3382  152.1141 LP  0  0  0  0  0  0  0  0  0  0  0  0  # atno 17343 bound_to 10162
  156.2221  130.3675  149.8543 LP  0  0  0  0  0  0  0  0  0  0  0  0  # atno 17370 bound_to 10713
  156.6393  130.8698  151.3511 LP  0  0  0  0  0  0  0  0  0  0  0  0  # atno 17371 bound_to 10713
  140.1923  134.4356  155.7709 LP  0  0  0  0  0  0  0  0  0  0  0  0  # atno 17394 bound_to 11000
  141.2225  133.7033  156.8048 LP  0  0  0  0  0  0  0  0  0  0  0  0  # atno 17395 bound_to 11000

$$$$
