AV-unprocessed.smi:1701|AV-procd|sdf|6844|dock3
  -GOLD-   22720 8 23D 1   1.00000     0.00000
 Structure written by MMmdl.
 54 56  0  0  0  0  0  0  0  0  4 V2000
  151.1306  142.7737  157.4143 C   0  0  0  0  0  0  0  0  0  0  0  0
  152.1286  143.6324  158.2054 C   0  0  0  0  0  0  0  0  0  0  0  0
  151.6597  143.9454  159.5556 N   0  0  0  0  0  0  0  0  0  0  0  0
  150.9579  145.2185  159.7380 C   0  0  0  0  0  0  0  0  0  0  0  0
  149.5351  145.0416  160.2913 C   0  0  0  0  0  0  0  0  0  0  0  0
  152.4218  143.4233  160.6288 C   0  0  0  0  0  0  0  0  0  0  0  0
  152.4774  144.0431  161.9013 C   0  0  0  0  0  0  0  0  0  0  0  0
  153.2473  143.4671  162.9322 C   0  0  0  0  0  0  0  0  0  0  0  0
  153.9506  142.2687  162.6961 C   0  0  0  0  0  0  0  0  0  0  0  0
  154.7296  141.7354  163.7578 N   0  0  0  0  0  0  0  0  0  0  0  0
  155.5044  140.6226  163.7790 C   0  0  0  0  0  0  0  0  0  0  0  0
  155.5470  139.9058  162.7809 O   0  0  0  0  0  0  0  0  0  0  0  0
  156.2003  140.3004  164.9118 N   0  5  0  0  0  0  0  0  0  0  0  0
  155.8295  140.5117  166.3227 C   0  0  1  0  0  0  0  0  0  0  0  0
  156.9209  139.9342  167.2443 C   0  0  0  0  0  0  0  0  0  0  0  0
  157.8773  141.1003  167.5497 C   0  0  0  0  0  0  0  0  0  0  0  0
  157.3080  142.2799  166.8653 N   0  3  2  0  0  0  0  0  0  0  0  0
  157.6567  143.6114  167.4236 C   0  0  0  0  0  0  0  0  0  0  0  0
  156.8132  143.9754  168.6568 C   0  0  0  0  0  0  0  0  0  0  0  0
  155.3182  143.8403  168.3482 C   0  0  0  0  0  0  0  0  0  0  0  0
  155.0185  142.4077  167.8918 C   0  0  0  0  0  0  0  0  0  0  0  0
  155.8660  142.0186  166.6474 C   0  0  2  0  0  0  0  0  0  0  0  0
  153.8809  141.6958  161.4052 C   0  0  0  0  0  0  0  0  0  0  0  0
  153.1321  142.2824  160.4467 N   0  3  0  0  0  0  0  0  0  0  0  0
  151.5271  142.5346  156.4272 H   0  0  0  0  0  0  0  0  0  0  0  0
  150.1829  143.2937  157.2712 H   0  0  0  0  0  0  0  0  0  0  0  0
  150.9239  141.8321  157.9237 H   0  0  0  0  0  0  0  0  0  0  0  0
  153.0731  143.0939  158.2866 H   0  0  0  0  0  0  0  0  0  0  0  0
  152.3678  144.5376  157.6502 H   0  0  0  0  0  0  0  0  0  0  0  0
  151.5381  145.8745  160.3881 H   0  0  0  0  0  0  0  0  0  0  0  0
  150.8957  145.7346  158.7793 H   0  0  0  0  0  0  0  0  0  0  0  0
  149.0356  146.0065  160.3797 H   0  0  0  0  0  0  0  0  0  0  0  0
  149.5299  144.5799  161.2783 H   0  0  0  0  0  0  0  0  0  0  0  0
  148.9332  144.4189  159.6287 H   0  0  0  0  0  0  0  0  0  0  0  0
  151.9526  144.9640  162.1034 H   0  0  0  0  0  0  0  0  0  0  0  0
  153.2923  143.9443  163.9003 H   0  0  0  0  0  0  0  0  0  0  0  0
  154.6559  142.2260  164.6369 H   0  0  0  0  0  0  0  0  0  0  0  0
  154.8526  140.0871  166.5578 H   0  0  0  0  0  0  0  0  0  0  0  0
  156.4682  139.5867  168.1735 H   0  0  0  0  0  0  0  0  0  0  0  0
  157.4403  139.0792  166.8088 H   0  0  0  0  0  0  0  0  0  0  0  0
  157.9414  141.2629  168.6267 H   0  0  0  0  0  0  0  0  0  0  0  0
  158.8857  140.9092  167.1810 H   0  0  0  0  0  0  0  0  0  0  0  0
  158.7213  143.6474  167.6566 H   0  0  0  0  0  0  0  0  0  0  0  0
  157.4852  144.3530  166.6427 H   0  0  0  0  0  0  0  0  0  0  0  0
  157.0768  143.3300  169.4955 H   0  0  0  0  0  0  0  0  0  0  0  0
  157.0381  144.9948  168.9713 H   0  0  0  0  0  0  0  0  0  0  0  0
  154.7281  144.0843  169.2321 H   0  0  0  0  0  0  0  0  0  0  0  0
  155.0298  144.5495  167.5713 H   0  0  0  0  0  0  0  0  0  0  0  0
  155.2087  141.7415  168.7368 H   0  0  0  0  0  0  0  0  0  0  0  0
  153.9542  142.3163  167.6676 H   0  0  0  0  0  0  0  0  0  0  0  0
  155.5202  142.6138  165.8002 H   0  0  0  0  0  0  0  0  0  0  0  0
  154.4007  140.8017  161.0948 H   0  0  0  0  0  0  0  0  0  0  0  0
  157.7104  142.2450  165.9390 H   0  0  0  0  0  0  0  0  0  0  0  0
  153.1021  141.8391  159.5287 H   0  0  0  0  0  0  0  0  0  0  0  0
  1  2  1  0  0  0  0
  1 25  1  0  0  0  0
  1 26  1  0  0  0  0
  1 27  1  0  0  0  0
  2  3  1  0  0  0  0
  2 28  1  0  0  0  0
  2 29  1  0  0  0  0
  3  4  1  0  0  0  0
  3  6  1  0  0  0  0
  4  5  1  0  0  0  0
  4 30  1  0  0  0  0
  4 31  1  0  0  0  0
  5 32  1  0  0  0  0
  5 33  1  0  0  0  0
  5 34  1  0  0  0  0
  6 24  1  0  0  0  0
  6  7  2  0  0  0  0
  7  8  1  0  0  0  0
  7 35  1  0  0  0  0
  8  9  2  0  0  0  0
  8 36  1  0  0  0  0
  9 10  1  0  0  0  0
  9 23  1  0  0  0  0
 10 11  1  0  0  0  0
 10 37  1  0  0  0  0
 11 12  2  0  0  0  0
 11 13  1  0  0  0  0
 13 14  1  0  0  0  0
 14 22  1  0  0  0  0
 14 15  1  0  0  0  0
 14 38  1  0  0  0  0
 15 16  1  0  0  0  0
 15 39  1  0  0  0  0
 15 40  1  0  0  0  0
 16 17  1  0  0  0  0
 16 41  1  0  0  0  0
 16 42  1  0  0  0  0
 17 22  1  0  0  0  0
 17 18  1  0  0  0  0
 17 53  1  0  0  0  0
 18 19  1  0  0  0  0
 18 43  1  0  0  0  0
 18 44  1  0  0  0  0
 19 20  1  0  0  0  0
 19 45  1  0  0  0  0
 19 46  1  0  0  0  0
 20 21  1  0  0  0  0
 20 47  1  0  0  0  0
 20 48  1  0  0  0  0
 21 22  1  0  0  0  0
 21 49  1  0  0  0  0
 21 50  1  0  0  0  0
 22 51  1  0  0  0  0
 23 24  2  0  0  0  0
 23 52  1  0  0  0  0
 24 54  1  0  0  0  0
M  CHG  1  13  -1
M  CHG  1  17   1
M  CHG  1  24   1
M  END
> <s_m_source_file>
AV-unprocessed.smi

> <i_m_source_file_index>
1701

> <i_lp_mmshare_version>
43012

> <i_f3d_flags>
0

> <s_epik_input>
W0NIM11bQ0gyXU4oW0NIMl1bQ0gzXSljMVtjSF1bY0hdYyhbY0hdbjEpW05IXUMoPU8pW05IXVtDQEhdKFtDSDJdW0NIMl0yKVtDQEBIXShOMjMpW0NIMl1bQ0gyXVtDSDJdW0NIMl0z

> <s_epik_cmdline>
J2VwaWtfcHl0aG9uJywgJy1waCcsICc3LjAnLCAnLXRuJywgJzgnLCAnLW1hJywgJzIwMCcsICctbWV0YWxfYmluZGluZycsICctaW1hZScsICc8aW5maWxlLm1hZT4nLCAnLW9tYWUnLCAnPG91dGZpbGUubWFlPic=

> <r_lp_tautomer_probability>
0.999994

> <r_epik_Ionization_Penalty>
7.37095

> <r_epik_Ionization_Penalty_Charging>
7.37095

> <r_epik_Ionization_Penalty_Neutral>
3.78969e-06

> <r_epik_State_Penalty>
6.83842

> <r_epik_Charging_Adjusted_Penalty>
14.2094

> <i_epik_Tot_Q>
1

> <i_epik_Tot_abs_Q>
3

> <r_epik_Metal_State_Penalty>
2.78552

> <b_epik_Metal_Only>
1

> <s_lp_Force_Field>
OPLS_2005

> <r_lp_Energy>
52.2686

> <b_lp_Chiralities_Consistent>
1

> <s_lp_Variant>
AV-unprocessed.smi:1701-24

> <Gold.Version>
5.8.1

> <Gold.Id.Protein>
6NUR|6NUR_protein|mol2

> <Gold.PLP.Fitness>
49.1178

> <Gold.PLP.PLP>
-49.7607

> <Gold.PLP.part.hbond>
-1.0000

> <Gold.PLP.part.metal>
0.0000

> <Gold.PLP.part.buried>
-6.2565

> <Gold.PLP.part.nonpolar>
-41.4150

> <Gold.PLP.part.repulsive>
0.0878

> <Gold.PLP.ligand.clash>
0.0000

> <Gold.PLP.ligand.torsion>
0.8214

> <Gold.PLP.Chemscore.Hbond>
0.0000

> <Gold.PLP.Chemscore.CHOScore>
0.0000

> <Gold.PLP.Chemscore.Metal>
0.0000

> <Gold.PLP.Chemscore.Internal.Correction>
1.0000

> <Gold.Rescore>
     Score         DG    S(hbond)    S(metal)    S(lipo)     H(rot)  DE(clash)    DE(int)     intcor
     14.54     -17.09       0.00        0.00     127.31       1.28       0.32       2.23       ----

> <Gold.Chemscore.Fitness>
14.5438

> <Gold.Chemscore.DG>
-17.0887

> <Gold.Chemscore.ZeroCoef>
-5.4800

> <Gold.Chemscore.Hbond>
0.0000

> <Gold.Chemscore.Metal>
0.0000

> <Gold.Chemscore.Lipo>
127.3099

> <Gold.Chemscore.Internal_Hbond>
0.0000

> <Gold.Chemscore.DEClash>
0.3200

> <Gold.Chemscore.DEInternal>
2.2250

> <Gold.Chemscore.Rot>
1.2838

> <Gold.Chemscore.Internal.Correction>
   9.000000E+99

> <Gold.Chemscore.Hbond.Weighted>
-0.0000

> <Gold.Chemscore.Metal.Weighted>
-0.0000

> <Gold.Chemscore.Lipo.Weighted>
-14.8953

> <Gold.Chemscore.Internal_Hbond.Weighted>
0.0000

> <Gold.Chemscore.DEClash.Weighted>
0.3200

> <Gold.Chemscore.DEInternal.Weighted>
2.2250

> <Gold.Chemscore.Rot.Weighted>
3.2865

> <Gold.Chemscore.Internal.Correction.Weighted>
   9.000000E+99

> <Gold.Protein.RotatedTorsions>
[ 6907 6896 6895 6894 ] final  140.48 input  -60.11 | X-H torsion
[ 7974 7965 7964 7962 ] final  -30.54 input  175.53 | X-H torsion
[ 8008 7997 7996 7995 ] final -106.03 input   59.86 | X-H torsion
[ 10167 10162 10161 10158 ] final    7.84 input  -65.29 | X-H torsion
[ 10718 10713 10712 10709 ] final   18.63 input   66.30 | X-H torsion
[ 10763 10752 10751 10750 ] final  -42.04 input  -60.55 | X-H torsion
[ 11005 11000 10999 10996 ] final   -9.44 input  -57.11 | X-H torsion

> <Gold.Protein.ActiveResidues>
 VAL166  LYS551  ARG553  GLY616  TRP617  ASP618  TYR619  PRO620  LYS621  CYS622 
 ASP623  PHE694  ASN695  SER759  ASP760  ASP761  ALA762  ILE779  LEU786  VAL792 
 PHE793  MET794  SER795  GLU796  ALA797  LYS798  CYS799  TRP800  GLU811  SER814 

> <Gold.Protein.RotatedAtoms>
  152.2425  133.5147  159.5278 H   0  0  0  0  0  0  0  0  0  0  0  0  # atno 6907 bound_to 6896
  150.7068  134.1070  159.3995 H   0  0  0  0  0  0  0  0  0  0  0  0  # atno 6908 bound_to 6896
  151.8990  135.0386  160.0555 H   0  0  0  0  0  0  0  0  0  0  0  0  # atno 6909 bound_to 6896
  146.1135  140.5553  142.8767 H   0  0  0  0  0  0  0  0  0  0  0  0  # atno 7974 bound_to 7965
  154.9085  140.0410  157.1933 H   0  0  0  0  0  0  0  0  0  0  0  0  # atno 8008 bound_to 7997
  154.8372  140.2908  155.5662 H   0  0  0  0  0  0  0  0  0  0  0  0  # atno 8009 bound_to 7997
  156.2990  140.2489  156.3308 H   0  0  0  0  0  0  0  0  0  0  0  0  # atno 8010 bound_to 7997
  140.6349  143.7909  150.7345 H   0  0  0  0  0  0  0  0  0  0  0  0  # atno 10167 bound_to 10162
  157.0990  130.6460  149.5867 H   0  0  0  0  0  0  0  0  0  0  0  0  # atno 10718 bound_to 10713
  153.9724  135.6727  153.4747 H   0  0  0  0  0  0  0  0  0  0  0  0  # atno 10763 bound_to 10752
  153.0786  135.4935  154.8454 H   0  0  0  0  0  0  0  0  0  0  0  0  # atno 10764 bound_to 10752
  154.7211  135.3117  154.9006 H   0  0  0  0  0  0  0  0  0  0  0  0  # atno 10765 bound_to 10752
  140.7342  133.8724  155.8916 H   0  0  0  0  0  0  0  0  0  0  0  0  # atno 11005 bound_to 11000
  144.7532  140.5244  143.6787 LP  0  0  0  0  0  0  0  0  0  0  0  0  # atno 17320 bound_to 7965
  145.5614  139.1479  143.3339 LP  0  0  0  0  0  0  0  0  0  0  0  0  # atno 17321 bound_to 7965
  140.1528  143.4342  152.2119 LP  0  0  0  0  0  0  0  0  0  0  0  0  # atno 17342 bound_to 10162
  139.5560  144.7373  151.4293 LP  0  0  0  0  0  0  0  0  0  0  0  0  # atno 17343 bound_to 10162
  155.9878  130.4919  150.7143 LP  0  0  0  0  0  0  0  0  0  0  0  0  # atno 17370 bound_to 10713
  157.4657  131.0888  151.0698 LP  0  0  0  0  0  0  0  0  0  0  0  0  # atno 17371 bound_to 10713
  140.9894  134.1299  157.4422 LP  0  0  0  0  0  0  0  0  0  0  0  0  # atno 17394 bound_to 11000
  139.8820  135.0036  156.6195 LP  0  0  0  0  0  0  0  0  0  0  0  0  # atno 17395 bound_to 11000

$$$$
