#       Name:                AV-unprocessed.smi:846
#       Creating user name   scv26
#       Creation time:       Fri Mar 27 01:39:55 2020


#       File generated by GOLD software.
#

@<TRIPOS>MOLECULE
AV-unprocessed.smi:846
    42    43     1
SMALL
NO_CHARGES


@<TRIPOS>ATOM
      1 ****        -2.2321   2.8777  -0.0351 C.3            1 S1                 0.0000
      2 ****        -0.7530   3.2726  -0.0378 C.3            1 S1                 0.0000
      3 ****         0.0255   2.0822  -0.0080 O.3            1 S1                 0.0000
      4 ****         1.4034   2.1826  -0.0229 C.ar           1 S1                 0.0000
      5 ****         1.9653   3.4164  -0.0654 N.ar           1 S1                 0.0000
      6 ****         3.3114   3.5059  -0.0810 C.ar           1 S1                 0.0000
      7 ****         4.1599   2.3832  -0.0506 C.ar           1 S1                 0.0000
      8 ****         3.5782   1.1023  -0.0042 C.ar           1 S1                 0.0000
      9 ****         2.1671   0.9935   0.0010 C.ar           1 S1                 0.0000
     10 ****         1.4632  -0.2382   0.0668 N.am           1 S1                 0.0000
     11 ****         1.8663  -1.4734  -0.2845 C.2            1 S1                 0.0000
     12 ****         2.9952  -1.7592  -0.6771 O.2            1 S1                 0.0000
     13 ****         0.9005  -2.4062  -0.1903 N.am           1 S1                 0.0000
     14 ****         0.9981  -3.8367  -0.4927 C.3            1 S1                 0.0000
     15 ****        -0.3970  -4.4716  -0.6414 C.3            1 S1                 0.0000
     16 ****        -0.2513  -5.9998  -0.6148 C.3            1 S1                 0.0000
     17 ****         1.2326  -6.3573   0.4028 S.o2           1 S1                 0.0000
     18 ****         0.8227  -6.8972   1.7081 O.2            1 S1                 0.0000
     19 ****         2.2225  -7.0569  -0.4302 O.2            1 S1                 0.0000
     20 ****         1.7437  -4.6121   0.6064 C.3            1 S1                 0.0000
     21 ****        -2.8712   3.7607  -0.0475 H              1 S1                 0.0000
     22 ****        -2.4806   2.2956   0.8527 H              1 S1                 0.0000
     23 ****        -2.4777   2.2742  -0.9093 H              1 S1                 0.0000
     24 ****        -0.5304   3.8543  -0.9338 H              1 S1                 0.0000
     25 ****        -0.5348   3.8922   0.8335 H              1 S1                 0.0000
     26 ****         3.7247   4.5031  -0.1145 H              1 S1                 0.0000
     27 ****         5.2332   2.5020  -0.0574 H              1 S1                 0.0000
     28 ****         4.2213   0.2374   0.0405 H              1 S1                 0.0000
     29 ****         0.4882  -0.1549   0.3153 H              1 S1                 0.0000
     30 ****        -0.0095  -2.0808   0.1028 H              1 S1                 0.0000
     31 ****         1.5224  -3.9776  -1.4400 H              1 S1                 0.0000
     32 ****        -1.0207  -4.1672   0.2006 H              1 S1                 0.0000
     33 ****        -0.9020  -4.1349  -1.5475 H              1 S1                 0.0000
     34 ****        -1.1248  -6.5006  -0.1965 H              1 S1                 0.0000
     35 ****        -0.0732  -6.3908  -1.6166 H              1 S1                 0.0000
     36 ****         2.8289  -4.5320   0.5388 H              1 S1                 0.0000
     37 ****         1.4309  -4.2861   1.5989 H              1 S1                 0.0000
     38 ****        -0.2375   1.5400  -0.8061 LP             1 S1                 0.0000
     39 ****        -0.2235   1.5900   0.8261 LP             1 S1                 0.0000
     40 ****         1.3964   4.2386  -0.0847 LP             1 S1                 0.0000
     41 ****         3.6930  -1.0471  -0.7542 LP             1 S1                 0.0000
     42 ****         3.2160  -2.7039  -0.9195 LP             1 S1                 0.0000
@<TRIPOS>BOND
    1    1    2 1     
    2    1   21 1     
    3    1   22 1     
    4    1   23 1     
    5    2    3 1     
    6    2   24 1     
    7    2   25 1     
    8    3    4 1     
    9    4    9 ar    
   10    4    5 ar    
   11    5    6 ar    
   12    6    7 ar    
   13    6   26 1     
   14    7    8 ar    
   15    7   27 1     
   16    8    9 ar    
   17    8   28 1     
   18    9   10 1     
   19   10   11 am    
   20   10   29 1     
   21   11   12 2     
   22   11   13 am    
   23   13   14 1     
   24   13   30 1     
   25   14   20 1     
   26   14   15 1     
   27   14   31 1     
   28   15   16 1     
   29   15   32 1     
   30   15   33 1     
   31   16   17 1     
   32   16   34 1     
   33   16   35 1     
   34   17   18 2     
   35   17   19 2     
   36   17   20 1     
   37   20   36 1     
   38   20   37 1     
   39    3   38 1     
   40    3   39 1     
   41    5   40 1     
   42   12   41 1     
   43   12   42 1     
@<TRIPOS>SUBSTRUCTURE
      1 S1             1
@<TRIPOS>SET
LONE_PAIRS      STATIC     ATOMS    <user>   **** ""
7 38 39 40 41 42 18 19
DONOR_HYDROGENS      STATIC     ATOMS    <user>   **** ""
2 29 30
ATOM$BLUE        STATIC     ATOMS    COLORGROUP SYSTEM
7 38 39 40 41 42 18 19
ATOM$RED        STATIC     ATOMS    COLORGROUP SYSTEM
2 29 30
