AV-unprocessed.smi:110|AV-procd|sdf|1073|dock2
  -GOLD-   2262018153D 1   1.00000     0.00000
 Structure written by MMmdl.
 46 50  0  0  0  0  0  0  0  0  1 V2000
  144.4396  141.5621  154.8857 O   0  0  0  0  0  0  0  0  0  0  0  0
  145.2752  142.6783  154.6648 C   0  0  0  0  0  0  0  0  0  0  0  0
  146.7514  142.2712  154.8157 C   0  0  1  0  0  0  0  0  0  0  0  0
  146.9443  141.4435  155.9622 O   0  0  0  0  0  0  0  0  0  0  0  0
  148.0205  140.5743  155.7662 C   0  0  2  0  0  0  0  0  0  0  0  0
  149.0816  140.8400  156.7927 N   0  0  0  0  0  0  0  0  0  0  0  0
  149.0410  141.7804  157.7966 C   0  0  0  0  0  0  0  0  0  0  0  0
  150.0895  141.8182  158.5719 N   0  0  0  0  0  0  0  0  0  0  0  0
  150.9307  140.8381  158.0594 C   0  0  0  0  0  0  0  0  0  0  0  0
  152.2201  140.3452  158.4122 C   0  0  0  0  0  0  0  0  0  0  0  0
  152.9666  140.8087  159.4421 N   0  0  0  0  0  0  0  0  0  0  0  0
  153.8177  139.8762  160.1948 C   0  0  0  0  0  0  0  0  0  0  0  0
  154.1764  140.5509  161.5322 C   0  0  0  0  0  0  0  0  0  0  0  0
  153.5674  141.9026  161.3424 C   0  0  0  0  0  0  0  0  0  0  0  0
  153.6377  142.9988  162.2193 C   0  0  0  0  0  0  0  0  0  0  0  0
  153.0088  144.2016  161.8319 C   0  0  0  0  0  0  0  0  0  0  0  0
  152.3396  144.2900  160.5890 C   0  0  0  0  0  0  0  0  0  0  0  0
  152.2842  143.1759  159.7228 C   0  0  0  0  0  0  0  0  0  0  0  0
  152.8945  141.9702  160.1262 C   0  0  0  0  0  0  0  0  0  0  0  0
  152.7125  139.3028  157.6961 N   0  0  0  0  0  0  0  0  0  0  0  0
  152.0140  138.8011  156.6748 C   0  0  0  0  0  0  0  0  0  0  0  0
  150.8184  139.1771  156.2193 N   0  0  0  0  0  0  0  0  0  0  0  0
  150.2993  140.2053  156.9499 C   0  0  0  0  0  0  0  0  0  0  0  0
  148.5149  140.7470  154.3158 C   0  0  2  0  0  0  0  0  0  0  0  0
  149.6855  141.5364  154.1972 O   0  0  0  0  0  0  0  0  0  0  0  0
  147.3316  141.4427  153.6615 C   0  0  1  0  0  0  0  0  0  0  0  0
  146.3933  140.4917  153.1903 O   0  0  0  0  0  0  0  0  0  0  0  0
  147.3685  143.1647  154.9190 H   0  0  0  0  0  0  0  0  0  0  0  0
  147.6872  139.5574  155.9768 H   0  0  0  0  0  0  0  0  0  0  0  0
  148.7214  139.7694  153.8783 H   0  0  0  0  0  0  0  0  0  0  0  0
  147.6279  142.0684  152.8184 H   0  0  0  0  0  0  0  0  0  0  0  0
  143.8995  141.4343  154.1209 H   0  0  0  0  0  0  0  0  0  0  0  0
  145.0781  143.1090  153.6827 H   0  0  0  0  0  0  0  0  0  0  0  0
  145.0152  143.4313  155.4094 H   0  0  0  0  0  0  0  0  0  0  0  0
  148.1989  142.4418  157.9408 H   0  0  0  0  0  0  0  0  0  0  0  0
  153.3046  138.9278  160.3603 H   0  0  0  0  0  0  0  0  0  0  0  0
  154.7203  139.6710  159.6180 H   0  0  0  0  0  0  0  0  0  0  0  0
  153.7180  140.0441  162.3817 H   0  0  0  0  0  0  0  0  0  0  0  0
  155.2536  140.6184  161.6868 H   0  0  0  0  0  0  0  0  0  0  0  0
  154.1626  142.9250  163.1604 H   0  0  0  0  0  0  0  0  0  0  0  0
  153.0467  145.0617  162.4839 H   0  0  0  0  0  0  0  0  0  0  0  0
  151.8713  145.2182  160.2970 H   0  0  0  0  0  0  0  0  0  0  0  0
  151.7862  143.2570  158.7681 H   0  0  0  0  0  0  0  0  0  0  0  0
  152.4780  137.9807  156.1478 H   0  0  0  0  0  0  0  0  0  0  0  0
  150.4038  141.0683  154.5951 H   0  0  0  0  0  0  0  0  0  0  0  0
  145.5916  140.9426  152.9737 H   0  0  0  0  0  0  0  0  0  0  0  0
  1  2  1  0  0  0  0
  1 32  1  0  0  0  0
  2  3  1  0  0  0  0
  2 33  1  0  0  0  0
  2 34  1  0  0  0  0
  3 28  1  0  0  0  0
  3 26  1  0  0  0  0
  3  4  1  0  0  0  0
  4  5  1  0  0  0  0
  5 29  1  0  0  0  0
  5  6  1  0  0  0  0
  5 24  1  0  0  0  0
  6 23  1  0  0  0  0
  6  7  1  0  0  0  0
  7  8  2  0  0  0  0
  7 35  1  0  0  0  0
  8  9  1  0  0  0  0
  9 23  2  0  0  0  0
  9 10  1  0  0  0  0
 10 11  1  0  0  0  0
 10 20  2  0  0  0  0
 11 19  1  0  0  0  0
 11 12  1  0  0  0  0
 12 13  1  0  0  0  0
 12 36  1  0  0  0  0
 12 37  1  0  0  0  0
 13 14  1  0  0  0  0
 13 38  1  0  0  0  0
 13 39  1  0  0  0  0
 14 19  2  0  0  0  0
 14 15  1  0  0  0  0
 15 16  2  0  0  0  0
 15 40  1  0  0  0  0
 16 17  1  0  0  0  0
 16 41  1  0  0  0  0
 17 18  2  0  0  0  0
 17 42  1  0  0  0  0
 18 19  1  0  0  0  0
 18 43  1  0  0  0  0
 20 21  1  0  0  0  0
 21 22  2  0  0  0  0
 21 44  1  0  0  0  0
 22 23  1  0  0  0  0
 24 30  1  0  0  0  0
 24 25  1  0  0  0  0
 24 26  1  0  0  0  0
 25 45  1  0  0  0  0
 26 31  1  0  0  0  0
 26 27  1  0  0  0  0
 27 46  1  0  0  0  0
M  END
> <s_m_source_file>
AV-unprocessed.smi

> <i_m_source_file_index>
110

> <i_lp_mmshare_version>
43012

> <i_f3d_flags>
0

> <s_epik_input>
W09IXVtDSDJdW0NASF0xT1tDQEhdKFtDQEhdKFtPSF0pW0NAQEhdMVtPSF0pbihbY0hdbjIpYyhjMjMpbltjSF1uYzNOKFtDSDJdW0NIMl00KWMoYzQ1KVtjSF1bY0hdW2NIXVtjSF01

> <s_epik_cmdline>
J2VwaWtfcHl0aG9uJywgJy1waCcsICc3LjAnLCAnLXRuJywgJzgnLCAnLW1hJywgJzIwMCcsICctbWV0YWxfYmluZGluZycsICctaW1hZScsICc8aW5maWxlLm1hZT4nLCAnLW9tYWUnLCAnPG91dGZpbGUubWFlPic=

> <r_lp_tautomer_probability>
1

> <r_epik_Ionization_Penalty>
0.00068475

> <r_epik_Ionization_Penalty_Charging>
0

> <r_epik_Ionization_Penalty_Neutral>
0.00068475

> <r_epik_State_Penalty>
0.000417442

> <r_epik_Charging_Adjusted_Penalty>
0.000417442

> <i_epik_Tot_Q>
0

> <i_epik_Tot_abs_Q>
0

> <r_epik_Metal_State_Penalty>
-0

> <b_epik_Metal_Only>
0

> <s_epik_Chemistry_Notes>
This compound contains an acetal/aminal-like group ( X-CH(R)-Y where X, Y are N, S, or O) that may be acid/base labile, releasing an aldehyde.

> <s_lp_Force_Field>
OPLS_2005

> <r_lp_Energy>
62.4803

> <b_lp_Chiralities_Consistent>
1

> <s_lp_Variant>
AV-unprocessed.smi:110-11

> <Gold.Version>
5.8.1

> <Gold.Id.Protein>
6NUR|6NUR_protein|mol2

> <Gold.PLP.Fitness>
61.8195

> <Gold.PLP.PLP>
-52.9102

> <Gold.PLP.part.hbond>
-6.3284

> <Gold.PLP.part.metal>
0.0000

> <Gold.PLP.part.buried>
-4.6477

> <Gold.PLP.part.nonpolar>
-42.1353

> <Gold.PLP.part.repulsive>
0.0768

> <Gold.PLP.ligand.clash>
0.0000

> <Gold.PLP.ligand.torsion>
0.4052

> <Gold.PLP.Chemscore.Hbond>
3.2188

> <Gold.PLP.Chemscore.CHOScore>
0.0000

> <Gold.PLP.Chemscore.Metal>
0.0000

> <Gold.Chemscore.Hbonds>
donor molecule, donor type, donor heavy atom, donor atom, acceptor molecule, acceptor atom, score
      L1  H     1    32       P1 10175  0.91
      L1  H    27    46       P1 10175  0.78
      P1  H  7997  8010       L1    20  0.83
      P1  H  8011  8017       L1    25  0.55

> <Gold.PLP.Chemscore.Internal.Correction>
0.0633

> <Gold.Rescore>
     Score         DG    S(hbond)    S(metal)    S(lipo)     H(rot)  DE(clash)    DE(int)     intcor
     15.07     -18.01       2.56        0.00     107.88       3.38       1.65       1.28       ----

> <Gold.Chemscore.Fitness>
15.0716

> <Gold.Chemscore.DG>
-18.0052

> <Gold.Chemscore.ZeroCoef>
-5.4800

> <Gold.Chemscore.Hbond>
2.5646

> <Gold.Chemscore.Metal>
0.0000

> <Gold.Chemscore.Lipo>
107.8768

> <Gold.Chemscore.Internal_Hbond>
0.0000

> <Gold.Chemscore.DEClash>
1.6549

> <Gold.Chemscore.DEInternal>
1.2786

> <Gold.Chemscore.Rot>
3.3837

> <Gold.Chemscore.Internal.Correction>
   9.000000E+99

> <Gold.Chemscore.Hbonds>
donor molecule, donor type, donor heavy atom, donor atom, acceptor molecule, acceptor atom, score
      L1  H     1    32       P1 10175  0.20
      L1  H    27    46       P1 10175  0.25
      P1  H  7997  8010       L1    20  0.14
      P1  H  8011  8017       L1    25  0.42

> <Gold.Chemscore.Hbond.Weighted>
-8.5658

> <Gold.Chemscore.Metal.Weighted>
-0.0000

> <Gold.Chemscore.Lipo.Weighted>
-12.6216

> <Gold.Chemscore.Internal_Hbond.Weighted>
0.0000

> <Gold.Chemscore.DEClash.Weighted>
1.6549

> <Gold.Chemscore.DEInternal.Weighted>
1.2786

> <Gold.Chemscore.Rot.Weighted>
8.6622

> <Gold.Chemscore.Internal.Correction.Weighted>
   9.000000E+99

> <Gold.Protein.RotatedTorsions>
[ 6907 6896 6895 6894 ] final  155.21 input  -60.11 | X-H torsion
[ 7974 7965 7964 7962 ] final  175.48 input  175.53 | X-H torsion
[ 8008 7997 7996 7995 ] final   55.87 input   59.86 | X-H torsion
[ 10167 10162 10161 10158 ] final  138.22 input  -65.29 | X-H torsion
[ 10718 10713 10712 10709 ] final   50.16 input   66.30 | X-H torsion
[ 10763 10752 10751 10750 ] final  152.16 input  -60.55 | X-H torsion
[ 11005 11000 10999 10996 ] final  -73.79 input  -57.11 | X-H torsion

> <Gold.Protein.ActiveResidues>
 VAL166  LYS551  ARG553  GLY616  TRP617  ASP618  TYR619  PRO620  LYS621  CYS622 
 ASP623  PHE694  ASN695  SER759  ASP760  ASP761  ALA762  ILE779  LEU786  VAL792 
 PHE793  MET794  SER795  GLU796  ALA797  LYS798  CYS799  TRP800  GLU811  SER814 

> <Gold.Protein.RotatedAtoms>
  152.0475  133.4004  159.4362 H   0  0  0  0  0  0  0  0  0  0  0  0  # atno 6907 bound_to 6896
  150.6872  134.3346  159.4851 H   0  0  0  0  0  0  0  0  0  0  0  0  # atno 6908 bound_to 6896
  152.1152  134.9245  160.0616 H   0  0  0  0  0  0  0  0  0  0  0  0  # atno 6909 bound_to 6896
  144.7201  139.9953  143.6440 H   0  0  0  0  0  0  0  0  0  0  0  0  # atno 7974 bound_to 7965
  155.5081  140.3476  155.4383 H   0  0  0  0  0  0  0  0  0  0  0  0  # atno 8008 bound_to 7997
  156.0868  140.1400  156.9670 H   0  0  0  0  0  0  0  0  0  0  0  0  # atno 8009 bound_to 7997
  154.4611  140.0934  156.6872 H   0  0  0  0  0  0  0  0  0  0  0  0  # atno 8010 bound_to 7997
  139.5118  144.6366  151.5681 H   0  0  0  0  0  0  0  0  0  0  0  0  # atno 10167 bound_to 10162
  157.4857  130.8344  149.8144 H   0  0  0  0  0  0  0  0  0  0  0  0  # atno 10718 bound_to 10713
  154.1155  135.2836  155.3220 H   0  0  0  0  0  0  0  0  0  0  0  0  # atno 10763 bound_to 10752
  154.6460  135.5386  153.7848 H   0  0  0  0  0  0  0  0  0  0  0  0  # atno 10764 bound_to 10752
  153.0331  135.6498  154.1312 H   0  0  0  0  0  0  0  0  0  0  0  0  # atno 10765 bound_to 10752
  141.1627  133.6890  156.7265 H   0  0  0  0  0  0  0  0  0  0  0  0  # atno 11005 bound_to 11000
  146.0379  139.3394  143.0715 LP  0  0  0  0  0  0  0  0  0  0  0  0  # atno 17320 bound_to 7965
  145.8371  140.9600  143.0818 LP  0  0  0  0  0  0  0  0  0  0  0  0  # atno 17321 bound_to 7965
  140.6117  143.9424  150.6458 LP  0  0  0  0  0  0  0  0  0  0  0  0  # atno 17342 bound_to 10162
  140.2669  143.3484  152.1273 LP  0  0  0  0  0  0  0  0  0  0  0  0  # atno 17343 bound_to 10162
  156.0146  130.3819  150.2154 LP  0  0  0  0  0  0  0  0  0  0  0  0  # atno 17370 bound_to 10713
  157.0341  131.0016  151.3303 LP  0  0  0  0  0  0  0  0  0  0  0  0  # atno 17371 bound_to 10713
  140.2777  134.8342  157.3905 LP  0  0  0  0  0  0  0  0  0  0  0  0  # atno 17394 bound_to 11000
  140.1462  134.4908  155.7994 LP  0  0  0  0  0  0  0  0  0  0  0  0  # atno 17395 bound_to 11000

$$$$
