AV-unprocessed.smi:764|AV-procd|sdf|3642|dock10
  -GOLD-   22720 1 43D 1   1.00000     0.00000
 Structure written by MMmdl.
 37 37  0  0  0  0  0  0  0  0  2 V2000
  146.2840  143.0102  153.5976 C   0  0  0  0  0  0  0  0  0  0  0  0
  146.8202  141.7682  154.3228 C   0  0  0  0  0  0  0  0  0  0  0  0
  148.3537  141.7549  154.3767 C   0  0  0  0  0  0  0  0  0  0  0  0
  146.3457  140.5623  153.6485 N   0  0  0  0  0  0  0  0  0  0  0  0
  146.7598  139.3078  153.8875 C   0  0  0  0  0  0  0  0  0  0  0  0
  147.6125  139.0202  154.7274 O   0  0  0  0  0  0  0  0  0  0  0  0
  146.1009  138.2084  153.0493 C   0  0  0  0  0  0  0  0  0  0  0  0
  146.4253  138.3255  151.5503 C   0  0  0  0  0  0  0  0  0  0  0  0
  146.4019  136.9994  150.9027 N   0  3  0  0  0  0  0  0  0  0  0  0
  145.1444  136.2531  151.1002 C   0  0  0  0  0  0  0  0  0  0  0  0
  145.3869  134.9800  151.9229 C   0  0  0  0  0  0  0  0  0  0  0  0
  145.1892  133.7824  151.1305 N   0  0  0  0  0  0  0  0  0  0  0  0
  144.0471  133.3587  150.4840 C   0  0  0  0  0  0  0  0  0  0  0  0
  144.3429  132.1738  149.8733 C   0  0  0  0  0  0  0  0  0  0  0  0
  145.7081  131.9520  150.2083 C   0  0  0  0  0  0  0  0  0  0  0  0
  146.2122  132.9180  150.9595 N   0  0  0  0  0  0  0  0  0  0  0  0
  146.6228  143.9250  154.0847 H   0  0  0  0  0  0  0  0  0  0  0  0
  145.1935  143.0236  153.5948 H   0  0  0  0  0  0  0  0  0  0  0  0
  146.6207  143.0419  152.5607 H   0  0  0  0  0  0  0  0  0  0  0  0
  146.4549  141.7960  155.3507 H   0  0  0  0  0  0  0  0  0  0  0  0
  148.7351  142.6404  154.8858 H   0  0  0  0  0  0  0  0  0  0  0  0
  148.7879  141.7339  153.3765 H   0  0  0  0  0  0  0  0  0  0  0  0
  148.7200  140.8819  154.9179 H   0  0  0  0  0  0  0  0  0  0  0  0
  145.6360  140.6960  152.9426 H   0  0  0  0  0  0  0  0  0  0  0  0
  146.4317  137.2410  153.4290 H   0  0  0  0  0  0  0  0  0  0  0  0
  145.0199  138.2494  153.1932 H   0  0  0  0  0  0  0  0  0  0  0  0
  145.6996  138.9744  151.0571 H   0  0  0  0  0  0  0  0  0  0  0  0
  147.4101  138.7733  151.4078 H   0  0  0  0  0  0  0  0  0  0  0  0
  146.5471  137.1243  149.9108 H   0  0  0  0  0  0  0  0  0  0  0  0
  144.4214  136.8932  151.6078 H   0  0  0  0  0  0  0  0  0  0  0  0
  144.7237  135.9987  150.1265 H   0  0  0  0  0  0  0  0  0  0  0  0
  146.4028  134.9687  152.3210 H   0  0  0  0  0  0  0  0  0  0  0  0
  144.7111  134.9444  152.7784 H   0  0  0  0  0  0  0  0  0  0  0  0
  143.1293  133.9276  150.5121 H   0  0  0  0  0  0  0  0  0  0  0  0
  143.6842  131.5579  149.2790 H   0  0  0  0  0  0  0  0  0  0  0  0
  146.3431  131.1236  149.9304 H   0  0  0  0  0  0  0  0  0  0  0  0
  147.1624  136.4489  151.2749 H   0  0  0  0  0  0  0  0  0  0  0  0
  1  2  1  0  0  0  0
  1 17  1  0  0  0  0
  1 18  1  0  0  0  0
  1 19  1  0  0  0  0
  2  3  1  0  0  0  0
  2  4  1  0  0  0  0
  2 20  1  0  0  0  0
  3 21  1  0  0  0  0
  3 22  1  0  0  0  0
  3 23  1  0  0  0  0
  4  5  1  0  0  0  0
  4 24  1  0  0  0  0
  5  6  2  0  0  0  0
  5  7  1  0  0  0  0
  7  8  1  0  0  0  0
  7 25  1  0  0  0  0
  7 26  1  0  0  0  0
  8  9  1  0  0  0  0
  8 27  1  0  0  0  0
  8 28  1  0  0  0  0
  9 10  1  0  0  0  0
  9 29  1  0  0  0  0
  9 37  1  0  0  0  0
 10 11  1  0  0  0  0
 10 30  1  0  0  0  0
 10 31  1  0  0  0  0
 11 12  1  0  0  0  0
 11 32  1  0  0  0  0
 11 33  1  0  0  0  0
 12 16  1  0  0  0  0
 12 13  1  0  0  0  0
 13 14  2  0  0  0  0
 13 34  1  0  0  0  0
 14 15  1  0  0  0  0
 14 35  1  0  0  0  0
 15 16  2  0  0  0  0
 15 36  1  0  0  0  0
M  CHG  1   9   1
M  END
> <s_m_source_file>
AV-unprocessed.smi

> <i_m_source_file_index>
764

> <i_lp_mmshare_version>
43012

> <i_f3d_flags>
0

> <s_epik_input>
W0NIM11bQ0hdKFtDSDNdKVtOSF1DKD1PKVtDSDJdW0NIMl1bTkhdW0NIMl1bQ0gyXW4xW2NIXVtjSF1bY0hdbjE=

> <s_epik_cmdline>
J2VwaWtfcHl0aG9uJywgJy1waCcsICc3LjAnLCAnLXRuJywgJzgnLCAnLW1hJywgJzIwMCcsICctbWV0YWxfYmluZGluZycsICctaW1hZScsICc8aW5maWxlLm1hZT4nLCAnLW9tYWUnLCAnPG91dGZpbGUubWFlPic=

> <r_lp_tautomer_probability>
1

> <r_epik_Ionization_Penalty>
0.00578048

> <r_epik_Ionization_Penalty_Charging>
0.00577767

> <r_epik_Ionization_Penalty_Neutral>
2.80872e-06

> <r_epik_State_Penalty>
-0

> <r_epik_Charging_Adjusted_Penalty>
0.00577767

> <i_epik_Tot_Q>
1

> <i_epik_Tot_abs_Q>
1

> <r_epik_Metal_State_Penalty>
-0

> <b_epik_Metal_Only>
0

> <s_lp_Force_Field>
OPLS_2005

> <r_lp_Energy>
3.7627

> <b_lp_Chiralities_Consistent>
1

> <s_lp_Variant>
AV-unprocessed.smi:764-1

> <Gold.Version>
5.8.1

> <Gold.Id.Protein>
6NUR|6NUR_protein|mol2

> <Gold.PLP.Fitness>
46.4513

> <Gold.PLP.PLP>
-33.6432

> <Gold.PLP.part.hbond>
-2.7157

> <Gold.PLP.part.metal>
0.0000

> <Gold.PLP.part.buried>
-1.9593

> <Gold.PLP.part.nonpolar>
-30.3146

> <Gold.PLP.part.repulsive>
0.9340

> <Gold.PLP.ligand.clash>
0.0000

> <Gold.PLP.ligand.torsion>
1.0558

> <Gold.PLP.Chemscore.Hbond>
3.0000

> <Gold.PLP.Chemscore.CHOScore>
1.9338

> <Gold.PLP.Chemscore.Metal>
0.0000

> <Gold.Chemscore.Hbonds>
donor molecule, donor type, donor heavy atom, donor atom, acceptor molecule, acceptor atom, score
      L1  H     4    24       P1 10175  0.93
      L1  H     9    37       P1  7948  2.00
      L1  C    13    34       P1 10186  1.00
      L1  C    15    36       P1 10747  0.68

> <Gold.PLP.Chemscore.Internal.Correction>
0.1184

> <Gold.Rescore>
     Score         DG    S(hbond)    S(metal)    S(lipo)     H(rot)  DE(clash)    DE(int)     intcor
     11.93     -14.27       1.91        0.00      72.62       2.37       0.21       2.13       ----

> <Gold.Chemscore.Fitness>
11.9260

> <Gold.Chemscore.DG>
-14.2653

> <Gold.Chemscore.ZeroCoef>
-5.4800

> <Gold.Chemscore.Hbond>
1.9059

> <Gold.Chemscore.Metal>
0.0000

> <Gold.Chemscore.Lipo>
72.6189

> <Gold.Chemscore.Internal_Hbond>
0.0000

> <Gold.Chemscore.DEClash>
0.2123

> <Gold.Chemscore.DEInternal>
2.1269

> <Gold.Chemscore.Rot>
2.3738

> <Gold.Chemscore.Internal.Correction>
   9.000000E+99

> <Gold.Chemscore.Hbonds>
donor molecule, donor type, donor heavy atom, donor atom, acceptor molecule, acceptor atom, score
      L1  H     4    24       P1 10175  0.52
      L1  H     9    37       P1  7948  0.96

> <Gold.Chemscore.Hbond.Weighted>
-6.3657

> <Gold.Chemscore.Metal.Weighted>
-0.0000

> <Gold.Chemscore.Lipo.Weighted>
-8.4964

> <Gold.Chemscore.Internal_Hbond.Weighted>
0.0000

> <Gold.Chemscore.DEClash.Weighted>
0.2123

> <Gold.Chemscore.DEInternal.Weighted>
2.1269

> <Gold.Chemscore.Rot.Weighted>
6.0769

> <Gold.Chemscore.Internal.Correction.Weighted>
   9.000000E+99

> <Gold.Protein.RotatedTorsions>
[ 6907 6896 6895 6894 ] final   76.89 input  -60.11 | X-H torsion
[ 7974 7965 7964 7962 ] final   52.18 input  175.53 | X-H torsion
[ 8008 7997 7996 7995 ] final -157.51 input   59.86 | X-H torsion
[ 10167 10162 10161 10158 ] final  -64.17 input  -65.29 | X-H torsion
[ 10718 10713 10712 10709 ] final   98.72 input   66.30 | X-H torsion
[ 10763 10752 10751 10750 ] final  -82.20 input  -60.55 | X-H torsion
[ 11005 11000 10999 10996 ] final  -26.93 input  -57.11 | X-H torsion

> <Gold.Protein.ActiveResidues>
 VAL166  LYS551  ARG553  GLY616  TRP617  ASP618  TYR619  PRO620  LYS621  CYS622 
 ASP623  PHE694  ASN695  SER759  ASP760  ASP761  ALA762  ILE779  LEU786  VAL792 
 PHE793  MET794  SER795  GLU796  ALA797  LYS798  CYS799  TRP800  GLU811  SER814 

> <Gold.Protein.RotatedAtoms>
  152.5093  134.3900  159.9380 H   0  0  0  0  0  0  0  0  0  0  0  0  # atno 6907 bound_to 6896
  151.3860  133.3799  159.2723 H   0  0  0  0  0  0  0  0  0  0  0  0  # atno 6908 bound_to 6896
  150.9469  134.8893  159.7706 H   0  0  0  0  0  0  0  0  0  0  0  0  # atno 6909 bound_to 6896
  145.9839  139.4270  143.0115 H   0  0  0  0  0  0  0  0  0  0  0  0  # atno 7974 bound_to 7965
  155.7336  140.0805  157.2278 H   0  0  0  0  0  0  0  0  0  0  0  0  # atno 8008 bound_to 7997
  154.4030  140.1591  156.2591 H   0  0  0  0  0  0  0  0  0  0  0  0  # atno 8009 bound_to 7997
  155.9086  140.3405  155.6084 H   0  0  0  0  0  0  0  0  0  0  0  0  # atno 8010 bound_to 7997
  140.5820  143.2328  151.6323 H   0  0  0  0  0  0  0  0  0  0  0  0  # atno 10167 bound_to 10162
  157.6890  131.0648  150.4838 H   0  0  0  0  0  0  0  0  0  0  0  0  # atno 10718 bound_to 10713
  154.5729  135.5599  153.7112 H   0  0  0  0  0  0  0  0  0  0  0  0  # atno 10763 bound_to 10752
  153.0054  135.6301  154.2090 H   0  0  0  0  0  0  0  0  0  0  0  0  # atno 10764 bound_to 10752
  154.2030  135.2877  155.2964 H   0  0  0  0  0  0  0  0  0  0  0  0  # atno 10765 bound_to 10752
  140.9074  133.7484  156.0624 H   0  0  0  0  0  0  0  0  0  0  0  0  # atno 11005 bound_to 11000
  145.7729  140.9889  143.1140 LP  0  0  0  0  0  0  0  0  0  0  0  0  # atno 17320 bound_to 7965
  144.6869  139.9469  143.7477 LP  0  0  0  0  0  0  0  0  0  0  0  0  # atno 17321 bound_to 7965
  139.5175  144.3313  152.0824 LP  0  0  0  0  0  0  0  0  0  0  0  0  # atno 17342 bound_to 10162
  140.2464  144.4215  150.6239 LP  0  0  0  0  0  0  0  0  0  0  0  0  # atno 17343 bound_to 10162
  156.5169  130.4152  149.6271 LP  0  0  0  0  0  0  0  0  0  0  0  0  # atno 17370 bound_to 10713
  156.3190  130.7270  151.2178 LP  0  0  0  0  0  0  0  0  0  0  0  0  # atno 17371 bound_to 10713
  140.8154  134.3351  157.5399 LP  0  0  0  0  0  0  0  0  0  0  0  0  # atno 17394 bound_to 11000
  139.8751  134.9278  156.3435 LP  0  0  0  0  0  0  0  0  0  0  0  0  # atno 17395 bound_to 11000

$$$$
