AV-unprocessed.smi:1543|AV-procd|sdf|6211|dock2
  -GOLD-   22720 6383D 1   1.00000     0.00000
 Structure written by MMmdl.
 49 50  0  0  0  0  0  0  0  0  2 V2000
  151.3342  137.5193  155.4004 C   0  0  0  0  0  0  0  0  0  0  0  0
  150.9668  138.6200  154.3889 C   0  0  1  0  0  0  0  0  0  0  0  0
  149.5139  138.5291  153.8820 C   0  0  0  0  0  0  0  0  0  0  0  0
  148.5493  138.9556  154.9348 N   0  3  2  0  0  0  0  0  0  0  0  0
  147.0917  138.7214  154.6284 C   0  0  0  0  0  0  0  0  0  0  0  0
  146.2105  139.6066  155.5453 C   0  0  0  0  0  0  0  0  0  0  0  0
  146.7938  139.1807  153.1788 C   0  0  0  0  0  0  0  0  0  0  0  0
  146.7081  137.2228  154.8192 C   0  0  0  0  0  0  0  0  0  0  0  0
  146.9350  136.4048  153.6279 N   0  0  0  0  0  0  0  0  0  0  0  0
  146.0270  135.6109  153.0418 C   0  0  0  0  0  0  0  0  0  0  0  0
  144.8769  135.4739  153.4577 O   0  0  0  0  0  0  0  0  0  0  0  0
  146.5374  135.0107  151.9532 N   0  0  0  0  0  0  0  0  0  0  0  0
  145.9101  134.0814  151.0798 C   0  0  0  0  0  0  0  0  0  0  0  0
  144.5415  134.1252  150.7185 C   0  0  0  0  0  0  0  0  0  0  0  0
  144.0340  133.1332  149.8575 C   0  0  0  0  0  0  0  0  0  0  0  0
  144.9087  132.1303  149.3964 C   0  0  0  0  0  0  0  0  0  0  0  0
  146.2112  132.0677  149.7441 N   0  0  0  0  0  0  0  0  0  0  0  0
  146.6909  133.0222  150.5698 C   0  0  0  0  0  0  0  0  0  0  0  0
  148.9027  140.3260  155.3979 C   0  0  0  0  0  0  0  0  0  0  0  0
  150.3509  140.3644  155.9167 C   0  0  2  0  0  0  0  0  0  0  0  0
  150.7739  141.7781  156.3311 C   0  0  0  0  0  0  0  0  0  0  0  0
  151.2352  139.9280  154.8897 O   0  0  0  0  0  0  0  0  0  0  0  0
  151.2490  136.5324  154.9448 H   0  0  0  0  0  0  0  0  0  0  0  0
  150.6861  137.5263  156.2764 H   0  0  0  0  0  0  0  0  0  0  0  0
  152.3627  137.6344  155.7433 H   0  0  0  0  0  0  0  0  0  0  0  0
  151.6256  138.4874  153.5300 H   0  0  0  0  0  0  0  0  0  0  0  0
  149.4031  139.1666  153.0044 H   0  0  0  0  0  0  0  0  0  0  0  0
  149.3371  137.5070  153.5534 H   0  0  0  0  0  0  0  0  0  0  0  0
  145.1727  139.6267  155.2104 H   0  0  0  0  0  0  0  0  0  0  0  0
  146.5610  140.6394  155.5582 H   0  0  0  0  0  0  0  0  0  0  0  0
  146.1874  139.2453  156.5733 H   0  0  0  0  0  0  0  0  0  0  0  0
  145.7223  139.2334  152.9830 H   0  0  0  0  0  0  0  0  0  0  0  0
  147.2019  138.4988  152.4333 H   0  0  0  0  0  0  0  0  0  0  0  0
  147.1997  140.1741  152.9848 H   0  0  0  0  0  0  0  0  0  0  0  0
  147.2384  136.7869  155.6663 H   0  0  0  0  0  0  0  0  0  0  0  0
  145.6486  137.1302  155.0551 H   0  0  0  0  0  0  0  0  0  0  0  0
  147.8542  136.4560  153.2132 H   0  0  0  0  0  0  0  0  0  0  0  0
  147.4700  135.2905  151.6869 H   0  0  0  0  0  0  0  0  0  0  0  0
  143.8717  134.8844  151.0916 H   0  0  0  0  0  0  0  0  0  0  0  0
  142.9954  133.1383  149.5611 H   0  0  0  0  0  0  0  0  0  0  0  0
  144.5506  131.3542  148.7361 H   0  0  0  0  0  0  0  0  0  0  0  0
  147.7366  132.9386  150.8284 H   0  0  0  0  0  0  0  0  0  0  0  0
  148.7895  141.0391  154.5806 H   0  0  0  0  0  0  0  0  0  0  0  0
  148.2515  140.6570  156.2041 H   0  0  0  0  0  0  0  0  0  0  0  0
  150.4460  139.7157  156.7876 H   0  0  0  0  0  0  0  0  0  0  0  0
  150.1323  142.1637  157.1239 H   0  0  0  0  0  0  0  0  0  0  0  0
  150.7187  142.4701  155.4903 H   0  0  0  0  0  0  0  0  0  0  0  0
  151.7994  141.7856  156.7013 H   0  0  0  0  0  0  0  0  0  0  0  0
  148.7399  138.3537  155.7233 H   0  0  0  0  0  0  0  0  0  0  0  0
  1  2  1  0  0  0  0
  1 23  1  0  0  0  0
  1 24  1  0  0  0  0
  1 25  1  0  0  0  0
  2 22  1  0  0  0  0
  2  3  1  0  0  0  0
  2 26  1  0  0  0  0
  3  4  1  0  0  0  0
  3 27  1  0  0  0  0
  3 28  1  0  0  0  0
  4  5  1  0  0  0  0
  4 19  1  0  0  0  0
  4 49  1  0  0  0  0
  5  6  1  0  0  0  0
  5  7  1  0  0  0  0
  5  8  1  0  0  0  0
  6 29  1  0  0  0  0
  6 30  1  0  0  0  0
  6 31  1  0  0  0  0
  7 32  1  0  0  0  0
  7 33  1  0  0  0  0
  7 34  1  0  0  0  0
  8  9  1  0  0  0  0
  8 35  1  0  0  0  0
  8 36  1  0  0  0  0
  9 10  1  0  0  0  0
  9 37  1  0  0  0  0
 10 11  2  0  0  0  0
 10 12  1  0  0  0  0
 12 13  1  0  0  0  0
 12 38  1  0  0  0  0
 13 18  1  0  0  0  0
 13 14  2  0  0  0  0
 14 15  1  0  0  0  0
 14 39  1  0  0  0  0
 15 16  2  0  0  0  0
 15 40  1  0  0  0  0
 16 17  1  0  0  0  0
 16 41  1  0  0  0  0
 17 18  2  0  0  0  0
 18 42  1  0  0  0  0
 19 20  1  0  0  0  0
 19 43  1  0  0  0  0
 19 44  1  0  0  0  0
 20 21  1  0  0  0  0
 20 22  1  0  0  0  0
 20 45  1  0  0  0  0
 21 46  1  0  0  0  0
 21 47  1  0  0  0  0
 21 48  1  0  0  0  0
M  CHG  1   4   1
M  END
> <s_m_source_file>
AV-unprocessed.smi

> <i_m_source_file_index>
1543

> <i_lp_mmshare_version>
43012

> <i_f3d_flags>
0

> <s_epik_input>
W0NIM11bQ0BASF0xW0NIMl1OKFtDSDJdW0NASF0oTzEpW0NIM10pQyhbQ0gzXSkoW0NIM10pW0NIMl1bTkhdQyg9TylbTkhdYzJbY0hdW2NIXVtjSF1uW2NIXTI=

> <s_epik_cmdline>
J2VwaWtfcHl0aG9uJywgJy1waCcsICc3LjAnLCAnLXRuJywgJzgnLCAnLW1hJywgJzIwMCcsICctbWV0YWxfYmluZGluZycsICctaW1hZScsICc8aW5maWxlLm1hZT4nLCAnLW9tYWUnLCAnPG91dGZpbGUubWFlPic=

> <r_epik_Ionization_Penalty>
0.60676

> <r_epik_Ionization_Penalty_Charging>
0.602531

> <r_epik_Ionization_Penalty_Neutral>
0.00422967

> <r_epik_State_Penalty>
0.607492

> <r_epik_Charging_Adjusted_Penalty>
1.21002

> <i_epik_Tot_Q>
1

> <i_epik_Tot_abs_Q>
1

> <r_epik_Metal_State_Penalty>
0.604589

> <b_epik_Metal_Only>
0

> <s_lp_Force_Field>
OPLS_2005

> <r_lp_Energy>
30.6823

> <b_lp_Chiralities_Consistent>
1

> <s_lp_Variant>
AV-unprocessed.smi:1543-7

> <Gold.Version>
5.8.1

> <Gold.Id.Protein>
6NUR|6NUR_protein|mol2

> <Gold.PLP.Fitness>
41.7001

> <Gold.PLP.PLP>
-33.0195

> <Gold.PLP.part.hbond>
-3.0000

> <Gold.PLP.part.metal>
0.0000

> <Gold.PLP.part.buried>
-1.6745

> <Gold.PLP.part.nonpolar>
-28.7479

> <Gold.PLP.part.repulsive>
0.5725

> <Gold.PLP.ligand.clash>
0.0000

> <Gold.PLP.ligand.torsion>
1.4499

> <Gold.PLP.Chemscore.Hbond>
3.0000

> <Gold.PLP.Chemscore.CHOScore>
0.8213

> <Gold.PLP.Chemscore.Metal>
0.0000

> <Gold.Chemscore.Hbonds>
donor molecule, donor type, donor heavy atom, donor atom, acceptor molecule, acceptor atom, score
      L1  H     9    37       P1  7948  1.00
      L1  H    12    38       P1  7948  1.00
      P1  H  7989  7998       L1    22  1.00
      L1  C    18    42       P1 10747  0.80

> <Gold.PLP.Chemscore.Internal.Correction>
0.1164

> <Gold.Rescore>
     Score         DG    S(hbond)    S(metal)    S(lipo)     H(rot)  DE(clash)    DE(int)     intcor
     19.62     -21.65       2.70        0.00      93.21       1.46       0.14       1.89       ----

> <Gold.Chemscore.Fitness>
19.6193

> <Gold.Chemscore.DG>
-21.6466

> <Gold.Chemscore.ZeroCoef>
-5.4800

> <Gold.Chemscore.Hbond>
2.6966

> <Gold.Chemscore.Metal>
0.0000

> <Gold.Chemscore.Lipo>
93.2123

> <Gold.Chemscore.Internal_Hbond>
0.0000

> <Gold.Chemscore.DEClash>
0.1391

> <Gold.Chemscore.DEInternal>
1.8882

> <Gold.Chemscore.Rot>
1.4632

> <Gold.Chemscore.Internal.Correction>
   9.000000E+99

> <Gold.Chemscore.Hbonds>
donor molecule, donor type, donor heavy atom, donor atom, acceptor molecule, acceptor atom, score
      L1  H     9    37       P1  7948  0.95
      L1  H    12    38       P1  7948  0.91
      P1  H  7989  7998       L1    22  0.50

> <Gold.Chemscore.Hbond.Weighted>
-9.0067

> <Gold.Chemscore.Metal.Weighted>
-0.0000

> <Gold.Chemscore.Lipo.Weighted>
-10.9058

> <Gold.Chemscore.Internal_Hbond.Weighted>
0.0000

> <Gold.Chemscore.DEClash.Weighted>
0.1391

> <Gold.Chemscore.DEInternal.Weighted>
1.8882

> <Gold.Chemscore.Rot.Weighted>
3.7459

> <Gold.Chemscore.Internal.Correction.Weighted>
   9.000000E+99

> <Gold.Protein.RotatedTorsions>
[ 6907 6896 6895 6894 ] final   25.93 input  -60.11 | X-H torsion
[ 7974 7965 7964 7962 ] final  -48.95 input  175.53 | X-H torsion
[ 8008 7997 7996 7995 ] final -113.08 input   59.86 | X-H torsion
[ 10167 10162 10161 10158 ] final  113.30 input  -65.29 | X-H torsion
[ 10718 10713 10712 10709 ] final  130.96 input   66.30 | X-H torsion
[ 10763 10752 10751 10750 ] final   69.65 input  -60.55 | X-H torsion
[ 11005 11000 10999 10996 ] final  -96.54 input  -57.11 | X-H torsion

> <Gold.Protein.ActiveResidues>
 VAL166  LYS551  ARG553  GLY616  TRP617  ASP618  TYR619  PRO620  LYS621  CYS622 
 ASP623  PHE694  ASN695  SER759  ASP760  ASP761  ALA762  ILE779  LEU786  VAL792 
 PHE793  MET794  SER795  GLU796  ALA797  LYS798  CYS799  TRP800  GLU811  SER814 

> <Gold.Protein.RotatedAtoms>
  151.9800  135.0033  160.0556 H   0  0  0  0  0  0  0  0  0  0  0  0  # atno 6907 bound_to 6896
  152.1705  133.4636  159.4915 H   0  0  0  0  0  0  0  0  0  0  0  0  # atno 6908 bound_to 6896
  150.6901  134.1876  159.4316 H   0  0  0  0  0  0  0  0  0  0  0  0  # atno 6909 bound_to 6896
  145.9458  140.7619  142.9529 H   0  0  0  0  0  0  0  0  0  0  0  0  # atno 7974 bound_to 7965
  155.0152  140.0393  157.2415 H   0  0  0  0  0  0  0  0  0  0  0  0  # atno 8008 bound_to 7997
  154.7426  140.2751  155.6337 H   0  0  0  0  0  0  0  0  0  0  0  0  # atno 8009 bound_to 7997
  156.2867  140.2662  156.2157 H   0  0  0  0  0  0  0  0  0  0  0  0  # atno 8010 bound_to 7997
  139.6471  144.7127  151.2120 H   0  0  0  0  0  0  0  0  0  0  0  0  # atno 10167 bound_to 10162
  157.5013  131.1094  150.9423 H   0  0  0  0  0  0  0  0  0  0  0  0  # atno 10718 bound_to 10713
  153.0298  135.5203  154.7321 H   0  0  0  0  0  0  0  0  0  0  0  0  # atno 10763 bound_to 10752
  154.6345  135.2904  155.0179 H   0  0  0  0  0  0  0  0  0  0  0  0  # atno 10764 bound_to 10752
  154.1119  135.6621  153.4939 H   0  0  0  0  0  0  0  0  0  0  0  0  # atno 10765 bound_to 10752
  141.1408  133.8105  157.0584 H   0  0  0  0  0  0  0  0  0  0  0  0  # atno 11005 bound_to 11000
  144.6787  140.2354  143.7350 LP  0  0  0  0  0  0  0  0  0  0  0  0  # atno 17320 bound_to 7965
  145.8238  139.2055  143.1922 LP  0  0  0  0  0  0  0  0  0  0  0  0  # atno 17321 bound_to 7965
  140.7520  143.6212  150.8512 LP  0  0  0  0  0  0  0  0  0  0  0  0  # atno 17342 bound_to 10162
  139.9856  143.5903  152.2928 LP  0  0  0  0  0  0  0  0  0  0  0  0  # atno 17343 bound_to 10162
  157.0093  130.5630  149.5319 LP  0  0  0  0  0  0  0  0  0  0  0  0  # atno 17370 bound_to 10713
  156.0231  130.5325  150.8331 LP  0  0  0  0  0  0  0  0  0  0  0  0  # atno 17371 bound_to 10713
  140.0587  134.9767  157.1266 LP  0  0  0  0  0  0  0  0  0  0  0  0  # atno 17394 bound_to 11000
  140.3881  134.2214  155.7167 LP  0  0  0  0  0  0  0  0  0  0  0  0  # atno 17395 bound_to 11000

$$$$
