AV-unprocessed.smi:2772|AV-procd|sdf|10674|dock2
  -GOLD-   2272015123D 1   1.00000     0.00000
 Structure written by MMmdl.
 56 58  0  0  0  0  0  0  0  0  4 V2000
  132.5593  136.8057  153.7368 C   0  0  0  0  0  0  0  0  0  0  0  0
  134.0307  136.4759  153.8732 C   0  0  0  0  0  0  0  0  0  0  0  0
  134.9279  136.5540  152.7875 C   0  0  0  0  0  0  0  0  0  0  0  0
  136.2847  136.2269  152.9912 C   0  0  0  0  0  0  0  0  0  0  0  0
  136.7243  135.8193  154.2702 C   0  0  0  0  0  0  0  0  0  0  0  0
  138.1031  135.5069  154.4286 N   0  0  0  0  0  0  0  0  0  0  0  0
  139.0969  135.6250  153.5301 C   0  0  0  0  0  0  0  0  0  0  0  0
  138.9695  136.0597  152.3859 O   0  0  0  0  0  0  0  0  0  0  0  0
  140.2689  135.2206  154.0432 N   0  0  0  0  0  0  0  0  0  0  0  0
  141.5515  135.2263  153.3418 C   0  0  2  0  0  0  0  0  0  0  0  0
  141.6353  134.0421  152.3745 C   0  0  0  0  0  0  0  0  0  0  0  0
  143.0030  133.9931  151.6724 C   0  0  0  0  0  0  0  0  0  0  0  0
  144.1429  133.9344  152.6371 N   0  3  1  0  0  0  0  0  0  0  0  0
  145.4861  133.8304  151.9664 C   0  0  2  0  0  0  0  0  0  0  0  0
  145.5563  132.7531  150.8543 C   0  0  0  0  0  0  0  0  0  0  0  0
  145.4528  131.3269  151.4270 C   0  0  0  0  0  0  0  0  0  0  0  0
  146.5264  131.0725  152.4202 N   0  3  2  0  0  0  0  0  0  0  0  0
  146.5044  129.6857  152.9337 C   0  0  0  0  0  0  0  0  0  0  0  0
  146.5385  132.0808  153.5097 C   0  0  0  0  0  0  0  0  0  0  0  0
  146.6475  133.5074  152.9397 C   0  0  0  0  0  0  0  0  0  0  0  0
  144.0629  135.0599  153.6173 C   0  0  0  0  0  0  0  0  0  0  0  0
  142.7071  135.1200  154.3409 C   0  0  0  0  0  0  0  0  0  0  0  0
  135.7768  135.7748  155.3238 C   0  0  0  0  0  0  0  0  0  0  0  0
  134.4865  136.0970  155.0873 N   0  3  0  0  0  0  0  0  0  0  0  0
  132.3096  137.0750  152.7102 H   0  0  0  0  0  0  0  0  0  0  0  0
  132.2961  137.6437  154.3829 H   0  0  0  0  0  0  0  0  0  0  0  0
  131.9498  135.9472  154.0209 H   0  0  0  0  0  0  0  0  0  0  0  0
  134.5844  136.8596  151.8097 H   0  0  0  0  0  0  0  0  0  0  0  0
  136.9793  136.2839  152.1655 H   0  0  0  0  0  0  0  0  0  0  0  0
  138.3740  135.2012  155.3521 H   0  0  0  0  0  0  0  0  0  0  0  0
  140.2747  134.8824  154.9946 H   0  0  0  0  0  0  0  0  0  0  0  0
  141.6723  136.1481  152.7695 H   0  0  0  0  0  0  0  0  0  0  0  0
  141.4683  133.1073  152.9121 H   0  0  0  0  0  0  0  0  0  0  0  0
  140.8434  134.1145  151.6277 H   0  0  0  0  0  0  0  0  0  0  0  0
  142.9862  133.1130  151.0340 H   0  0  0  0  0  0  0  0  0  0  0  0
  143.1213  134.8605  151.0210 H   0  0  0  0  0  0  0  0  0  0  0  0
  145.6868  134.8005  151.5083 H   0  0  0  0  0  0  0  0  0  0  0  0
  144.8214  132.9107  150.0675 H   0  0  0  0  0  0  0  0  0  0  0  0
  146.5148  132.8459  150.3413 H   0  0  0  0  0  0  0  0  0  0  0  0
  144.4766  131.1727  151.8892 H   0  0  0  0  0  0  0  0  0  0  0  0
  145.5358  130.6031  150.6151 H   0  0  0  0  0  0  0  0  0  0  0  0
  145.5792  129.4818  153.4745 H   0  0  0  0  0  0  0  0  0  0  0  0
  147.3416  129.5117  153.6105 H   0  0  0  0  0  0  0  0  0  0  0  0
  146.5864  128.9708  152.1141 H   0  0  0  0  0  0  0  0  0  0  0  0
  145.6371  131.9813  154.1166 H   0  0  0  0  0  0  0  0  0  0  0  0
  147.3859  131.8879  154.1688 H   0  0  0  0  0  0  0  0  0  0  0  0
  147.5900  133.5868  152.3953 H   0  0  0  0  0  0  0  0  0  0  0  0
  146.7438  134.2377  153.7403 H   0  0  0  0  0  0  0  0  0  0  0  0
  144.8194  134.9588  154.3921 H   0  0  0  0  0  0  0  0  0  0  0  0
  144.2546  136.0036  153.1042 H   0  0  0  0  0  0  0  0  0  0  0  0
  142.6923  135.9743  155.0193 H   0  0  0  0  0  0  0  0  0  0  0  0
  142.5852  134.2306  154.9613 H   0  0  0  0  0  0  0  0  0  0  0  0
  135.9924  135.5068  156.3467 H   0  0  0  0  0  0  0  0  0  0  0  0
  144.0176  133.0856  153.1695 H   0  0  0  0  0  0  0  0  0  0  0  0
  147.4021  131.1763  151.9268 H   0  0  0  0  0  0  0  0  0  0  0  0
  133.8255  136.0538  155.8634 H   0  0  0  0  0  0  0  0  0  0  0  0
  1  2  1  0  0  0  0
  1 25  1  0  0  0  0
  1 26  1  0  0  0  0
  1 27  1  0  0  0  0
  2 24  1  0  0  0  0
  2  3  2  0  0  0  0
  3  4  1  0  0  0  0
  3 28  1  0  0  0  0
  4  5  2  0  0  0  0
  4 29  1  0  0  0  0
  5  6  1  0  0  0  0
  5 23  1  0  0  0  0
  6  7  1  0  0  0  0
  6 30  1  0  0  0  0
  7  8  2  0  0  0  0
  7  9  1  0  0  0  0
  9 10  1  0  0  0  0
  9 31  1  0  0  0  0
 10 22  1  0  0  0  0
 10 11  1  0  0  0  0
 10 32  1  0  0  0  0
 11 12  1  0  0  0  0
 11 33  1  0  0  0  0
 11 34  1  0  0  0  0
 12 13  1  0  0  0  0
 12 35  1  0  0  0  0
 12 36  1  0  0  0  0
 13 14  1  0  0  0  0
 13 21  1  0  0  0  0
 13 54  1  0  0  0  0
 14 20  1  0  0  0  0
 14 15  1  0  0  0  0
 14 37  1  0  0  0  0
 15 16  1  0  0  0  0
 15 38  1  0  0  0  0
 15 39  1  0  0  0  0
 16 17  1  0  0  0  0
 16 40  1  0  0  0  0
 16 41  1  0  0  0  0
 17 18  1  0  0  0  0
 17 19  1  0  0  0  0
 17 55  1  0  0  0  0
 18 42  1  0  0  0  0
 18 43  1  0  0  0  0
 18 44  1  0  0  0  0
 19 20  1  0  0  0  0
 19 45  1  0  0  0  0
 19 46  1  0  0  0  0
 20 47  1  0  0  0  0
 20 48  1  0  0  0  0
 21 22  1  0  0  0  0
 21 49  1  0  0  0  0
 21 50  1  0  0  0  0
 22 51  1  0  0  0  0
 22 52  1  0  0  0  0
 23 24  2  0  0  0  0
 23 53  1  0  0  0  0
 24 56  1  0  0  0  0
M  CHG  1  13   1
M  CHG  1  17   1
M  CHG  1  24   1
M  END
> <s_m_source_file>
AV-unprocessed.smi

> <i_m_source_file_index>
2772

> <i_lp_mmshare_version>
43012

> <i_f3d_flags>
0

> <s_epik_input>
W0NIM11jMVtjSF1bY0hdYyhbY0hdbjEpW05IXUMoPU8pW05IXVtDSF0yW0NIMl1bQ0gyXU4oW0NIMl1bQ0gyXTIpW0NIXTNbQ0gyXVtDSDJdTihbQ0gzXSlbQ0gyXVtDSDJdMw==

> <s_epik_cmdline>
J2VwaWtfcHl0aG9uJywgJy1waCcsICc3LjAnLCAnLXRuJywgJzgnLCAnLW1hJywgJzIwMCcsICctbWV0YWxfYmluZGluZycsICctaW1hZScsICc8aW5maWxlLm1hZT4nLCAnLW9tYWUnLCAnPG91dGZpbGUubWFlPic=

> <r_epik_Ionization_Penalty>
2.34117

> <r_epik_Ionization_Penalty_Charging>
2.34115

> <r_epik_Ionization_Penalty_Neutral>
2.22786e-05

> <r_epik_State_Penalty>
2.43944

> <r_epik_Charging_Adjusted_Penalty>
4.78059

> <i_epik_Tot_Q>
3

> <i_epik_Tot_abs_Q>
3

> <r_epik_Metal_State_Penalty>
2.45906

> <b_epik_Metal_Only>
0

> <s_lp_Force_Field>
OPLS_2005

> <r_lp_Energy>
56.0688

> <b_lp_Chiralities_Consistent>
1

> <s_lp_Variant>
AV-unprocessed.smi:2772-11

> <Gold.Version>
5.8.1

> <Gold.Id.Protein>
6NUR|6NUR_protein|mol2

> <Gold.PLP.Fitness>
42.7282

> <Gold.PLP.PLP>
-37.8392

> <Gold.PLP.part.hbond>
-3.0000

> <Gold.PLP.part.metal>
0.0000

> <Gold.PLP.part.buried>
-6.7436

> <Gold.PLP.part.nonpolar>
-28.7327

> <Gold.PLP.part.repulsive>
0.3206

> <Gold.PLP.ligand.clash>
0.0000

> <Gold.PLP.ligand.torsion>
0.3189

> <Gold.PLP.Chemscore.Hbond>
1.8320

> <Gold.PLP.Chemscore.CHOScore>
0.0000

> <Gold.PLP.Chemscore.Metal>
0.0000

> <Gold.Chemscore.Hbonds>
donor molecule, donor type, donor heavy atom, donor atom, acceptor molecule, acceptor atom, score
      L1  H     9    31       P1 11000  1.00
      L1  H    17    55       P1 10747  0.32

> <Gold.PLP.Chemscore.Internal.Correction>
0.0308

> <Gold.Rescore>
     Score         DG    S(hbond)    S(metal)    S(lipo)     H(rot)  DE(clash)    DE(int)     intcor
     18.07     -19.76       1.75        0.00      98.93       1.22       0.07       1.62       ----

> <Gold.Chemscore.Fitness>
18.0663

> <Gold.Chemscore.DG>
-19.7573

> <Gold.Chemscore.ZeroCoef>
-5.4800

> <Gold.Chemscore.Hbond>
1.7459

> <Gold.Chemscore.Metal>
0.0000

> <Gold.Chemscore.Lipo>
98.9297

> <Gold.Chemscore.Internal_Hbond>
0.0000

> <Gold.Chemscore.DEClash>
0.0665

> <Gold.Chemscore.DEInternal>
1.6246

> <Gold.Chemscore.Rot>
1.2222

> <Gold.Chemscore.Internal.Correction>
   9.000000E+99

> <Gold.Chemscore.Hbonds>
donor molecule, donor type, donor heavy atom, donor atom, acceptor molecule, acceptor atom, score
      L1  H     9    31       P1 11000  0.33
      L1  H    13    54       P1 10957  0.02
      L1  H    17    55       P1 10747  0.33

> <Gold.Chemscore.Hbond.Weighted>
-5.8315

> <Gold.Chemscore.Metal.Weighted>
-0.0000

> <Gold.Chemscore.Lipo.Weighted>
-11.5748

> <Gold.Chemscore.Internal_Hbond.Weighted>
0.0000

> <Gold.Chemscore.DEClash.Weighted>
0.0665

> <Gold.Chemscore.DEInternal.Weighted>
1.6246

> <Gold.Chemscore.Rot.Weighted>
3.1289

> <Gold.Chemscore.Internal.Correction.Weighted>
   9.000000E+99

> <Gold.Protein.RotatedTorsions>
[ 6907 6896 6895 6894 ] final   69.43 input  -60.11 | X-H torsion
[ 7974 7965 7964 7962 ] final -158.57 input  175.53 | X-H torsion
[ 8008 7997 7996 7995 ] final   95.60 input   59.86 | X-H torsion
[ 10167 10162 10161 10158 ] final   10.15 input  -65.29 | X-H torsion
[ 10718 10713 10712 10709 ] final  134.86 input   66.30 | X-H torsion
[ 10763 10752 10751 10750 ] final  153.17 input  -60.55 | X-H torsion
[ 11005 11000 10999 10996 ] final  -73.00 input  -57.11 | X-H torsion

> <Gold.Protein.ActiveResidues>
 VAL166  LYS551  ARG553  GLY616  TRP617  ASP618  TYR619  PRO620  LYS621  CYS622 
 ASP623  PHE694  ASN695  SER759  ASP760  ASP761  ALA762  ILE779  LEU786  VAL792 
 PHE793  MET794  SER795  GLU796  ALA797  LYS798  CYS799  TRP800  GLU811  SER814 

> <Gold.Protein.RotatedAtoms>
  152.4685  134.5017  159.9726 H   0  0  0  0  0  0  0  0  0  0  0  0  # atno 6907 bound_to 6896
  151.5049  133.3491  159.2883 H   0  0  0  0  0  0  0  0  0  0  0  0  # atno 6908 bound_to 6896
  150.8682  134.8078  159.7197 H   0  0  0  0  0  0  0  0  0  0  0  0  # atno 6909 bound_to 6896
  144.7500  140.3808  143.6055 H   0  0  0  0  0  0  0  0  0  0  0  0  # atno 7974 bound_to 7965
  156.0706  140.3284  155.7571 H   0  0  0  0  0  0  0  0  0  0  0  0  # atno 8008 bound_to 7997
  155.5311  140.0593  157.2906 H   0  0  0  0  0  0  0  0  0  0  0  0  # atno 8009 bound_to 7997
  154.4528  140.1927  156.0485 H   0  0  0  0  0  0  0  0  0  0  0  0  # atno 8010 bound_to 7997
  140.6212  143.8200  150.7177 H   0  0  0  0  0  0  0  0  0  0  0  0  # atno 10167 bound_to 10162
  157.4630  131.1075  150.9897 H   0  0  0  0  0  0  0  0  0  0  0  0  # atno 10718 bound_to 10713
  154.1319  135.2826  155.3183 H   0  0  0  0  0  0  0  0  0  0  0  0  # atno 10763 bound_to 10752
  154.6349  135.5422  153.7726 H   0  0  0  0  0  0  0  0  0  0  0  0  # atno 10764 bound_to 10752
  153.0278  135.6472  154.1469 H   0  0  0  0  0  0  0  0  0  0  0  0  # atno 10765 bound_to 10752
  141.1616  133.6864  156.7144 H   0  0  0  0  0  0  0  0  0  0  0  0  # atno 11005 bound_to 11000
  145.6979  139.1654  143.2610 LP  0  0  0  0  0  0  0  0  0  0  0  0  # atno 17320 bound_to 7965
  146.1437  140.7023  142.9355 LP  0  0  0  0  0  0  0  0  0  0  0  0  # atno 17321 bound_to 7965
  140.1791  143.4130  152.1946 LP  0  0  0  0  0  0  0  0  0  0  0  0  # atno 17342 bound_to 10162
  139.5440  144.7282  151.4642 LP  0  0  0  0  0  0  0  0  0  0  0  0  # atno 17343 bound_to 10162
  157.0688  130.5855  149.5399 LP  0  0  0  0  0  0  0  0  0  0  0  0  # atno 17370 bound_to 10713
  156.0037  130.5121  150.7755 LP  0  0  0  0  0  0  0  0  0  0  0  0  # atno 17371 bound_to 10713
  140.2863  134.8277  157.3977 LP  0  0  0  0  0  0  0  0  0  0  0  0  # atno 17394 bound_to 11000
  140.1387  134.5000  155.8048 LP  0  0  0  0  0  0  0  0  0  0  0  0  # atno 17395 bound_to 11000

$$$$
