AV-unprocessed.smi:674|AV-procd|sdf|3300|dock8
  -GOLD-   22720 0263D 1   1.00000     0.00000
 Structure written by MMmdl.
 47 48  0  0  0  0  0  0  0  0  1 V2000
  149.1093  128.8003  155.0501 C   0  0  0  0  0  0  0  0  0  0  0  0
  147.8611  129.6085  155.4227 C   0  0  0  0  0  0  0  0  0  0  0  0
  147.8802  130.9866  154.8228 C   0  0  0  0  0  0  0  0  0  0  0  0
  148.7933  132.0461  155.0961 C   0  0  0  0  0  0  0  0  0  0  0  0
  148.3427  133.0513  154.2847 C   0  0  0  0  0  0  0  0  0  0  0  0
  148.8340  134.3102  154.1360 N   0  0  0  0  0  0  0  0  0  0  0  0
  149.6325  135.0048  154.9649 C   0  0  0  0  0  0  0  0  0  0  0  0
  150.1078  134.5849  156.0202 O   0  0  0  0  0  0  0  0  0  0  0  0
  149.8577  136.2394  154.4962 N   0  0  0  0  0  0  0  0  0  0  0  0
  150.6782  137.2393  155.1710 C   0  0  1  0  0  0  0  0  0  0  0  0
  151.5365  138.0486  154.2013 C   0  0  0  0  0  0  0  0  0  0  0  0
  151.2781  139.2566  155.1207 C   0  0  1  0  0  0  0  0  0  0  0  0
  152.3181  139.5688  156.2079 C   0  0  0  0  0  0  0  0  0  0  0  0
  150.9716  140.4430  154.3863 O   0  0  0  0  0  0  0  0  0  0  0  0
  150.4064  141.5160  155.1283 C   0  0  0  0  0  0  0  0  0  0  0  0
  149.9421  138.5556  155.5317 C   0  0  0  0  0  0  0  0  0  0  0  0
  148.7016  138.9121  154.6878 C   0  0  0  0  0  0  0  0  0  0  0  0
  149.5086  138.7000  156.9940 C   0  0  0  0  0  0  0  0  0  0  0  0
  147.2388  132.6020  153.5920 N   0  0  0  0  0  0  0  0  0  0  0  0
  146.4070  133.2791  152.6157 C   0  0  0  0  0  0  0  0  0  0  0  0
  146.9587  131.3246  153.9270 N   0  0  0  0  0  0  0  0  0  0  0  0
  149.0706  127.8020  155.4860 H   0  0  0  0  0  0  0  0  0  0  0  0
  150.0164  129.2859  155.4114 H   0  0  0  0  0  0  0  0  0  0  0  0
  149.1967  128.6885  153.9690 H   0  0  0  0  0  0  0  0  0  0  0  0
  146.9726  129.0725  155.0878 H   0  0  0  0  0  0  0  0  0  0  0  0
  147.7815  129.6742  156.5085 H   0  0  0  0  0  0  0  0  0  0  0  0
  149.6291  132.0468  155.7793 H   0  0  0  0  0  0  0  0  0  0  0  0
  148.5483  134.7861  153.2931 H   0  0  0  0  0  0  0  0  0  0  0  0
  149.4305  136.5093  153.6223 H   0  0  0  0  0  0  0  0  0  0  0  0
  151.2694  136.8392  155.9976 H   0  0  0  0  0  0  0  0  0  0  0  0
  152.5778  137.7300  154.1467 H   0  0  0  0  0  0  0  0  0  0  0  0
  151.0982  138.1518  153.2067 H   0  0  0  0  0  0  0  0  0  0  0  0
  152.4750  138.7222  156.8758 H   0  0  0  0  0  0  0  0  0  0  0  0
  152.0080  140.4152  156.8210 H   0  0  0  0  0  0  0  0  0  0  0  0
  153.2925  139.8069  155.7824 H   0  0  0  0  0  0  0  0  0  0  0  0
  150.2992  142.3823  154.4758 H   0  0  0  0  0  0  0  0  0  0  0  0
  151.0389  141.8113  155.9653 H   0  0  0  0  0  0  0  0  0  0  0  0
  149.4140  141.2726  155.5067 H   0  0  0  0  0  0  0  0  0  0  0  0
  148.3658  139.9306  154.8850 H   0  0  0  0  0  0  0  0  0  0  0  0
  147.8625  138.2501  154.9042 H   0  0  0  0  0  0  0  0  0  0  0  0
  148.8944  138.8420  153.6172 H   0  0  0  0  0  0  0  0  0  0  0  0
  149.3001  139.7399  157.2465 H   0  0  0  0  0  0  0  0  0  0  0  0
  150.2735  138.3443  157.6841 H   0  0  0  0  0  0  0  0  0  0  0  0
  148.6075  138.1231  157.2046 H   0  0  0  0  0  0  0  0  0  0  0  0
  146.6410  134.3429  152.5814 H   0  0  0  0  0  0  0  0  0  0  0  0
  145.3557  133.1613  152.8805 H   0  0  0  0  0  0  0  0  0  0  0  0
  146.5772  132.8474  151.6290 H   0  0  0  0  0  0  0  0  0  0  0  0
  1  2  1  0  0  0  0
  1 22  1  0  0  0  0
  1 23  1  0  0  0  0
  1 24  1  0  0  0  0
  2  3  1  0  0  0  0
  2 25  1  0  0  0  0
  2 26  1  0  0  0  0
  3 21  2  0  0  0  0
  3  4  1  0  0  0  0
  4  5  2  0  0  0  0
  4 27  1  0  0  0  0
  5  6  1  0  0  0  0
  5 19  1  0  0  0  0
  6  7  1  0  0  0  0
  6 28  1  0  0  0  0
  7  8  2  0  0  0  0
  7  9  1  0  0  0  0
  9 10  1  0  0  0  0
  9 29  1  0  0  0  0
 10 16  1  0  0  0  0
 10 11  1  0  0  0  0
 10 30  1  0  0  0  0
 11 12  1  0  0  0  0
 11 31  1  0  0  0  0
 11 32  1  0  0  0  0
 12 13  1  0  0  0  0
 12 14  1  0  0  0  0
 12 16  1  0  0  0  0
 13 33  1  0  0  0  0
 13 34  1  0  0  0  0
 13 35  1  0  0  0  0
 14 15  1  0  0  0  0
 15 36  1  0  0  0  0
 15 37  1  0  0  0  0
 15 38  1  0  0  0  0
 16 17  1  0  0  0  0
 16 18  1  0  0  0  0
 17 39  1  0  0  0  0
 17 40  1  0  0  0  0
 17 41  1  0  0  0  0
 18 42  1  0  0  0  0
 18 43  1  0  0  0  0
 18 44  1  0  0  0  0
 19 20  1  0  0  0  0
 19 21  1  0  0  0  0
 20 45  1  0  0  0  0
 20 46  1  0  0  0  0
 20 47  1  0  0  0  0
M  END
> <s_m_source_file>
AV-unprocessed.smi

> <i_m_source_file_index>
674

> <i_lp_mmshare_version>
43012

> <i_f3d_flags>
0

> <s_epik_input>
W0NIM11bQ0gyXWMxW2NIXWMobihuMSlbQ0gzXSlbTkhdQyg9TylbTkhdW0NAQEhdKEMyKFtDSDNdKVtDSDNdKVtDSDJdW0NAQF0yKFtDSDNdKU9bQ0gzXQ==

> <s_epik_cmdline>
J2VwaWtfcHl0aG9uJywgJy1waCcsICc3LjAnLCAnLXRuJywgJzgnLCAnLW1hJywgJzIwMCcsICctbWV0YWxfYmluZGluZycsICctaW1hZScsICc8aW5maWxlLm1hZT4nLCAnLW9tYWUnLCAnPG91dGZpbGUubWFlPic=

> <r_lp_tautomer_probability>
1

> <r_epik_Ionization_Penalty>
0.000101626

> <r_epik_Ionization_Penalty_Charging>
0

> <r_epik_Ionization_Penalty_Neutral>
0.000101626

> <r_epik_State_Penalty>
-0

> <r_epik_Charging_Adjusted_Penalty>
0

> <i_epik_Tot_Q>
0

> <i_epik_Tot_abs_Q>
0

> <r_epik_Metal_State_Penalty>
-0

> <b_epik_Metal_Only>
0

> <s_lp_Force_Field>
OPLS_2005

> <r_lp_Energy>
22.8754

> <b_lp_Chiralities_Consistent>
1

> <s_lp_Variant>
AV-unprocessed.smi:674-2

> <Gold.Version>
5.8.1

> <Gold.Id.Protein>
6NUR|6NUR_protein|mol2

> <Gold.PLP.Fitness>
42.7028

> <Gold.PLP.PLP>
-34.4319

> <Gold.PLP.part.hbond>
-3.7235

> <Gold.PLP.part.metal>
0.0000

> <Gold.PLP.part.buried>
-2.6226

> <Gold.PLP.part.nonpolar>
-28.3511

> <Gold.PLP.part.repulsive>
0.2931

> <Gold.PLP.ligand.clash>
0.0000

> <Gold.PLP.ligand.torsion>
0.3312

> <Gold.PLP.Chemscore.Hbond>
2.8500

> <Gold.PLP.Chemscore.CHOScore>
0.0000

> <Gold.PLP.Chemscore.Metal>
0.0000

> <Gold.Chemscore.Hbonds>
donor molecule, donor type, donor heavy atom, donor atom, acceptor molecule, acceptor atom, score
      L1  H     6    28       P1  7948  0.94
      L1  H     9    29       P1  7948  1.00
      P1  H  7989  7998       L1    14  0.13

> <Gold.PLP.Chemscore.Internal.Correction>
0.3833

> <Gold.Rescore>
     Score         DG    S(hbond)    S(metal)    S(lipo)     H(rot)  DE(clash)    DE(int)     intcor
     16.87     -17.44       2.55        0.00      59.25       1.37       0.03       0.53       ----

> <Gold.Chemscore.Fitness>
16.8750

> <Gold.Chemscore.DG>
-17.4403

> <Gold.Chemscore.ZeroCoef>
-5.4800

> <Gold.Chemscore.Hbond>
2.5522

> <Gold.Chemscore.Metal>
0.0000

> <Gold.Chemscore.Lipo>
59.2502

> <Gold.Chemscore.Internal_Hbond>
0.0000

> <Gold.Chemscore.DEClash>
0.0309

> <Gold.Chemscore.DEInternal>
0.5345

> <Gold.Chemscore.Rot>
1.3658

> <Gold.Chemscore.Internal.Correction>
   9.000000E+99

> <Gold.Chemscore.Hbonds>
donor molecule, donor type, donor heavy atom, donor atom, acceptor molecule, acceptor atom, score
      L1  H     6    28       P1  7948  0.47
      L1  H     9    29       P1  7948  0.80
      P1  H  7989  7998       L1    14  0.11

> <Gold.Chemscore.Hbond.Weighted>
-8.5244

> <Gold.Chemscore.Metal.Weighted>
-0.0000

> <Gold.Chemscore.Lipo.Weighted>
-6.9323

> <Gold.Chemscore.Internal_Hbond.Weighted>
0.0000

> <Gold.Chemscore.DEClash.Weighted>
0.0309

> <Gold.Chemscore.DEInternal.Weighted>
0.5345

> <Gold.Chemscore.Rot.Weighted>
3.4963

> <Gold.Chemscore.Internal.Correction.Weighted>
   9.000000E+99

> <Gold.Protein.RotatedTorsions>
[ 6907 6896 6895 6894 ] final   66.86 input  -60.11 | X-H torsion
[ 7974 7965 7964 7962 ] final   12.23 input  175.53 | X-H torsion
[ 8008 7997 7996 7995 ] final  -15.97 input   59.86 | X-H torsion
[ 10167 10162 10161 10158 ] final -141.53 input  -65.29 | X-H torsion
[ 10718 10713 10712 10709 ] final   -2.41 input   66.30 | X-H torsion
[ 10763 10752 10751 10750 ] final -133.78 input  -60.55 | X-H torsion
[ 11005 11000 10999 10996 ] final   15.95 input  -57.11 | X-H torsion

> <Gold.Protein.ActiveResidues>
 VAL166  LYS551  ARG553  GLY616  TRP617  ASP618  TYR619  PRO620  LYS621  CYS622 
 ASP623  PHE694  ASN695  SER759  ASP760  ASP761  ALA762  ILE779  LEU786  VAL792 
 PHE793  MET794  SER795  GLU796  ALA797  LYS798  CYS799  TRP800  GLU811  SER814 

> <Gold.Protein.RotatedAtoms>
  152.4511  134.5392  159.9833 H   0  0  0  0  0  0  0  0  0  0  0  0  # atno 6907 bound_to 6896
  151.5464  133.3418  159.2953 H   0  0  0  0  0  0  0  0  0  0  0  0  # atno 6908 bound_to 6896
  150.8440  134.7774  159.7018 H   0  0  0  0  0  0  0  0  0  0  0  0  # atno 6909 bound_to 6896
  146.2355  139.9368  142.8488 H   0  0  0  0  0  0  0  0  0  0  0  0  # atno 7974 bound_to 7965
  154.5089  140.2182  155.9195 H   0  0  0  0  0  0  0  0  0  0  0  0  # atno 8008 bound_to 7997
  156.1528  140.3158  155.8643 H   0  0  0  0  0  0  0  0  0  0  0  0  # atno 8009 bound_to 7997
  155.3905  140.0478  157.3031 H   0  0  0  0  0  0  0  0  0  0  0  0  # atno 8010 bound_to 7997
  139.8176  143.7618  152.2665 H   0  0  0  0  0  0  0  0  0  0  0  0  # atno 10167 bound_to 10162
  156.7912  130.5362  149.5735 H   0  0  0  0  0  0  0  0  0  0  0  0  # atno 10718 bound_to 10713
  154.8728  135.3755  154.4628 H   0  0  0  0  0  0  0  0  0  0  0  0  # atno 10763 bound_to 10752
  153.5294  135.7028  153.5696 H   0  0  0  0  0  0  0  0  0  0  0  0  # atno 10764 bound_to 10752
  153.3907  135.3973  155.1886 H   0  0  0  0  0  0  0  0  0  0  0  0  # atno 10765 bound_to 10752
  140.4526  134.1209  155.7704 H   0  0  0  0  0  0  0  0  0  0  0  0  # atno 11005 bound_to 11000
  145.1991  140.9846  143.4166 LP  0  0  0  0  0  0  0  0  0  0  0  0  # atno 17320 bound_to 7965
  144.9789  139.3803  143.6272 LP  0  0  0  0  0  0  0  0  0  0  0  0  # atno 17321 bound_to 7965
  139.7786  144.7452  151.0121 LP  0  0  0  0  0  0  0  0  0  0  0  0  # atno 17342 bound_to 10162
  140.7815  143.4567  151.0336 LP  0  0  0  0  0  0  0  0  0  0  0  0  # atno 17343 bound_to 10162
  156.1158  130.6073  151.0118 LP  0  0  0  0  0  0  0  0  0  0  0  0  # atno 17370 bound_to 10713
  157.6599  131.0882  150.7861 LP  0  0  0  0  0  0  0  0  0  0  0  0  # atno 17371 bound_to 10713
  141.1657  133.8707  157.1721 LP  0  0  0  0  0  0  0  0  0  0  0  0  # atno 17394 bound_to 11000
  139.9997  135.0033  157.0162 LP  0  0  0  0  0  0  0  0  0  0  0  0  # atno 17395 bound_to 11000

$$$$
