AV-unprocessed.smi:2238|AV-procd|sdf|9055|dock10
  -GOLD-   2272012263D 1   1.00000     0.00000
 Structure written by MMmdl.
 38 39  0  0  0  0  0  0  0  0  1 V2000
  151.2038  145.3379  159.7814 C   0  0  0  0  0  0  0  0  0  0  0  0
  151.8645  143.9844  159.9442 C   0  0  0  0  0  0  0  0  0  0  0  0
  152.5154  143.6504  161.1480 C   0  0  0  0  0  0  0  0  0  0  0  0
  153.1287  142.3924  161.2886 C   0  0  0  0  0  0  0  0  0  0  0  0
  153.0940  141.4653  160.2288 C   0  0  0  0  0  0  0  0  0  0  0  0
  153.8555  139.9274  160.4286 Cl  0  0  0  0  0  0  0  0  0  0  0  0
  152.4454  141.7843  159.0149 C   0  0  0  0  0  0  0  0  0  0  0  0
  152.4514  140.8267  158.0218 O   0  0  0  0  0  0  0  0  0  0  0  0
  151.3589  140.7857  157.1140 C   0  0  0  0  0  0  0  0  0  0  0  0
  151.8418  140.1712  155.7883 C   0  0  1  0  0  0  0  0  0  0  0  0
  152.9275  139.3129  156.0711 O   0  0  0  0  0  0  0  0  0  0  0  0
  150.7690  139.3224  155.0666 C   0  0  0  0  0  0  0  0  0  0  0  0
  149.5700  140.0948  154.6943 N   0  0  0  0  0  0  0  0  0  0  0  0
  149.6887  141.4993  154.7123 C   0  0  0  0  0  0  0  0  0  0  0  0
  148.6966  142.2727  154.4041 N   0  0  0  0  0  0  0  0  0  0  0  0
  147.4678  141.7106  154.0453 C   0  0  0  0  0  0  0  0  0  0  0  0
  146.3437  142.6596  153.6848 C   0  0  0  0  0  0  0  0  0  0  0  0
  147.2983  140.3687  154.0209 C   0  0  0  0  0  0  0  0  0  0  0  0
  148.3991  139.4708  154.3715 C   0  0  0  0  0  0  0  0  0  0  0  0
  148.2783  138.2455  154.3749 O   0  0  0  0  0  0  0  0  0  0  0  0
  151.8307  143.0561  158.8836 C   0  0  0  0  0  0  0  0  0  0  0  0
  151.1596  145.8752  160.7293 H   0  0  0  0  0  0  0  0  0  0  0  0
  150.1852  145.2223  159.4099 H   0  0  0  0  0  0  0  0  0  0  0  0
  151.7624  145.9461  159.0695 H   0  0  0  0  0  0  0  0  0  0  0  0
  152.5475  144.3552  161.9660 H   0  0  0  0  0  0  0  0  0  0  0  0
  153.6270  142.1388  162.2128 H   0  0  0  0  0  0  0  0  0  0  0  0
  150.5172  140.2206  157.5182 H   0  0  0  0  0  0  0  0  0  0  0  0
  151.0259  141.8101  156.9478 H   0  0  0  0  0  0  0  0  0  0  0  0
  152.1957  140.9599  155.1237 H   0  0  0  0  0  0  0  0  0  0  0  0
  152.8752  138.5660  155.4938 H   0  0  0  0  0  0  0  0  0  0  0  0
  151.1967  138.8938  154.1581 H   0  0  0  0  0  0  0  0  0  0  0  0
  150.5146  138.4575  155.6830 H   0  0  0  0  0  0  0  0  0  0  0  0
  150.6691  141.8851  154.9962 H   0  0  0  0  0  0  0  0  0  0  0  0
  145.4255  142.3777  154.2009 H   0  0  0  0  0  0  0  0  0  0  0  0
  146.1573  142.6314  152.6109 H   0  0  0  0  0  0  0  0  0  0  0  0
  146.5874  143.6856  153.9632 H   0  0  0  0  0  0  0  0  0  0  0  0
  146.3425  139.9501  153.7400 H   0  0  0  0  0  0  0  0  0  0  0  0
  151.3253  143.3442  157.9742 H   0  0  0  0  0  0  0  0  0  0  0  0
  1  2  1  0  0  0  0
  1 22  1  0  0  0  0
  1 23  1  0  0  0  0
  1 24  1  0  0  0  0
  2 21  1  0  0  0  0
  2  3  2  0  0  0  0
  3  4  1  0  0  0  0
  3 25  1  0  0  0  0
  4  5  2  0  0  0  0
  4 26  1  0  0  0  0
  5  6  1  0  0  0  0
  5  7  1  0  0  0  0
  7  8  1  0  0  0  0
  7 21  2  0  0  0  0
  8  9  1  0  0  0  0
  9 10  1  0  0  0  0
  9 27  1  0  0  0  0
  9 28  1  0  0  0  0
 10 11  1  0  0  0  0
 10 12  1  0  0  0  0
 10 29  1  0  0  0  0
 11 30  1  0  0  0  0
 12 13  1  0  0  0  0
 12 31  1  0  0  0  0
 12 32  1  0  0  0  0
 13 19  1  0  0  0  0
 13 14  1  0  0  0  0
 14 15  2  0  0  0  0
 14 33  1  0  0  0  0
 15 16  1  0  0  0  0
 16 17  1  0  0  0  0
 16 18  2  0  0  0  0
 17 34  1  0  0  0  0
 17 35  1  0  0  0  0
 17 36  1  0  0  0  0
 18 19  1  0  0  0  0
 18 37  1  0  0  0  0
 19 20  2  0  0  0  0
 21 38  1  0  0  0  0
M  END
> <s_m_source_file>
AV-unprocessed.smi

> <i_m_source_file_index>
2238

> <i_lp_mmshare_version>
43012

> <i_f3d_flags>
0

> <s_epik_input>
W0NIM11jMVtjSF1bY0hdYyhDbCljKFtjSF0xKU9bQ0gyXVtDQEhdKFtPSF0pW0NIMl1uMltjSF1uYyhbQ0gzXSlbY0hdYzI9Tw==

> <s_epik_cmdline>
J2VwaWtfcHl0aG9uJywgJy1waCcsICc3LjAnLCAnLXRuJywgJzgnLCAnLW1hJywgJzIwMCcsICctbWV0YWxfYmluZGluZycsICctaW1hZScsICc8aW5maWxlLm1hZT4nLCAnLW9tYWUnLCAnPG91dGZpbGUubWFlPic=

> <r_lp_tautomer_probability>
1

> <r_epik_Ionization_Penalty>
1.78029e-05

> <r_epik_Ionization_Penalty_Charging>
3.78421e-08

> <r_epik_Ionization_Penalty_Neutral>
1.7765e-05

> <r_epik_State_Penalty>
-0

> <r_epik_Charging_Adjusted_Penalty>
3.78421e-08

> <i_epik_Tot_Q>
0

> <i_epik_Tot_abs_Q>
0

> <r_epik_Metal_State_Penalty>
-0

> <b_epik_Metal_Only>
0

> <s_lp_Force_Field>
OPLS_2005

> <r_lp_Energy>
22.1977

> <b_lp_Chiralities_Consistent>
1

> <s_lp_Variant>
AV-unprocessed.smi:2238-2

> <Gold.Version>
5.8.1

> <Gold.Id.Protein>
6NUR|6NUR_protein|mol2

> <Gold.PLP.Fitness>
48.8306

> <Gold.PLP.PLP>
-48.1960

> <Gold.PLP.part.hbond>
-2.2948

> <Gold.PLP.part.metal>
0.0000

> <Gold.PLP.part.buried>
-5.0084

> <Gold.PLP.part.nonpolar>
-42.8804

> <Gold.PLP.part.repulsive>
2.6458

> <Gold.PLP.ligand.clash>
0.0343

> <Gold.PLP.ligand.torsion>
1.1846

> <Gold.PLP.Chemscore.Hbond>
1.0092

> <Gold.PLP.Chemscore.CHOScore>
0.0000

> <Gold.PLP.Chemscore.Metal>
0.0000

> <Gold.Chemscore.Hbonds>
donor molecule, donor type, donor heavy atom, donor atom, acceptor molecule, acceptor atom, score
      P1  H  7997  8008       L1    11  1.00
      P1  H  8011  8017       L1    15  0.01

> <Gold.PLP.Chemscore.Internal.Correction>
0.0105

> <Gold.Rescore>
     Score         DG    S(hbond)    S(metal)    S(lipo)     H(rot)  DE(clash)    DE(int)     intcor
     15.13     -16.60       0.97        0.00     121.39       2.47       0.19       1.28       ----

> <Gold.Chemscore.Fitness>
15.1260

> <Gold.Chemscore.DG>
-16.6035

> <Gold.Chemscore.ZeroCoef>
-5.4800

> <Gold.Chemscore.Hbond>
0.9728

> <Gold.Chemscore.Metal>
0.0000

> <Gold.Chemscore.Lipo>
121.3864

> <Gold.Chemscore.Internal_Hbond>
0.0000

> <Gold.Chemscore.DEClash>
0.1950

> <Gold.Chemscore.DEInternal>
1.2826

> <Gold.Chemscore.Rot>
2.4718

> <Gold.Chemscore.Internal.Correction>
   9.000000E+99

> <Gold.Chemscore.Hbonds>
donor molecule, donor type, donor heavy atom, donor atom, acceptor molecule, acceptor atom, score
      P1  H  7997  8008       L1    11  0.80

> <Gold.Chemscore.Hbond.Weighted>
-3.2492

> <Gold.Chemscore.Metal.Weighted>
-0.0000

> <Gold.Chemscore.Lipo.Weighted>
-14.2022

> <Gold.Chemscore.Internal_Hbond.Weighted>
0.0000

> <Gold.Chemscore.DEClash.Weighted>
0.1950

> <Gold.Chemscore.DEInternal.Weighted>
1.2826

> <Gold.Chemscore.Rot.Weighted>
6.3279

> <Gold.Chemscore.Internal.Correction.Weighted>
   9.000000E+99

> <Gold.Protein.RotatedTorsions>
[ 6907 6896 6895 6894 ] final -109.19 input  -60.11 | X-H torsion
[ 7974 7965 7964 7962 ] final -112.83 input  175.53 | X-H torsion
[ 8008 7997 7996 7995 ] final  -36.45 input   59.86 | X-H torsion
[ 10167 10162 10161 10158 ] final   93.23 input  -65.29 | X-H torsion
[ 10718 10713 10712 10709 ] final   26.68 input   66.30 | X-H torsion
[ 10763 10752 10751 10750 ] final   36.31 input  -60.55 | X-H torsion
[ 11005 11000 10999 10996 ] final -115.22 input  -57.11 | X-H torsion

> <Gold.Protein.ActiveResidues>
 VAL166  LYS551  ARG553  GLY616  TRP617  ASP618  TYR619  PRO620  LYS621  CYS622 
 ASP623  PHE694  ASN695  SER759  ASP760  ASP761  ALA762  ILE779  LEU786  VAL792 
 PHE793  MET794  SER795  GLU796  ALA797  LYS798  CYS799  TRP800  GLU811  SER814 

> <Gold.Protein.RotatedAtoms>
  150.7547  133.9566  159.3502 H   0  0  0  0  0  0  0  0  0  0  0  0  # atno 6907 bound_to 6896
  151.7488  135.0835  160.0337 H   0  0  0  0  0  0  0  0  0  0  0  0  # atno 6908 bound_to 6896
  152.3480  133.6108  159.5960 H   0  0  0  0  0  0  0  0  0  0  0  0  # atno 6909 bound_to 6896
  145.1393  140.8769  143.3711 H   0  0  0  0  0  0  0  0  0  0  0  0  # atno 7974 bound_to 7965
  154.4073  140.1630  156.2377 H   0  0  0  0  0  0  0  0  0  0  0  0  # atno 8008 bound_to 7997
  155.9228  140.3420  155.6164 H   0  0  0  0  0  0  0  0  0  0  0  0  # atno 8009 bound_to 7997
  155.7201  140.0767  157.2325 H   0  0  0  0  0  0  0  0  0  0  0  0  # atno 8010 bound_to 7997
  139.8200  144.6735  150.9531 H   0  0  0  0  0  0  0  0  0  0  0  0  # atno 10167 bound_to 10162
  157.2101  130.6930  149.6225 H   0  0  0  0  0  0  0  0  0  0  0  0  # atno 10718 bound_to 10713
  153.0082  135.6309  154.1965 H   0  0  0  0  0  0  0  0  0  0  0  0  # atno 10763 bound_to 10752
  154.1708  135.2818  155.3083 H   0  0  0  0  0  0  0  0  0  0  0  0  # atno 10764 bound_to 10752
  154.5910  135.5618  153.7338 H   0  0  0  0  0  0  0  0  0  0  0  0  # atno 10765 bound_to 10752
  141.0501  133.9700  157.2850 H   0  0  0  0  0  0  0  0  0  0  0  0  # atno 11005 bound_to 11000
  145.0549  139.3151  143.5910 LP  0  0  0  0  0  0  0  0  0  0  0  0  # atno 17320 bound_to 7965
  146.3506  139.9970  142.8680 LP  0  0  0  0  0  0  0  0  0  0  0  0  # atno 17321 bound_to 7965
  140.7814  143.4101  151.1007 LP  0  0  0  0  0  0  0  0  0  0  0  0  # atno 17342 bound_to 10162
  139.7762  143.8422  152.3129 LP  0  0  0  0  0  0  0  0  0  0  0  0  # atno 17343 bound_to 10162
  155.9691  130.4554  150.5886 LP  0  0  0  0  0  0  0  0  0  0  0  0  # atno 17370 bound_to 10713
  157.3681  131.0761  151.1581 LP  0  0  0  0  0  0  0  0  0  0  0  0  # atno 17371 bound_to 10713
  139.9344  135.0197  156.8506 LP  0  0  0  0  0  0  0  0  0  0  0  0  # atno 17394 bound_to 11000
  140.6071  134.0118  155.7561 LP  0  0  0  0  0  0  0  0  0  0  0  0  # atno 17395 bound_to 11000

$$$$
