#       Name:                AV-unprocessed.smi:1830
#       Creating user name   scv26
#       Creation time:       Fri Mar 27 09:13:15 2020


#       File generated by GOLD software.
#

@<TRIPOS>MOLECULE
AV-unprocessed.smi:1830
    59    62     1
SMALL
NO_CHARGES


@<TRIPOS>ATOM
      1 ****         1.3621   2.1559  -0.9408 O.2            1 S1                 0.0000
      2 ****         0.7666   1.1026  -1.1663 C.2            1 S1                 0.0000
      3 ****         1.3840  -0.0735  -1.3454 N.am           1 S1                 0.0000
      4 ****         2.8279  -0.2911  -1.3093 C.3            1 S1                 0.0000
      5 ****         3.2995  -0.8933   0.0267 C.3            1 S1                 0.0000
      6 ****         3.0450   0.0138   1.2554 C.3            1 S1                 0.0000
      7 ****         3.4589  -0.6739   2.4629 N.3            1 S1                 0.0000
      8 ****         3.2224   0.0037   3.7163 C.3            1 S1                 0.0000
      9 ****         3.3705  -1.1016   4.7767 C.3            1 S1                 0.0000
     10 ****         3.1598  -2.4171   3.9941 C.3            1 S1                 0.0000
     11 ****         2.7609  -1.9237   2.6019 C.3            1 S1                 0.0000
     12 ****         3.0543  -2.8465   1.4095 C.3            1 S1                 0.0000
     13 ****         2.6681  -2.1671   0.2114 O.3            1 S1                 0.0000
     14 ****        -0.5656   0.9692  -1.2778 N.am           1 S1                 0.0000
     15 ****        -1.5758   1.9707  -1.1872 C.ar           1 S1                 0.0000
     16 ****        -1.3974   3.1769  -0.4658 C.ar           1 S1                 0.0000
     17 ****        -2.4474   4.1111  -0.4176 C.ar           1 S1                 0.0000
     18 ****        -3.6457   3.8035  -1.0844 C.ar           1 S1                 0.0000
     19 ****        -3.8385   2.6530  -1.7599 N.ar           1 S1                 0.0000
     20 ****        -2.8307   1.7481  -1.8167 C.ar           1 S1                 0.0000
     21 ****        -3.0770   0.5380  -2.4986 N.3            1 S1                 0.0000
     22 ****        -3.3868  -0.5763  -1.6064 C.3            1 S1                 0.0000
     23 ****        -4.4692  -1.4037  -2.3029 C.3            1 S1                 0.0000
     24 ****        -5.1732  -0.3792  -3.1841 C.3            1 S1                 0.0000
     25 ****        -4.0230   0.5293  -3.6134 C.3            1 S1                 0.0000
     26 ****         0.8119  -0.8864  -1.5218 H              1 S1                 0.0000
     27 ****         3.0816  -0.9718  -2.1223 H              1 S1                 0.0000
     28 ****         3.3686   0.6344  -1.5134 H              1 S1                 0.0000
     29 ****         4.3739  -1.0683  -0.0528 H              1 S1                 0.0000
     30 ****         3.5930   0.9508   1.1530 H              1 S1                 0.0000
     31 ****         1.9874   0.2700   1.3252 H              1 S1                 0.0000
     32 ****         3.9201   0.8279   3.8670 H              1 S1                 0.0000
     33 ****         2.2092   0.4083   3.7410 H              1 S1                 0.0000
     34 ****         4.3655  -1.0831   5.2227 H              1 S1                 0.0000
     35 ****         2.6414  -0.9788   5.5781 H              1 S1                 0.0000
     36 ****         4.0917  -2.9826   3.9521 H              1 S1                 0.0000
     37 ****         2.3956  -3.0544   4.4398 H              1 S1                 0.0000
     38 ****         1.6864  -1.7271   2.6173 H              1 S1                 0.0000
     39 ****         4.1132  -3.1062   1.3643 H              1 S1                 0.0000
     40 ****         2.4930  -3.7770   1.4943 H              1 S1                 0.0000
     41 ****        -0.8950   0.0533  -1.5456 H              1 S1                 0.0000
     42 ****        -0.4836   3.3991   0.0628 H              1 S1                 0.0000
     43 ****        -2.3377   5.0399   0.1223 H              1 S1                 0.0000
     44 ****        -4.4749   4.4950  -1.0682 H              1 S1                 0.0000
     45 ****        -2.4985  -1.1749  -1.4041 H              1 S1                 0.0000
     46 ****        -3.7617  -0.2033  -0.6514 H              1 S1                 0.0000
     47 ****        -4.0066  -2.1702  -2.9265 H              1 S1                 0.0000
     48 ****        -5.1416  -1.8981  -1.6013 H              1 S1                 0.0000
     49 ****        -5.6988  -0.8276  -4.0277 H              1 S1                 0.0000
     50 ****        -5.8950   0.1873  -2.5937 H              1 S1                 0.0000
     51 ****        -4.3746   1.5162  -3.9147 H              1 S1                 0.0000
     52 ****        -3.5129   0.0991  -4.4759 H              1 S1                 0.0000
     53 ****         2.3604   2.1634  -0.8828 LP             1 S1                 0.0000
     54 ****         0.8476   3.0042  -0.8155 LP             1 S1                 0.0000
     55 ****         4.4460  -0.7526   2.3239 LP             1 S1                 0.0000
     56 ****         2.9019  -2.7486  -0.5678 LP             1 S1                 0.0000
     57 ****         1.6785  -2.0256   0.2366 LP             1 S1                 0.0000
     58 ****        -4.7114   2.4699  -2.2121 LP             1 S1                 0.0000
     59 ****        -2.1832   0.4218  -2.9317 LP             1 S1                 0.0000
@<TRIPOS>BOND
    1    1    2 2     
    2    2    3 am    
    3    2   14 am    
    4    3    4 1     
    5    3   26 1     
    6    4    5 1     
    7    4   27 1     
    8    4   28 1     
    9    5   13 1     
   10    5    6 1     
   11    5   29 1     
   12    6    7 1     
   13    6   30 1     
   14    6   31 1     
   15    7   11 1     
   16    7    8 1     
   17    8    9 1     
   18    8   32 1     
   19    8   33 1     
   20    9   10 1     
   21    9   34 1     
   22    9   35 1     
   23   10   11 1     
   24   10   36 1     
   25   10   37 1     
   26   11   12 1     
   27   11   38 1     
   28   12   13 1     
   29   12   39 1     
   30   12   40 1     
   31   14   15 1     
   32   14   41 1     
   33   15   20 ar    
   34   15   16 ar    
   35   16   17 ar    
   36   16   42 1     
   37   17   18 ar    
   38   17   43 1     
   39   18   19 ar    
   40   18   44 1     
   41   19   20 ar    
   42   20   21 1     
   43   21   25 1     
   44   21   22 1     
   45   22   23 1     
   46   22   45 1     
   47   22   46 1     
   48   23   24 1     
   49   23   47 1     
   50   23   48 1     
   51   24   25 1     
   52   24   49 1     
   53   24   50 1     
   54   25   51 1     
   55   25   52 1     
   56    1   53 1     
   57    1   54 1     
   58    7   55 1     
   59   13   56 1     
   60   13   57 1     
   61   19   58 1     
   62   21   59 1     
@<TRIPOS>SUBSTRUCTURE
      1 S1             1
@<TRIPOS>SET
LONE_PAIRS      STATIC     ATOMS    <user>   **** ""
7 53 54 55 56 57 58 59
DONOR_HYDROGENS      STATIC     ATOMS    <user>   **** ""
2 26 41
ATOM$BLUE        STATIC     ATOMS    COLORGROUP SYSTEM
7 53 54 55 56 57 58 59
ATOM$RED        STATIC     ATOMS    COLORGROUP SYSTEM
2 26 41
