AV-unprocessed.smi:203|AV-procd|sdf|1594|dock3
  -GOLD-   2262019493D 1   1.00000     0.00000
 Structure written by MMmdl.
 57 61  0  0  0  0  0  0  0  0  1 V2000
  155.9622  138.8204  160.1333 O   0  0  0  0  0  0  0  0  0  0  0  0
  154.8915  138.9161  159.5383 C   0  0  0  0  0  0  0  0  0  0  0  0
  153.6881  139.6609  160.0904 C   0  0  0  0  0  0  0  0  0  0  0  0
  152.7110  139.7062  158.8975 C   0  0  1  0  0  0  0  0  0  0  0  0
  152.5100  141.1260  158.2782 C   0  0  2  0  0  0  0  0  0  0  0  0
  152.6949  142.2658  159.3153 C   0  0  0  0  0  0  0  0  0  0  0  0
  152.4968  143.6491  158.6818 C   0  0  0  0  0  0  0  0  0  0  0  0
  151.1236  143.7212  158.0056 C   0  0  0  0  0  0  0  0  0  0  0  0
  150.9728  142.5875  156.9828 C   0  0  0  0  0  0  0  0  0  0  0  0
  151.2122  141.2812  157.5958 N   0  0  0  0  0  0  0  0  0  0  0  0
  150.8554  140.2914  156.7471 C   0  0  0  0  0  0  0  0  0  0  0  0
  150.9620  140.5463  155.4202 N   0  0  0  0  0  0  0  0  0  0  0  0
  150.6125  139.6114  154.5314 C   0  0  0  0  0  0  0  0  0  0  0  0
  150.1457  138.3804  154.7532 N   0  0  0  0  0  0  0  0  0  0  0  0
  150.0469  138.1202  156.0884 C   0  0  0  0  0  0  0  0  0  0  0  0
  150.3793  139.0109  157.1472 C   0  0  0  0  0  0  0  0  0  0  0  0
  150.1483  138.3983  158.3732 N   0  0  0  0  0  0  0  0  0  0  0  0
  149.7002  137.2139  158.0570 C   0  0  0  0  0  0  0  0  0  0  0  0
  149.6038  136.9647  156.7070 N   0  0  0  0  0  0  0  0  0  0  0  0
  149.1326  135.7392  156.0852 C   0  0  0  0  0  0  0  0  0  0  0  0
  150.2394  134.6674  155.9877 C   0  0  1  0  0  0  0  0  0  0  0  0
  150.8326  134.5309  157.2649 O   0  0  0  0  0  0  0  0  0  0  0  0
  149.7100  133.2819  155.5651 C   0  0  1  0  0  0  0  0  0  0  0  0
  149.2275  133.1911  154.1156 C   0  0  0  0  0  0  0  0  0  0  0  0
  149.3677  131.7154  153.7813 C   0  0  0  0  0  0  0  0  0  0  0  0
  150.3286  131.1877  154.8488 C   0  0  0  0  0  0  0  0  0  0  0  0
  150.7735  132.3408  155.5496 O   0  0  0  0  0  0  0  0  0  0  0  0
  153.2669  138.6759  157.8911 C   0  0  0  0  0  0  0  0  0  0  0  0
  154.6157  138.3962  158.3440 N   0  0  0  0  0  0  0  0  0  0  0  0
  153.2665  139.0934  160.9205 H   0  0  0  0  0  0  0  0  0  0  0  0
  153.9644  140.6477  160.4628 H   0  0  0  0  0  0  0  0  0  0  0  0
  151.7449  139.3229  159.2271 H   0  0  0  0  0  0  0  0  0  0  0  0
  153.2825  141.2601  157.5203 H   0  0  0  0  0  0  0  0  0  0  0  0
  151.9831  142.1524  160.1331 H   0  0  0  0  0  0  0  0  0  0  0  0
  153.6854  142.2251  159.7668 H   0  0  0  0  0  0  0  0  0  0  0  0
  152.5839  144.4268  159.4411 H   0  0  0  0  0  0  0  0  0  0  0  0
  153.2819  143.8361  157.9481 H   0  0  0  0  0  0  0  0  0  0  0  0
  150.3369  143.6447  158.7576 H   0  0  0  0  0  0  0  0  0  0  0  0
  150.9953  144.6870  157.5164 H   0  0  0  0  0  0  0  0  0  0  0  0
  149.9712  142.6193  156.5511 H   0  0  0  0  0  0  0  0  0  0  0  0
  151.6768  142.7373  156.1628 H   0  0  0  0  0  0  0  0  0  0  0  0
  150.7207  139.8905  153.4937 H   0  0  0  0  0  0  0  0  0  0  0  0
  149.4215  136.4848  158.8042 H   0  0  0  0  0  0  0  0  0  0  0  0
  148.2807  135.3598  156.6512 H   0  0  0  0  0  0  0  0  0  0  0  0
  148.7571  135.9964  155.0946 H   0  0  0  0  0  0  0  0  0  0  0  0
  151.0001  135.0003  155.2804 H   0  0  0  0  0  0  0  0  0  0  0  0
  151.5712  135.1183  157.3170 H   0  0  0  0  0  0  0  0  0  0  0  0
  148.9206  132.9396  156.2377 H   0  0  0  0  0  0  0  0  0  0  0  0
  148.2088  133.5572  153.9846 H   0  0  0  0  0  0  0  0  0  0  0  0
  149.8819  133.7735  153.4653 H   0  0  0  0  0  0  0  0  0  0  0  0
  148.4082  131.2008  153.8449 H   0  0  0  0  0  0  0  0  0  0  0  0
  149.7595  131.5754  152.7734 H   0  0  0  0  0  0  0  0  0  0  0  0
  149.8088  130.5232  155.5404 H   0  0  0  0  0  0  0  0  0  0  0  0
  151.1708  130.6435  154.4206 H   0  0  0  0  0  0  0  0  0  0  0  0
  152.6894  137.7511  157.9247 H   0  0  0  0  0  0  0  0  0  0  0  0
  153.2582  139.0300  156.8603 H   0  0  0  0  0  0  0  0  0  0  0  0
  155.2730  137.8606  157.7955 H   0  0  0  0  0  0  0  0  0  0  0  0
  1  2  2  0  0  0  0
  2 29  1  0  0  0  0
  2  3  1  0  0  0  0
  3  4  1  0  0  0  0
  3 30  1  0  0  0  0
  3 31  1  0  0  0  0
  4  5  1  0  0  0  0
  4 28  1  0  0  0  0
  4 32  1  0  0  0  0
  5 10  1  0  0  0  0
  5  6  1  0  0  0  0
  5 33  1  0  0  0  0
  6  7  1  0  0  0  0
  6 34  1  0  0  0  0
  6 35  1  0  0  0  0
  7  8  1  0  0  0  0
  7 36  1  0  0  0  0
  7 37  1  0  0  0  0
  8  9  1  0  0  0  0
  8 38  1  0  0  0  0
  8 39  1  0  0  0  0
  9 10  1  0  0  0  0
  9 40  1  0  0  0  0
  9 41  1  0  0  0  0
 10 11  1  0  0  0  0
 11 16  1  0  0  0  0
 11 12  2  0  0  0  0
 12 13  1  0  0  0  0
 13 14  2  0  0  0  0
 13 42  1  0  0  0  0
 14 15  1  0  0  0  0
 15 19  1  0  0  0  0
 15 16  2  0  0  0  0
 16 17  1  0  0  0  0
 17 18  2  0  0  0  0
 18 19  1  0  0  0  0
 18 43  1  0  0  0  0
 19 20  1  0  0  0  0
 20 21  1  0  0  0  0
 20 44  1  0  0  0  0
 20 45  1  0  0  0  0
 21 22  1  0  0  0  0
 21 23  1  0  0  0  0
 21 46  1  0  0  0  0
 22 47  1  0  0  0  0
 23 27  1  0  0  0  0
 23 24  1  0  0  0  0
 23 48  1  0  0  0  0
 24 25  1  0  0  0  0
 24 49  1  0  0  0  0
 24 50  1  0  0  0  0
 25 26  1  0  0  0  0
 25 51  1  0  0  0  0
 25 52  1  0  0  0  0
 26 27  1  0  0  0  0
 26 53  1  0  0  0  0
 26 54  1  0  0  0  0
 28 29  1  0  0  0  0
 28 55  1  0  0  0  0
 28 56  1  0  0  0  0
 29 57  1  0  0  0  0
M  END
> <s_m_source_file>
AV-unprocessed.smi

> <i_m_source_file_index>
203

> <i_lp_mmshare_version>
43012

> <i_f3d_flags>
0

> <s_epik_input>
Tz1DMVtDSDJdW0NASF0oW0NIMl1bTkhdMSlbQ0BASF0yW0NIMl1bQ0gyXVtDSDJdW0NIMl1OMmMobltjSF1uMyljKGMzNCluW2NIXW40W0NIMl1bQ0BIXShbT0hdKVtDQEBIXTVbQ0gyXVtDSDJdW0NIMl1PNQ==

> <s_epik_cmdline>
J2VwaWtfcHl0aG9uJywgJy1waCcsICc3LjAnLCAnLXRuJywgJzgnLCAnLW1hJywgJzIwMCcsICctbWV0YWxfYmluZGluZycsICctaW1hZScsICc8aW5maWxlLm1hZT4nLCAnLW9tYWUnLCAnPG91dGZpbGUubWFlPic=

> <r_lp_tautomer_probability>
1

> <r_epik_Ionization_Penalty>
0.00175146

> <r_epik_Ionization_Penalty_Charging>
0

> <r_epik_Ionization_Penalty_Neutral>
0.00175146

> <r_epik_State_Penalty>
0.00109045

> <r_epik_Charging_Adjusted_Penalty>
0.00109045

> <i_epik_Tot_Q>
0

> <i_epik_Tot_abs_Q>
0

> <r_epik_Metal_State_Penalty>
-0

> <b_epik_Metal_Only>
0

> <s_lp_Force_Field>
OPLS_2005

> <r_lp_Energy>
57.3178

> <b_lp_Chiralities_Consistent>
1

> <s_lp_Variant>
AV-unprocessed.smi:203-13

> <Gold.Version>
5.8.1

> <Gold.Id.Protein>
6NUR|6NUR_protein|mol2

> <Gold.PLP.Fitness>
39.8461

> <Gold.PLP.PLP>
-39.3420

> <Gold.PLP.part.hbond>
-2.0000

> <Gold.PLP.part.metal>
0.0000

> <Gold.PLP.part.buried>
-3.9871

> <Gold.PLP.part.nonpolar>
-33.2282

> <Gold.PLP.part.repulsive>
1.0593

> <Gold.PLP.ligand.clash>
0.0875

> <Gold.PLP.ligand.torsion>
1.6658

> <Gold.PLP.Chemscore.Hbond>
0.3557

> <Gold.PLP.Chemscore.CHOScore>
0.8619

> <Gold.PLP.Chemscore.Metal>
0.0000

> <Gold.Chemscore.Hbonds>
donor molecule, donor type, donor heavy atom, donor atom, acceptor molecule, acceptor atom, score
      P1  H  6896  6908       L1    22  0.33
      L1  C    13    42       P1  7957  0.89

> <Gold.PLP.Chemscore.Internal.Correction>
0.2705

> <Gold.Rescore>
     Score         DG    S(hbond)    S(metal)    S(lipo)     H(rot)  DE(clash)    DE(int)     intcor
      6.33     -11.05       0.11        0.00     104.00       2.72       0.18       4.55       ----

> <Gold.Chemscore.Fitness>
6.3258

> <Gold.Chemscore.DG>
-11.0504

> <Gold.Chemscore.ZeroCoef>
-5.4800

> <Gold.Chemscore.Hbond>
0.1073

> <Gold.Chemscore.Metal>
0.0000

> <Gold.Chemscore.Lipo>
103.9993

> <Gold.Chemscore.Internal_Hbond>
0.0000

> <Gold.Chemscore.DEClash>
0.1771

> <Gold.Chemscore.DEInternal>
4.5476

> <Gold.Chemscore.Rot>
2.7171

> <Gold.Chemscore.Internal.Correction>
   9.000000E+99

> <Gold.Chemscore.Hbonds>
donor molecule, donor type, donor heavy atom, donor atom, acceptor molecule, acceptor atom, score
      P1  H  6896  6908       L1    22  0.06

> <Gold.Chemscore.Hbond.Weighted>
-0.3582

> <Gold.Chemscore.Metal.Weighted>
-0.0000

> <Gold.Chemscore.Lipo.Weighted>
-12.1679

> <Gold.Chemscore.Internal_Hbond.Weighted>
0.0000

> <Gold.Chemscore.DEClash.Weighted>
0.1771

> <Gold.Chemscore.DEInternal.Weighted>
4.5476

> <Gold.Chemscore.Rot.Weighted>
6.9557

> <Gold.Chemscore.Internal.Correction.Weighted>
   9.000000E+99

> <Gold.Protein.RotatedTorsions>
[ 6907 6896 6895 6894 ] final  127.17 input  -60.11 | X-H torsion
[ 7974 7965 7964 7962 ] final  108.16 input  175.53 | X-H torsion
[ 8008 7997 7996 7995 ] final  -85.90 input   59.86 | X-H torsion
[ 10167 10162 10161 10158 ] final  158.77 input  -65.29 | X-H torsion
[ 10718 10713 10712 10709 ] final   -0.34 input   66.30 | X-H torsion
[ 10763 10752 10751 10750 ] final  -93.91 input  -60.55 | X-H torsion
[ 11005 11000 10999 10996 ] final  -24.00 input  -57.11 | X-H torsion

> <Gold.Protein.ActiveResidues>
 VAL166  LYS551  ARG553  GLY616  TRP617  ASP618  TYR619  PRO620  LYS621  CYS622 
 ASP623  PHE694  ASN695  SER759  ASP760  ASP761  ALA762  ILE779  LEU786  VAL792 
 PHE793  MET794  SER795  GLU796  ALA797  LYS798  CYS799  TRP800  GLU811  SER814 

> <Gold.Protein.RotatedAtoms>
  152.3837  133.6581  159.6181 H   0  0  0  0  0  0  0  0  0  0  0  0  # atno 6907 bound_to 6896
  150.7761  133.9072  159.3367 H   0  0  0  0  0  0  0  0  0  0  0  0  # atno 6908 bound_to 6896
  151.6872  135.0953  160.0278 H   0  0  0  0  0  0  0  0  0  0  0  0  # atno 6909 bound_to 6896
  145.2843  139.2622  143.3899 H   0  0  0  0  0  0  0  0  0  0  0  0  # atno 7974 bound_to 7965
  154.6459  140.0585  156.9900 H   0  0  0  0  0  0  0  0  0  0  0  0  # atno 8008 bound_to 7997
  155.1445  140.3268  155.4426 H   0  0  0  0  0  0  0  0  0  0  0  0  # atno 8009 bound_to 7997
  156.2553  140.1958  156.6559 H   0  0  0  0  0  0  0  0  0  0  0  0  # atno 8010 bound_to 7997
  139.4828  144.4793  151.8467 H   0  0  0  0  0  0  0  0  0  0  0  0  # atno 10167 bound_to 10162
  156.8218  130.5459  149.5696 H   0  0  0  0  0  0  0  0  0  0  0  0  # atno 10718 bound_to 10713
  154.7005  135.5177  153.8519 H   0  0  0  0  0  0  0  0  0  0  0  0  # atno 10763 bound_to 10752
  153.0700  135.6598  154.0278 H   0  0  0  0  0  0  0  0  0  0  0  0  # atno 10764 bound_to 10752
  154.0138  135.3000  155.3369 H   0  0  0  0  0  0  0  0  0  0  0  0  # atno 10765 bound_to 10752
  140.8804  133.7657  156.0295 H   0  0  0  0  0  0  0  0  0  0  0  0  # atno 11005 bound_to 11000
  146.3206  140.3318  142.8641 LP  0  0  0  0  0  0  0  0  0  0  0  0  # atno 17320 bound_to 7965
  144.9226  140.7885  143.5738 LP  0  0  0  0  0  0  0  0  0  0  0  0  # atno 17321 bound_to 7965
  140.4267  144.2170  150.5887 LP  0  0  0  0  0  0  0  0  0  0  0  0  # atno 17342 bound_to 10162
  140.4820  143.2376  151.8942 LP  0  0  0  0  0  0  0  0  0  0  0  0  # atno 17343 bound_to 10162
  156.0984  130.5950  150.9853 LP  0  0  0  0  0  0  0  0  0  0  0  0  # atno 17370 bound_to 10713
  157.6453  131.0905  150.8167 LP  0  0  0  0  0  0  0  0  0  0  0  0  # atno 17371 bound_to 10713
  140.8467  134.3002  157.5292 LP  0  0  0  0  0  0  0  0  0  0  0  0  # atno 17394 bound_to 11000
  139.8719  134.9446  156.3885 LP  0  0  0  0  0  0  0  0  0  0  0  0  # atno 17395 bound_to 11000

$$$$
