AV-unprocessed.smi:1662|AV-procd|sdf|6664|dock9
  -GOLD-   22720 7373D 1   1.00000     0.00000
 Structure written by MMmdl.
 47 48  0  0  0  0  0  0  0  0  1 V2000
  146.7748  142.0172  153.6095 C   0  0  0  0  0  0  0  0  0  0  0  0
  146.4464  141.4883  154.9795 C   0  0  0  0  0  0  0  0  0  0  0  0
  146.3980  142.3525  155.9394 N   0  0  0  0  0  0  0  0  0  0  0  0
  146.1124  141.9717  157.2363 N   0  0  0  0  0  0  0  0  0  0  0  0
  146.1217  143.0774  158.2048 C   0  0  0  0  0  0  0  0  0  0  0  0
  147.4118  143.1293  159.0346 C   0  0  0  0  0  0  0  0  0  0  0  0
  147.3712  143.0175  160.2604 O   0  0  0  0  0  0  0  0  0  0  0  0
  148.5516  143.2806  158.3434 N   0  0  0  0  0  0  0  0  0  0  0  0
  149.8911  143.3753  158.9198 C   0  0  1  0  0  0  0  0  0  0  0  0
  150.9362  143.0566  157.8321 C   0  0  0  0  0  0  0  0  0  0  0  0
  152.3714  143.2263  158.3490 C   0  0  0  0  0  0  0  0  0  0  0  0
  152.5876  144.6298  158.9365 C   0  0  0  0  0  0  0  0  0  0  0  0
  151.5700  144.9607  160.0474 C   0  0  2  0  0  0  0  0  0  0  0  0
  151.8722  144.1812  161.3438 C   0  0  0  0  0  0  0  0  0  0  0  0
  150.1195  144.7855  159.5224 C   0  0  2  0  0  0  0  0  0  0  0  0
  149.0615  145.1655  160.5777 C   0  0  0  0  0  0  0  0  0  0  0  0
  145.8472  140.6924  157.6299 C   0  0  0  0  0  0  0  0  0  0  0  0
  145.5894  140.3990  158.7986 O   0  0  0  0  0  0  0  0  0  0  0  0
  145.9019  139.7192  156.5369 C   0  0  0  0  0  0  0  0  0  0  0  0
  145.6349  138.3667  156.9067 C   0  0  0  0  0  0  0  0  0  0  0  0
  145.4326  137.2639  157.1945 N   0  0  0  0  0  0  0  0  0  0  0  0
  146.1883  140.0795  155.2608 C   0  0  0  0  0  0  0  0  0  0  0  0
  146.2600  139.1077  154.0907 C   0  0  0  0  0  0  0  0  0  0  0  0
  145.9694  141.8013  152.9072 H   0  0  0  0  0  0  0  0  0  0  0  0
  147.6884  141.5610  153.2281 H   0  0  0  0  0  0  0  0  0  0  0  0
  146.9245  143.0980  153.6155 H   0  0  0  0  0  0  0  0  0  0  0  0
  146.0145  144.0341  157.6905 H   0  0  0  0  0  0  0  0  0  0  0  0
  145.2546  143.0016  158.8643 H   0  0  0  0  0  0  0  0  0  0  0  0
  148.4864  143.3585  157.3389 H   0  0  0  0  0  0  0  0  0  0  0  0
  149.9890  142.6427  159.7225 H   0  0  0  0  0  0  0  0  0  0  0  0
  150.7980  142.0382  157.4664 H   0  0  0  0  0  0  0  0  0  0  0  0
  150.7858  143.7137  156.9743 H   0  0  0  0  0  0  0  0  0  0  0  0
  152.5833  142.4674  159.1026 H   0  0  0  0  0  0  0  0  0  0  0  0
  153.0780  143.0538  157.5368 H   0  0  0  0  0  0  0  0  0  0  0  0
  153.6056  144.7221  159.3160 H   0  0  0  0  0  0  0  0  0  0  0  0
  152.4972  145.3664  158.1370 H   0  0  0  0  0  0  0  0  0  0  0  0
  151.7023  146.0160  160.2901 H   0  0  0  0  0  0  0  0  0  0  0  0
  151.7174  143.1092  161.2266 H   0  0  0  0  0  0  0  0  0  0  0  0
  151.2449  144.5174  162.1691 H   0  0  0  0  0  0  0  0  0  0  0  0
  152.9070  144.3300  161.6532 H   0  0  0  0  0  0  0  0  0  0  0  0
  150.0021  145.5014  158.7069 H   0  0  0  0  0  0  0  0  0  0  0  0
  149.0161  144.4323  161.3833 H   0  0  0  0  0  0  0  0  0  0  0  0
  148.0648  145.2289  160.1406 H   0  0  0  0  0  0  0  0  0  0  0  0
  149.2799  146.1376  161.0201 H   0  0  0  0  0  0  0  0  0  0  0  0
  146.0487  138.0821  154.3917 H   0  0  0  0  0  0  0  0  0  0  0  0
  147.2550  139.1191  153.6446 H   0  0  0  0  0  0  0  0  0  0  0  0
  145.5350  139.3785  153.3225 H   0  0  0  0  0  0  0  0  0  0  0  0
  1  2  1  0  0  0  0
  1 24  1  0  0  0  0
  1 25  1  0  0  0  0
  1 26  1  0  0  0  0
  2 22  1  0  0  0  0
  2  3  2  0  0  0  0
  3  4  1  0  0  0  0
  4  5  1  0  0  0  0
  4 17  1  0  0  0  0
  5  6  1  0  0  0  0
  5 27  1  0  0  0  0
  5 28  1  0  0  0  0
  6  7  2  0  0  0  0
  6  8  1  0  0  0  0
  8  9  1  0  0  0  0
  8 29  1  0  0  0  0
  9 15  1  0  0  0  0
  9 10  1  0  0  0  0
  9 30  1  0  0  0  0
 10 11  1  0  0  0  0
 10 31  1  0  0  0  0
 10 32  1  0  0  0  0
 11 12  1  0  0  0  0
 11 33  1  0  0  0  0
 11 34  1  0  0  0  0
 12 13  1  0  0  0  0
 12 35  1  0  0  0  0
 12 36  1  0  0  0  0
 13 14  1  0  0  0  0
 13 15  1  0  0  0  0
 13 37  1  0  0  0  0
 14 38  1  0  0  0  0
 14 39  1  0  0  0  0
 14 40  1  0  0  0  0
 15 16  1  0  0  0  0
 15 41  1  0  0  0  0
 16 42  1  0  0  0  0
 16 43  1  0  0  0  0
 16 44  1  0  0  0  0
 17 18  2  0  0  0  0
 17 19  1  0  0  0  0
 19 20  1  0  0  0  0
 19 22  2  0  0  0  0
 20 21  3  0  0  0  0
 22 23  1  0  0  0  0
 23 45  1  0  0  0  0
 23 46  1  0  0  0  0
 23 47  1  0  0  0  0
M  END
> <s_m_source_file>
AV-unprocessed.smi

> <i_m_source_file_index>
1662

> <i_lp_mmshare_version>
43012

> <i_f3d_flags>
0

> <s_epik_input>
TiNDYyhjMVtDSDNdKWMoPU8pbihuYzFbQ0gzXSlbQ0gyXUMoPU8pW05IXVtDQEBIXTJbQ0gyXVtDSDJdW0NIMl1bQ0BASF0oW0NIM10pW0NASF0yW0NIM10=

> <s_epik_cmdline>
J2VwaWtfcHl0aG9uJywgJy1waCcsICc3LjAnLCAnLXRuJywgJzgnLCAnLW1hJywgJzIwMCcsICctbWV0YWxfYmluZGluZycsICctaW1hZScsICc8aW5maWxlLm1hZT4nLCAnLW9tYWUnLCAnPG91dGZpbGUubWFlPic=

> <r_lp_tautomer_probability>
1

> <r_epik_Ionization_Penalty>
1.90709e-08

> <r_epik_Ionization_Penalty_Charging>
2.37982e-11

> <r_epik_Ionization_Penalty_Neutral>
1.90471e-08

> <r_epik_State_Penalty>
-0

> <r_epik_Charging_Adjusted_Penalty>
2.37982e-11

> <i_epik_Tot_Q>
0

> <i_epik_Tot_abs_Q>
0

> <r_epik_Metal_State_Penalty>
-0

> <b_epik_Metal_Only>
0

> <s_lp_Force_Field>
OPLS_2005

> <r_lp_Energy>
29.0639

> <b_lp_Chiralities_Consistent>
1

> <s_lp_Variant>
AV-unprocessed.smi:1662-8

> <Gold.Version>
5.8.1

> <Gold.Id.Protein>
6NUR|6NUR_protein|mol2

> <Gold.PLP.Fitness>
40.1438

> <Gold.PLP.PLP>
-36.0015

> <Gold.PLP.part.hbond>
-4.8501

> <Gold.PLP.part.metal>
0.0000

> <Gold.PLP.part.buried>
-5.1894

> <Gold.PLP.part.nonpolar>
-27.1385

> <Gold.PLP.part.repulsive>
0.2833

> <Gold.PLP.ligand.clash>
0.0000

> <Gold.PLP.ligand.torsion>
0.5017

> <Gold.PLP.Chemscore.Hbond>
1.7137

> <Gold.PLP.Chemscore.CHOScore>
0.0000

> <Gold.PLP.Chemscore.Metal>
0.0000

> <Gold.Chemscore.Hbonds>
donor molecule, donor type, donor heavy atom, donor atom, acceptor molecule, acceptor atom, score
      L1  H     8    29       P1  8028  0.43
      P1  H  6933  6944       L1     7  0.99
      P1  H  6934  6946       L1     7  0.33

> <Gold.PLP.Chemscore.Internal.Correction>
0.0046

> <Gold.Rescore>
     Score         DG    S(hbond)    S(metal)    S(lipo)     H(rot)  DE(clash)    DE(int)     intcor
     15.77     -17.60       1.46        0.00      93.65       1.45       0.09       1.74       ----

> <Gold.Chemscore.Fitness>
15.7664

> <Gold.Chemscore.DG>
-17.5970

> <Gold.Chemscore.ZeroCoef>
-5.4800

> <Gold.Chemscore.Hbond>
1.4590

> <Gold.Chemscore.Metal>
0.0000

> <Gold.Chemscore.Lipo>
93.6495

> <Gold.Chemscore.Internal_Hbond>
0.0000

> <Gold.Chemscore.DEClash>
0.0930

> <Gold.Chemscore.DEInternal>
1.7376

> <Gold.Chemscore.Rot>
1.4504

> <Gold.Chemscore.Internal.Correction>
   9.000000E+99

> <Gold.Chemscore.Hbonds>
donor molecule, donor type, donor heavy atom, donor atom, acceptor molecule, acceptor atom, score
      L1  H     8    29       P1  8028  0.06
      P1  H  6933  6944       L1     7  0.94
      P1  H  6934  6946       L1     7  0.21

> <Gold.Chemscore.Hbond.Weighted>
-4.8730

> <Gold.Chemscore.Metal.Weighted>
-0.0000

> <Gold.Chemscore.Lipo.Weighted>
-10.9570

> <Gold.Chemscore.Internal_Hbond.Weighted>
0.0000

> <Gold.Chemscore.DEClash.Weighted>
0.0930

> <Gold.Chemscore.DEInternal.Weighted>
1.7376

> <Gold.Chemscore.Rot.Weighted>
3.7129

> <Gold.Chemscore.Internal.Correction.Weighted>
   9.000000E+99

> <Gold.Protein.RotatedTorsions>
[ 6907 6896 6895 6894 ] final  173.74 input  -60.11 | X-H torsion
[ 7974 7965 7964 7962 ] final   38.49 input  175.53 | X-H torsion
[ 8008 7997 7996 7995 ] final -128.74 input   59.86 | X-H torsion
[ 10167 10162 10161 10158 ] final  177.44 input  -65.29 | X-H torsion
[ 10718 10713 10712 10709 ] final   52.77 input   66.30 | X-H torsion
[ 10763 10752 10751 10750 ] final  -11.90 input  -60.55 | X-H torsion
[ 11005 11000 10999 10996 ] final  -51.03 input  -57.11 | X-H torsion

> <Gold.Protein.ActiveResidues>
 VAL166  LYS551  ARG553  GLY616  TRP617  ASP618  TYR619  PRO620  LYS621  CYS622 
 ASP623  PHE694  ASN695  SER759  ASP760  ASP761  ALA762  ILE779  LEU786  VAL792 
 PHE793  MET794  SER795  GLU796  ALA797  LYS798  CYS799  TRP800  GLU811  SER814 

> <Gold.Protein.RotatedAtoms>
  151.7634  133.3335  159.3423 H   0  0  0  0  0  0  0  0  0  0  0  0  # atno 6907 bound_to 6896
  150.7489  134.6085  159.6083 H   0  0  0  0  0  0  0  0  0  0  0  0  # atno 6908 bound_to 6896
  152.3390  134.7162  160.0320 H   0  0  0  0  0  0  0  0  0  0  0  0  # atno 6909 bound_to 6896
  146.1057  139.5765  142.9385 H   0  0  0  0  0  0  0  0  0  0  0  0  # atno 7974 bound_to 7965
  155.2677  140.0438  157.3004 H   0  0  0  0  0  0  0  0  0  0  0  0  # atno 8008 bound_to 7997
  154.5672  140.2363  155.8214 H   0  0  0  0  0  0  0  0  0  0  0  0  # atno 8009 bound_to 7997
  156.2094  140.3003  155.9707 H   0  0  0  0  0  0  0  0  0  0  0  0  # atno 8010 bound_to 7997
  139.5253  144.2797  152.0557 H   0  0  0  0  0  0  0  0  0  0  0  0  # atno 10167 bound_to 10162
  157.5106  130.8498  149.8430 H   0  0  0  0  0  0  0  0  0  0  0  0  # atno 10718 bound_to 10713
  153.4905  135.7017  153.5887 H   0  0  0  0  0  0  0  0  0  0  0  0  # atno 10763 bound_to 10752
  153.4061  135.3860  155.2020 H   0  0  0  0  0  0  0  0  0  0  0  0  # atno 10764 bound_to 10752
  154.8717  135.3893  154.4365 H   0  0  0  0  0  0  0  0  0  0  0  0  # atno 10765 bound_to 10752
  141.0849  133.6645  156.3817 H   0  0  0  0  0  0  0  0  0  0  0  0  # atno 11005 bound_to 11000
  145.5765  141.0388  143.2145 LP  0  0  0  0  0  0  0  0  0  0  0  0  # atno 17320 bound_to 7965
  144.7469  139.7296  143.7288 LP  0  0  0  0  0  0  0  0  0  0  0  0  # atno 17321 bound_to 7965
  140.2253  144.4424  150.6324 LP  0  0  0  0  0  0  0  0  0  0  0  0  # atno 17342 bound_to 10162
  140.6391  143.2200  151.6329 LP  0  0  0  0  0  0  0  0  0  0  0  0  # atno 17343 bound_to 10162
  156.0286  130.3771  150.1751 LP  0  0  0  0  0  0  0  0  0  0  0  0  # atno 17370 bound_to 10713
  156.9940  130.9902  151.3407 LP  0  0  0  0  0  0  0  0  0  0  0  0  # atno 17371 bound_to 10713
  140.5386  134.6142  157.5373 LP  0  0  0  0  0  0  0  0  0  0  0  0  # atno 17394 bound_to 11000
  139.9666  134.7363  156.0126 LP  0  0  0  0  0  0  0  0  0  0  0  0  # atno 17395 bound_to 11000

$$$$
