#       Name:                AV-unprocessed.smi:1376
#       Creating user name   scv26
#       Creation time:       Fri Mar 27 05:19:26 2020


#       File generated by GOLD software.
#

@<TRIPOS>MOLECULE
AV-unprocessed.smi:1376
    48    49     1
SMALL
NO_CHARGES


@<TRIPOS>ATOM
      1 ****        -1.1459   1.4893   1.6924 O.2            1 S1                 0.0000
      2 ****        -1.5347   0.5047   1.0632 C.2            1 S1                 0.0000
      3 ****        -3.0321   0.2770   0.8147 C.3            1 S1                 0.0000
      4 ****        -3.7837   1.5316   0.6460 N.am           1 S1                 0.0000
      5 ****        -4.4933   2.0125   1.7645 C.2            1 S1                 0.0000
      6 ****        -5.2107   3.1461   1.7163 C.2            1 S1                 0.0000
      7 ****        -5.2450   3.8800   0.4738 C.2            1 S1                 0.0000
      8 ****        -4.5663   3.4314  -0.6009 C.2            1 S1                 0.0000
      9 ****        -3.7784   2.1943  -0.5521 C.2            1 S1                 0.0000
     10 ****        -3.1532   1.7784  -1.5282 O.2            1 S1                 0.0000
     11 ****        -0.7075  -0.4329   0.5769 N.am           1 S1                 0.0000
     12 ****         0.7483  -0.4154   0.6831 C.3            1 S1                 0.0000
     13 ****         1.2029  -1.1066   1.9838 C.3            1 S1                 0.0000
     14 ****         2.7354  -1.1755   2.0748 C.3            1 S1                 0.0000
     15 ****         3.3359  -1.8637   0.8391 C.3            1 S1                 0.0000
     16 ****         2.9008  -1.1630  -0.4592 C.3            1 S1                 0.0000
     17 ****         3.4455  -1.9021  -1.5448 O.3            1 S1                 0.0000
     18 ****         3.5542  -1.1729  -2.7601 C.3            1 S1                 0.0000
     19 ****         4.1759  -2.0699  -3.8368 C.3            1 S1                 0.0000
     20 ****         4.2727  -1.3860  -4.9763 F              1 S1                 0.0000
     21 ****         5.3958  -2.4571  -3.4655 F              1 S1                 0.0000
     22 ****         3.4098  -3.1404  -4.0443 F              1 S1                 0.0000
     23 ****         1.3617  -1.1045  -0.5500 C.3            1 S1                 0.0000
     24 ****        -3.1692  -0.3592  -0.0621 H              1 S1                 0.0000
     25 ****        -3.4297  -0.3003   1.6503 H              1 S1                 0.0000
     26 ****        -4.4106   1.4094   2.6571 H              1 S1                 0.0000
     27 ****        -5.7448   3.5019   2.5850 H              1 S1                 0.0000
     28 ****        -5.8160   4.7943   0.4055 H              1 S1                 0.0000
     29 ****        -4.6028   3.9946  -1.5219 H              1 S1                 0.0000
     30 ****        -1.1168  -1.2122   0.0823 H              1 S1                 0.0000
     31 ****         1.0965   0.6195   0.6947 H              1 S1                 0.0000
     32 ****         0.8085  -0.5754   2.8509 H              1 S1                 0.0000
     33 ****         0.7936  -2.1170   2.0277 H              1 S1                 0.0000
     34 ****         3.1417  -0.1674   2.1654 H              1 S1                 0.0000
     35 ****         3.0302  -1.7102   2.9783 H              1 S1                 0.0000
     36 ****         4.4240  -1.8690   0.9112 H              1 S1                 0.0000
     37 ****         3.0228  -2.9085   0.8161 H              1 S1                 0.0000
     38 ****         3.3104  -0.1511  -0.4555 H              1 S1                 0.0000
     39 ****         2.5762  -0.8264  -3.0939 H              1 S1                 0.0000
     40 ****         4.1791  -0.2911  -2.6107 H              1 S1                 0.0000
     41 ****         0.9669  -2.1176  -0.6403 H              1 S1                 0.0000
     42 ****         1.0524  -0.5716  -1.4490 H              1 S1                 0.0000
     43 ****        -1.8080   2.1497   2.0468 LP             1 S1                 0.0000
     44 ****        -0.1681   1.6286   1.8489 LP             1 S1                 0.0000
     45 ****        -2.6271   0.9307  -1.4609 LP             1 S1                 0.0000
     46 ****        -3.1717   2.2884  -2.3882 LP             1 S1                 0.0000
     47 ****         2.8587  -2.6952  -1.7081 LP             1 S1                 0.0000
     48 ****         4.3598  -2.2120  -1.2839 LP             1 S1                 0.0000
@<TRIPOS>BOND
    1    1    2 2     
    2    2    3 1     
    3    2   11 am    
    4    3    4 1     
    5    3   24 1     
    6    3   25 1     
    7    4    9 am    
    8    4    5 1     
    9    5    6 2     
   10    5   26 1     
   11    6    7 1     
   12    6   27 1     
   13    7    8 2     
   14    7   28 1     
   15    8    9 1     
   16    8   29 1     
   17    9   10 2     
   18   11   12 1     
   19   11   30 1     
   20   12   23 1     
   21   12   13 1     
   22   12   31 1     
   23   13   14 1     
   24   13   32 1     
   25   13   33 1     
   26   14   15 1     
   27   14   34 1     
   28   14   35 1     
   29   15   16 1     
   30   15   36 1     
   31   15   37 1     
   32   16   17 1     
   33   16   23 1     
   34   16   38 1     
   35   17   18 1     
   36   18   19 1     
   37   18   39 1     
   38   18   40 1     
   39   19   20 1     
   40   19   21 1     
   41   19   22 1     
   42   23   41 1     
   43   23   42 1     
   44    1   43 1     
   45    1   44 1     
   46   10   45 1     
   47   10   46 1     
   48   17   47 1     
   49   17   48 1     
@<TRIPOS>SUBSTRUCTURE
      1 S1             1
@<TRIPOS>SET
LONE_PAIRS      STATIC     ATOMS    <user>   **** ""
6 43 44 45 46 47 48
DONOR_HYDROGENS      STATIC     ATOMS    <user>   **** ""
1 30
ATOM$BLUE        STATIC     ATOMS    COLORGROUP SYSTEM
6 43 44 45 46 47 48
ATOM$RED        STATIC     ATOMS    COLORGROUP SYSTEM
1 30
