AV-unprocessed.smi:1686|AV-procd|sdf|6761|dock8
  -GOLD-   22720 7523D 1   1.00000     0.00000
 Structure written by MMmdl.
 41 43  0  0  0  0  0  0  0  0  1 V2000
  154.7086  136.5968  158.5547 C   0  0  0  0  0  0  0  0  0  0  0  0
  153.3612  136.4393  157.9109 C   0  0  0  0  0  0  0  0  0  0  0  0
  153.2049  135.5335  156.9544 N   0  0  0  0  0  0  0  0  0  0  0  0
  151.8651  135.6072  156.5566 O   0  0  0  0  0  0  0  0  0  0  0  0
  151.2819  136.5702  157.3065 C   0  0  0  0  0  0  0  0  0  0  0  0
  149.6215  136.9842  157.1419 Cl  0  0  0  0  0  0  0  0  0  0  0  0
  152.1542  137.1483  158.1832 C   0  0  0  0  0  0  0  0  0  0  0  0
  151.9138  138.2480  159.1898 C   0  0  0  0  0  0  0  0  0  0  0  0
  152.2713  139.6270  158.6218 C   0  0  0  0  0  0  0  0  0  0  0  0
  153.4198  140.0683  158.6887 O   0  0  0  0  0  0  0  0  0  0  0  0
  151.2566  140.3027  158.0612 N   0  0  0  0  0  0  0  0  0  0  0  0
  151.3414  141.6401  157.4762 C   0  0  1  0  0  0  0  0  0  0  0  0
  150.2821  141.7679  156.3659 C   0  0  0  0  0  0  0  0  0  0  0  0
  151.1738  142.7025  158.5915 C   0  0  1  0  0  0  0  0  0  0  0  0
  152.2385  142.6007  159.7137 C   0  0  0  0  0  0  0  0  0  0  0  0
  152.8181  144.0238  159.7862 C   0  0  2  0  0  0  0  0  0  0  0  0
  151.7596  144.9843  160.3569 C   0  0  0  0  0  0  0  0  0  0  0  0
  150.7576  145.1103  159.1944 C   0  0  0  0  0  0  0  0  0  0  0  0
  151.3531  144.1709  158.1274 C   0  0  1  0  0  0  0  0  0  0  0  0
  152.8475  144.4137  158.3150 C   0  0  0  0  0  0  0  0  0  0  0  0
  154.6697  137.2836  159.3999 H   0  0  0  0  0  0  0  0  0  0  0  0
  155.4385  136.9857  157.8446 H   0  0  0  0  0  0  0  0  0  0  0  0
  155.0800  135.6415  158.9261 H   0  0  0  0  0  0  0  0  0  0  0  0
  150.8707  138.2610  159.5079 H   0  0  0  0  0  0  0  0  0  0  0  0
  152.5016  138.0889  160.0943 H   0  0  0  0  0  0  0  0  0  0  0  0
  150.3474  139.8633  158.0525 H   0  0  0  0  0  0  0  0  0  0  0  0
  152.3277  141.7673  157.0268 H   0  0  0  0  0  0  0  0  0  0  0  0
  150.3503  142.7228  155.8469 H   0  0  0  0  0  0  0  0  0  0  0  0
  149.2726  141.6795  156.7687 H   0  0  0  0  0  0  0  0  0  0  0  0
  150.4065  140.9892  155.6126 H   0  0  0  0  0  0  0  0  0  0  0  0
  150.1798  142.5783  159.0243 H   0  0  0  0  0  0  0  0  0  0  0  0
  151.8105  142.2767  160.6631 H   0  0  0  0  0  0  0  0  0  0  0  0
  153.0309  141.8976  159.4535 H   0  0  0  0  0  0  0  0  0  0  0  0
  153.7798  144.0781  160.2970 H   0  0  0  0  0  0  0  0  0  0  0  0
  151.2975  144.5956  161.2651 H   0  0  0  0  0  0  0  0  0  0  0  0
  152.1985  145.9546  160.5923 H   0  0  0  0  0  0  0  0  0  0  0  0
  149.7444  144.8292  159.4835 H   0  0  0  0  0  0  0  0  0  0  0  0
  150.7254  146.1375  158.8290 H   0  0  0  0  0  0  0  0  0  0  0  0
  150.9814  144.3846  157.1261 H   0  0  0  0  0  0  0  0  0  0  0  0
  153.1424  145.4515  158.1489 H   0  0  0  0  0  0  0  0  0  0  0  0
  153.4770  143.7630  157.7062 H   0  0  0  0  0  0  0  0  0  0  0  0
  1  2  1  0  0  0  0
  1 21  1  0  0  0  0
  1 22  1  0  0  0  0
  1 23  1  0  0  0  0
  2  7  1  0  0  0  0
  2  3  2  0  0  0  0
  3  4  1  0  0  0  0
  4  5  1  0  0  0  0
  5  6  1  0  0  0  0
  5  7  2  0  0  0  0
  7  8  1  0  0  0  0
  8  9  1  0  0  0  0
  8 24  1  0  0  0  0
  8 25  1  0  0  0  0
  9 10  2  0  0  0  0
  9 11  1  0  0  0  0
 11 12  1  0  0  0  0
 11 26  1  0  0  0  0
 12 13  1  0  0  0  0
 12 14  1  0  0  0  0
 12 27  1  0  0  0  0
 13 28  1  0  0  0  0
 13 29  1  0  0  0  0
 13 30  1  0  0  0  0
 14 19  1  0  0  0  0
 14 15  1  0  0  0  0
 14 31  1  0  0  0  0
 15 16  1  0  0  0  0
 15 32  1  0  0  0  0
 15 33  1  0  0  0  0
 16 20  1  0  0  0  0
 16 17  1  0  0  0  0
 16 34  1  0  0  0  0
 17 18  1  0  0  0  0
 17 35  1  0  0  0  0
 17 36  1  0  0  0  0
 18 19  1  0  0  0  0
 18 37  1  0  0  0  0
 18 38  1  0  0  0  0
 19 20  1  0  0  0  0
 19 39  1  0  0  0  0
 20 40  1  0  0  0  0
 20 41  1  0  0  0  0
M  END
> <s_m_source_file>
AV-unprocessed.smi

> <i_m_source_file_index>
1686

> <i_lp_mmshare_version>
43012

> <i_f3d_flags>
0

> <s_epik_input>
W0NIM11jMW5vYyhDbCljMVtDSDJdQyg9TylbTkhdW0NASF0oW0NIM10pW0NASF0oW0NIMl1bQ0BIXTIzKVtDQEhdKFtDSDJdMylbQ0gyXVtDSDJdMg==

> <s_epik_cmdline>
J2VwaWtfcHl0aG9uJywgJy1waCcsICc3LjAnLCAnLXRuJywgJzgnLCAnLW1hJywgJzIwMCcsICctbWV0YWxfYmluZGluZycsICctaW1hZScsICc8aW5maWxlLm1hZT4nLCAnLW9tYWUnLCAnPG91dGZpbGUubWFlPic=

> <r_lp_tautomer_probability>
1

> <r_epik_Ionization_Penalty>
2.01576e-08

> <r_epik_Ionization_Penalty_Charging>
0

> <r_epik_Ionization_Penalty_Neutral>
2.01576e-08

> <r_epik_State_Penalty>
-0

> <r_epik_Charging_Adjusted_Penalty>
0

> <i_epik_Tot_Q>
0

> <i_epik_Tot_abs_Q>
0

> <r_epik_Metal_State_Penalty>
-0

> <b_epik_Metal_Only>
0

> <s_lp_Force_Field>
OPLS_2005

> <r_lp_Energy>
46.9137

> <b_lp_Chiralities_Consistent>
1

> <s_lp_Variant>
AV-unprocessed.smi:1686-4

> <Gold.Version>
5.8.1

> <Gold.Id.Protein>
6NUR|6NUR_protein|mol2

> <Gold.PLP.Fitness>
42.2800

> <Gold.PLP.PLP>
-38.4228

> <Gold.PLP.part.hbond>
-3.0000

> <Gold.PLP.part.metal>
0.0000

> <Gold.PLP.part.buried>
-5.2121

> <Gold.PLP.part.nonpolar>
-30.6798

> <Gold.PLP.part.repulsive>
0.0991

> <Gold.PLP.ligand.clash>
0.0000

> <Gold.PLP.ligand.torsion>
1.0894

> <Gold.PLP.Chemscore.Hbond>
2.0000

> <Gold.PLP.Chemscore.CHOScore>
0.0000

> <Gold.PLP.Chemscore.Metal>
0.0000

> <Gold.Chemscore.Hbonds>
donor molecule, donor type, donor heavy atom, donor atom, acceptor molecule, acceptor atom, score
      P1  H  7997  8009       L1    10  1.00
      P1  H 10752 10764       L1     3  0.65

> <Gold.PLP.Chemscore.Internal.Correction>
0.0360

> <Gold.Rescore>
     Score         DG    S(hbond)    S(metal)    S(lipo)     H(rot)  DE(clash)    DE(int)     intcor
     19.87     -20.97       1.80        0.00     112.97       1.46       0.01       1.09       ----

> <Gold.Chemscore.Fitness>
19.8709

> <Gold.Chemscore.DG>
-20.9714

> <Gold.Chemscore.ZeroCoef>
-5.4800

> <Gold.Chemscore.Hbond>
1.8034

> <Gold.Chemscore.Metal>
0.0000

> <Gold.Chemscore.Lipo>
112.9745

> <Gold.Chemscore.Internal_Hbond>
0.0000

> <Gold.Chemscore.DEClash>
0.0126

> <Gold.Chemscore.DEInternal>
1.0879

> <Gold.Chemscore.Rot>
1.4648

> <Gold.Chemscore.Internal.Correction>
   9.000000E+99

> <Gold.Chemscore.Hbonds>
donor molecule, donor type, donor heavy atom, donor atom, acceptor molecule, acceptor atom, score
      P1  H  7997  8009       L1    10  0.89
      P1  H 10752 10764       L1     3  0.06

> <Gold.Chemscore.Hbond.Weighted>
-6.0234

> <Gold.Chemscore.Metal.Weighted>
-0.0000

> <Gold.Chemscore.Lipo.Weighted>
-13.2180

> <Gold.Chemscore.Internal_Hbond.Weighted>
0.0000

> <Gold.Chemscore.DEClash.Weighted>
0.0126

> <Gold.Chemscore.DEInternal.Weighted>
1.0879

> <Gold.Chemscore.Rot.Weighted>
3.7500

> <Gold.Chemscore.Internal.Correction.Weighted>
   9.000000E+99

> <Gold.Protein.RotatedTorsions>
[ 6907 6896 6895 6894 ] final -147.99 input  -60.11 | X-H torsion
[ 7974 7965 7964 7962 ] final -165.23 input  175.53 | X-H torsion
[ 8008 7997 7996 7995 ] final  150.56 input   59.86 | X-H torsion
[ 10167 10162 10161 10158 ] final -109.48 input  -65.29 | X-H torsion
[ 10718 10713 10712 10709 ] final   22.99 input   66.30 | X-H torsion
[ 10763 10752 10751 10750 ] final   12.33 input  -60.55 | X-H torsion
[ 11005 11000 10999 10996 ] final  -70.49 input  -57.11 | X-H torsion

> <Gold.Protein.ActiveResidues>
 VAL166  LYS551  ARG553  GLY616  TRP617  ASP618  TYR619  PRO620  LYS621  CYS622 
 ASP623  PHE694  ASN695  SER759  ASP760  ASP761  ALA762  ILE779  LEU786  VAL792 
 PHE793  MET794  SER795  GLU796  ALA797  LYS798  CYS799  TRP800  GLU811  SER814 

> <Gold.Protein.RotatedAtoms>
  151.1635  133.4829  159.2593 H   0  0  0  0  0  0  0  0  0  0  0  0  # atno 6907 bound_to 6896
  151.1429  135.0188  159.8644 H   0  0  0  0  0  0  0  0  0  0  0  0  # atno 6908 bound_to 6896
  152.5462  134.1527  159.8578 H   0  0  0  0  0  0  0  0  0  0  0  0  # atno 6909 bound_to 6896
  144.7275  140.2844  143.6230 H   0  0  0  0  0  0  0  0  0  0  0  0  # atno 7974 bound_to 7965
  156.2711  140.2071  156.6036 H   0  0  0  0  0  0  0  0  0  0  0  0  # atno 8008 bound_to 7997
  154.6887  140.0532  157.0364 H   0  0  0  0  0  0  0  0  0  0  0  0  # atno 8009 bound_to 7997
  155.0898  140.3195  155.4580 H   0  0  0  0  0  0  0  0  0  0  0  0  # atno 8010 bound_to 7997
  140.1549  143.4168  152.1468 H   0  0  0  0  0  0  0  0  0  0  0  0  # atno 10167 bound_to 10162
  157.1599  130.6712  149.6040 H   0  0  0  0  0  0  0  0  0  0  0  0  # atno 10718 bound_to 10713
  153.1833  135.6831  153.8448 H   0  0  0  0  0  0  0  0  0  0  0  0  # atno 10763 bound_to 10752
  153.7773  135.3187  155.3362 H   0  0  0  0  0  0  0  0  0  0  0  0  # atno 10764 bound_to 10752
  154.8073  135.4740  154.0521 H   0  0  0  0  0  0  0  0  0  0  0  0  # atno 10765 bound_to 10752
  141.1575  133.6791  156.6761 H   0  0  0  0  0  0  0  0  0  0  0  0  # atno 11005 bound_to 11000
  145.7917  139.1929  143.2099 LP  0  0  0  0  0  0  0  0  0  0  0  0  # atno 17320 bound_to 7965
  146.0750  140.7827  142.9669 LP  0  0  0  0  0  0  0  0  0  0  0  0  # atno 17321 bound_to 7965
  139.5408  144.7255  151.4739 LP  0  0  0  0  0  0  0  0  0  0  0  0  # atno 17342 bound_to 10162
  140.6680  143.8357  150.6964 LP  0  0  0  0  0  0  0  0  0  0  0  0  # atno 17343 bound_to 10162
  155.9755  130.4715  150.6467 LP  0  0  0  0  0  0  0  0  0  0  0  0  # atno 17370 bound_to 10713
  157.4142  131.0828  151.1192 LP  0  0  0  0  0  0  0  0  0  0  0  0  # atno 17371 bound_to 10713
  140.3138  134.8064  157.4197 LP  0  0  0  0  0  0  0  0  0  0  0  0  # atno 17394 bound_to 11000
  140.1156  134.5288  155.8228 LP  0  0  0  0  0  0  0  0  0  0  0  0  # atno 17395 bound_to 11000

$$$$
