AV-unprocessed.smi:2948|AV-procd|sdf|11283|dock9
  -GOLD-   2272016173D 1   1.00000     0.00000
 Structure written by MMmdl.
 32 33  0  0  0  0  0  0  0  0  1 V2000
  146.4242  142.4758  153.9142 C   0  0  0  0  0  0  0  0  0  0  0  0
  147.1830  141.8638  155.0937 C   0  0  0  0  0  0  0  0  0  0  0  0
  148.2946  141.1435  154.5923 O   0  0  0  0  0  0  0  0  0  0  0  0
  149.1699  140.6906  155.6119 C   0  0  0  0  0  0  0  0  0  0  0  0
  150.2877  141.7202  155.8338 C   0  0  0  0  0  0  0  0  0  0  0  0
  151.2522  141.2742  156.8303 N   0  0  0  0  0  0  0  0  0  0  0  0
  151.9156  140.0901  156.9075 C   0  0  0  0  0  0  0  0  0  0  0  0
  151.7394  138.9864  155.9031 C   0  0  0  0  0  0  0  0  0  0  0  0
  151.8388  139.4347  154.5675 O   0  0  0  0  0  0  0  0  0  0  0  0
  152.7383  139.9591  157.9505 N   0  0  0  0  0  0  0  0  0  0  0  0
  152.6117  141.1715  158.5975 C   0  0  0  0  0  0  0  0  0  0  0  0
  153.2352  141.6565  159.7695 C   0  0  0  0  0  0  0  0  0  0  0  0
  152.9461  142.9511  160.2481 C   0  0  0  0  0  0  0  0  0  0  0  0
  152.0312  143.7770  159.5635 C   0  0  0  0  0  0  0  0  0  0  0  0
  151.3988  143.3126  158.3941 C   0  0  0  0  0  0  0  0  0  0  0  0
  151.6904  142.0189  157.9210 C   0  0  0  0  0  0  0  0  0  0  0  0
  145.5595  143.0431  154.2588 H   0  0  0  0  0  0  0  0  0  0  0  0
  146.0683  141.7018  153.2338 H   0  0  0  0  0  0  0  0  0  0  0  0
  147.0644  143.1519  153.3466 H   0  0  0  0  0  0  0  0  0  0  0  0
  147.5169  142.6520  155.7702 H   0  0  0  0  0  0  0  0  0  0  0  0
  146.5264  141.1986  155.6562 H   0  0  0  0  0  0  0  0  0  0  0  0
  148.6143  140.5427  156.5395 H   0  0  0  0  0  0  0  0  0  0  0  0
  149.6026  139.7287  155.3342 H   0  0  0  0  0  0  0  0  0  0  0  0
  150.8155  141.8971  154.8961 H   0  0  0  0  0  0  0  0  0  0  0  0
  149.8761  142.6854  156.1265 H   0  0  0  0  0  0  0  0  0  0  0  0
  152.5017  138.2275  156.0804 H   0  0  0  0  0  0  0  0  0  0  0  0
  150.7722  138.5003  156.0112 H   0  0  0  0  0  0  0  0  0  0  0  0
  151.6536  138.7080  153.9928 H   0  0  0  0  0  0  0  0  0  0  0  0
  153.9383  141.0318  160.3000 H   0  0  0  0  0  0  0  0  0  0  0  0
  153.4293  143.3119  161.1441 H   0  0  0  0  0  0  0  0  0  0  0  0
  151.8160  144.7676  159.9363 H   0  0  0  0  0  0  0  0  0  0  0  0
  150.6991  143.9437  157.8669 H   0  0  0  0  0  0  0  0  0  0  0  0
  1  2  1  0  0  0  0
  1 17  1  0  0  0  0
  1 18  1  0  0  0  0
  1 19  1  0  0  0  0
  2  3  1  0  0  0  0
  2 20  1  0  0  0  0
  2 21  1  0  0  0  0
  3  4  1  0  0  0  0
  4  5  1  0  0  0  0
  4 22  1  0  0  0  0
  4 23  1  0  0  0  0
  5  6  1  0  0  0  0
  5 24  1  0  0  0  0
  5 25  1  0  0  0  0
  6 16  1  0  0  0  0
  6  7  1  0  0  0  0
  7  8  1  0  0  0  0
  7 10  2  0  0  0  0
  8  9  1  0  0  0  0
  8 26  1  0  0  0  0
  8 27  1  0  0  0  0
  9 28  1  0  0  0  0
 10 11  1  0  0  0  0
 11 16  2  0  0  0  0
 11 12  1  0  0  0  0
 12 13  2  0  0  0  0
 12 29  1  0  0  0  0
 13 14  1  0  0  0  0
 13 30  1  0  0  0  0
 14 15  2  0  0  0  0
 14 31  1  0  0  0  0
 15 16  1  0  0  0  0
 15 32  1  0  0  0  0
M  END
> <s_m_source_file>
AV-unprocessed.smi

> <i_m_source_file_index>
2948

> <i_lp_mmshare_version>
43012

> <i_f3d_flags>
0

> <s_epik_input>
W0NIM11bQ0gyXU9bQ0gyXVtDSDJdbihjKG4xKVtDSDJdW09IXSljKGMxMilbY0hdW2NIXVtjSF1bY0hdMg==

> <s_epik_cmdline>
J2VwaWtfcHl0aG9uJywgJy1waCcsICc3LjAnLCAnLXRuJywgJzgnLCAnLW1hJywgJzIwMCcsICctbWV0YWxfYmluZGluZycsICctaW1hZScsICc8aW5maWxlLm1hZT4nLCAnLW9tYWUnLCAnPG91dGZpbGUubWFlPic=

> <r_epik_Ionization_Penalty>
0.0599051

> <r_epik_Ionization_Penalty_Charging>
0

> <r_epik_Ionization_Penalty_Neutral>
0.0599051

> <r_epik_State_Penalty>
0.0518308

> <r_epik_Charging_Adjusted_Penalty>
0.0518308

> <i_epik_Tot_Q>
0

> <i_epik_Tot_abs_Q>
0

> <r_epik_Metal_State_Penalty>
5.4163e-05

> <b_epik_Metal_Only>
0

> <s_lp_Force_Field>
OPLS_2005

> <r_lp_Energy>
7.3767

> <b_lp_Chiralities_Consistent>
1

> <s_lp_Variant>
AV-unprocessed.smi:2948-1

> <Gold.Version>
5.8.1

> <Gold.Id.Protein>
6NUR|6NUR_protein|mol2

> <Gold.PLP.Fitness>
39.9958

> <Gold.PLP.PLP>
-35.0607

> <Gold.PLP.part.hbond>
-2.0000

> <Gold.PLP.part.metal>
0.0000

> <Gold.PLP.part.buried>
-4.7525

> <Gold.PLP.part.nonpolar>
-28.2673

> <Gold.PLP.part.repulsive>
0.1290

> <Gold.PLP.ligand.clash>
0.0000

> <Gold.PLP.ligand.torsion>
0.4413

> <Gold.PLP.Chemscore.Hbond>
1.9353

> <Gold.PLP.Chemscore.CHOScore>
0.0000

> <Gold.PLP.Chemscore.Metal>
0.0000

> <Gold.Chemscore.Hbonds>
donor molecule, donor type, donor heavy atom, donor atom, acceptor molecule, acceptor atom, score
      P1  H  7989  7998       L1     9  0.99
      P1  H  7997  8009       L1    10  0.91

> <Gold.PLP.Chemscore.Internal.Correction>
0.0119

> <Gold.Rescore>
     Score         DG    S(hbond)    S(metal)    S(lipo)     H(rot)  DE(clash)    DE(int)     intcor
     13.56     -13.87       1.01        0.00      91.42       2.22       0.03       0.27       ----

> <Gold.Chemscore.Fitness>
13.5611

> <Gold.Chemscore.DG>
-13.8657

> <Gold.Chemscore.ZeroCoef>
-5.4800

> <Gold.Chemscore.Hbond>
1.0114

> <Gold.Chemscore.Metal>
0.0000

> <Gold.Chemscore.Lipo>
91.4192

> <Gold.Chemscore.Internal_Hbond>
0.0000

> <Gold.Chemscore.DEClash>
0.0348

> <Gold.Chemscore.DEInternal>
0.2698

> <Gold.Chemscore.Rot>
2.2221

> <Gold.Chemscore.Internal.Correction>
   9.000000E+99

> <Gold.Chemscore.Hbonds>
donor molecule, donor type, donor heavy atom, donor atom, acceptor molecule, acceptor atom, score
      P1  H  7989  7998       L1     9  0.37
      P1  H  7997  8009       L1    10  0.13

> <Gold.Chemscore.Hbond.Weighted>
-3.3782

> <Gold.Chemscore.Metal.Weighted>
-0.0000

> <Gold.Chemscore.Lipo.Weighted>
-10.6960

> <Gold.Chemscore.Internal_Hbond.Weighted>
0.0000

> <Gold.Chemscore.DEClash.Weighted>
0.0348

> <Gold.Chemscore.DEInternal.Weighted>
0.2698

> <Gold.Chemscore.Rot.Weighted>
5.6886

> <Gold.Chemscore.Internal.Correction.Weighted>
   9.000000E+99

> <Gold.Protein.RotatedTorsions>
[ 6907 6896 6895 6894 ] final  105.95 input  -60.11 | X-H torsion
[ 7974 7965 7964 7962 ] final  107.29 input  175.53 | X-H torsion
[ 8008 7997 7996 7995 ] final  154.72 input   59.86 | X-H torsion
[ 10167 10162 10161 10158 ] final  -88.76 input  -65.29 | X-H torsion
[ 10718 10713 10712 10709 ] final   51.37 input   66.30 | X-H torsion
[ 10763 10752 10751 10750 ] final  130.53 input  -60.55 | X-H torsion
[ 11005 11000 10999 10996 ] final   67.80 input  -57.11 | X-H torsion

> <Gold.Protein.ActiveResidues>
 VAL166  LYS551  ARG553  GLY616  TRP617  ASP618  TYR619  PRO620  LYS621  CYS622 
 ASP623  PHE694  ASN695  SER759  ASP760  ASP761  ALA762  ILE779  LEU786  VAL792 
 PHE793  MET794  SER795  GLU796  ALA797  LYS798  CYS799  TRP800  GLU811  SER814 

> <Gold.Protein.RotatedAtoms>
  152.5212  133.9452  159.7645 H   0  0  0  0  0  0  0  0  0  0  0  0  # atno 6907 bound_to 6896
  150.9774  133.6273  159.2735 H   0  0  0  0  0  0  0  0  0  0  0  0  # atno 6908 bound_to 6896
  151.3462  135.0880  159.9441 H   0  0  0  0  0  0  0  0  0  0  0  0  # atno 6909 bound_to 6896
  145.2956  139.2586  143.3841 H   0  0  0  0  0  0  0  0  0  0  0  0  # atno 7974 bound_to 7965
  156.2516  140.1959  156.6690 H   0  0  0  0  0  0  0  0  0  0  0  0  # atno 8008 bound_to 7997
  154.6407  140.0584  156.9868 H   0  0  0  0  0  0  0  0  0  0  0  0  # atno 8009 bound_to 7997
  155.1567  140.3256  155.4422 H   0  0  0  0  0  0  0  0  0  0  0  0  # atno 8010 bound_to 7997
  140.3715  143.2792  151.9495 H   0  0  0  0  0  0  0  0  0  0  0  0  # atno 10167 bound_to 10162
  157.4974  130.8415  149.8275 H   0  0  0  0  0  0  0  0  0  0  0  0  # atno 10718 bound_to 10713
  153.7595  135.3198  155.3334 H   0  0  0  0  0  0  0  0  0  0  0  0  # atno 10763 bound_to 10752
  154.8235  135.4586  154.0852 H   0  0  0  0  0  0  0  0  0  0  0  0  # atno 10764 bound_to 10752
  153.2079  135.6931  153.8234 H   0  0  0  0  0  0  0  0  0  0  0  0  # atno 10765 bound_to 10752
  139.9749  134.6838  156.0373 H   0  0  0  0  0  0  0  0  0  0  0  0  # atno 11005 bound_to 11000
  146.3170  140.3458  142.8652 LP  0  0  0  0  0  0  0  0  0  0  0  0  # atno 17320 bound_to 7965
  144.9136  140.7786  143.5792 LP  0  0  0  0  0  0  0  0  0  0  0  0  # atno 17321 bound_to 7965
  139.4803  144.5903  151.7784 LP  0  0  0  0  0  0  0  0  0  0  0  0  # atno 17342 bound_to 10162
  140.5029  144.1142  150.5975 LP  0  0  0  0  0  0  0  0  0  0  0  0  # atno 17343 bound_to 10162
  156.0208  130.3796  150.1967 LP  0  0  0  0  0  0  0  0  0  0  0  0  # atno 17370 bound_to 10713
  157.0156  130.9964  151.3354 LP  0  0  0  0  0  0  0  0  0  0  0  0  # atno 17371 bound_to 10713
  141.1427  133.6561  156.3776 LP  0  0  0  0  0  0  0  0  0  0  0  0  # atno 17394 bound_to 11000
  140.5215  134.6299  157.5320 LP  0  0  0  0  0  0  0  0  0  0  0  0  # atno 17395 bound_to 11000

$$$$
