AV-unprocessed.smi:3104|AV-procd|sdf|11815|dock1
  -GOLD-   2272017183D 1   1.00000     0.00000
 Structure written by MMmdl.
 37 38  0  0  0  0  0  0  0  0  2 V2000
  153.1981  143.1866  163.2026 C   0  0  0  0  0  0  0  0  0  0  0  0
  152.9820  142.8308  161.7597 C   0  0  0  0  0  0  0  0  0  0  0  0
  153.4528  141.6830  161.0614 C   0  0  0  0  0  0  0  0  0  0  0  0
  153.0858  141.6685  159.7906 N   0  0  0  0  0  0  0  0  0  0  0  0
  152.3705  142.8039  159.6298 N   0  0  0  0  0  0  0  0  0  0  0  0
  151.7940  143.1295  158.3310 C   0  0  2  0  0  0  0  0  0  0  0  0
  151.2762  144.5807  158.3350 C   0  0  0  0  0  0  0  0  0  0  0  0
  150.7129  142.1016  157.8990 C   0  0  2  0  0  0  0  0  0  0  0  0
  151.1587  140.6406  158.0907 C   0  0  0  0  0  0  0  0  0  0  0  0
  150.3416  142.3043  156.4804 N   0  3  0  0  0  0  0  0  0  0  0  0
  149.5484  141.2106  155.8847 C   0  0  0  0  0  0  0  0  0  0  0  0
  148.9514  141.6314  154.5584 C   0  0  0  0  0  0  0  0  0  0  0  0
  147.4975  142.0315  154.4532 C   0  0  0  0  0  0  0  0  0  0  0  0
  147.9657  140.7301  153.8509 C   0  0  0  0  0  0  0  0  0  0  0  0
  152.2912  143.5220  160.8050 C   0  0  0  0  0  0  0  0  0  0  0  0
  153.7513  142.4114  163.7333 H   0  0  0  0  0  0  0  0  0  0  0  0
  152.2535  143.3239  163.7292 H   0  0  0  0  0  0  0  0  0  0  0  0
  153.7636  144.1127  163.3078 H   0  0  0  0  0  0  0  0  0  0  0  0
  154.0475  140.8640  161.4385 H   0  0  0  0  0  0  0  0  0  0  0  0
  152.6109  143.0776  157.6094 H   0  0  0  0  0  0  0  0  0  0  0  0
  150.9807  144.9037  157.3368 H   0  0  0  0  0  0  0  0  0  0  0  0
  152.0481  145.2701  158.6787 H   0  0  0  0  0  0  0  0  0  0  0  0
  150.4127  144.6962  158.9909 H   0  0  0  0  0  0  0  0  0  0  0  0
  149.8277  142.2468  158.5212 H   0  0  0  0  0  0  0  0  0  0  0  0
  151.3417  140.4059  159.1394 H   0  0  0  0  0  0  0  0  0  0  0  0
  152.0743  140.4293  157.5373 H   0  0  0  0  0  0  0  0  0  0  0  0
  150.3914  139.9494  157.7404 H   0  0  0  0  0  0  0  0  0  0  0  0
  149.8166  143.1643  156.4074 H   0  0  0  0  0  0  0  0  0  0  0  0
  150.1924  140.3452  155.7231 H   0  0  0  0  0  0  0  0  0  0  0  0
  148.7526  140.9042  156.5646 H   0  0  0  0  0  0  0  0  0  0  0  0
  149.6473  142.1575  153.9073 H   0  0  0  0  0  0  0  0  0  0  0  0
  146.8886  141.9765  155.3536 H   0  0  0  0  0  0  0  0  0  0  0  0
  147.2471  142.8405  153.7700 H   0  0  0  0  0  0  0  0  0  0  0  0
  148.0261  140.6717  152.7661 H   0  0  0  0  0  0  0  0  0  0  0  0
  147.6677  139.8105  154.3511 H   0  0  0  0  0  0  0  0  0  0  0  0
  151.7558  144.4582  160.8652 H   0  0  0  0  0  0  0  0  0  0  0  0
  151.1902  142.4016  155.9418 H   0  0  0  0  0  0  0  0  0  0  0  0
  1  2  1  0  0  0  0
  1 16  1  0  0  0  0
  1 17  1  0  0  0  0
  1 18  1  0  0  0  0
  2 15  2  0  0  0  0
  2  3  1  0  0  0  0
  3  4  2  0  0  0  0
  3 19  1  0  0  0  0
  4  5  1  0  0  0  0
  5  6  1  0  0  0  0
  5 15  1  0  0  0  0
  6  7  1  0  0  0  0
  6  8  1  0  0  0  0
  6 20  1  0  0  0  0
  7 21  1  0  0  0  0
  7 22  1  0  0  0  0
  7 23  1  0  0  0  0
  8  9  1  0  0  0  0
  8 10  1  0  0  0  0
  8 24  1  0  0  0  0
  9 25  1  0  0  0  0
  9 26  1  0  0  0  0
  9 27  1  0  0  0  0
 10 11  1  0  0  0  0
 10 28  1  0  0  0  0
 10 37  1  0  0  0  0
 11 12  1  0  0  0  0
 11 29  1  0  0  0  0
 11 30  1  0  0  0  0
 12 14  1  0  0  0  0
 12 13  1  0  0  0  0
 12 31  1  0  0  0  0
 13 14  1  0  0  0  0
 13 32  1  0  0  0  0
 13 33  1  0  0  0  0
 14 34  1  0  0  0  0
 14 35  1  0  0  0  0
 15 36  1  0  0  0  0
M  CHG  1  10   1
M  END
> <s_m_source_file>
AV-unprocessed.smi

> <i_m_source_file_index>
3104

> <i_lp_mmshare_version>
43012

> <i_f3d_flags>
0

> <s_epik_input>
W0NIM11jMVtjSF1ubihbY0hdMSlbQ0BIXShbQ0gzXSlbQ0BIXShbQ0gzXSlbTkhdW0NIMl1bQ0hdMltDSDJdW0NIMl0y

> <s_epik_cmdline>
J2VwaWtfcHl0aG9uJywgJy1waCcsICc3LjAnLCAnLXRuJywgJzgnLCAnLW1hJywgJzIwMCcsICctbWV0YWxfYmluZGluZycsICctaW1hZScsICc8aW5maWxlLm1hZT4nLCAnLW9tYWUnLCAnPG91dGZpbGUubWFlPic=

> <r_lp_tautomer_probability>
1

> <r_epik_Ionization_Penalty>
0.00120445

> <r_epik_Ionization_Penalty_Charging>
0.00118273

> <r_epik_Ionization_Penalty_Neutral>
2.17265e-05

> <r_epik_State_Penalty>
-0

> <r_epik_Charging_Adjusted_Penalty>
0.00118273

> <i_epik_Tot_Q>
1

> <i_epik_Tot_abs_Q>
1

> <r_epik_Metal_State_Penalty>
-0

> <b_epik_Metal_Only>
0

> <s_lp_Force_Field>
OPLS_2005

> <r_lp_Energy>
21.3992

> <b_lp_Chiralities_Consistent>
1

> <s_lp_Variant>
AV-unprocessed.smi:3104-1

> <Gold.Version>
5.8.1

> <Gold.Id.Protein>
6NUR|6NUR_protein|mol2

> <Gold.PLP.Fitness>
47.9412

> <Gold.PLP.PLP>
-42.6426

> <Gold.PLP.part.hbond>
-1.0000

> <Gold.PLP.part.metal>
0.0000

> <Gold.PLP.part.buried>
-2.9799

> <Gold.PLP.part.nonpolar>
-37.8538

> <Gold.PLP.part.repulsive>
0.0777

> <Gold.PLP.ligand.clash>
0.0000

> <Gold.PLP.ligand.torsion>
0.7088

> <Gold.PLP.Chemscore.Hbond>
2.0000

> <Gold.PLP.Chemscore.CHOScore>
0.0000

> <Gold.PLP.Chemscore.Metal>
0.0000

> <Gold.Chemscore.Hbonds>
donor molecule, donor type, donor heavy atom, donor atom, acceptor molecule, acceptor atom, score
      L1  H    10    28       P1  8028  2.00

> <Gold.PLP.Chemscore.Internal.Correction>
0.7162

> <Gold.Rescore>
     Score         DG    S(hbond)    S(metal)    S(lipo)     H(rot)  DE(clash)    DE(int)     intcor
     16.02     -18.06       0.99        0.00     111.86       1.49       0.17       1.86       ----

> <Gold.Chemscore.Fitness>
16.0242

> <Gold.Chemscore.DG>
-18.0613

> <Gold.Chemscore.ZeroCoef>
-5.4800

> <Gold.Chemscore.Hbond>
0.9921

> <Gold.Chemscore.Metal>
0.0000

> <Gold.Chemscore.Lipo>
111.8639

> <Gold.Chemscore.Internal_Hbond>
0.0000

> <Gold.Chemscore.DEClash>
0.1742

> <Gold.Chemscore.DEInternal>
1.8629

> <Gold.Chemscore.Rot>
1.4923

> <Gold.Chemscore.Internal.Correction>
   9.000000E+99

> <Gold.Chemscore.Hbonds>
donor molecule, donor type, donor heavy atom, donor atom, acceptor molecule, acceptor atom, score
      L1  H    10    28       P1  8028  0.98

> <Gold.Chemscore.Hbond.Weighted>
-3.3135

> <Gold.Chemscore.Metal.Weighted>
-0.0000

> <Gold.Chemscore.Lipo.Weighted>
-13.0881

> <Gold.Chemscore.Internal_Hbond.Weighted>
0.0000

> <Gold.Chemscore.DEClash.Weighted>
0.1742

> <Gold.Chemscore.DEInternal.Weighted>
1.8629

> <Gold.Chemscore.Rot.Weighted>
3.8204

> <Gold.Chemscore.Internal.Correction.Weighted>
   9.000000E+99

> <Gold.Protein.RotatedTorsions>
[ 6907 6896 6895 6894 ] final   -2.88 input  -60.11 | X-H torsion
[ 7974 7965 7964 7962 ] final  -61.18 input  175.53 | X-H torsion
[ 8008 7997 7996 7995 ] final  151.48 input   59.86 | X-H torsion
[ 10167 10162 10161 10158 ] final -112.18 input  -65.29 | X-H torsion
[ 10718 10713 10712 10709 ] final  -33.98 input   66.30 | X-H torsion
[ 10763 10752 10751 10750 ] final -158.49 input  -60.55 | X-H torsion
[ 11005 11000 10999 10996 ] final  101.75 input  -57.11 | X-H torsion

> <Gold.Protein.ActiveResidues>
 VAL166  LYS551  ARG553  GLY616  TRP617  ASP618  TYR619  PRO620  LYS621  CYS622 
 ASP623  PHE694  ASN695  SER759  ASP760  ASP761  ALA762  ILE779  LEU786  VAL792 
 PHE793  MET794  SER795  GLU796  ALA797  LYS798  CYS799  TRP800  GLU811  SER814 

> <Gold.Protein.RotatedAtoms>
  151.5228  135.1067  159.9882 H   0  0  0  0  0  0  0  0  0  0  0  0  # atno 6907 bound_to 6896
  152.4613  133.7824  159.6868 H   0  0  0  0  0  0  0  0  0  0  0  0  # atno 6908 bound_to 6896
  150.8576  133.7627  159.3028 H   0  0  0  0  0  0  0  0  0  0  0  0  # atno 6909 bound_to 6896
  145.8066  140.8624  143.0204 H   0  0  0  0  0  0  0  0  0  0  0  0  # atno 7974 bound_to 7965
  156.2672  140.2046  156.6182 H   0  0  0  0  0  0  0  0  0  0  0  0  # atno 8008 bound_to 7997
  154.6777  140.0543  157.0257 H   0  0  0  0  0  0  0  0  0  0  0  0  # atno 8009 bound_to 7997
  155.1045  140.3209  155.4541 H   0  0  0  0  0  0  0  0  0  0  0  0  # atno 8010 bound_to 7997
  140.1255  143.4406  152.1662 H   0  0  0  0  0  0  0  0  0  0  0  0  # atno 10167 bound_to 10162
  156.3561  130.4316  149.7663 H   0  0  0  0  0  0  0  0  0  0  0  0  # atno 10718 bound_to 10713
  154.7552  135.3103  154.8482 H   0  0  0  0  0  0  0  0  0  0  0  0  # atno 10763 bound_to 10752
  153.9258  135.6790  153.4751 H   0  0  0  0  0  0  0  0  0  0  0  0  # atno 10764 bound_to 10752
  153.1150  135.4849  154.9029 H   0  0  0  0  0  0  0  0  0  0  0  0  # atno 10765 bound_to 10752
  139.8774  134.9196  156.4954 H   0  0  0  0  0  0  0  0  0  0  0  0  # atno 11005 bound_to 11000
  144.6762  140.0335  143.7482 LP  0  0  0  0  0  0  0  0  0  0  0  0  # atno 17320 bound_to 7965
  145.9822  139.2950  143.1035 LP  0  0  0  0  0  0  0  0  0  0  0  0  # atno 17321 bound_to 7965
  139.5546  144.7363  151.4332 LP  0  0  0  0  0  0  0  0  0  0  0  0  # atno 17342 bound_to 10162
  140.6847  143.8001  150.7170 LP  0  0  0  0  0  0  0  0  0  0  0  0  # atno 17343 bound_to 10162
  156.4844  130.8056  151.3069 LP  0  0  0  0  0  0  0  0  0  0  0  0  # atno 17370 bound_to 10713
  157.7467  130.9995  150.2892 LP  0  0  0  0  0  0  0  0  0  0  0  0  # atno 17371 bound_to 10713
  140.8628  133.8047  155.9283 LP  0  0  0  0  0  0  0  0  0  0  0  0  # atno 17394 bound_to 11000
  140.9032  134.2352  157.5029 LP  0  0  0  0  0  0  0  0  0  0  0  0  # atno 17395 bound_to 11000

$$$$
