AV-unprocessed.smi:3185|AV-procd|sdf|12169|dock5
  -GOLD-   2272018 03D 1   1.00000     0.00000
 Structure written by MMmdl.
 37 38  0  0  0  0  0  0  0  0  1 V2000
  151.6301  136.9504  154.5428 N   0  0  0  0  0  0  0  0  0  0  0  0
  151.1325  137.9863  154.6758 C   0  0  0  0  0  0  0  0  0  0  0  0
  150.5002  139.3030  154.8443 C   0  0  0  0  0  0  0  0  0  0  0  0
  151.0919  140.0964  156.0171 C   0  0  0  0  0  0  0  0  0  0  0  0
  150.3885  139.7959  157.3466 C   0  0  0  0  0  0  0  0  0  0  0  0
  150.7983  140.7710  158.3455 N   0  0  0  0  0  0  0  0  0  0  0  0
  152.2369  140.7507  158.5916 C   0  0  2  0  0  0  0  0  0  0  0  0
  152.6696  139.3385  159.0448 C   0  0  0  0  0  0  0  0  0  0  0  0
  154.1547  139.2986  159.4354 C   0  0  0  0  0  0  0  0  0  0  0  0
  154.4709  140.3358  160.5220 C   0  0  0  0  0  0  0  0  0  0  0  0
  154.0665  141.7456  160.0680 C   0  0  0  0  0  0  0  0  0  0  0  0
  152.5751  141.8078  159.6753 C   0  0  1  0  0  0  0  0  0  0  0  0
  152.2051  143.1558  159.2571 N   0  0  0  0  0  0  0  0  0  0  0  0
  152.4033  144.3407  159.9356 C   0  0  0  0  0  0  0  0  0  0  0  0
  151.8825  145.3438  159.1696 C   0  0  0  0  0  0  0  0  0  0  0  0
  151.3805  144.6673  158.0234 C   0  0  0  0  0  0  0  0  0  0  0  0
  151.5744  143.3599  158.0778 N   0  0  0  0  0  0  0  0  0  0  0  0
  150.6212  139.8541  153.9116 H   0  0  0  0  0  0  0  0  0  0  0  0
  149.4317  139.1409  154.9876 H   0  0  0  0  0  0  0  0  0  0  0  0
  152.1614  139.8992  156.1026 H   0  0  0  0  0  0  0  0  0  0  0  0
  150.9957  141.1611  155.8020 H   0  0  0  0  0  0  0  0  0  0  0  0
  149.3081  139.8427  157.2101 H   0  0  0  0  0  0  0  0  0  0  0  0
  150.6338  138.7860  157.6773 H   0  0  0  0  0  0  0  0  0  0  0  0
  150.2902  140.6367  159.2078 H   0  0  0  0  0  0  0  0  0  0  0  0
  152.7672  141.0143  157.6749 H   0  0  0  0  0  0  0  0  0  0  0  0
  152.0670  139.0215  159.8974 H   0  0  0  0  0  0  0  0  0  0  0  0
  152.4920  138.6096  158.2537 H   0  0  0  0  0  0  0  0  0  0  0  0
  154.4202  138.3010  159.7864 H   0  0  0  0  0  0  0  0  0  0  0  0
  154.7697  139.4909  158.5553 H   0  0  0  0  0  0  0  0  0  0  0  0
  153.9422  140.0793  161.4408 H   0  0  0  0  0  0  0  0  0  0  0  0
  155.5348  140.3133  160.7598 H   0  0  0  0  0  0  0  0  0  0  0  0
  154.2717  142.4601  160.8661 H   0  0  0  0  0  0  0  0  0  0  0  0
  154.6905  142.0397  159.2228 H   0  0  0  0  0  0  0  0  0  0  0  0
  151.9920  141.5790  160.5695 H   0  0  0  0  0  0  0  0  0  0  0  0
  152.8903  144.3709  160.8992 H   0  0  0  0  0  0  0  0  0  0  0  0
  151.8624  146.3997  159.3942 H   0  0  0  0  0  0  0  0  0  0  0  0
  150.8839  145.0843  157.1599 H   0  0  0  0  0  0  0  0  0  0  0  0
  1  2  3  0  0  0  0
  2  3  1  0  0  0  0
  3  4  1  0  0  0  0
  3 18  1  0  0  0  0
  3 19  1  0  0  0  0
  4  5  1  0  0  0  0
  4 20  1  0  0  0  0
  4 21  1  0  0  0  0
  5  6  1  0  0  0  0
  5 22  1  0  0  0  0
  5 23  1  0  0  0  0
  6  7  1  0  0  0  0
  6 24  1  0  0  0  0
  7 12  1  0  0  0  0
  7  8  1  0  0  0  0
  7 25  1  0  0  0  0
  8  9  1  0  0  0  0
  8 26  1  0  0  0  0
  8 27  1  0  0  0  0
  9 10  1  0  0  0  0
  9 28  1  0  0  0  0
  9 29  1  0  0  0  0
 10 11  1  0  0  0  0
 10 30  1  0  0  0  0
 10 31  1  0  0  0  0
 11 12  1  0  0  0  0
 11 32  1  0  0  0  0
 11 33  1  0  0  0  0
 12 13  1  0  0  0  0
 12 34  1  0  0  0  0
 13 17  1  0  0  0  0
 13 14  1  0  0  0  0
 14 15  2  0  0  0  0
 14 35  1  0  0  0  0
 15 16  1  0  0  0  0
 15 36  1  0  0  0  0
 16 17  2  0  0  0  0
 16 37  1  0  0  0  0
M  END
> <s_m_source_file>
AV-unprocessed.smi

> <i_m_source_file_index>
3185

> <i_lp_mmshare_version>
43012

> <i_f3d_flags>
0

> <s_epik_input>
TiNDW0NIMl1bQ0gyXVtDSDJdW05IXVtDQEBIXTFbQ0gyXVtDSDJdW0NIMl1bQ0gyXVtDQEhdMW4yW2NIXVtjSF1bY0hdbjI=

> <s_epik_cmdline>
J2VwaWtfcHl0aG9uJywgJy1waCcsICc3LjAnLCAnLXRuJywgJzgnLCAnLW1hJywgJzIwMCcsICctbWV0YWxfYmluZGluZycsICctaW1hZScsICc8aW5maWxlLm1hZT4nLCAnLW9tYWUnLCAnPG91dGZpbGUubWFlPic=

> <r_lp_tautomer_probability>
1

> <r_epik_Ionization_Penalty>
2.21326

> <r_epik_Ionization_Penalty_Charging>
0

> <r_epik_Ionization_Penalty_Neutral>
2.21326

> <r_epik_State_Penalty>
2.35651

> <r_epik_Charging_Adjusted_Penalty>
2.35651

> <i_epik_Tot_Q>
0

> <i_epik_Tot_abs_Q>
0

> <r_epik_Metal_State_Penalty>
2.3555

> <b_epik_Metal_Only>
0

> <s_lp_Force_Field>
OPLS_2005

> <r_lp_Energy>
16.739

> <b_lp_Chiralities_Consistent>
1

> <s_lp_Variant>
AV-unprocessed.smi:3185-5

> <Gold.Version>
5.8.1

> <Gold.Id.Protein>
6NUR|6NUR_protein|mol2

> <Gold.PLP.Fitness>
47.3364

> <Gold.PLP.PLP>
-41.8340

> <Gold.PLP.part.hbond>
-1.0000

> <Gold.PLP.part.metal>
0.0000

> <Gold.PLP.part.buried>
-5.1193

> <Gold.PLP.part.nonpolar>
-36.4651

> <Gold.PLP.part.repulsive>
0.2266

> <Gold.PLP.ligand.clash>
0.0000

> <Gold.PLP.ligand.torsion>
0.2746

> <Gold.PLP.Chemscore.Hbond>
1.0000

> <Gold.PLP.Chemscore.CHOScore>
0.9997

> <Gold.PLP.Chemscore.Metal>
0.0000

> <Gold.Chemscore.Hbonds>
donor molecule, donor type, donor heavy atom, donor atom, acceptor molecule, acceptor atom, score
      P1  H 10752 10764       L1     1  1.00
      L1  C    16    37       P1  8028  1.00

> <Gold.PLP.Chemscore.Internal.Correction>
0.0524

> <Gold.Rescore>
     Score         DG    S(hbond)    S(metal)    S(lipo)     H(rot)  DE(clash)    DE(int)     intcor
     14.77     -16.45       1.00        0.00     104.89       1.81       0.00       1.68       ----

> <Gold.Chemscore.Fitness>
14.7704

> <Gold.Chemscore.DG>
-16.4533

> <Gold.Chemscore.ZeroCoef>
-5.4800

> <Gold.Chemscore.Hbond>
0.9991

> <Gold.Chemscore.Metal>
0.0000

> <Gold.Chemscore.Lipo>
104.8938

> <Gold.Chemscore.Internal_Hbond>
0.0000

> <Gold.Chemscore.DEClash>
0.0038

> <Gold.Chemscore.DEInternal>
1.6791

> <Gold.Chemscore.Rot>
1.8110

> <Gold.Chemscore.Internal.Correction>
   9.000000E+99

> <Gold.Chemscore.Hbonds>
donor molecule, donor type, donor heavy atom, donor atom, acceptor molecule, acceptor atom, score
      P1  H 10752 10764       L1     1  0.99

> <Gold.Chemscore.Hbond.Weighted>
-3.3369

> <Gold.Chemscore.Metal.Weighted>
-0.0000

> <Gold.Chemscore.Lipo.Weighted>
-12.2726

> <Gold.Chemscore.Internal_Hbond.Weighted>
0.0000

> <Gold.Chemscore.DEClash.Weighted>
0.0038

> <Gold.Chemscore.DEInternal.Weighted>
1.6791

> <Gold.Chemscore.Rot.Weighted>
4.6362

> <Gold.Chemscore.Internal.Correction.Weighted>
   9.000000E+99

> <Gold.Protein.RotatedTorsions>
[ 6907 6896 6895 6894 ] final  152.48 input  -60.11 | X-H torsion
[ 7974 7965 7964 7962 ] final   45.57 input  175.53 | X-H torsion
[ 8008 7997 7996 7995 ] final  122.02 input   59.86 | X-H torsion
[ 10167 10162 10161 10158 ] final   85.86 input  -65.29 | X-H torsion
[ 10718 10713 10712 10709 ] final -171.89 input   66.30 | X-H torsion
[ 10763 10752 10751 10750 ] final  -66.50 input  -60.55 | X-H torsion
[ 11005 11000 10999 10996 ] final   10.46 input  -57.11 | X-H torsion

> <Gold.Protein.ActiveResidues>
 VAL166  LYS551  ARG553  GLY616  TRP617  ASP618  TYR619  PRO620  LYS621  CYS622 
 ASP623  PHE694  ASN695  SER759  ASP760  ASP761  ALA762  ILE779  LEU786  VAL792 
 PHE793  MET794  SER795  GLU796  ALA797  LYS798  CYS799  TRP800  GLU811  SER814 

> <Gold.Protein.RotatedAtoms>
  152.0862  133.4177  159.4522 H   0  0  0  0  0  0  0  0  0  0  0  0  # atno 6907 bound_to 6896
  150.6862  134.2925  159.4681 H   0  0  0  0  0  0  0  0  0  0  0  0  # atno 6908 bound_to 6896
  152.0771  134.9495  160.0624 H   0  0  0  0  0  0  0  0  0  0  0  0  # atno 6909 bound_to 6896
  146.0468  139.4949  142.9744 H   0  0  0  0  0  0  0  0  0  0  0  0  # atno 7974 bound_to 7965
  156.2711  140.2795  156.1401 H   0  0  0  0  0  0  0  0  0  0  0  0  # atno 8008 bound_to 7997
  155.0962  140.0389  157.2701 H   0  0  0  0  0  0  0  0  0  0  0  0  # atno 8009 bound_to 7997
  154.6850  140.2617  155.6875 H   0  0  0  0  0  0  0  0  0  0  0  0  # atno 8010 bound_to 7997
  139.8935  144.6372  150.8714 H   0  0  0  0  0  0  0  0  0  0  0  0  # atno 10167 bound_to 10162
  156.7475  130.9366  151.3113 H   0  0  0  0  0  0  0  0  0  0  0  0  # atno 10718 bound_to 10713
  154.3607  135.6116  153.5689 H   0  0  0  0  0  0  0  0  0  0  0  0  # atno 10763 bound_to 10752
  152.9794  135.5814  154.4636 H   0  0  0  0  0  0  0  0  0  0  0  0  # atno 10764 bound_to 10752
  154.4373  135.2849  155.1849 H   0  0  0  0  0  0  0  0  0  0  0  0  # atno 10765 bound_to 10752
  140.5143  134.0621  155.7827 H   0  0  0  0  0  0  0  0  0  0  0  0  # atno 11005 bound_to 11000
  145.6792  141.0195  143.1615 LP  0  0  0  0  0  0  0  0  0  0  0  0  # atno 17320 bound_to 7965
  144.7102  139.8402  143.7417 LP  0  0  0  0  0  0  0  0  0  0  0  0  # atno 17321 bound_to 7965
  140.7722  143.3492  151.2049 LP  0  0  0  0  0  0  0  0  0  0  0  0  # atno 17342 bound_to 10162
  139.7089  143.9410  152.2939 LP  0  0  0  0  0  0  0  0  0  0  0  0  # atno 17343 bound_to 10162
  157.6791  130.9123  150.0223 LP  0  0  0  0  0  0  0  0  0  0  0  0  # atno 17370 bound_to 10713
  156.1423  130.3642  149.9563 LP  0  0  0  0  0  0  0  0  0  0  0  0  # atno 17371 bound_to 10713
  141.1369  133.9206  157.2414 LP  0  0  0  0  0  0  0  0  0  0  0  0  # atno 17394 bound_to 11000
  139.9641  135.0146  156.9341 LP  0  0  0  0  0  0  0  0  0  0  0  0  # atno 17395 bound_to 11000

$$$$
