AV-unprocessed.smi:2904|AV-procd|sdf|11160|dock2
  -GOLD-   2272016 43D 1   1.00000     0.00000
 Structure written by MMmdl.
 39 40  0  0  0  0  0  0  0  0  1 V2000
  152.8739  137.5267  159.9008 C   0  0  0  0  0  0  0  0  0  0  0  0
  152.2892  138.8812  159.6203 C   0  0  0  0  0  0  0  0  0  0  0  0
  152.5031  139.8679  160.4739 N   0  0  0  0  0  0  0  0  0  0  0  0
  151.8759  140.9345  159.9357 N   0  0  0  0  0  0  0  0  0  0  0  0
  151.8858  142.2027  160.6449 C   0  0  0  0  0  0  0  0  0  0  0  0
  152.5100  142.0618  161.8137 F   0  0  0  0  0  0  0  0  0  0  0  0
  152.4911  143.1427  159.9171 F   0  0  0  0  0  0  0  0  0  0  0  0
  151.2337  140.6079  158.7564 C   0  0  0  0  0  0  0  0  0  0  0  0
  150.4436  141.6082  157.9769 C   0  0  0  0  0  0  0  0  0  0  0  0
  151.4869  139.2842  158.5130 C   0  0  0  0  0  0  0  0  0  0  0  0
  151.0324  138.4313  157.3522 C   0  0  0  0  0  0  0  0  0  0  0  0
  150.7214  139.2762  156.1103 C   0  0  0  0  0  0  0  0  0  0  0  0
  151.6221  139.7717  155.4307 O   0  0  0  0  0  0  0  0  0  0  0  0
  149.4198  139.4330  155.8254 N   0  0  0  0  0  0  0  0  0  0  0  0
  148.8910  140.1914  154.6954 C   0  0  0  0  0  0  0  0  0  0  0  0
  148.1932  141.4631  155.1994 C   0  0  0  0  0  0  0  0  0  0  0  0
  147.5056  142.2004  154.0389 C   0  0  0  0  0  0  0  0  0  0  0  0
  146.5866  141.3306  153.3864 O   0  0  0  0  0  0  0  0  0  0  0  0
  147.2166  140.1968  152.7994 C   0  0  0  0  0  0  0  0  0  0  0  0
  147.8911  139.3462  153.8880 C   0  0  0  0  0  0  0  0  0  0  0  0
  153.1653  137.0258  158.9772 H   0  0  0  0  0  0  0  0  0  0  0  0
  152.1516  136.8895  160.4111 H   0  0  0  0  0  0  0  0  0  0  0  0
  153.7618  137.5959  160.5301 H   0  0  0  0  0  0  0  0  0  0  0  0
  150.8685  142.5412  160.8398 H   0  0  0  0  0  0  0  0  0  0  0  0
  149.9396  141.1434  157.1299 H   0  0  0  0  0  0  0  0  0  0  0  0
  151.0922  142.3930  157.5878 H   0  0  0  0  0  0  0  0  0  0  0  0
  149.6827  142.0745  158.6031 H   0  0  0  0  0  0  0  0  0  0  0  0
  151.7955  137.6979  157.0890 H   0  0  0  0  0  0  0  0  0  0  0  0
  150.1426  137.8563  157.6090 H   0  0  0  0  0  0  0  0  0  0  0  0
  148.7449  138.9933  156.4344 H   0  0  0  0  0  0  0  0  0  0  0  0
  149.7135  140.4905  154.0425 H   0  0  0  0  0  0  0  0  0  0  0  0
  147.4459  141.2046  155.9511 H   0  0  0  0  0  0  0  0  0  0  0  0
  148.9128  142.1220  155.6865 H   0  0  0  0  0  0  0  0  0  0  0  0
  146.9630  143.0673  154.4160 H   0  0  0  0  0  0  0  0  0  0  0  0
  148.2411  142.5722  153.3238 H   0  0  0  0  0  0  0  0  0  0  0  0
  146.4630  139.6070  152.2772 H   0  0  0  0  0  0  0  0  0  0  0  0
  147.9431  140.5177  152.0515 H   0  0  0  0  0  0  0  0  0  0  0  0
  148.3929  138.4908  153.4341 H   0  0  0  0  0  0  0  0  0  0  0  0
  147.1253  138.9427  154.5520 H   0  0  0  0  0  0  0  0  0  0  0  0
  1  2  1  0  0  0  0
  1 21  1  0  0  0  0
  1 22  1  0  0  0  0
  1 23  1  0  0  0  0
  2 10  1  0  0  0  0
  2  3  2  0  0  0  0
  3  4  1  0  0  0  0
  4  5  1  0  0  0  0
  4  8  1  0  0  0  0
  5  6  1  0  0  0  0
  5  7  1  0  0  0  0
  5 24  1  0  0  0  0
  8  9  1  0  0  0  0
  8 10  2  0  0  0  0
  9 25  1  0  0  0  0
  9 26  1  0  0  0  0
  9 27  1  0  0  0  0
 10 11  1  0  0  0  0
 11 12  1  0  0  0  0
 11 28  1  0  0  0  0
 11 29  1  0  0  0  0
 12 13  2  0  0  0  0
 12 14  1  0  0  0  0
 14 15  1  0  0  0  0
 14 30  1  0  0  0  0
 15 20  1  0  0  0  0
 15 16  1  0  0  0  0
 15 31  1  0  0  0  0
 16 17  1  0  0  0  0
 16 32  1  0  0  0  0
 16 33  1  0  0  0  0
 17 18  1  0  0  0  0
 17 34  1  0  0  0  0
 17 35  1  0  0  0  0
 18 19  1  0  0  0  0
 19 20  1  0  0  0  0
 19 36  1  0  0  0  0
 19 37  1  0  0  0  0
 20 38  1  0  0  0  0
 20 39  1  0  0  0  0
M  END
> <s_m_source_file>
AV-unprocessed.smi

> <i_m_source_file_index>
2904

> <i_lp_mmshare_version>
43012

> <i_f3d_flags>
0

> <s_epik_input>
W0NIM11jMW5uKFtDSF0oRilGKWMoW0NIM10pYzFbQ0gyXUMoPU8pW05IXVtDSF0yW0NIMl1bQ0gyXU9bQ0gyXVtDSDJdMg==

> <s_epik_cmdline>
J2VwaWtfcHl0aG9uJywgJy1waCcsICc3LjAnLCAnLXRuJywgJzgnLCAnLW1hJywgJzIwMCcsICctbWV0YWxfYmluZGluZycsICctaW1hZScsICc8aW5maWxlLm1hZT4nLCAnLW9tYWUnLCAnPG91dGZpbGUubWFlPic=

> <r_lp_tautomer_probability>
1

> <r_epik_Ionization_Penalty>
3.9362e-07

> <r_epik_Ionization_Penalty_Charging>
0

> <r_epik_Ionization_Penalty_Neutral>
3.9362e-07

> <r_epik_State_Penalty>
-0

> <r_epik_Charging_Adjusted_Penalty>
0

> <i_epik_Tot_Q>
0

> <i_epik_Tot_abs_Q>
0

> <r_epik_Metal_State_Penalty>
-0

> <b_epik_Metal_Only>
0

> <s_lp_Force_Field>
OPLS_2005

> <r_lp_Energy>
7.93396

> <b_lp_Chiralities_Consistent>
1

> <s_lp_Variant>
AV-unprocessed.smi:2904-1

> <Gold.Version>
5.8.1

> <Gold.Id.Protein>
6NUR|6NUR_protein|mol2

> <Gold.PLP.Fitness>
39.5067

> <Gold.PLP.PLP>
-37.9011

> <Gold.PLP.part.hbond>
-1.0000

> <Gold.PLP.part.metal>
0.0000

> <Gold.PLP.part.buried>
-3.6853

> <Gold.PLP.part.nonpolar>
-33.5191

> <Gold.PLP.part.repulsive>
0.2952

> <Gold.PLP.ligand.clash>
0.0033

> <Gold.PLP.ligand.torsion>
0.6252

> <Gold.PLP.Chemscore.Hbond>
0.9440

> <Gold.PLP.Chemscore.CHOScore>
0.0000

> <Gold.PLP.Chemscore.Metal>
0.0000

> <Gold.Chemscore.Hbonds>
donor molecule, donor type, donor heavy atom, donor atom, acceptor molecule, acceptor atom, score
      P1  H  7989  7998       L1    13  0.54

> <Gold.PLP.Chemscore.Internal.Correction>
0.0273

> <Gold.Rescore>
     Score         DG    S(hbond)    S(metal)    S(lipo)     H(rot)  DE(clash)    DE(int)     intcor
     12.89     -13.51       0.93        0.00      73.70       1.44       0.07       0.54       ----

> <Gold.Chemscore.Fitness>
12.8950

> <Gold.Chemscore.DG>
-13.5109

> <Gold.Chemscore.ZeroCoef>
-5.4800

> <Gold.Chemscore.Hbond>
0.9279

> <Gold.Chemscore.Metal>
0.0000

> <Gold.Chemscore.Lipo>
73.7009

> <Gold.Chemscore.Internal_Hbond>
0.0000

> <Gold.Chemscore.DEClash>
0.0744

> <Gold.Chemscore.DEInternal>
0.5415

> <Gold.Chemscore.Rot>
1.4419

> <Gold.Chemscore.Internal.Correction>
   9.000000E+99

> <Gold.Chemscore.Hbonds>
donor molecule, donor type, donor heavy atom, donor atom, acceptor molecule, acceptor atom, score
      P1  H  7989  7998       L1    13  0.52

> <Gold.Chemscore.Hbond.Weighted>
-3.0991

> <Gold.Chemscore.Metal.Weighted>
-0.0000

> <Gold.Chemscore.Lipo.Weighted>
-8.6230

> <Gold.Chemscore.Internal_Hbond.Weighted>
0.0000

> <Gold.Chemscore.DEClash.Weighted>
0.0744

> <Gold.Chemscore.DEInternal.Weighted>
0.5415

> <Gold.Chemscore.Rot.Weighted>
3.6913

> <Gold.Chemscore.Internal.Correction.Weighted>
   9.000000E+99

> <Gold.Protein.RotatedTorsions>
[ 6907 6896 6895 6894 ] final -159.18 input  -60.11 | X-H torsion
[ 7974 7965 7964 7962 ] final -106.82 input  175.53 | X-H torsion
[ 8008 7997 7996 7995 ] final -167.94 input   59.86 | X-H torsion
[ 10167 10162 10161 10158 ] final  -96.68 input  -65.29 | X-H torsion
[ 10718 10713 10712 10709 ] final   -8.82 input   66.30 | X-H torsion
[ 10763 10752 10751 10750 ] final   42.87 input  -60.55 | X-H torsion
[ 11005 11000 10999 10996 ] final -173.02 input  -57.11 | X-H torsion

> <Gold.Protein.ActiveResidues>
 VAL166  LYS551  ARG553  GLY616  TRP617  ASP618  TYR619  PRO620  LYS621  CYS622 
 ASP623  PHE694  ASN695  SER759  ASP760  ASP761  ALA762  ILE779  LEU786  VAL792 
 PHE793  MET794  SER795  GLU796  ALA797  LYS798  CYS799  TRP800  GLU811  SER814 

> <Gold.Protein.RotatedAtoms>
  151.3296  133.4006  159.2661 H   0  0  0  0  0  0  0  0  0  0  0  0  # atno 6907 bound_to 6896
  150.9967  134.9289  159.7941 H   0  0  0  0  0  0  0  0  0  0  0  0  # atno 6908 bound_to 6896
  152.5263  134.3261  159.9218 H   0  0  0  0  0  0  0  0  0  0  0  0  # atno 6909 bound_to 6896
  145.2130  140.9104  143.3303 H   0  0  0  0  0  0  0  0  0  0  0  0  # atno 7974 bound_to 7965
  155.8846  140.1014  157.1461 H   0  0  0  0  0  0  0  0  0  0  0  0  # atno 8008 bound_to 7997
  154.4008  140.1322  156.4303 H   0  0  0  0  0  0  0  0  0  0  0  0  # atno 8009 bound_to 7997
  155.7604  140.3463  155.5197 H   0  0  0  0  0  0  0  0  0  0  0  0  # atno 8010 bound_to 7997
  140.2913  143.3220  152.0343 H   0  0  0  0  0  0  0  0  0  0  0  0  # atno 10167 bound_to 10162
  156.6970  130.5082  149.5927 H   0  0  0  0  0  0  0  0  0  0  0  0  # atno 10718 bound_to 10713
  152.9873  135.6118  154.3020 H   0  0  0  0  0  0  0  0  0  0  0  0  # atno 10763 bound_to 10752
  154.2740  135.2779  155.2728 H   0  0  0  0  0  0  0  0  0  0  0  0  # atno 10764 bound_to 10752
  154.5097  135.5844  153.6652 H   0  0  0  0  0  0  0  0  0  0  0  0  # atno 10765 bound_to 10752
  140.4904  134.5990  157.4952 H   0  0  0  0  0  0  0  0  0  0  0  0  # atno 11005 bound_to 11000
  144.9838  139.3757  143.6249 LP  0  0  0  0  0  0  0  0  0  0  0  0  # atno 17320 bound_to 7965
  146.3393  139.8990  142.8797 LP  0  0  0  0  0  0  0  0  0  0  0  0  # atno 17321 bound_to 7965
  139.4937  144.6523  151.6649 LP  0  0  0  0  0  0  0  0  0  0  0  0  # atno 17342 bound_to 10162
  140.5730  144.0077  150.6226 LP  0  0  0  0  0  0  0  0  0  0  0  0  # atno 17343 bound_to 10162
  156.1756  130.6465  151.0890 LP  0  0  0  0  0  0  0  0  0  0  0  0  # atno 17370 bound_to 10713
  157.6987  131.0784  150.6887 LP  0  0  0  0  0  0  0  0  0  0  0  0  # atno 17371 bound_to 10713
  139.9772  134.7195  155.9926 LP  0  0  0  0  0  0  0  0  0  0  0  0  # atno 17394 bound_to 11000
  141.1487  133.6552  156.3946 LP  0  0  0  0  0  0  0  0  0  0  0  0  # atno 17395 bound_to 11000

$$$$
