AV-unprocessed.smi:2061|AV-procd|sdf|8365|dock5
  -GOLD-   2272011 33D 1   1.00000     0.00000
 Structure written by MMmdl.
 45 46  0  0  0  0  0  0  0  0  1 V2000
  137.9828  137.6747  154.5962 C   0  0  0  0  0  0  0  0  0  0  0  0
  139.4709  137.6145  154.6438 C   0  0  0  0  0  0  0  0  0  0  0  0
  140.4501  138.4825  154.2493 C   0  0  0  0  0  0  0  0  0  0  0  0
  141.6445  137.7923  154.5880 C   0  0  0  0  0  0  0  0  0  0  0  0
  142.9153  138.3683  154.3328 N   0  0  0  0  0  0  0  0  0  0  0  0
  144.1168  137.9031  154.7151 C   0  0  0  0  0  0  0  0  0  0  0  0
  144.3026  136.8823  155.3779 O   0  0  0  0  0  0  0  0  0  0  0  0
  145.1053  138.7022  154.2868 N   0  0  0  0  0  0  0  0  0  0  0  0
  146.5323  138.4946  154.5259 C   0  0  0  0  0  0  0  0  0  0  0  0
  147.3996  139.7260  154.1383 C   0  0  1  0  0  0  0  0  0  0  0  0
  146.5651  141.0166  154.3443 C   0  0  0  0  0  0  0  0  0  0  0  0
  148.7034  139.7719  154.8434 N   0  0  0  0  0  0  0  0  0  0  0  0
  149.3114  141.1073  154.8088 C   0  0  0  0  0  0  0  0  0  0  0  0
  150.6813  141.1862  155.5112 C   0  0  1  0  0  0  0  0  0  0  0  0
  150.5833  141.1511  157.0461 C   0  0  0  0  0  0  0  0  0  0  0  0
  151.5559  140.1788  155.0094 O   0  0  0  0  0  0  0  0  0  0  0  0
  151.0271  138.8582  155.0502 C   0  0  2  0  0  0  0  0  0  0  0  0
  152.0605  137.9165  154.4229 C   0  0  0  0  0  0  0  0  0  0  0  0
  149.6798  138.8191  154.3061 C   0  0  0  0  0  0  0  0  0  0  0  0
  141.4151  136.6101  155.1385 N   0  0  0  0  0  0  0  0  0  0  0  0
  140.0211  136.4896  155.1764 O   0  0  0  0  0  0  0  0  0  0  0  0
  137.6414  138.6849  154.3696 H   0  0  0  0  0  0  0  0  0  0  0  0
  137.5517  137.3793  155.5530 H   0  0  0  0  0  0  0  0  0  0  0  0
  137.5940  137.0057  153.8283 H   0  0  0  0  0  0  0  0  0  0  0  0
  140.3280  139.4533  153.7926 H   0  0  0  0  0  0  0  0  0  0  0  0
  142.9085  139.2246  153.7989 H   0  0  0  0  0  0  0  0  0  0  0  0
  144.8535  139.5202  153.7514 H   0  0  0  0  0  0  0  0  0  0  0  0
  146.7294  138.2098  155.5608 H   0  0  0  0  0  0  0  0  0  0  0  0
  146.7833  137.6283  153.9168 H   0  0  0  0  0  0  0  0  0  0  0  0
  147.6008  139.6462  153.0688 H   0  0  0  0  0  0  0  0  0  0  0  0
  145.5987  140.9726  153.8441 H   0  0  0  0  0  0  0  0  0  0  0  0
  147.0497  141.8994  153.9310 H   0  0  0  0  0  0  0  0  0  0  0  0
  146.3770  141.1986  155.4030 H   0  0  0  0  0  0  0  0  0  0  0  0
  149.4294  141.4212  153.7705 H   0  0  0  0  0  0  0  0  0  0  0  0
  148.6654  141.8427  155.2843 H   0  0  0  0  0  0  0  0  0  0  0  0
  151.1355  142.1415  155.2465 H   0  0  0  0  0  0  0  0  0  0  0  0
  150.0093  142.0007  157.4166 H   0  0  0  0  0  0  0  0  0  0  0  0
  151.5733  141.1992  157.4998 H   0  0  0  0  0  0  0  0  0  0  0  0
  150.0929  140.2470  157.4063 H   0  0  0  0  0  0  0  0  0  0  0  0
  150.8784  138.5571  156.0876 H   0  0  0  0  0  0  0  0  0  0  0  0
  151.7129  136.8834  154.4408 H   0  0  0  0  0  0  0  0  0  0  0  0
  153.0048  137.9580  154.9663 H   0  0  0  0  0  0  0  0  0  0  0  0
  152.2613  138.1854  153.3855 H   0  0  0  0  0  0  0  0  0  0  0  0
  149.3087  137.7997  154.3900 H   0  0  0  0  0  0  0  0  0  0  0  0
  149.8392  139.0134  153.2443 H   0  0  0  0  0  0  0  0  0  0  0  0
  1  2  1  0  0  0  0
  1 22  1  0  0  0  0
  1 23  1  0  0  0  0
  1 24  1  0  0  0  0
  2 21  1  0  0  0  0
  2  3  2  0  0  0  0
  3  4  1  0  0  0  0
  3 25  1  0  0  0  0
  4  5  1  0  0  0  0
  4 20  2  0  0  0  0
  5  6  1  0  0  0  0
  5 26  1  0  0  0  0
  6  7  2  0  0  0  0
  6  8  1  0  0  0  0
  8  9  1  0  0  0  0
  8 27  1  0  0  0  0
  9 10  1  0  0  0  0
  9 28  1  0  0  0  0
  9 29  1  0  0  0  0
 10 11  1  0  0  0  0
 10 12  1  0  0  0  0
 10 30  1  0  0  0  0
 11 31  1  0  0  0  0
 11 32  1  0  0  0  0
 11 33  1  0  0  0  0
 12 19  1  0  0  0  0
 12 13  1  0  0  0  0
 13 14  1  0  0  0  0
 13 34  1  0  0  0  0
 13 35  1  0  0  0  0
 14 15  1  0  0  0  0
 14 16  1  0  0  0  0
 14 36  1  0  0  0  0
 15 37  1  0  0  0  0
 15 38  1  0  0  0  0
 15 39  1  0  0  0  0
 16 17  1  0  0  0  0
 17 18  1  0  0  0  0
 17 19  1  0  0  0  0
 17 40  1  0  0  0  0
 18 41  1  0  0  0  0
 18 42  1  0  0  0  0
 18 43  1  0  0  0  0
 19 44  1  0  0  0  0
 19 45  1  0  0  0  0
 20 21  1  0  0  0  0
M  END
> <s_m_source_file>
AV-unprocessed.smi

> <i_m_source_file_index>
2061

> <i_lp_mmshare_version>
43012

> <i_f3d_flags>
0

> <s_epik_input>
W0NIM11jMVtjSF1jKG5vMSlbTkhdQyg9TylbTkhdW0NIMl1bQ0BIXShbQ0gzXSlOMltDSDJdW0NAQEhdKFtDSDNdKU9bQ0BASF0oW0NIM10pW0NIMl0y

> <s_epik_cmdline>
J2VwaWtfcHl0aG9uJywgJy1waCcsICc3LjAnLCAnLXRuJywgJzgnLCAnLW1hJywgJzIwMCcsICctbWV0YWxfYmluZGluZycsICctaW1hZScsICc8aW5maWxlLm1hZT4nLCAnLW9tYWUnLCAnPG91dGZpbGUubWFlPic=

> <r_epik_Ionization_Penalty>
0.214073

> <r_epik_Ionization_Penalty_Charging>
0

> <r_epik_Ionization_Penalty_Neutral>
0.214073

> <r_epik_State_Penalty>
0.204211

> <r_epik_Charging_Adjusted_Penalty>
0.204211

> <i_epik_Tot_Q>
0

> <i_epik_Tot_abs_Q>
0

> <r_epik_Metal_State_Penalty>
0.217067

> <b_epik_Metal_Only>
0

> <s_lp_Force_Field>
OPLS_2005

> <r_lp_Energy>
29.5026

> <b_lp_Chiralities_Consistent>
1

> <s_lp_Variant>
AV-unprocessed.smi:2061-6

> <Gold.Version>
5.8.1

> <Gold.Id.Protein>
6NUR|6NUR_protein|mol2

> <Gold.PLP.Fitness>
44.4943

> <Gold.PLP.PLP>
-34.4952

> <Gold.PLP.part.hbond>
-4.2065

> <Gold.PLP.part.metal>
0.0000

> <Gold.PLP.part.buried>
-6.1369

> <Gold.PLP.part.nonpolar>
-24.8701

> <Gold.PLP.part.repulsive>
0.2682

> <Gold.PLP.ligand.clash>
0.4769

> <Gold.PLP.ligand.torsion>
0.7199

> <Gold.PLP.Chemscore.Hbond>
3.9600

> <Gold.PLP.Chemscore.CHOScore>
0.0000

> <Gold.PLP.Chemscore.Metal>
0.0000

> <Gold.Chemscore.Hbonds>
donor molecule, donor type, donor heavy atom, donor atom, acceptor molecule, acceptor atom, score
      L1  H     5    26       P1 10175  1.00
      L1  H     8    27       P1 10175  1.00
      P1  H  7989  7998       L1    16  0.65
      P1  H 11000 11005       L1    21  0.72

> <Gold.PLP.Chemscore.Internal.Correction>
0.0358

> <Gold.Rescore>
     Score         DG    S(hbond)    S(metal)    S(lipo)     H(rot)  DE(clash)    DE(int)     intcor
     16.98     -19.03       2.48        0.00      78.82       1.55       0.16       1.90       ----

> <Gold.Chemscore.Fitness>
16.9752

> <Gold.Chemscore.DG>
-19.0296

> <Gold.Chemscore.ZeroCoef>
-5.4800

> <Gold.Chemscore.Hbond>
2.4816

> <Gold.Chemscore.Metal>
0.0000

> <Gold.Chemscore.Lipo>
78.8242

> <Gold.Chemscore.Internal_Hbond>
0.0000

> <Gold.Chemscore.DEClash>
0.1592

> <Gold.Chemscore.DEInternal>
1.8953

> <Gold.Chemscore.Rot>
1.5474

> <Gold.Chemscore.Internal.Correction>
   9.000000E+99

> <Gold.Chemscore.Hbonds>
donor molecule, donor type, donor heavy atom, donor atom, acceptor molecule, acceptor atom, score
      L1  H     5    26       P1 10175  0.97
      L1  H     8    27       P1 10175  0.93
      P1  H  7989  7998       L1    16  0.05
      P1  H 11000 11005       L1    21  0.10

> <Gold.Chemscore.Hbond.Weighted>
-8.2884

> <Gold.Chemscore.Metal.Weighted>
-0.0000

> <Gold.Chemscore.Lipo.Weighted>
-9.2224

> <Gold.Chemscore.Internal_Hbond.Weighted>
0.0000

> <Gold.Chemscore.DEClash.Weighted>
0.1592

> <Gold.Chemscore.DEInternal.Weighted>
1.8953

> <Gold.Chemscore.Rot.Weighted>
3.9612

> <Gold.Chemscore.Internal.Correction.Weighted>
   9.000000E+99

> <Gold.Protein.RotatedTorsions>
[ 6907 6896 6895 6894 ] final -149.99 input  -60.11 | X-H torsion
[ 7974 7965 7964 7962 ] final   10.63 input  175.53 | X-H torsion
[ 8008 7997 7996 7995 ] final   95.15 input   59.86 | X-H torsion
[ 10167 10162 10161 10158 ] final  156.91 input  -65.29 | X-H torsion
[ 10718 10713 10712 10709 ] final   -7.12 input   66.30 | X-H torsion
[ 10763 10752 10751 10750 ] final -160.62 input  -60.55 | X-H torsion
[ 11005 11000 10999 10996 ] final   63.09 input  -57.11 | X-H torsion

> <Gold.Protein.ActiveResidues>
 VAL166  LYS551  ARG553  GLY616  TRP617  ASP618  TYR619  PRO620  LYS621  CYS622 
 ASP623  PHE694  ASN695  SER759  ASP760  ASP761  ALA762  ILE779  LEU786  VAL792 
 PHE793  MET794  SER795  GLU796  ALA797  LYS798  CYS799  TRP800  GLU811  SER814 

> <Gold.Protein.RotatedAtoms>
  151.1921  133.4661  159.2594 H   0  0  0  0  0  0  0  0  0  0  0  0  # atno 6907 bound_to 6896
  151.1153  135.0049  159.8523 H   0  0  0  0  0  0  0  0  0  0  0  0  # atno 6908 bound_to 6896
  152.5453  134.1837  159.8699 H   0  0  0  0  0  0  0  0  0  0  0  0  # atno 6909 bound_to 6896
  146.2385  139.9606  142.8459 H   0  0  0  0  0  0  0  0  0  0  0  0  # atno 7974 bound_to 7965
  156.0657  140.3290  155.7515 H   0  0  0  0  0  0  0  0  0  0  0  0  # atno 8008 bound_to 7997
  155.5385  140.0599  157.2892 H   0  0  0  0  0  0  0  0  0  0  0  0  # atno 8009 bound_to 7997
  154.4504  140.1915  156.0555 H   0  0  0  0  0  0  0  0  0  0  0  0  # atno 8010 bound_to 7997
  139.4822  144.4965  151.8231 H   0  0  0  0  0  0  0  0  0  0  0  0  # atno 10167 bound_to 10162
  156.7219  130.5153  149.5866 H   0  0  0  0  0  0  0  0  0  0  0  0  # atno 10718 bound_to 10713
  154.7375  135.3060  154.8786 H   0  0  0  0  0  0  0  0  0  0  0  0  # atno 10763 bound_to 10752
  153.9611  135.6753  153.4749 H   0  0  0  0  0  0  0  0  0  0  0  0  # atno 10764 bound_to 10752
  153.0976  135.4928  154.8731 H   0  0  0  0  0  0  0  0  0  0  0  0  # atno 10765 bound_to 10752
  140.0048  134.6387  155.9873 H   0  0  0  0  0  0  0  0  0  0  0  0  # atno 11005 bound_to 11000
  145.1775  140.9751  143.4286 LP  0  0  0  0  0  0  0  0  0  0  0  0  # atno 17320 bound_to 7965
  144.9972  139.3632  143.6185 LP  0  0  0  0  0  0  0  0  0  0  0  0  # atno 17321 bound_to 7965
  140.4454  144.1928  150.5894 LP  0  0  0  0  0  0  0  0  0  0  0  0  # atno 17342 bound_to 10162
  140.4640  143.2438  151.9181 LP  0  0  0  0  0  0  0  0  0  0  0  0  # atno 17343 bound_to 10162
  156.1588  130.6360  151.0692 LP  0  0  0  0  0  0  0  0  0  0  0  0  # atno 17370 bound_to 10713
  157.6894  131.0814  150.7150 LP  0  0  0  0  0  0  0  0  0  0  0  0  # atno 17371 bound_to 10713
  141.1668  133.6537  156.4510 LP  0  0  0  0  0  0  0  0  0  0  0  0  # atno 17394 bound_to 11000
  140.4662  134.6796  157.5108 LP  0  0  0  0  0  0  0  0  0  0  0  0  # atno 17395 bound_to 11000

$$$$
