AV-unprocessed.smi:224|AV-procd|sdf|1712|dock4
  -GOLD-   2262020183D 1   1.00000     0.00000
 Structure written by MMmdl.
 56 59  0  0  0  0  0  0  0  0  2 V2000
  148.3184  141.2981  155.1412 C   0  0  0  0  0  0  0  0  0  0  0  0
  149.2264  140.3520  154.3452 C   0  0  1  0  0  0  0  0  0  0  0  0
  149.4980  140.9505  153.0941 O   0  0  0  0  0  0  0  0  0  0  0  0
  150.5575  140.0766  155.0668 C   0  0  0  0  0  0  0  0  0  0  0  0
  150.5969  138.6941  155.6212 N   0  3  2  0  0  0  0  0  0  0  0  0
  150.8362  137.6965  154.5400 C   0  0  0  0  0  0  0  0  0  0  0  0
  150.8986  136.2542  155.0707 C   0  0  0  0  0  0  0  0  0  0  0  0
  149.7298  135.9443  155.8870 N   0  0  0  0  0  0  0  0  0  0  0  0
  148.5963  135.4820  155.2922 C   0  0  0  0  0  0  0  0  0  0  0  0
  147.4112  136.1114  155.5144 N   0  0  0  0  0  0  0  0  0  0  0  0
  146.2843  135.6539  154.9619 C   0  0  0  0  0  0  0  0  0  0  0  0
  146.1164  134.5982  154.1651 N   0  0  0  0  0  0  0  0  0  0  0  0
  147.3014  133.9697  153.9214 C   0  0  0  0  0  0  0  0  0  0  0  0
  148.5765  134.3457  154.4319 C   0  0  0  0  0  0  0  0  0  0  0  0
  149.5503  133.4818  153.9431 N   0  0  0  0  0  0  0  0  0  0  0  0
  148.8876  132.6343  153.2048 C   0  0  0  0  0  0  0  0  0  0  0  0
  147.5288  132.8445  153.1487 N   0  0  0  0  0  0  0  0  0  0  0  0
  146.5509  132.0485  152.4237 C   0  0  0  0  0  0  0  0  0  0  0  0
  146.1754  132.6494  151.0486 C   0  0  2  0  0  0  0  0  0  0  0  0
  147.3101  132.6120  150.2003 O   0  0  0  0  0  0  0  0  0  0  0  0
  145.6695  134.0883  151.1148 C   0  0  0  0  0  0  0  0  0  0  0  0
  144.6674  134.1495  149.9708 C   0  0  0  0  0  0  0  0  0  0  0  0
  144.0319  132.8859  150.0546 O   0  0  0  0  0  0  0  0  0  0  0  0
  145.0199  131.9042  150.3511 C   0  0  0  0  0  0  0  0  0  0  0  0
  149.5474  136.8761  156.9930 C   0  0  0  0  0  0  0  0  0  0  0  0
  149.4418  138.3394  156.5056 C   0  0  1  0  0  0  0  0  0  0  0  0
  149.3471  139.2463  157.7507 C   0  0  0  0  0  0  0  0  0  0  0  0
  148.0588  140.8687  156.1093 H   0  0  0  0  0  0  0  0  0  0  0  0
  147.3871  141.4908  154.6073 H   0  0  0  0  0  0  0  0  0  0  0  0
  148.8032  142.2580  155.3233 H   0  0  0  0  0  0  0  0  0  0  0  0
  148.6912  139.4187  154.1692 H   0  0  0  0  0  0  0  0  0  0  0  0
  149.5377  140.2734  152.4355 H   0  0  0  0  0  0  0  0  0  0  0  0
  151.3745  140.2756  154.3776 H   0  0  0  0  0  0  0  0  0  0  0  0
  150.7004  140.7966  155.8742 H   0  0  0  0  0  0  0  0  0  0  0  0
  150.0419  137.7788  153.7972 H   0  0  0  0  0  0  0  0  0  0  0  0
  151.7669  137.9284  154.0223 H   0  0  0  0  0  0  0  0  0  0  0  0
  151.0027  135.5430  154.2502 H   0  0  0  0  0  0  0  0  0  0  0  0
  151.7878  136.1310  155.6904 H   0  0  0  0  0  0  0  0  0  0  0  0
  145.3884  136.2101  155.1958 H   0  0  0  0  0  0  0  0  0  0  0  0
  149.3748  131.8230  152.6838 H   0  0  0  0  0  0  0  0  0  0  0  0
  146.9480  131.0401  152.2998 H   0  0  0  0  0  0  0  0  0  0  0  0
  145.6615  131.9520  153.0478 H   0  0  0  0  0  0  0  0  0  0  0  0
  147.8351  131.8622  150.4350 H   0  0  0  0  0  0  0  0  0  0  0  0
  145.1380  134.2583  152.0517 H   0  0  0  0  0  0  0  0  0  0  0  0
  146.4578  134.8384  151.0391 H   0  0  0  0  0  0  0  0  0  0  0  0
  143.9550  134.9681  150.0752 H   0  0  0  0  0  0  0  0  0  0  0  0
  145.1724  134.2481  149.0087 H   0  0  0  0  0  0  0  0  0  0  0  0
  145.3415  131.4222  149.4264 H   0  0  0  0  0  0  0  0  0  0  0  0
  144.5793  131.1333  150.9840 H   0  0  0  0  0  0  0  0  0  0  0  0
  148.6725  136.6270  157.5910 H   0  0  0  0  0  0  0  0  0  0  0  0
  150.4033  136.7711  157.6609 H   0  0  0  0  0  0  0  0  0  0  0  0
  148.5251  138.4442  155.9226 H   0  0  0  0  0  0  0  0  0  0  0  0
  148.5851  138.8781  158.4383 H   0  0  0  0  0  0  0  0  0  0  0  0
  149.0686  140.2719  157.5158 H   0  0  0  0  0  0  0  0  0  0  0  0
  150.2920  139.2710  158.2950 H   0  0  0  0  0  0  0  0  0  0  0  0
  151.4073  138.6602  156.2235 H   0  0  0  0  0  0  0  0  0  0  0  0
  1  2  1  0  0  0  0
  1 28  1  0  0  0  0
  1 29  1  0  0  0  0
  1 30  1  0  0  0  0
  2  3  1  0  0  0  0
  2  4  1  0  0  0  0
  2 31  1  0  0  0  0
  3 32  1  0  0  0  0
  4  5  1  0  0  0  0
  4 33  1  0  0  0  0
  4 34  1  0  0  0  0
  5 26  1  0  0  0  0
  5  6  1  0  0  0  0
  5 56  1  0  0  0  0
  6  7  1  0  0  0  0
  6 35  1  0  0  0  0
  6 36  1  0  0  0  0
  7  8  1  0  0  0  0
  7 37  1  0  0  0  0
  7 38  1  0  0  0  0
  8  9  1  0  0  0  0
  8 25  1  0  0  0  0
  9 14  1  0  0  0  0
  9 10  2  0  0  0  0
 10 11  1  0  0  0  0
 11 12  2  0  0  0  0
 11 39  1  0  0  0  0
 12 13  1  0  0  0  0
 13 17  1  0  0  0  0
 13 14  2  0  0  0  0
 14 15  1  0  0  0  0
 15 16  2  0  0  0  0
 16 17  1  0  0  0  0
 16 40  1  0  0  0  0
 17 18  1  0  0  0  0
 18 19  1  0  0  0  0
 18 41  1  0  0  0  0
 18 42  1  0  0  0  0
 19 24  1  0  0  0  0
 19 20  1  0  0  0  0
 19 21  1  0  0  0  0
 20 43  1  0  0  0  0
 21 22  1  0  0  0  0
 21 44  1  0  0  0  0
 21 45  1  0  0  0  0
 22 23  1  0  0  0  0
 22 46  1  0  0  0  0
 22 47  1  0  0  0  0
 23 24  1  0  0  0  0
 24 48  1  0  0  0  0
 24 49  1  0  0  0  0
 25 26  1  0  0  0  0
 25 50  1  0  0  0  0
 25 51  1  0  0  0  0
 26 27  1  0  0  0  0
 26 52  1  0  0  0  0
 27 53  1  0  0  0  0
 27 54  1  0  0  0  0
 27 55  1  0  0  0  0
M  CHG  1   5   1
M  END
> <s_m_source_file>
AV-unprocessed.smi

> <i_m_source_file_index>
224

> <i_lp_mmshare_version>
43012

> <i_f3d_flags>
0

> <s_epik_input>
W0NIM11bQ0BIXShbT0hdKVtDSDJdTjFbQ0gyXVtDSDJdTihbQ0gyXVtDQEhdMVtDSDNdKWMobltjSF1uMiljKGMyMyluW2NIXW4zW0NIMl1bQ0BAXTQoW09IXSlbQ0gyXVtDSDJdT1tDSDJdNA==

> <s_epik_cmdline>
J2VwaWtfcHl0aG9uJywgJy1waCcsICc3LjAnLCAnLXRuJywgJzgnLCAnLW1hJywgJzIwMCcsICctbWV0YWxfYmluZGluZycsICctaW1hZScsICc8aW5maWxlLm1hZT4nLCAnLW9tYWUnLCAnPG91dGZpbGUubWFlPic=

> <r_lp_tautomer_probability>
1

> <r_epik_Ionization_Penalty>
0.00516958

> <r_epik_Ionization_Penalty_Charging>
0.00509693

> <r_epik_Ionization_Penalty_Neutral>
7.26542e-05

> <r_epik_State_Penalty>
-0

> <r_epik_Charging_Adjusted_Penalty>
0.00509693

> <i_epik_Tot_Q>
1

> <i_epik_Tot_abs_Q>
1

> <r_epik_Metal_State_Penalty>
-0

> <b_epik_Metal_Only>
0

> <s_lp_Force_Field>
OPLS_2005

> <r_lp_Energy>
47.1484

> <b_lp_Chiralities_Consistent>
1

> <s_lp_Variant>
AV-unprocessed.smi:224-6

> <Gold.Version>
5.8.1

> <Gold.Id.Protein>
6NUR|6NUR_protein|mol2

> <Gold.PLP.Fitness>
46.6269

> <Gold.PLP.PLP>
-37.2264

> <Gold.PLP.part.hbond>
-3.8331

> <Gold.PLP.part.metal>
0.0000

> <Gold.PLP.part.buried>
-5.8582

> <Gold.PLP.part.nonpolar>
-28.5763

> <Gold.PLP.part.repulsive>
0.6023

> <Gold.PLP.ligand.clash>
0.0000

> <Gold.PLP.ligand.torsion>
1.3157

> <Gold.PLP.Chemscore.Hbond>
2.8358

> <Gold.PLP.Chemscore.CHOScore>
1.0000

> <Gold.PLP.Chemscore.Metal>
0.0000

> <Gold.Chemscore.Hbonds>
donor molecule, donor type, donor heavy atom, donor atom, acceptor molecule, acceptor atom, score
      L1  H     3    32       P1  7957  0.37
      L1  H    20    43       P1 10747  0.98
      P1  H  7989  7998       L1     3  0.04
      P1  H  8011  8017       L1     3  1.00
      L1  C    16    40       P1 10747  0.85

> <Gold.PLP.Chemscore.Internal.Correction>
0.5245

> <Gold.Rescore>
     Score         DG    S(hbond)    S(metal)    S(lipo)     H(rot)  DE(clash)    DE(int)     intcor
     12.00     -13.47       2.27        0.00      77.12       3.36       0.06       1.41       ----

> <Gold.Chemscore.Fitness>
12.0020

> <Gold.Chemscore.DG>
-13.4713

> <Gold.Chemscore.ZeroCoef>
-5.4800

> <Gold.Chemscore.Hbond>
2.2673

> <Gold.Chemscore.Metal>
0.0000

> <Gold.Chemscore.Lipo>
77.1203

> <Gold.Chemscore.Internal_Hbond>
0.0000

> <Gold.Chemscore.DEClash>
0.0623

> <Gold.Chemscore.DEInternal>
1.4071

> <Gold.Chemscore.Rot>
3.3611

> <Gold.Chemscore.Internal.Correction>
   9.000000E+99

> <Gold.Chemscore.Hbonds>
donor molecule, donor type, donor heavy atom, donor atom, acceptor molecule, acceptor atom, score
      L1  H     3    32       P1  7957  0.36
      L1  H    20    43       P1 10747  0.90
      P1  H  8011  8017       L1     3  0.60

> <Gold.Chemscore.Hbond.Weighted>
-7.5727

> <Gold.Chemscore.Metal.Weighted>
-0.0000

> <Gold.Chemscore.Lipo.Weighted>
-9.0231

> <Gold.Chemscore.Internal_Hbond.Weighted>
0.0000

> <Gold.Chemscore.DEClash.Weighted>
0.0623

> <Gold.Chemscore.DEInternal.Weighted>
1.4071

> <Gold.Chemscore.Rot.Weighted>
8.6045

> <Gold.Chemscore.Internal.Correction.Weighted>
   9.000000E+99

> <Gold.Protein.RotatedTorsions>
[ 6907 6896 6895 6894 ] final -101.04 input  -60.11 | X-H torsion
[ 7974 7965 7964 7962 ] final -156.33 input  175.53 | X-H torsion
[ 8008 7997 7996 7995 ] final   51.52 input   59.86 | X-H torsion
[ 10167 10162 10161 10158 ] final   50.74 input  -65.29 | X-H torsion
[ 10718 10713 10712 10709 ] final  139.65 input   66.30 | X-H torsion
[ 10763 10752 10751 10750 ] final   84.68 input  -60.55 | X-H torsion
[ 11005 11000 10999 10996 ] final   55.47 input  -57.11 | X-H torsion

> <Gold.Protein.ActiveResidues>
 VAL166  LYS551  ARG553  GLY616  TRP617  ASP618  TYR619  PRO620  LYS621  CYS622 
 ASP623  PHE694  ASN695  SER759  ASP760  ASP761  ALA762  ILE779  LEU786  VAL792 
 PHE793  MET794  SER795  GLU796  ALA797  LYS798  CYS799  TRP800  GLU811  SER814 

> <Gold.Protein.RotatedAtoms>
  150.7139  134.0795  159.3892 H   0  0  0  0  0  0  0  0  0  0  0  0  # atno 6907 bound_to 6896
  151.8778  135.0463  160.0495 H   0  0  0  0  0  0  0  0  0  0  0  0  # atno 6908 bound_to 6896
  152.2592  133.5246  159.5408 H   0  0  0  0  0  0  0  0  0  0  0  0  # atno 6909 bound_to 6896
  144.7598  140.4125  143.5985 H   0  0  0  0  0  0  0  0  0  0  0  0  # atno 7974 bound_to 7965
  155.4366  140.3453  155.4285 H   0  0  0  0  0  0  0  0  0  0  0  0  # atno 8008 bound_to 7997
  156.1304  140.1512  156.9104 H   0  0  0  0  0  0  0  0  0  0  0  0  # atno 8009 bound_to 7997
  154.4890  140.0846  156.7532 H   0  0  0  0  0  0  0  0  0  0  0  0  # atno 8010 bound_to 7997
  140.2692  144.3285  150.6295 H   0  0  0  0  0  0  0  0  0  0  0  0  # atno 10167 bound_to 10162
  157.4121  131.1029  151.0443 H   0  0  0  0  0  0  0  0  0  0  0  0  # atno 10718 bound_to 10713
  153.1404  135.4645  154.9487 H   0  0  0  0  0  0  0  0  0  0  0  0  # atno 10763 bound_to 10752
  154.7742  135.3168  154.8128 H   0  0  0  0  0  0  0  0  0  0  0  0  # atno 10764 bound_to 10752
  153.8652  135.6909  153.4833 H   0  0  0  0  0  0  0  0  0  0  0  0  # atno 10765 bound_to 10752
  140.0604  134.5610  155.9158 H   0  0  0  0  0  0  0  0  0  0  0  0  # atno 11005 bound_to 11000
  145.6657  139.1589  143.2783 LP  0  0  0  0  0  0  0  0  0  0  0  0  # atno 17320 bound_to 7965
  146.1649  140.6733  142.9260 LP  0  0  0  0  0  0  0  0  0  0  0  0  # atno 17321 bound_to 7965
  140.5903  143.2168  151.7265 LP  0  0  0  0  0  0  0  0  0  0  0  0  # atno 17342 bound_to 10162
  139.4994  144.3949  152.0242 LP  0  0  0  0  0  0  0  0  0  0  0  0  # atno 17343 bound_to 10162
  157.1404  130.6140  149.5553 LP  0  0  0  0  0  0  0  0  0  0  0  0  # atno 17370 bound_to 10713
  155.9854  130.4883  150.7028 LP  0  0  0  0  0  0  0  0  0  0  0  0  # atno 17371 bound_to 10713
  141.1971  133.6594  156.5723 LP  0  0  0  0  0  0  0  0  0  0  0  0  # atno 17394 bound_to 11000
  140.3779  134.7549  157.4641 LP  0  0  0  0  0  0  0  0  0  0  0  0  # atno 17395 bound_to 11000

$$$$
