AV-unprocessed.smi:2501|AV-procd|sdf|9843|dock7
  -GOLD-   2272013473D 1   1.00000     0.00000
 Structure written by MMmdl.
 43 44  0  0  0  0  0  0  0  0  1 V2000
  151.3521  145.4947  160.1025 C   0  0  0  0  0  0  0  0  0  0  0  0
  152.0537  144.1728  160.3598 C   0  0  0  0  0  0  0  0  0  0  0  0
  152.5530  143.8844  161.6488 C   0  0  0  0  0  0  0  0  0  0  0  0
  153.1867  142.7356  161.9656 N   0  0  0  0  0  0  0  0  0  0  0  0
  153.3494  141.8169  160.9914 C   0  0  0  0  0  0  0  0  0  0  0  0
  152.8917  142.0000  159.6721 C   0  0  0  0  0  0  0  0  0  0  0  0
  152.2278  143.2006  159.3434 C   0  0  0  0  0  0  0  0  0  0  0  0
  151.7292  143.4123  157.9225 C   0  0  0  0  0  0  0  0  0  0  0  0
  150.6110  142.4308  157.5448 C   0  0  0  0  0  0  0  0  0  0  0  0
  151.1457  141.0849  157.3879 N   0  0  0  0  0  0  0  0  0  0  0  0
  151.2877  140.4450  156.2158 C   0  0  0  0  0  0  0  0  0  0  0  0
  150.9750  140.9671  155.1449 O   0  0  0  0  0  0  0  0  0  0  0  0
  151.8006  139.1917  156.3101 N   0  0  0  0  0  0  0  0  0  0  0  0
  151.8299  138.3451  157.5138 C   0  0  0  0  0  0  0  0  0  0  0  0
  150.7889  137.2202  157.3559 C   0  0  0  0  0  0  0  0  0  0  0  0
  151.0058  136.3925  156.0619 C   0  0  0  0  0  0  0  0  0  0  0  0
  152.1843  135.6243  156.2342 O   0  0  0  0  0  0  0  0  0  0  0  0
  149.8458  135.3966  155.8211 C   0  0  0  0  0  0  0  0  0  0  0  0
  149.7350  134.5612  156.8546 F   0  0  0  0  0  0  0  0  0  0  0  0
  148.6879  136.0443  155.6844 F   0  0  0  0  0  0  0  0  0  0  0  0
  150.0716  134.6718  154.7241 F   0  0  0  0  0  0  0  0  0  0  0  0
  151.2251  137.3224  154.8405 C   0  0  0  0  0  0  0  0  0  0  0  0
  152.2447  138.4412  155.1304 C   0  0  0  0  0  0  0  0  0  0  0  0
  151.4061  146.1459  160.9755 H   0  0  0  0  0  0  0  0  0  0  0  0
  150.2994  145.3284  159.8732 H   0  0  0  0  0  0  0  0  0  0  0  0
  151.8109  146.0228  159.2669 H   0  0  0  0  0  0  0  0  0  0  0  0
  152.4407  144.5960  162.4537 H   0  0  0  0  0  0  0  0  0  0  0  0
  153.8606  140.9077  161.2710 H   0  0  0  0  0  0  0  0  0  0  0  0
  153.0498  141.2317  158.9295 H   0  0  0  0  0  0  0  0  0  0  0  0
  151.3646  144.4364  157.8294 H   0  0  0  0  0  0  0  0  0  0  0  0
  152.5595  143.3300  157.2210 H   0  0  0  0  0  0  0  0  0  0  0  0
  149.8344  142.4383  158.3109 H   0  0  0  0  0  0  0  0  0  0  0  0
  150.1406  142.7354  156.6090 H   0  0  0  0  0  0  0  0  0  0  0  0
  151.4249  140.6012  158.2290 H   0  0  0  0  0  0  0  0  0  0  0  0
  152.8280  137.9191  157.6265 H   0  0  0  0  0  0  0  0  0  0  0  0
  151.6487  138.8879  158.4414 H   0  0  0  0  0  0  0  0  0  0  0  0
  150.8098  136.5703  158.2315 H   0  0  0  0  0  0  0  0  0  0  0  0
  149.7956  137.6703  157.3380 H   0  0  0  0  0  0  0  0  0  0  0  0
  151.9351  134.7448  156.4741 H   0  0  0  0  0  0  0  0  0  0  0  0
  151.5474  136.7430  153.9743 H   0  0  0  0  0  0  0  0  0  0  0  0
  150.2773  137.7831  154.5595 H   0  0  0  0  0  0  0  0  0  0  0  0
  152.3628  139.0722  154.2484 H   0  0  0  0  0  0  0  0  0  0  0  0
  153.2317  138.0164  155.3188 H   0  0  0  0  0  0  0  0  0  0  0  0
  1  2  1  0  0  0  0
  1 24  1  0  0  0  0
  1 25  1  0  0  0  0
  1 26  1  0  0  0  0
  2  7  1  0  0  0  0
  2  3  2  0  0  0  0
  3  4  1  0  0  0  0
  3 27  1  0  0  0  0
  4  5  2  0  0  0  0
  5  6  1  0  0  0  0
  5 28  1  0  0  0  0
  6  7  2  0  0  0  0
  6 29  1  0  0  0  0
  7  8  1  0  0  0  0
  8  9  1  0  0  0  0
  8 30  1  0  0  0  0
  8 31  1  0  0  0  0
  9 10  1  0  0  0  0
  9 32  1  0  0  0  0
  9 33  1  0  0  0  0
 10 11  1  0  0  0  0
 10 34  1  0  0  0  0
 11 12  2  0  0  0  0
 11 13  1  0  0  0  0
 13 23  1  0  0  0  0
 13 14  1  0  0  0  0
 14 15  1  0  0  0  0
 14 35  1  0  0  0  0
 14 36  1  0  0  0  0
 15 16  1  0  0  0  0
 15 37  1  0  0  0  0
 15 38  1  0  0  0  0
 16 17  1  0  0  0  0
 16 18  1  0  0  0  0
 16 22  1  0  0  0  0
 17 39  1  0  0  0  0
 18 19  1  0  0  0  0
 18 20  1  0  0  0  0
 18 21  1  0  0  0  0
 22 23  1  0  0  0  0
 22 40  1  0  0  0  0
 22 41  1  0  0  0  0
 23 42  1  0  0  0  0
 23 43  1  0  0  0  0
M  END
> <s_m_source_file>
AV-unprocessed.smi

> <i_m_source_file_index>
2501

> <i_lp_mmshare_version>
43012

> <i_f3d_flags>
0

> <s_epik_input>
W0NIM11jMVtjSF1uW2NIXVtjSF1jMVtDSDJdW0NIMl1bTkhdQyg9TylOKFtDSDJdW0NIMl0yKVtDSDJdW0NIMl1DMihbT0hdKUMoRikoRilG

> <s_epik_cmdline>
J2VwaWtfcHl0aG9uJywgJy1waCcsICc3LjAnLCAnLXRuJywgJzgnLCAnLW1hJywgJzIwMCcsICctbWV0YWxfYmluZGluZycsICctaW1hZScsICc8aW5maWxlLm1hZT4nLCAnLW9tYWUnLCAnPG91dGZpbGUubWFlPic=

> <r_epik_Ionization_Penalty>
0.105852

> <r_epik_Ionization_Penalty_Charging>
0

> <r_epik_Ionization_Penalty_Neutral>
0.105852

> <r_epik_State_Penalty>
0.0956543

> <r_epik_Charging_Adjusted_Penalty>
0.0956543

> <i_epik_Tot_Q>
0

> <i_epik_Tot_abs_Q>
0

> <r_epik_Metal_State_Penalty>
0.0810448

> <b_epik_Metal_Only>
0

> <s_lp_Force_Field>
OPLS_2005

> <r_lp_Energy>
37.1862

> <b_lp_Chiralities_Consistent>
1

> <s_lp_Variant>
AV-unprocessed.smi:2501-1

> <Gold.Version>
5.8.1

> <Gold.Id.Protein>
6NUR|6NUR_protein|mol2

> <Gold.PLP.Fitness>
51.1035

> <Gold.PLP.PLP>
-46.4246

> <Gold.PLP.part.hbond>
-2.0000

> <Gold.PLP.part.metal>
0.0000

> <Gold.PLP.part.buried>
-4.7514

> <Gold.PLP.part.nonpolar>
-39.9719

> <Gold.PLP.part.repulsive>
0.2060

> <Gold.PLP.ligand.clash>
0.0000

> <Gold.PLP.ligand.torsion>
0.2493

> <Gold.PLP.Chemscore.Hbond>
1.7040

> <Gold.PLP.Chemscore.CHOScore>
0.0000

> <Gold.PLP.Chemscore.Metal>
0.0000

> <Gold.Chemscore.Hbonds>
donor molecule, donor type, donor heavy atom, donor atom, acceptor molecule, acceptor atom, score
      P1  H  7989  7998       L1    12  0.72
      P1  H 10752 10763       L1    17  0.99

> <Gold.PLP.Chemscore.Internal.Correction>
0.0654

> <Gold.Rescore>
     Score         DG    S(hbond)    S(metal)    S(lipo)     H(rot)  DE(clash)    DE(int)     intcor
     19.64     -19.98       1.86        0.00     113.45       1.95       0.04       0.30       ----

> <Gold.Chemscore.Fitness>
19.6372

> <Gold.Chemscore.DG>
-19.9822

> <Gold.Chemscore.ZeroCoef>
-5.4800

> <Gold.Chemscore.Hbond>
1.8621

> <Gold.Chemscore.Metal>
0.0000

> <Gold.Chemscore.Lipo>
113.4486

> <Gold.Chemscore.Internal_Hbond>
0.0000

> <Gold.Chemscore.DEClash>
0.0408

> <Gold.Chemscore.DEInternal>
0.3042

> <Gold.Chemscore.Rot>
1.9495

> <Gold.Chemscore.Internal.Correction>
   9.000000E+99

> <Gold.Chemscore.Hbonds>
donor molecule, donor type, donor heavy atom, donor atom, acceptor molecule, acceptor atom, score
      P1  H  7989  7998       L1    12  0.72
      P1  H 10752 10763       L1    17  0.44

> <Gold.Chemscore.Hbond.Weighted>
-6.2194

> <Gold.Chemscore.Metal.Weighted>
-0.0000

> <Gold.Chemscore.Lipo.Weighted>
-13.2735

> <Gold.Chemscore.Internal_Hbond.Weighted>
0.0000

> <Gold.Chemscore.DEClash.Weighted>
0.0408

> <Gold.Chemscore.DEInternal.Weighted>
0.3042

> <Gold.Chemscore.Rot.Weighted>
4.9907

> <Gold.Chemscore.Internal.Correction.Weighted>
   9.000000E+99

> <Gold.Protein.RotatedTorsions>
[ 6907 6896 6895 6894 ] final   66.44 input  -60.11 | X-H torsion
[ 7974 7965 7964 7962 ] final  171.43 input  175.53 | X-H torsion
[ 8008 7997 7996 7995 ] final  -41.26 input   59.86 | X-H torsion
[ 10167 10162 10161 10158 ] final -165.29 input  -65.29 | X-H torsion
[ 10718 10713 10712 10709 ] final  -66.62 input   66.30 | X-H torsion
[ 10763 10752 10751 10750 ] final   87.80 input  -60.55 | X-H torsion
[ 11005 11000 10999 10996 ] final  147.69 input  -57.11 | X-H torsion

> <Gold.Protein.ActiveResidues>
 VAL166  LYS551  ARG553  GLY616  TRP617  ASP618  TYR619  PRO620  LYS621  CYS622 
 ASP623  PHE694  ASN695  SER759  ASP760  ASP761  ALA762  ILE779  LEU786  VAL792 
 PHE793  MET794  SER795  GLU796  ALA797  LYS798  CYS799  TRP800  GLU811  SER814 

> <Gold.Protein.RotatedAtoms>
  152.4481  134.5452  159.9850 H   0  0  0  0  0  0  0  0  0  0  0  0  # atno 6907 bound_to 6896
  151.5531  133.3408  159.2965 H   0  0  0  0  0  0  0  0  0  0  0  0  # atno 6908 bound_to 6896
  150.8402  134.7724  159.6990 H   0  0  0  0  0  0  0  0  0  0  0  0  # atno 6909 bound_to 6896
  144.7295  139.9349  143.6426 H   0  0  0  0  0  0  0  0  0  0  0  0  # atno 7974 bound_to 7965
  154.4005  140.1504  156.3161 H   0  0  0  0  0  0  0  0  0  0  0  0  # atno 8008 bound_to 7997
  155.8571  140.3455  155.5710 H   0  0  0  0  0  0  0  0  0  0  0  0  # atno 8009 bound_to 7997
  155.7920  140.0858  157.1994 H   0  0  0  0  0  0  0  0  0  0  0  0  # atno 8010 bound_to 7997
  139.6192  144.0658  152.1917 H   0  0  0  0  0  0  0  0  0  0  0  0  # atno 10167 bound_to 10162
  156.0602  130.4265  150.1736 H   0  0  0  0  0  0  0  0  0  0  0  0  # atno 10718 bound_to 10713
  153.1705  135.4530  154.9895 H   0  0  0  0  0  0  0  0  0  0  0  0  # atno 10763 bound_to 10752
  154.7962  135.3238  154.7663 H   0  0  0  0  0  0  0  0  0  0  0  0  # atno 10764 bound_to 10752
  153.8140  135.6952  153.4891 H   0  0  0  0  0  0  0  0  0  0  0  0  # atno 10765 bound_to 10752
  140.0897  134.9048  157.1632 H   0  0  0  0  0  0  0  0  0  0  0  0  # atno 11005 bound_to 11000
  146.0829  139.3817  143.0453 LP  0  0  0  0  0  0  0  0  0  0  0  0  # atno 17320 bound_to 7965
  145.7816  140.9854  143.1096 LP  0  0  0  0  0  0  0  0  0  0  0  0  # atno 17321 bound_to 7965
  140.0296  144.6091  150.7499 LP  0  0  0  0  0  0  0  0  0  0  0  0  # atno 17342 bound_to 10162
  140.7371  143.2761  151.3737 LP  0  0  0  0  0  0  0  0  0  0  0  0  # atno 17343 bound_to 10162
  156.9805  130.9863  151.3438 LP  0  0  0  0  0  0  0  0  0  0  0  0  # atno 17370 bound_to 10713
  157.5605  130.8242  149.8259 LP  0  0  0  0  0  0  0  0  0  0  0  0  # atno 17371 bound_to 10713
  140.3369  134.2747  155.7218 LP  0  0  0  0  0  0  0  0  0  0  0  0  # atno 17394 bound_to 11000
  141.2074  133.7807  157.0121 LP  0  0  0  0  0  0  0  0  0  0  0  0  # atno 17395 bound_to 11000

$$$$
