#       Name:                AV-unprocessed.smi:2310
#       Creating user name   scv26
#       Creation time:       Fri Mar 27 12:47:39 2020


#       File generated by GOLD software.
#

@<TRIPOS>MOLECULE
AV-unprocessed.smi:2310
    49    50     1
SMALL
NO_CHARGES


@<TRIPOS>ATOM
      1 ****        -4.5193  -1.9736   2.5490 C.3            1 S1                 0.0000
      2 ****        -4.8962  -2.6687   1.2325 C.3            1 S1                 0.0000
      3 ****        -4.4245  -1.9125  -0.0231 C.3            1 S1                 0.0000
      4 ****        -4.9236  -2.5939  -1.3070 C.3            1 S1                 0.0000
      5 ****        -4.6338  -1.8241  -2.5276 C.1            1 S1                 0.0000
      6 ****        -4.4055  -1.2192  -3.4868 N.1            1 S1                 0.0000
      7 ****        -2.9637  -1.8338  -0.0392 N.am           1 S1                 0.0000
      8 ****        -2.2381  -0.7115  -0.1491 C.2            1 S1                 0.0000
      9 ****        -2.7294   0.4109  -0.2639 O.2            1 S1                 0.0000
     10 ****        -0.9231  -0.9821  -0.0946 N.am           1 S1                 0.0000
     11 ****         0.1698  -0.0719  -0.1349 C.ar           1 S1                 0.0000
     12 ****         0.1072   1.1909  -0.7695 C.ar           1 S1                 0.0000
     13 ****         1.2485   2.0147  -0.7740 C.ar           1 S1                 0.0000
     14 ****         2.4339   1.5532  -0.1561 C.ar           1 S1                 0.0000
     15 ****         3.5987   2.3460  -0.1324 N.pl3          1 S1                 0.0000
     16 ****         3.8032   3.4405  -1.0713 C.3            1 S1                 0.0000
     17 ****         5.3231   3.5957  -1.2016 C.3            1 S1                 0.0000
     18 ****         5.8772   2.9365   0.0615 C.3            1 S1                 0.0000
     19 ****         4.8708   1.8216   0.3403 C.3            1 S1                 0.0000
     20 ****         2.4960   0.3413   0.4435 N.ar           1 S1                 0.0000
     21 ****         1.4014  -0.4497   0.4493 C.ar           1 S1                 0.0000
     22 ****         1.5724  -1.7899   1.1422 C.3            1 S1                 0.0000
     23 ****        -4.9244  -2.5167   3.4029 H              1 S1                 0.0000
     24 ****        -4.9149  -0.9581   2.5835 H              1 S1                 0.0000
     25 ****        -3.4382  -1.9170   2.6783 H              1 S1                 0.0000
     26 ****        -4.4896  -3.6809   1.2289 H              1 S1                 0.0000
     27 ****        -5.9806  -2.7786   1.1955 H              1 S1                 0.0000
     28 ****        -4.8599  -0.9122   0.0123 H              1 S1                 0.0000
     29 ****        -4.4793  -3.5835  -1.4168 H              1 S1                 0.0000
     30 ****        -6.0043  -2.7315  -1.2647 H              1 S1                 0.0000
     31 ****        -2.4657  -2.7069   0.0539 H              1 S1                 0.0000
     32 ****        -0.6763  -1.9445   0.0827 H              1 S1                 0.0000
     33 ****        -0.7873   1.5389  -1.2625 H              1 S1                 0.0000
     34 ****         1.1967   2.9837  -1.2474 H              1 S1                 0.0000
     35 ****         3.3484   3.2433  -2.0427 H              1 S1                 0.0000
     36 ****         3.3552   4.3451  -0.6591 H              1 S1                 0.0000
     37 ****         5.6719   3.0486  -2.0785 H              1 S1                 0.0000
     38 ****         5.6345   4.6348  -1.3105 H              1 S1                 0.0000
     39 ****         6.8961   2.5674  -0.0595 H              1 S1                 0.0000
     40 ****         5.8728   3.6536   0.8834 H              1 S1                 0.0000
     41 ****         4.8344   1.5678   1.4004 H              1 S1                 0.0000
     42 ****         5.1259   0.9228  -0.2229 H              1 S1                 0.0000
     43 ****         0.8669  -1.8817   1.9685 H              1 S1                 0.0000
     44 ****         2.5795  -1.9076   1.5444 H              1 S1                 0.0000
     45 ****         1.3928  -2.6057   0.4415 H              1 S1                 0.0000
     46 ****        -4.2081  -0.6963  -4.3160 LP             1 S1                 0.0000
     47 ****        -3.7230   0.5226  -0.2791 LP             1 S1                 0.0000
     48 ****        -2.1350   1.2113  -0.3419 LP             1 S1                 0.0000
     49 ****         3.3432   0.0349   0.8775 LP             1 S1                 0.0000
@<TRIPOS>BOND
    1    1    2 1     
    2    1   23 1     
    3    1   24 1     
    4    1   25 1     
    5    2    3 1     
    6    2   26 1     
    7    2   27 1     
    8    3    4 1     
    9    3    7 1     
   10    3   28 1     
   11    4    5 1     
   12    4   29 1     
   13    4   30 1     
   14    5    6 3     
   15    7    8 am    
   16    7   31 1     
   17    8    9 2     
   18    8   10 am    
   19   10   11 1     
   20   10   32 1     
   21   11   21 ar    
   22   11   12 ar    
   23   12   13 ar    
   24   12   33 1     
   25   13   14 ar    
   26   13   34 1     
   27   14   15 1     
   28   14   20 ar    
   29   15   19 1     
   30   15   16 1     
   31   16   17 1     
   32   16   35 1     
   33   16   36 1     
   34   17   18 1     
   35   17   37 1     
   36   17   38 1     
   37   18   19 1     
   38   18   39 1     
   39   18   40 1     
   40   19   41 1     
   41   19   42 1     
   42   20   21 ar    
   43   21   22 1     
   44   22   43 1     
   45   22   44 1     
   46   22   45 1     
   47    6   46 1     
   48    9   47 1     
   49    9   48 1     
   50   20   49 1     
@<TRIPOS>SUBSTRUCTURE
      1 S1             1
@<TRIPOS>SET
LONE_PAIRS      STATIC     ATOMS    <user>   **** ""
4 46 47 48 49
DONOR_HYDROGENS      STATIC     ATOMS    <user>   **** ""
2 31 32
ATOM$BLUE        STATIC     ATOMS    COLORGROUP SYSTEM
4 46 47 48 49
ATOM$RED        STATIC     ATOMS    COLORGROUP SYSTEM
2 31 32
