#       Name:                AV-unprocessed.smi:1836
#       Creating user name   scv26
#       Creation time:       Fri Mar 27 09:17:31 2020


#       File generated by GOLD software.
#

@<TRIPOS>MOLECULE
AV-unprocessed.smi:1836
    39    40     1
SMALL
NO_CHARGES


@<TRIPOS>ATOM
      1 ****        -0.6457   3.4495  -0.9705 C.3            1 S1                 0.0000
      2 ****        -0.2361   1.9734  -0.8753 C.3            1 S1                 0.0000
      3 ****         1.2939   1.8334  -0.6985 C.3            1 S1                 0.0000
      4 ****         1.7652   0.4682  -0.9271 N.am           1 S1                 0.0000
      5 ****         2.2304  -0.3526   0.1789 C.3            1 S1                 0.0000
      6 ****         2.3391  -1.7686  -0.4023 C.3            1 S1                 0.0000
      7 ****         2.3367  -1.5887  -1.9242 C.3            1 S1                 0.0000
      8 ****         1.8424  -0.1635  -2.1048 C.2            1 S1                 0.0000
      9 ****         1.5526   0.3096  -3.2027 O.2            1 S1                 0.0000
     10 ****        -0.9424   1.3706   0.2542 N.am           1 S1                 0.0000
     11 ****        -1.3962   0.1089   0.3057 C.2            1 S1                 0.0000
     12 ****        -1.2789  -0.6951  -0.6194 O.2            1 S1                 0.0000
     13 ****        -1.9786  -0.1505   1.4893 N.am           1 S1                 0.0000
     14 ****        -2.5141  -1.3809   1.9537 C.2            1 S1                 0.0000
     15 ****        -2.4538  -2.5282   1.2595 N.2            1 S1                 0.0000
     16 ****        -3.0445  -3.5819   1.9450 N.2            1 S1                 0.0000
     17 ****        -3.5246  -3.1888   3.1281 C.2            1 S1                 0.0000
     18 ****        -3.2992  -1.4935   3.5222 S.3            1 S1                 0.0000
     19 ****        -0.1739   3.9317  -1.8272 H              1 S1                 0.0000
     20 ****        -0.3564   4.0030  -0.0765 H              1 S1                 0.0000
     21 ****        -1.7247   3.5514  -1.0920 H              1 S1                 0.0000
     22 ****        -0.5476   1.4961  -1.8061 H              1 S1                 0.0000
     23 ****         1.8079   2.4853  -1.4067 H              1 S1                 0.0000
     24 ****         1.5963   2.1719   0.2937 H              1 S1                 0.0000
     25 ****         3.2050   0.0104   0.5080 H              1 S1                 0.0000
     26 ****         1.5471  -0.3150   1.0280 H              1 S1                 0.0000
     27 ****         3.2314  -2.2859  -0.0489 H              1 S1                 0.0000
     28 ****         1.4736  -2.3610  -0.1013 H              1 S1                 0.0000
     29 ****         3.3411  -1.6791  -2.3386 H              1 S1                 0.0000
     30 ****         1.6828  -2.3047  -2.4232 H              1 S1                 0.0000
     31 ****        -1.0867   1.9591   1.0615 H              1 S1                 0.0000
     32 ****        -2.0287   0.6173   2.1424 H              1 S1                 0.0000
     33 ****        -4.0132  -3.9030   3.7742 H              1 S1                 0.0000
     34 ****         1.2238   1.2516  -3.2702 LP             1 S1                 0.0000
     35 ****         1.6458  -0.2478  -4.0277 LP             1 S1                 0.0000
     36 ****        -0.8250  -0.4195  -1.4668 LP             1 S1                 0.0000
     37 ****        -1.6375  -1.6236  -0.5233 LP             1 S1                 0.0000
     38 ****        -2.0335  -2.6140   0.3562 LP             1 S1                 0.0000
     39 ****        -3.1031  -4.5174   1.5967 LP             1 S1                 0.0000
@<TRIPOS>BOND
    1    1    2 1     
    2    1   19 1     
    3    1   20 1     
    4    1   21 1     
    5    2    3 1     
    6    2   10 1     
    7    2   22 1     
    8    3    4 1     
    9    3   23 1     
   10    3   24 1     
   11    4    8 am    
   12    4    5 1     
   13    5    6 1     
   14    5   25 1     
   15    5   26 1     
   16    6    7 1     
   17    6   27 1     
   18    6   28 1     
   19    7    8 1     
   20    7   29 1     
   21    7   30 1     
   22    8    9 2     
   23   10   11 am    
   24   10   31 1     
   25   11   12 2     
   26   11   13 am    
   27   13   14 1     
   28   13   32 1     
   29   14   18 1     
   30   14   15 2     
   31   15   16 1     
   32   16   17 2     
   33   17   18 1     
   34   17   33 1     
   35    9   34 1     
   36    9   35 1     
   37   12   36 1     
   38   12   37 1     
   39   15   38 1     
   40   16   39 1     
@<TRIPOS>SUBSTRUCTURE
      1 S1             1
@<TRIPOS>SET
LONE_PAIRS      STATIC     ATOMS    <user>   **** ""
6 34 35 36 37 38 39
DONOR_HYDROGENS      STATIC     ATOMS    <user>   **** ""
2 31 32
ATOM$BLUE        STATIC     ATOMS    COLORGROUP SYSTEM
6 34 35 36 37 38 39
ATOM$RED        STATIC     ATOMS    COLORGROUP SYSTEM
2 31 32
