AV-unprocessed.smi:1994|AV-procd|sdf|8074|dock6
  -GOLD-   2272010283D 1   1.00000     0.00000
 Structure written by MMmdl.
 40 42  0  0  0  0  0  0  0  0  2 V2000
  145.8370  137.1616  152.8689 C   0  0  0  0  0  0  0  0  0  0  0  0
  145.5401  135.8613  152.2003 C   0  0  0  0  0  0  0  0  0  0  0  0
  146.4299  135.0899  151.5148 N   0  3  0  0  0  0  0  0  0  0  0  0
  145.7890  133.9502  151.0269 C   0  0  0  0  0  0  0  0  0  0  0  0
  146.2752  132.8832  150.2777 C   0  0  0  0  0  0  0  0  0  0  0  0
  145.3511  131.8723  149.9419 C   0  0  0  0  0  0  0  0  0  0  0  0
  144.0035  131.9448  150.3505 C   0  0  0  0  0  0  0  0  0  0  0  0
  143.5223  133.0311  151.1110 C   0  0  0  0  0  0  0  0  0  0  0  0
  144.4415  134.0289  151.4363 C   0  0  0  0  0  0  0  0  0  0  0  0
  144.3350  135.2247  152.1576 N   0  0  0  0  0  0  0  0  0  0  0  0
  143.0400  135.6230  152.7326 C   0  0  0  0  0  0  0  0  0  0  0  0
  142.8740  135.1723  154.1973 C   0  0  2  0  0  0  0  0  0  0  0  0
  141.7701  134.2970  154.3121 O   0  0  0  0  0  0  0  0  0  0  0  0
  142.6639  136.3540  155.1549 C   0  0  0  0  0  0  0  0  0  0  0  0
  141.2846  136.6975  155.1607 O   0  0  0  0  0  0  0  0  0  0  0  0
  140.9390  138.0254  155.0261 C   0  0  0  0  0  0  0  0  0  0  0  0
  141.8504  139.1028  155.1677 C   0  0  0  0  0  0  0  0  0  0  0  0
  141.4126  140.4325  155.0118 C   0  0  0  0  0  0  0  0  0  0  0  0
  140.0642  140.7026  154.7141 C   0  0  0  0  0  0  0  0  0  0  0  0
  139.1526  139.6403  154.5729 C   0  0  0  0  0  0  0  0  0  0  0  0
  139.5890  138.3102  154.7283 C   0  0  0  0  0  0  0  0  0  0  0  0
  138.7014  137.2963  154.5902 F   0  0  0  0  0  0  0  0  0  0  0  0
  146.8927  137.4140  152.7665 H   0  0  0  0  0  0  0  0  0  0  0  0
  145.5963  137.1039  153.9304 H   0  0  0  0  0  0  0  0  0  0  0  0
  145.2444  137.9589  152.4199 H   0  0  0  0  0  0  0  0  0  0  0  0
  147.3077  132.8251  149.9651 H   0  0  0  0  0  0  0  0  0  0  0  0
  145.6826  131.0241  149.3602 H   0  0  0  0  0  0  0  0  0  0  0  0
  143.3246  131.1504  150.0754 H   0  0  0  0  0  0  0  0  0  0  0  0
  142.4887  133.0720  151.4217 H   0  0  0  0  0  0  0  0  0  0  0  0
  142.9837  136.7103  152.6696 H   0  0  0  0  0  0  0  0  0  0  0  0
  142.2316  135.2446  152.1072 H   0  0  0  0  0  0  0  0  0  0  0  0
  143.7602  134.6199  154.5121 H   0  0  0  0  0  0  0  0  0  0  0  0
  142.0623  133.4203  154.1149 H   0  0  0  0  0  0  0  0  0  0  0  0
  143.0034  136.0906  156.1584 H   0  0  0  0  0  0  0  0  0  0  0  0
  143.2476  137.2103  154.8121 H   0  0  0  0  0  0  0  0  0  0  0  0
  142.8923  138.9362  155.3949 H   0  0  0  0  0  0  0  0  0  0  0  0
  142.1136  141.2470  155.1207 H   0  0  0  0  0  0  0  0  0  0  0  0
  139.7299  141.7223  154.5940 H   0  0  0  0  0  0  0  0  0  0  0  0
  138.1169  139.8450  154.3449 H   0  0  0  0  0  0  0  0  0  0  0  0
  147.4053  135.3289  151.3897 H   0  0  0  0  0  0  0  0  0  0  0  0
  1  2  1  0  0  0  0
  1 23  1  0  0  0  0
  1 24  1  0  0  0  0
  1 25  1  0  0  0  0
  2 10  1  0  0  0  0
  2  3  2  0  0  0  0
  3  4  1  0  0  0  0
  3 40  1  0  0  0  0
  4  9  2  0  0  0  0
  4  5  1  0  0  0  0
  5  6  2  0  0  0  0
  5 26  1  0  0  0  0
  6  7  1  0  0  0  0
  6 27  1  0  0  0  0
  7  8  2  0  0  0  0
  7 28  1  0  0  0  0
  8  9  1  0  0  0  0
  8 29  1  0  0  0  0
  9 10  1  0  0  0  0
 10 11  1  0  0  0  0
 11 12  1  0  0  0  0
 11 30  1  0  0  0  0
 11 31  1  0  0  0  0
 12 13  1  0  0  0  0
 12 14  1  0  0  0  0
 12 32  1  0  0  0  0
 13 33  1  0  0  0  0
 14 15  1  0  0  0  0
 14 34  1  0  0  0  0
 14 35  1  0  0  0  0
 15 16  1  0  0  0  0
 16 21  1  0  0  0  0
 16 17  2  0  0  0  0
 17 18  1  0  0  0  0
 17 36  1  0  0  0  0
 18 19  2  0  0  0  0
 18 37  1  0  0  0  0
 19 20  1  0  0  0  0
 19 38  1  0  0  0  0
 20 21  2  0  0  0  0
 20 39  1  0  0  0  0
 21 22  1  0  0  0  0
M  CHG  1   3   1
M  END
> <s_m_source_file>
AV-unprocessed.smi

> <i_m_source_file_index>
1994

> <i_lp_mmshare_version>
43012

> <i_f3d_flags>
0

> <s_epik_input>
W2NIXTFbY0hdW2NIXVtjSF1jKGMxMiluKGMobjIpW0NIM10pW0NIMl1bQ0BIXShbT0hdKVtDSDJdT2MzW2NIXVtjSF1bY0hdW2NIXWMzRg==

> <s_epik_cmdline>
J2VwaWtfcHl0aG9uJywgJy1waCcsICc3LjAnLCAnLXRuJywgJzgnLCAnLW1hJywgJzIwMCcsICctbWV0YWxfYmluZGluZycsICctaW1hZScsICc8aW5maWxlLm1hZT4nLCAnLW9tYWUnLCAnPG91dGZpbGUubWFlPic=

> <r_lp_tautomer_probability>
1

> <r_epik_Ionization_Penalty>
1.03916

> <r_epik_Ionization_Penalty_Charging>
1.03916

> <r_epik_Ionization_Penalty_Neutral>
2.3993e-06

> <r_epik_State_Penalty>
1.09101

> <r_epik_Charging_Adjusted_Penalty>
2.13018

> <i_epik_Tot_Q>
1

> <i_epik_Tot_abs_Q>
1

> <r_epik_Metal_State_Penalty>
5.08156

> <b_epik_Metal_Only>
0

> <s_lp_Force_Field>
OPLS_2005

> <r_lp_Energy>
18.7982

> <b_lp_Chiralities_Consistent>
1

> <s_lp_Variant>
AV-unprocessed.smi:1994-3

> <Gold.Version>
5.8.1

> <Gold.Id.Protein>
6NUR|6NUR_protein|mol2

> <Gold.PLP.Fitness>
51.8469

> <Gold.PLP.PLP>
-43.5323

> <Gold.PLP.part.hbond>
-3.0145

> <Gold.PLP.part.metal>
0.0000

> <Gold.PLP.part.buried>
-6.8969

> <Gold.PLP.part.nonpolar>
-33.8925

> <Gold.PLP.part.repulsive>
0.1041

> <Gold.PLP.ligand.clash>
0.0000

> <Gold.PLP.ligand.torsion>
1.8652

> <Gold.PLP.Chemscore.Hbond>
4.0000

> <Gold.PLP.Chemscore.CHOScore>
0.0000

> <Gold.PLP.Chemscore.Metal>
0.0000

> <Gold.Chemscore.Hbonds>
donor molecule, donor type, donor heavy atom, donor atom, acceptor molecule, acceptor atom, score
      L1  H     3    40       P1  7948  2.00
      L1  H    13    33       P1 10957  0.94
      P1  H 11000 11005       L1    13  0.99

> <Gold.PLP.Chemscore.Internal.Correction>
0.0451

> <Gold.Rescore>
     Score         DG    S(hbond)    S(metal)    S(lipo)     H(rot)  DE(clash)    DE(int)     intcor
     18.79     -20.57       2.63        0.00     103.54       2.27       0.09       1.69       ----

> <Gold.Chemscore.Fitness>
18.7854

> <Gold.Chemscore.DG>
-20.5702

> <Gold.Chemscore.ZeroCoef>
-5.4800

> <Gold.Chemscore.Hbond>
2.6315

> <Gold.Chemscore.Metal>
0.0000

> <Gold.Chemscore.Lipo>
103.5377

> <Gold.Chemscore.Internal_Hbond>
0.0000

> <Gold.Chemscore.DEClash>
0.0905

> <Gold.Chemscore.DEInternal>
1.6943

> <Gold.Chemscore.Rot>
2.2706

> <Gold.Chemscore.Internal.Correction>
   9.000000E+99

> <Gold.Chemscore.Hbonds>
donor molecule, donor type, donor heavy atom, donor atom, acceptor molecule, acceptor atom, score
      L1  H     3    40       P1  7948  0.81
      L1  H    13    33       P1 10957  0.91
      P1  H 11000 11005       L1    13  0.47

> <Gold.Chemscore.Hbond.Weighted>
-8.7891

> <Gold.Chemscore.Metal.Weighted>
-0.0000

> <Gold.Chemscore.Lipo.Weighted>
-12.1139

> <Gold.Chemscore.Internal_Hbond.Weighted>
0.0000

> <Gold.Chemscore.DEClash.Weighted>
0.0905

> <Gold.Chemscore.DEInternal.Weighted>
1.6943

> <Gold.Chemscore.Rot.Weighted>
5.8128

> <Gold.Chemscore.Internal.Correction.Weighted>
   9.000000E+99

> <Gold.Protein.RotatedTorsions>
[ 6907 6896 6895 6894 ] final -155.73 input  -60.11 | X-H torsion
[ 7974 7965 7964 7962 ] final  102.37 input  175.53 | X-H torsion
[ 8008 7997 7996 7995 ] final  155.68 input   59.86 | X-H torsion
[ 10167 10162 10161 10158 ] final   37.34 input  -65.29 | X-H torsion
[ 10718 10713 10712 10709 ] final    3.86 input   66.30 | X-H torsion
[ 10763 10752 10751 10750 ] final   48.98 input  -60.55 | X-H torsion
[ 11005 11000 10999 10996 ] final   11.64 input  -57.11 | X-H torsion

> <Gold.Protein.ActiveResidues>
 VAL166  LYS551  ARG553  GLY616  TRP617  ASP618  TYR619  PRO620  LYS621  CYS622 
 ASP623  PHE694  ASN695  SER759  ASP760  ASP761  ALA762  ILE779  LEU786  VAL792 
 PHE793  MET794  SER795  GLU796  ALA797  LYS798  CYS799  TRP800  GLU811  SER814 

> <Gold.Protein.RotatedAtoms>
  151.2769  133.4228  159.2624 H   0  0  0  0  0  0  0  0  0  0  0  0  # atno 6907 bound_to 6896
  151.0395  134.9597  159.8164 H   0  0  0  0  0  0  0  0  0  0  0  0  # atno 6908 bound_to 6896
  152.5362  134.2728  159.9030 H   0  0  0  0  0  0  0  0  0  0  0  0  # atno 6909 bound_to 6896
  145.3600  139.2420  143.3512 H   0  0  0  0  0  0  0  0  0  0  0  0  # atno 7974 bound_to 7965
  156.2465  140.1933  156.6838 H   0  0  0  0  0  0  0  0  0  0  0  0  # atno 8008 bound_to 7997
  154.6302  140.0597  156.9748 H   0  0  0  0  0  0  0  0  0  0  0  0  # atno 8009 bound_to 7997
  155.1723  140.3269  155.4393 H   0  0  0  0  0  0  0  0  0  0  0  0  # atno 8010 bound_to 7997
  140.4042  144.1682  150.6135 H   0  0  0  0  0  0  0  0  0  0  0  0  # atno 10167 bound_to 10162
  156.8841  130.5664  149.5652 H   0  0  0  0  0  0  0  0  0  0  0  0  # atno 10718 bound_to 10713
  152.9789  135.5926  154.4014 H   0  0  0  0  0  0  0  0  0  0  0  0  # atno 10763 bound_to 10752
  154.3659  135.2767  155.2295 H   0  0  0  0  0  0  0  0  0  0  0  0  # atno 10764 bound_to 10752
  154.4272  135.6045  153.6101 H   0  0  0  0  0  0  0  0  0  0  0  0  # atno 10765 bound_to 10752
  140.5010  134.0746  155.7794 H   0  0  0  0  0  0  0  0  0  0  0  0  # atno 11005 bound_to 11000
  146.2931  140.4232  142.8732 LP  0  0  0  0  0  0  0  0  0  0  0  0  # atno 17320 bound_to 7965
  144.8653  140.7197  143.6081 LP  0  0  0  0  0  0  0  0  0  0  0  0  # atno 17321 bound_to 7965
  140.4707  143.2414  151.9093 LP  0  0  0  0  0  0  0  0  0  0  0  0  # atno 17342 bound_to 10162
  139.4784  144.5372  151.8580 LP  0  0  0  0  0  0  0  0  0  0  0  0  # atno 17343 bound_to 10162
  156.0662  130.5705  150.9293 LP  0  0  0  0  0  0  0  0  0  0  0  0  # atno 17370 bound_to 10713
  157.6123  131.0935  150.8773 LP  0  0  0  0  0  0  0  0  0  0  0  0  # atno 17371 bound_to 10713
  141.1435  133.9096  157.2269 LP  0  0  0  0  0  0  0  0  0  0  0  0  # atno 17394 bound_to 11000
  139.9713  135.0127  156.9520 LP  0  0  0  0  0  0  0  0  0  0  0  0  # atno 17395 bound_to 11000

$$$$
