AV-unprocessed.smi:2973|AV-procd|sdf|11349|dock8
  -GOLD-   2272016263D 1   1.00000     0.00000
 Structure written by MMmdl.
 49 51  0  0  0  0  0  0  0  0  3 V2000
  153.6939  139.2462  159.4107 C   0  0  0  0  0  0  0  0  0  0  0  0
  152.9496  140.4281  158.7497 C   0  0  2  0  0  0  0  0  0  0  0  0
  152.2086  141.2504  159.8277 C   0  0  0  0  0  0  0  0  0  0  0  0
  151.5129  142.4834  159.2329 C   0  0  0  0  0  0  0  0  0  0  0  0
  150.5432  142.0878  158.1126 C   0  0  0  0  0  0  0  0  0  0  0  0
  151.2631  141.2779  157.0203 C   0  0  0  0  0  0  0  0  0  0  0  0
  152.0066  140.0285  157.5649 C   0  0  1  0  0  0  0  0  0  0  0  0
  152.7787  139.4432  156.4820 N   0  5  0  0  0  0  0  0  0  0  0  0
  152.3316  138.1885  156.2452 C   0  0  0  0  0  0  0  0  0  0  0  0
  152.7669  137.3978  155.4085 O   0  0  0  0  0  0  0  0  0  0  0  0
  151.3132  137.8753  157.0676 N   0  0  0  0  0  0  0  0  0  0  0  0
  150.6279  136.5766  157.0964 C   0  0  0  0  0  0  0  0  0  0  0  0
  149.7287  136.3501  155.8733 C   0  0  0  0  0  0  0  0  0  0  0  0
  149.6831  137.1737  154.9580 O   0  0  0  0  0  0  0  0  0  0  0  0
  149.0239  135.2089  155.8650 N   0  0  0  0  0  0  0  0  0  0  0  0
  148.1051  134.8030  154.8087 C   0  0  0  0  0  0  0  0  0  0  0  0
  148.5885  133.5278  154.0966 C   0  0  0  0  0  0  0  0  0  0  0  0
  147.5595  132.9913  153.1214 C   0  0  0  0  0  0  0  0  0  0  0  0
  146.9563  131.7259  153.2892 C   0  0  0  0  0  0  0  0  0  0  0  0
  145.9982  131.2895  152.3505 C   0  0  0  0  0  0  0  0  0  0  0  0
  145.6635  132.1263  151.2659 C   0  0  0  0  0  0  0  0  0  0  0  0
  146.2959  133.3808  151.1474 C   0  0  0  0  0  0  0  0  0  0  0  0
  147.2083  133.7637  152.0676 N   0  3  0  0  0  0  0  0  0  0  0  0
  151.0402  138.8919  157.8930 C   0  0  0  0  0  0  0  0  0  0  0  0
  150.1800  138.9229  158.7740 O   0  0  0  0  0  0  0  0  0  0  0  0
  153.0072  138.5560  159.9013 H   0  0  0  0  0  0  0  0  0  0  0  0
  154.3909  139.6034  160.1690 H   0  0  0  0  0  0  0  0  0  0  0  0
  154.2748  138.6780  158.6843 H   0  0  0  0  0  0  0  0  0  0  0  0
  153.7206  141.0806  158.3357 H   0  0  0  0  0  0  0  0  0  0  0  0
  151.4751  140.6286  160.3413 H   0  0  0  0  0  0  0  0  0  0  0  0
  152.9149  141.5751  160.5925 H   0  0  0  0  0  0  0  0  0  0  0  0
  150.9769  143.0213  160.0152 H   0  0  0  0  0  0  0  0  0  0  0  0
  152.2623  143.1721  158.8409 H   0  0  0  0  0  0  0  0  0  0  0  0
  149.7146  141.5137  158.5268 H   0  0  0  0  0  0  0  0  0  0  0  0
  150.1016  142.9831  157.6744 H   0  0  0  0  0  0  0  0  0  0  0  0
  150.5402  140.9884  156.2556 H   0  0  0  0  0  0  0  0  0  0  0  0
  151.9768  141.9334  156.5183 H   0  0  0  0  0  0  0  0  0  0  0  0
  151.3548  135.7645  157.1446 H   0  0  0  0  0  0  0  0  0  0  0  0
  150.0343  136.4960  158.0090 H   0  0  0  0  0  0  0  0  0  0  0  0
  149.1268  134.5840  156.6515 H   0  0  0  0  0  0  0  0  0  0  0  0
  147.1060  134.6550  155.2225 H   0  0  0  0  0  0  0  0  0  0  0  0
  148.0279  135.6240  154.0955 H   0  0  0  0  0  0  0  0  0  0  0  0
  149.5169  133.7273  153.5595 H   0  0  0  0  0  0  0  0  0  0  0  0
  148.8185  132.7499  154.8260 H   0  0  0  0  0  0  0  0  0  0  0  0
  147.2217  131.0979  154.1276 H   0  0  0  0  0  0  0  0  0  0  0  0
  145.5254  130.3245  152.4618 H   0  0  0  0  0  0  0  0  0  0  0  0
  144.9319  131.8109  150.5362 H   0  0  0  0  0  0  0  0  0  0  0  0
  146.1005  134.0842  150.3513 H   0  0  0  0  0  0  0  0  0  0  0  0
  147.6527  134.6760  151.9618 H   0  0  0  0  0  0  0  0  0  0  0  0
  1  2  1  0  0  0  0
  1 26  1  0  0  0  0
  1 27  1  0  0  0  0
  1 28  1  0  0  0  0
  2  7  1  0  0  0  0
  2  3  1  0  0  0  0
  2 29  1  0  0  0  0
  3  4  1  0  0  0  0
  3 30  1  0  0  0  0
  3 31  1  0  0  0  0
  4  5  1  0  0  0  0
  4 32  1  0  0  0  0
  4 33  1  0  0  0  0
  5  6  1  0  0  0  0
  5 34  1  0  0  0  0
  5 35  1  0  0  0  0
  6  7  1  0  0  0  0
  6 36  1  0  0  0  0
  6 37  1  0  0  0  0
  7 24  1  0  0  0  0
  7  8  1  0  0  0  0
  8  9  1  0  0  0  0
  9 10  2  0  0  0  0
  9 11  1  0  0  0  0
 11 12  1  0  0  0  0
 11 24  1  0  0  0  0
 12 13  1  0  0  0  0
 12 38  1  0  0  0  0
 12 39  1  0  0  0  0
 13 14  2  0  0  0  0
 13 15  1  0  0  0  0
 15 16  1  0  0  0  0
 15 40  1  0  0  0  0
 16 17  1  0  0  0  0
 16 41  1  0  0  0  0
 16 42  1  0  0  0  0
 17 18  1  0  0  0  0
 17 43  1  0  0  0  0
 17 44  1  0  0  0  0
 18 23  1  0  0  0  0
 18 19  2  0  0  0  0
 19 20  1  0  0  0  0
 19 45  1  0  0  0  0
 20 21  2  0  0  0  0
 20 46  1  0  0  0  0
 21 22  1  0  0  0  0
 21 47  1  0  0  0  0
 22 23  2  0  0  0  0
 22 48  1  0  0  0  0
 23 49  1  0  0  0  0
 24 25  2  0  0  0  0
M  CHG  1   8  -1
M  CHG  1  23   1
M  END
> <s_m_source_file>
AV-unprocessed.smi

> <i_m_source_file_index>
2973

> <i_lp_mmshare_version>
43012

> <i_f3d_flags>
0

> <s_epik_input>
W0NIMl0xW0NIMl1bQ0gyXVtDSDJdW0NAQEhdKFtDSDNdKVtDQF0xMltOSF1DKD1PKU4oQzI9TylbQ0gyXUMoPU8pW05IXVtDSDJdW0NIMl1jM1tjSF1bY0hdW2NIXVtjSF1uMw==

> <s_epik_cmdline>
J2VwaWtfcHl0aG9uJywgJy1waCcsICc3LjAnLCAnLXRuJywgJzgnLCAnLW1hJywgJzIwMCcsICctbWV0YWxfYmluZGluZycsICctaW1hZScsICc8aW5maWxlLm1hZT4nLCAnLW9tYWUnLCAnPG91dGZpbGUubWFlPic=

> <r_lp_tautomer_probability>
1

> <r_epik_Ionization_Penalty>
7.89073

> <r_epik_Ionization_Penalty_Charging>
7.89073

> <r_epik_Ionization_Penalty_Neutral>
1.56557e-07

> <r_epik_State_Penalty>
8.01193

> <r_epik_Charging_Adjusted_Penalty>
15.9027

> <i_epik_Tot_Q>
0

> <i_epik_Tot_abs_Q>
2

> <r_epik_Metal_State_Penalty>
3.98737

> <b_epik_Metal_Only>
1

> <s_lp_Force_Field>
OPLS_2005

> <r_lp_Energy>
17.4929

> <b_lp_Chiralities_Consistent>
1

> <s_lp_Variant>
AV-unprocessed.smi:2973-13

> <Gold.Version>
5.8.1

> <Gold.Id.Protein>
6NUR|6NUR_protein|mol2

> <Gold.PLP.Fitness>
47.6952

> <Gold.PLP.PLP>
-34.7248

> <Gold.PLP.part.hbond>
-3.0000

> <Gold.PLP.part.metal>
0.0000

> <Gold.PLP.part.buried>
-5.2030

> <Gold.PLP.part.nonpolar>
-26.9896

> <Gold.PLP.part.repulsive>
0.2457

> <Gold.PLP.ligand.clash>
0.0000

> <Gold.PLP.ligand.torsion>
0.1546

> <Gold.PLP.Chemscore.Hbond>
4.4160

> <Gold.PLP.Chemscore.CHOScore>
0.0000

> <Gold.PLP.Chemscore.Metal>
0.0000

> <Gold.Chemscore.Hbonds>
donor molecule, donor type, donor heavy atom, donor atom, acceptor molecule, acceptor atom, score
      L1  H    23    49       P1  7948  2.00
      P1  H  7997  8008       L1     8  2.00
      P1  H 10752 10763       L1    10  0.50

> <Gold.PLP.Chemscore.Internal.Correction>
0.0317

> <Gold.Rescore>
     Score         DG    S(hbond)    S(metal)    S(lipo)     H(rot)  DE(clash)    DE(int)     intcor
     18.29     -18.59       2.23        0.00      90.27       1.92       0.01       0.29       ----

> <Gold.Chemscore.Fitness>
18.2885

> <Gold.Chemscore.DG>
-18.5894

> <Gold.Chemscore.ZeroCoef>
-5.4800

> <Gold.Chemscore.Hbond>
2.2324

> <Gold.Chemscore.Metal>
0.0000

> <Gold.Chemscore.Lipo>
90.2728

> <Gold.Chemscore.Internal_Hbond>
0.0000

> <Gold.Chemscore.DEClash>
0.0068

> <Gold.Chemscore.DEInternal>
0.2940

> <Gold.Chemscore.Rot>
1.9175

> <Gold.Chemscore.Internal.Correction>
   9.000000E+99

> <Gold.Chemscore.Hbonds>
donor molecule, donor type, donor heavy atom, donor atom, acceptor molecule, acceptor atom, score
      L1  H    23    49       P1  7948  0.54
      P1  H  7997  8008       L1     8  0.88
      P1  H 10752 10763       L1    10  0.50

> <Gold.Chemscore.Hbond.Weighted>
-7.4562

> <Gold.Chemscore.Metal.Weighted>
-0.0000

> <Gold.Chemscore.Lipo.Weighted>
-10.5619

> <Gold.Chemscore.Internal_Hbond.Weighted>
0.0000

> <Gold.Chemscore.DEClash.Weighted>
0.0068

> <Gold.Chemscore.DEInternal.Weighted>
0.2940

> <Gold.Chemscore.Rot.Weighted>
4.9087

> <Gold.Chemscore.Internal.Correction.Weighted>
   9.000000E+99

> <Gold.Protein.RotatedTorsions>
[ 6907 6896 6895 6894 ] final  128.18 input  -60.11 | X-H torsion
[ 7974 7965 7964 7962 ] final    8.13 input  175.53 | X-H torsion
[ 8008 7997 7996 7995 ] final  -39.13 input   59.86 | X-H torsion
[ 10167 10162 10161 10158 ] final  -43.52 input  -65.29 | X-H torsion
[ 10718 10713 10712 10709 ] final  122.23 input   66.30 | X-H torsion
[ 10763 10752 10751 10750 ] final   73.18 input  -60.55 | X-H torsion
[ 11005 11000 10999 10996 ] final  152.03 input  -57.11 | X-H torsion

> <Gold.Protein.ActiveResidues>
 VAL166  LYS551  ARG553  GLY616  TRP617  ASP618  TYR619  PRO620  LYS621  CYS622 
 ASP623  PHE694  ASN695  SER759  ASP760  ASP761  ALA762  ILE779  LEU786  VAL792 
 PHE793  MET794  SER795  GLU796  ALA797  LYS798  CYS799  TRP800  GLU811  SER814 

> <Gold.Protein.RotatedAtoms>
  152.3744  133.6461  159.6111 H   0  0  0  0  0  0  0  0  0  0  0  0  # atno 6907 bound_to 6896
  150.7692  133.9218  159.3409 H   0  0  0  0  0  0  0  0  0  0  0  0  # atno 6908 bound_to 6896
  151.7035  135.0927  160.0306 H   0  0  0  0  0  0  0  0  0  0  0  0  # atno 6909 bound_to 6896
  146.2419  139.9980  142.8419 H   0  0  0  0  0  0  0  0  0  0  0  0  # atno 7974 bound_to 7965
  154.4027  140.1560  156.2812 H   0  0  0  0  0  0  0  0  0  0  0  0  # atno 8008 bound_to 7997
  155.8867  140.3441  155.5905 H   0  0  0  0  0  0  0  0  0  0  0  0  # atno 8009 bound_to 7997
  155.7605  140.0817  157.2148 H   0  0  0  0  0  0  0  0  0  0  0  0  # atno 8010 bound_to 7997
  140.6931  143.2978  151.3364 H   0  0  0  0  0  0  0  0  0  0  0  0  # atno 10167 bound_to 10162
  157.5758  131.1079  150.8282 H   0  0  0  0  0  0  0  0  0  0  0  0  # atno 10718 bound_to 10713
  153.0505  135.5072  154.7854 H   0  0  0  0  0  0  0  0  0  0  0  0  # atno 10763 bound_to 10752
  154.6720  135.2954  154.9731 H   0  0  0  0  0  0  0  0  0  0  0  0  # atno 10764 bound_to 10752
  154.0546  135.6699  153.4857 H   0  0  0  0  0  0  0  0  0  0  0  0  # atno 10765 bound_to 10752
  140.1271  134.8826  157.2153 H   0  0  0  0  0  0  0  0  0  0  0  0  # atno 11005 bound_to 11000
  145.1442  140.9588  143.4471 LP  0  0  0  0  0  0  0  0  0  0  0  0  # atno 17320 bound_to 7965
  145.0267  139.3376  143.6045 LP  0  0  0  0  0  0  0  0  0  0  0  0  # atno 17321 bound_to 7965
  139.6355  144.0639  152.2512 LP  0  0  0  0  0  0  0  0  0  0  0  0  # atno 17342 bound_to 10162
  140.0128  144.6211  150.7633 LP  0  0  0  0  0  0  0  0  0  0  0  0  # atno 17343 bound_to 10162
  156.8741  130.5156  149.5295 LP  0  0  0  0  0  0  0  0  0  0  0  0  # atno 17370 bound_to 10713
  156.0803  130.5815  150.9550 LP  0  0  0  0  0  0  0  0  0  0  0  0  # atno 17371 bound_to 10713
  140.2890  134.3263  155.7321 LP  0  0  0  0  0  0  0  0  0  0  0  0  # atno 17394 bound_to 11000
  141.2163  133.7523  156.9474 LP  0  0  0  0  0  0  0  0  0  0  0  0  # atno 17395 bound_to 11000

$$$$
