#       Name:                AV-unprocessed.smi:1259
#       Creating user name   scv26
#       Creation time:       Fri Mar 27 04:41:11 2020


#       File generated by GOLD software.
#

@<TRIPOS>MOLECULE
AV-unprocessed.smi:1259
    37    38     1
SMALL
NO_CHARGES


@<TRIPOS>ATOM
      1 ****        -5.4608  -0.2629  -0.0217 C.3            1 S1                 0.0000
      2 ****        -4.1094   0.2995   0.3073 C.2            1 S1                 0.0000
      3 ****        -2.8339  -0.2989   0.0927 C.2            1 S1                 0.0000
      4 ****        -1.9721   0.6471   0.5767 C.2            1 S1                 0.0000
      5 ****        -0.6140   0.6173   0.6338 N.am           1 S1                 0.0000
      6 ****         0.2245  -0.3453   0.2117 C.2            1 S1                 0.0000
      7 ****        -0.1136  -1.4084  -0.3091 O.2            1 S1                 0.0000
      8 ****         1.5022  -0.0012   0.4296 N.am           1 S1                 0.0000
      9 ****         2.6673  -0.8078   0.0800 C.3            1 S1                 0.0000
     10 ****         3.8214  -0.4380   1.0219 C.3            1 S1                 0.0000
     11 ****         3.0874  -0.6632  -1.3732 C.3            1 S1                 0.0000
     12 ****         2.5275  -1.5643  -2.4487 C.3            1 S1                 0.0000
     13 ****         3.9743  -1.6931  -2.0319 C.3            1 S1                 0.0000
     14 ****        -2.7026   1.7197   1.0385 N.pl3          1 S1                 0.0000
     15 ****        -2.2468   2.9563   1.6429 C.3            1 S1                 0.0000
     16 ****        -4.0245   1.4990   0.8715 N.2            1 S1                 0.0000
     17 ****        -5.3747  -1.2300  -0.5175 H              1 S1                 0.0000
     18 ****        -6.0125   0.4020  -0.6867 H              1 S1                 0.0000
     19 ****        -6.0570  -0.4047   0.8800 H              1 S1                 0.0000
     20 ****        -2.6125  -1.2613  -0.3434 H              1 S1                 0.0000
     21 ****        -0.1832   1.4339   1.0417 H              1 S1                 0.0000
     22 ****         1.6850   0.8917   0.8635 H              1 S1                 0.0000
     23 ****         2.4283  -1.8578   0.2597 H              1 S1                 0.0000
     24 ****         4.6976  -1.0580   0.8308 H              1 S1                 0.0000
     25 ****         3.5401  -0.5828   2.0656 H              1 S1                 0.0000
     26 ****         4.1183   0.6040   0.8971 H              1 S1                 0.0000
     27 ****         3.2740   0.3679  -1.6689 H              1 S1                 0.0000
     28 ****         1.8477  -2.3582  -2.1458 H              1 S1                 0.0000
     29 ****         2.3196  -1.1174  -3.4187 H              1 S1                 0.0000
     30 ****         4.7321  -1.3336  -2.7250 H              1 S1                 0.0000
     31 ****         4.2519  -2.5709  -1.4513 H              1 S1                 0.0000
     32 ****        -1.9588   2.7713   2.6777 H              1 S1                 0.0000
     33 ****        -3.0384   3.7064   1.6219 H              1 S1                 0.0000
     34 ****        -1.3859   3.3412   1.0960 H              1 S1                 0.0000
     35 ****        -1.0829  -1.6113  -0.4476 LP             1 S1                 0.0000
     36 ****         0.5812  -2.0690  -0.5936 LP             1 S1                 0.0000
     37 ****        -4.7778   2.1081   1.1195 LP             1 S1                 0.0000
@<TRIPOS>BOND
    1    1    2 1     
    2    1   17 1     
    3    1   18 1     
    4    1   19 1     
    5    2   16 2     
    6    2    3 1     
    7    3    4 2     
    8    3   20 1     
    9    4    5 1     
   10    4   14 1     
   11    5    6 am    
   12    5   21 1     
   13    6    7 2     
   14    6    8 am    
   15    8    9 1     
   16    8   22 1     
   17    9   10 1     
   18    9   11 1     
   19    9   23 1     
   20   10   24 1     
   21   10   25 1     
   22   10   26 1     
   23   11   13 1     
   24   11   12 1     
   25   11   27 1     
   26   12   13 1     
   27   12   28 1     
   28   12   29 1     
   29   13   30 1     
   30   13   31 1     
   31   14   15 1     
   32   14   16 1     
   33   15   32 1     
   34   15   33 1     
   35   15   34 1     
   36    7   35 1     
   37    7   36 1     
   38   16   37 1     
@<TRIPOS>SUBSTRUCTURE
      1 S1             1
@<TRIPOS>SET
LONE_PAIRS      STATIC     ATOMS    <user>   **** ""
3 35 36 37
DONOR_HYDROGENS      STATIC     ATOMS    <user>   **** ""
2 21 22
ATOM$BLUE        STATIC     ATOMS    COLORGROUP SYSTEM
3 35 36 37
ATOM$RED        STATIC     ATOMS    COLORGROUP SYSTEM
2 21 22
