AV-unprocessed.smi:66|AV-procd|sdf|620|dock2
  -GOLD-   2262016513D 1   1.00000     0.00000
 Structure written by MMmdl.
 28 30  0  0  0  0  0  0  0  0  2 V2000
  152.6845  139.5056  157.4434 O   0  0  0  0  0  0  0  0  0  0  0  0
  151.7019  140.1032  156.9528 C   0  0  0  0  0  0  0  0  0  0  0  0
  150.8317  140.7216  157.6061 O   0  5  0  0  0  0  0  0  0  0  0  0
  151.5609  140.0620  155.4224 C   0  0  1  0  0  0  0  0  0  0  0  0
  152.6259  139.1722  154.7561 C   0  0  0  0  0  0  0  0  0  0  0  0
  151.9429  137.8124  154.6202 C   0  0  2  0  0  0  0  0  0  0  0  0
  152.5090  137.0183  153.5986 O   0  0  0  0  0  0  0  0  0  0  0  0
  150.4911  138.1899  154.3283 C   0  0  0  0  0  0  0  0  0  0  0  0
  150.2879  139.4616  155.0101 N   0  0  0  0  0  0  0  0  0  0  0  0
  149.1331  140.1761  154.9064 C   0  0  0  0  0  0  0  0  0  0  0  0
  149.0206  141.3327  155.6136 N   0  0  0  0  0  0  0  0  0  0  0  0
  147.9099  142.0716  155.5501 C   0  0  0  0  0  0  0  0  0  0  0  0
  146.7983  141.8473  154.8483 N   0  0  0  0  0  0  0  0  0  0  0  0
  146.8987  140.6909  154.1371 C   0  0  0  0  0  0  0  0  0  0  0  0
  145.9555  140.1312  153.3021 N   0  0  0  0  0  0  0  0  0  0  0  0
  146.5147  138.9744  152.8214 C   0  0  0  0  0  0  0  0  0  0  0  0
  147.7200  138.7309  153.2592 N   0  0  0  0  0  0  0  0  0  0  0  0
  148.0122  139.8007  154.1040 C   0  0  0  0  0  0  0  0  0  0  0  0
  145.0499  140.5395  153.1220 H   0  0  0  0  0  0  0  0  0  0  0  0
  151.6554  141.0764  155.0321 H   0  0  0  0  0  0  0  0  0  0  0  0
  152.8587  139.5745  153.7688 H   0  0  0  0  0  0  0  0  0  0  0  0
  153.5615  139.1170  155.3148 H   0  0  0  0  0  0  0  0  0  0  0  0
  152.0025  137.2752  155.5677 H   0  0  0  0  0  0  0  0  0  0  0  0
  151.8453  136.8549  152.9461 H   0  0  0  0  0  0  0  0  0  0  0  0
  150.3277  138.3291  153.2584 H   0  0  0  0  0  0  0  0  0  0  0  0
  149.8114  137.4182  154.6903 H   0  0  0  0  0  0  0  0  0  0  0  0
  147.9142  142.9709  156.1480 H   0  0  0  0  0  0  0  0  0  0  0  0
  145.9997  138.3169  152.1364 H   0  0  0  0  0  0  0  0  0  0  0  0
  1  2  2  0  0  0  0
  2  3  1  0  0  0  0
  2  4  1  0  0  0  0
  4  5  1  0  0  0  0
  4 20  1  0  0  0  0
  4  9  1  0  0  0  0
  5  6  1  0  0  0  0
  5 21  1  0  0  0  0
  5 22  1  0  0  0  0
  6  7  1  0  0  0  0
  6  8  1  0  0  0  0
  6 23  1  0  0  0  0
  7 24  1  0  0  0  0
  8 25  1  0  0  0  0
  8 26  1  0  0  0  0
  8  9  1  0  0  0  0
  9 10  1  0  0  0  0
 10 11  1  0  0  0  0
 10 18  2  0  0  0  0
 11 12  2  0  0  0  0
 12 27  1  0  0  0  0
 12 13  1  0  0  0  0
 13 14  2  0  0  0  0
 14 15  1  0  0  0  0
 14 18  1  0  0  0  0
 15 16  1  0  0  0  0
 15 19  1  0  0  0  0
 16 17  2  0  0  0  0
 16 28  1  0  0  0  0
 17 18  1  0  0  0  0
M  CHG  1   3  -1
M  END
> <s_m_source_file>
AV-unprocessed.smi

> <i_m_source_file_index>
66

> <i_lp_mmshare_version>
43012

> <i_f3d_flags>
0

> <s_epik_input>
Tz1DKFtPSF0pW0NAQEhdMVtDSDJdW0NAQEhdKFtPSF0pW0NIMl1OMWMobltjSF1uMiljKGMyMylbbkhdW2NIXW4z

> <s_epik_cmdline>
J2VwaWtfcHl0aG9uJywgJy1waCcsICc3LjAnLCAnLXRuJywgJzgnLCAnLW1hJywgJzIwMCcsICctbWV0YWxfYmluZGluZycsICctaW1hZScsICc8aW5maWxlLm1hZT4nLCAnLW9tYWUnLCAnPG91dGZpbGUubWFlPic=

> <r_lp_tautomer_probability>
0.955585

> <r_epik_Ionization_Penalty>
0.00455415

> <r_epik_Ionization_Penalty_Charging>
0.000248217

> <r_epik_Ionization_Penalty_Neutral>
0.00430593

> <r_epik_State_Penalty>
0.0207074

> <r_epik_Charging_Adjusted_Penalty>
0.0209557

> <i_epik_Tot_Q>
-1

> <i_epik_Tot_abs_Q>
1

> <r_epik_Metal_State_Penalty>
0.337372

> <b_epik_Metal_Only>
0

> <s_lp_Force_Field>
OPLS_2005

> <r_lp_Energy>
24.8219

> <b_lp_Chiralities_Consistent>
1

> <s_lp_Variant>
AV-unprocessed.smi:66-4

> <Gold.Version>
5.8.1

> <Gold.Id.Protein>
6NUR|6NUR_protein|mol2

> <Gold.PLP.Fitness>
40.3781

> <Gold.PLP.PLP>
-23.3317

> <Gold.PLP.part.hbond>
-3.3757

> <Gold.PLP.part.metal>
0.0000

> <Gold.PLP.part.buried>
3.2085

> <Gold.PLP.part.nonpolar>
-24.9594

> <Gold.PLP.part.repulsive>
1.2663

> <Gold.PLP.ligand.clash>
0.0000

> <Gold.PLP.ligand.torsion>
0.1381

> <Gold.PLP.Chemscore.Hbond>
4.8445

> <Gold.PLP.Chemscore.CHOScore>
0.8932

> <Gold.PLP.Chemscore.Metal>
0.0000

> <Gold.Chemscore.Hbonds>
donor molecule, donor type, donor heavy atom, donor atom, acceptor molecule, acceptor atom, score
      L1  H     7    24       P1  7949  1.00
      L1  H    15    19       P1 10175  0.94
      P1  H  7997  8009       L1     1  2.00
      P1  H 10752 10764       L1     7  0.76
      L1  C    12    27       P1  8028  0.92

> <Gold.PLP.Chemscore.Internal.Correction>
0.1094

> <Gold.Rescore>
     Score         DG    S(hbond)    S(metal)    S(lipo)     H(rot)  DE(clash)    DE(int)     intcor
     10.80     -15.81       3.13        0.00      37.83       1.78       2.54       2.47       ----

> <Gold.Chemscore.Fitness>
10.7980

> <Gold.Chemscore.DG>
-15.8080

> <Gold.Chemscore.ZeroCoef>
-5.4800

> <Gold.Chemscore.Hbond>
3.1346

> <Gold.Chemscore.Metal>
0.0000

> <Gold.Chemscore.Lipo>
37.8301

> <Gold.Chemscore.Internal_Hbond>
0.0000

> <Gold.Chemscore.DEClash>
2.5428

> <Gold.Chemscore.DEInternal>
2.4672

> <Gold.Chemscore.Rot>
1.7842

> <Gold.Chemscore.Internal.Correction>
   9.000000E+99

> <Gold.Chemscore.Hbonds>
donor molecule, donor type, donor heavy atom, donor atom, acceptor molecule, acceptor atom, score
      L1  H     7    24       P1  7949  0.97
      L1  H    15    19       P1 10175  0.81
      P1  H  7997  8009       L1     1  0.92
      P1  H 10752 10764       L1     7  0.36

> <Gold.Chemscore.Hbond.Weighted>
-10.4695

> <Gold.Chemscore.Metal.Weighted>
-0.0000

> <Gold.Chemscore.Lipo.Weighted>
-4.4261

> <Gold.Chemscore.Internal_Hbond.Weighted>
0.0000

> <Gold.Chemscore.DEClash.Weighted>
2.5428

> <Gold.Chemscore.DEInternal.Weighted>
2.4672

> <Gold.Chemscore.Rot.Weighted>
4.5676

> <Gold.Chemscore.Internal.Correction.Weighted>
   9.000000E+99

> <Gold.Protein.RotatedTorsions>
[ 6907 6896 6895 6894 ] final   10.17 input  -60.11 | X-H torsion
[ 7974 7965 7964 7962 ] final   83.15 input  175.53 | X-H torsion
[ 8008 7997 7996 7995 ] final  155.99 input   59.86 | X-H torsion
[ 10167 10162 10161 10158 ] final  -31.12 input  -65.29 | X-H torsion
[ 10718 10713 10712 10709 ] final   25.48 input   66.30 | X-H torsion
[ 10763 10752 10751 10750 ] final -114.96 input  -60.55 | X-H torsion
[ 11005 11000 10999 10996 ] final  -89.12 input  -57.11 | X-H torsion

> <Gold.Protein.ActiveResidues>
 VAL166  LYS551  ARG553  GLY616  TRP617  ASP618  TYR619  PRO620  LYS621  CYS622 
 ASP623  PHE694  ASN695  SER759  ASP760  ASP761  ALA762  ILE779  LEU786  VAL792 
 PHE793  MET794  SER795  GLU796  ALA797  LYS798  CYS799  TRP800  GLU811  SER814 

> <Gold.Protein.RotatedAtoms>
  151.7340  135.0869  160.0304 H   0  0  0  0  0  0  0  0  0  0  0  0  # atno 6907 bound_to 6896
  152.3523  133.6190  159.5962 H   0  0  0  0  0  0  0  0  0  0  0  0  # atno 6908 bound_to 6896
  150.7548  133.9471  159.3516 H   0  0  0  0  0  0  0  0  0  0  0  0  # atno 6909 bound_to 6896
  145.6157  139.2376  143.2167 H   0  0  0  0  0  0  0  0  0  0  0  0  # atno 7974 bound_to 7965
  156.2448  140.1924  156.6886 H   0  0  0  0  0  0  0  0  0  0  0  0  # atno 8008 bound_to 7997
  154.6268  140.0601  156.9710 H   0  0  0  0  0  0  0  0  0  0  0  0  # atno 8009 bound_to 7997
  155.1773  140.3273  155.4384 H   0  0  0  0  0  0  0  0  0  0  0  0  # atno 8010 bound_to 7997
  140.7240  143.3795  151.1627 H   0  0  0  0  0  0  0  0  0  0  0  0  # atno 10167 bound_to 10162
  157.1940  130.6859  149.6161 H   0  0  0  0  0  0  0  0  0  0  0  0  # atno 10718 bound_to 10713
  154.8462  135.4399  154.1588 H   0  0  0  0  0  0  0  0  0  0  0  0  # atno 10763 bound_to 10752
  153.2730  135.6947  153.7467 H   0  0  0  0  0  0  0  0  0  0  0  0  # atno 10764 bound_to 10752
  153.6701  135.3420  155.3126 H   0  0  0  0  0  0  0  0  0  0  0  0  # atno 10765 bound_to 10752
  141.1590  133.7611  156.9549 H   0  0  0  0  0  0  0  0  0  0  0  0  # atno 11005 bound_to 11000
  146.1470  140.6979  142.9340 LP  0  0  0  0  0  0  0  0  0  0  0  0  # atno 17320 bound_to 7965
  144.7251  140.4500  143.6979 LP  0  0  0  0  0  0  0  0  0  0  0  0  # atno 17321 bound_to 7965
  139.7381  143.8967  152.3041 LP  0  0  0  0  0  0  0  0  0  0  0  0  # atno 17342 bound_to 10162
  139.8779  144.7033  150.8912 LP  0  0  0  0  0  0  0  0  0  0  0  0  # atno 17343 bound_to 10162
  155.9708  130.4605  150.6075 LP  0  0  0  0  0  0  0  0  0  0  0  0  # atno 17370 bound_to 10713
  157.3833  131.0784  151.1458 LP  0  0  0  0  0  0  0  0  0  0  0  0  # atno 17371 bound_to 10713
  140.1232  134.9404  157.2233 LP  0  0  0  0  0  0  0  0  0  0  0  0  # atno 17394 bound_to 11000
  140.3046  134.3093  155.7281 LP  0  0  0  0  0  0  0  0  0  0  0  0  # atno 17395 bound_to 11000

$$$$
