AV-unprocessed.smi:1897|AV-procd|sdf|7698|dock6
  -GOLD-   22720 9433D 1   1.00000     0.00000
 Structure written by MMmdl.
 38 40  0  0  0  0  0  0  0  0  3 V2000
  149.7779  133.5079  156.5906 C   0  0  0  0  0  0  0  0  0  0  0  0
  150.6316  134.6910  156.2868 C   0  0  0  0  0  0  0  0  0  0  0  0
  151.6105  135.1022  157.0963 N   0  0  0  0  0  0  0  0  0  0  0  0
  152.2622  136.2217  156.6014 N   0  0  0  0  0  0  0  0  0  0  0  0
  151.7786  136.6323  155.4198 C   0  0  0  0  0  0  0  0  0  0  0  0
  152.2819  137.6937  154.7626 N   0  5  0  0  0  0  0  0  0  0  0  0
  151.9879  138.9736  155.1092 C   0  0  0  0  0  0  0  0  0  0  0  0
  152.8111  139.8875  155.0867 O   0  0  0  0  0  0  0  0  0  0  0  0
  150.7233  139.2470  155.4839 N   0  0  0  0  0  0  0  0  0  0  0  0
  150.1963  140.5673  155.8117 C   0  0  2  0  0  0  0  0  0  0  0  0
  149.4720  140.6108  157.1507 C   0  0  0  0  0  0  0  0  0  0  0  0
  148.6234  141.8809  157.0391 C   0  0  0  0  0  0  0  0  0  0  0  0
  148.3535  142.0916  155.5955 N   0  3  2  0  0  0  0  0  0  0  0  0
  146.9074  142.1742  155.2578 C   0  0  0  0  0  0  0  0  0  0  0  0
  146.6851  142.0033  153.7480 C   0  0  0  0  0  0  0  0  0  0  0  0
  147.1587  140.6209  153.2613 C   0  0  0  0  0  0  0  0  0  0  0  0
  148.2241  140.0035  154.1871 C   0  0  0  0  0  0  0  0  0  0  0  0
  149.1346  141.0844  154.8225 C   0  0  2  0  0  0  0  0  0  0  0  0
  150.4367  135.6527  154.8309 S   0  0  0  0  0  0  0  0  0  0  0  0
  150.2986  132.5919  156.3117 H   0  0  0  0  0  0  0  0  0  0  0  0
  148.8422  133.5636  156.0339 H   0  0  0  0  0  0  0  0  0  0  0  0
  149.5472  133.4709  157.6556 H   0  0  0  0  0  0  0  0  0  0  0  0
  150.0687  138.4785  155.4976 H   0  0  0  0  0  0  0  0  0  0  0  0
  151.0193  141.2837  155.8566 H   0  0  0  0  0  0  0  0  0  0  0  0
  148.8228  139.7403  157.2586 H   0  0  0  0  0  0  0  0  0  0  0  0
  150.1520  140.6309  158.0028 H   0  0  0  0  0  0  0  0  0  0  0  0
  147.7166  141.8127  157.6417 H   0  0  0  0  0  0  0  0  0  0  0  0
  149.1892  142.7398  157.4014 H   0  0  0  0  0  0  0  0  0  0  0  0
  146.3513  141.4013  155.7915 H   0  0  0  0  0  0  0  0  0  0  0  0
  146.5180  143.1345  155.5970 H   0  0  0  0  0  0  0  0  0  0  0  0
  145.6337  142.1463  153.4969 H   0  0  0  0  0  0  0  0  0  0  0  0
  147.2336  142.7839  153.2191 H   0  0  0  0  0  0  0  0  0  0  0  0
  146.3122  139.9368  153.1924 H   0  0  0  0  0  0  0  0  0  0  0  0
  147.5529  140.7170  152.2490 H   0  0  0  0  0  0  0  0  0  0  0  0
  147.7306  139.4376  154.9786 H   0  0  0  0  0  0  0  0  0  0  0  0
  148.8082  139.2791  153.6187 H   0  0  0  0  0  0  0  0  0  0  0  0
  149.6405  141.6048  154.0080 H   0  0  0  0  0  0  0  0  0  0  0  0
  148.7566  142.9871  155.3604 H   0  0  0  0  0  0  0  0  0  0  0  0
  1  2  1  0  0  0  0
  1 20  1  0  0  0  0
  1 21  1  0  0  0  0
  1 22  1  0  0  0  0
  2 19  1  0  0  0  0
  2  3  2  0  0  0  0
  3  4  1  0  0  0  0
  4  5  2  0  0  0  0
  5  6  1  0  0  0  0
  5 19  1  0  0  0  0
  6  7  1  0  0  0  0
  7  8  2  0  0  0  0
  7  9  1  0  0  0  0
  9 10  1  0  0  0  0
  9 23  1  0  0  0  0
 10 18  1  0  0  0  0
 10 11  1  0  0  0  0
 10 24  1  0  0  0  0
 11 12  1  0  0  0  0
 11 25  1  0  0  0  0
 11 26  1  0  0  0  0
 12 13  1  0  0  0  0
 12 27  1  0  0  0  0
 12 28  1  0  0  0  0
 13 18  1  0  0  0  0
 13 14  1  0  0  0  0
 13 38  1  0  0  0  0
 14 15  1  0  0  0  0
 14 29  1  0  0  0  0
 14 30  1  0  0  0  0
 15 16  1  0  0  0  0
 15 31  1  0  0  0  0
 15 32  1  0  0  0  0
 16 17  1  0  0  0  0
 16 33  1  0  0  0  0
 16 34  1  0  0  0  0
 17 18  1  0  0  0  0
 17 35  1  0  0  0  0
 17 36  1  0  0  0  0
 18 37  1  0  0  0  0
M  CHG  1   6  -1
M  CHG  1  13   1
M  END
> <s_m_source_file>
AV-unprocessed.smi

> <i_m_source_file_index>
1897

> <i_lp_mmshare_version>
43012

> <i_f3d_flags>
0

> <s_epik_input>
W0NIM11jMW5uYyhzMSlbTkhdQyg9TylbTkhdW0NASF0oW0NIMl1bQ0gyXTIpW0NAQEhdKE4yMylbQ0gyXVtDSDJdW0NIMl1bQ0gyXTM=

> <s_epik_cmdline>
J2VwaWtfcHl0aG9uJywgJy1waCcsICc3LjAnLCAnLXRuJywgJzgnLCAnLW1hJywgJzIwMCcsICctbWV0YWxfYmluZGluZycsICctaW1hZScsICc8aW5maWxlLm1hZT4nLCAnLW9tYWUnLCAnPG91dGZpbGUubWFlPic=

> <r_lp_tautomer_probability>
1

> <r_epik_Ionization_Penalty>
3.77712

> <r_epik_Ionization_Penalty_Charging>
3.67739

> <r_epik_Ionization_Penalty_Neutral>
0.0997294

> <r_epik_State_Penalty>
3.67514

> <r_epik_Charging_Adjusted_Penalty>
7.35254

> <i_epik_Tot_Q>
0

> <i_epik_Tot_abs_Q>
2

> <r_epik_Metal_State_Penalty>
0.540795

> <b_epik_Metal_Only>
1

> <s_lp_Force_Field>
OPLS_2005

> <r_lp_Energy>
34.1596

> <b_lp_Chiralities_Consistent>
1

> <s_lp_Variant>
AV-unprocessed.smi:1897-15

> <Gold.Version>
5.8.1

> <Gold.Id.Protein>
6NUR|6NUR_protein|mol2

> <Gold.PLP.Fitness>
36.8864

> <Gold.PLP.PLP>
-29.3258

> <Gold.PLP.part.hbond>
-5.6991

> <Gold.PLP.part.metal>
0.0000

> <Gold.PLP.part.buried>
0.8266

> <Gold.PLP.part.nonpolar>
-24.0150

> <Gold.PLP.part.repulsive>
0.2878

> <Gold.PLP.ligand.clash>
0.0000

> <Gold.PLP.ligand.torsion>
1.0701

> <Gold.PLP.Chemscore.Hbond>
3.2322

> <Gold.PLP.Chemscore.CHOScore>
0.0000

> <Gold.PLP.Chemscore.Metal>
0.0000

> <Gold.Chemscore.Hbonds>
donor molecule, donor type, donor heavy atom, donor atom, acceptor molecule, acceptor atom, score
      L1  H    13    38       P1  8028  1.98
      P1  H  7989  7998       L1     8  0.15
      P1  H  7997  8010       L1     8  1.00

> <Gold.PLP.Chemscore.Internal.Correction>
0.0041

> <Gold.Rescore>
     Score         DG    S(hbond)    S(metal)    S(lipo)     H(rot)  DE(clash)    DE(int)     intcor
     14.09     -16.61       1.97        0.00      60.84       1.00       1.50       1.03       ----

> <Gold.Chemscore.Fitness>
14.0853

> <Gold.Chemscore.DG>
-16.6132

> <Gold.Chemscore.ZeroCoef>
-5.4800

> <Gold.Chemscore.Hbond>
1.9685

> <Gold.Chemscore.Metal>
0.0000

> <Gold.Chemscore.Lipo>
60.8426

> <Gold.Chemscore.Internal_Hbond>
0.0000

> <Gold.Chemscore.DEClash>
1.5007

> <Gold.Chemscore.DEInternal>
1.0272

> <Gold.Chemscore.Rot>
1.0000

> <Gold.Chemscore.Internal.Correction>
   9.000000E+99

> <Gold.Chemscore.Hbonds>
donor molecule, donor type, donor heavy atom, donor atom, acceptor molecule, acceptor atom, score
      L1  H    13    38       P1  8028  0.94
      P1  H  7989  7998       L1     8  0.01
      P1  H  7997  8010       L1     8  1.00

> <Gold.Chemscore.Hbond.Weighted>
-6.5747

> <Gold.Chemscore.Metal.Weighted>
-0.0000

> <Gold.Chemscore.Lipo.Weighted>
-7.1186

> <Gold.Chemscore.Internal_Hbond.Weighted>
0.0000

> <Gold.Chemscore.DEClash.Weighted>
1.5007

> <Gold.Chemscore.DEInternal.Weighted>
1.0272

> <Gold.Chemscore.Rot.Weighted>
2.5600

> <Gold.Chemscore.Internal.Correction.Weighted>
   9.000000E+99

> <Gold.Protein.RotatedTorsions>
[ 6907 6896 6895 6894 ] final -115.04 input  -60.11 | X-H torsion
[ 7974 7965 7964 7962 ] final  -19.89 input  175.53 | X-H torsion
[ 8008 7997 7996 7995 ] final   99.34 input   59.86 | X-H torsion
[ 10167 10162 10161 10158 ] final  -11.77 input  -65.29 | X-H torsion
[ 10718 10713 10712 10709 ] final  161.32 input   66.30 | X-H torsion
[ 10763 10752 10751 10750 ] final  -41.07 input  -60.55 | X-H torsion
[ 11005 11000 10999 10996 ] final  -14.41 input  -57.11 | X-H torsion

> <Gold.Protein.ActiveResidues>
 VAL166  LYS551  ARG553  GLY616  TRP617  ASP618  TYR619  PRO620  LYS621  CYS622 
 ASP623  PHE694  ASN695  SER759  ASP760  ASP761  ALA762  ILE779  LEU786  VAL792 
 PHE793  MET794  SER795  GLU796  ALA797  LYS798  CYS799  TRP800  GLU811  SER814 

> <Gold.Protein.RotatedAtoms>
  150.7947  133.8715  159.3259 H   0  0  0  0  0  0  0  0  0  0  0  0  # atno 6907 bound_to 6896
  151.6544  135.0995  160.0176 H   0  0  0  0  0  0  0  0  0  0  0  0  # atno 6908 bound_to 6896
  152.4027  133.6803  159.6365 H   0  0  0  0  0  0  0  0  0  0  0  0  # atno 6909 bound_to 6896
  146.1818  140.4125  142.8492 H   0  0  0  0  0  0  0  0  0  0  0  0  # atno 7974 bound_to 7965
  156.1095  140.3230  155.8052 H   0  0  0  0  0  0  0  0  0  0  0  0  # atno 8008 bound_to 7997
  155.4698  140.0546  157.2998 H   0  0  0  0  0  0  0  0  0  0  0  0  # atno 8009 bound_to 7997
  154.4750  140.2028  155.9915 H   0  0  0  0  0  0  0  0  0  0  0  0  # atno 8010 bound_to 7997
  140.7146  143.5603  150.9202 H   0  0  0  0  0  0  0  0  0  0  0  0  # atno 10167 bound_to 10162
  157.1381  131.0533  151.2339 H   0  0  0  0  0  0  0  0  0  0  0  0  # atno 10718 bound_to 10713
  153.9564  135.6744  153.4744 H   0  0  0  0  0  0  0  0  0  0  0  0  # atno 10763 bound_to 10752
  153.0859  135.4899  154.8593 H   0  0  0  0  0  0  0  0  0  0  0  0  # atno 10764 bound_to 10752
  154.7297  135.3135  154.8871 H   0  0  0  0  0  0  0  0  0  0  0  0  # atno 10765 bound_to 10752
  140.7861  133.8324  155.9336 H   0  0  0  0  0  0  0  0  0  0  0  0  # atno 11005 bound_to 11000
  144.8327  140.6733  143.6280 LP  0  0  0  0  0  0  0  0  0  0  0  0  # atno 17320 bound_to 7965
  145.4055  139.1589  143.4154 LP  0  0  0  0  0  0  0  0  0  0  0  0  # atno 17321 bound_to 7965
  139.9329  143.6472  152.3072 LP  0  0  0  0  0  0  0  0  0  0  0  0  # atno 17342 bound_to 10162
  139.6929  144.7645  151.1406 LP  0  0  0  0  0  0  0  0  0  0  0  0  # atno 17343 bound_to 10162
  157.4332  130.7502  149.7007 LP  0  0  0  0  0  0  0  0  0  0  0  0  # atno 17370 bound_to 10713
  155.9794  130.4040  150.3590 LP  0  0  0  0  0  0  0  0  0  0  0  0  # atno 17371 bound_to 10713
  140.9435  134.1870  157.4780 LP  0  0  0  0  0  0  0  0  0  0  0  0  # atno 17394 bound_to 11000
  139.8736  134.9881  156.5398 LP  0  0  0  0  0  0  0  0  0  0  0  0  # atno 17395 bound_to 11000

$$$$
