AV-unprocessed.smi:1230|AV-procd|sdf|5156|dock9
  -GOLD-   22720 4233D 1   1.00000     0.00000
 Structure written by MMmdl.
 39 40  0  0  0  0  0  0  0  0  1 V2000
  154.1245  139.3200  160.2826 C   0  0  0  0  0  0  0  0  0  0  0  0
  153.7451  140.7306  159.8024 C   0  0  2  0  0  0  0  0  0  0  0  0
  153.5590  141.6806  161.0030 C   0  0  0  0  0  0  0  0  0  0  0  0
  153.1699  143.0971  160.5547 C   0  0  0  0  0  0  0  0  0  0  0  0
  151.9047  143.0712  159.6867 C   0  0  0  0  0  0  0  0  0  0  0  0
  152.0839  142.1388  158.4798 C   0  0  0  0  0  0  0  0  0  0  0  0
  152.4776  140.7116  158.9178 C   0  0  1  0  0  0  0  0  0  0  0  0
  152.7600  139.9204  157.7697 O   0  0  0  0  0  0  0  0  0  0  0  0
  151.6239  139.5983  156.9824 C   0  0  0  0  0  0  0  0  0  0  0  0
  151.5339  140.6056  155.8262 C   0  0  0  0  0  0  0  0  0  0  0  0
  150.4379  140.3337  154.9302 N   0  0  0  0  0  0  0  0  0  0  0  0
  149.4547  141.2709  154.6527 C   0  0  0  0  0  0  0  0  0  0  0  0
  148.4319  141.0292  153.7989 C   0  0  0  0  0  0  0  0  0  0  0  0
  147.4285  142.0033  153.5226 C   0  0  0  0  0  0  0  0  0  0  0  0
  146.6244  142.8096  153.3159 N   0  0  0  0  0  0  0  0  0  0  0  0
  148.3176  139.7423  153.1149 C   0  0  0  0  0  0  0  0  0  0  0  0
  147.4288  139.4255  152.3265 O   0  0  0  0  0  0  0  0  0  0  0  0
  149.3367  138.8346  153.4212 N   0  0  0  0  0  0  0  0  0  0  0  0
  150.3993  139.0693  154.2965 C   0  0  0  0  0  0  0  0  0  0  0  0
  151.2463  138.1952  154.4812 O   0  0  0  0  0  0  0  0  0  0  0  0
  149.3029  137.9327  152.9684 H   0  0  0  0  0  0  0  0  0  0  0  0
  153.3250  138.8753  160.8758 H   0  0  0  0  0  0  0  0  0  0  0  0
  155.0228  139.3444  160.8999 H   0  0  0  0  0  0  0  0  0  0  0  0
  154.3249  138.6541  159.4430 H   0  0  0  0  0  0  0  0  0  0  0  0
  154.5731  141.1100  159.2013 H   0  0  0  0  0  0  0  0  0  0  0  0
  152.7886  141.2874  161.6677 H   0  0  0  0  0  0  0  0  0  0  0  0
  154.4773  141.7247  161.5895 H   0  0  0  0  0  0  0  0  0  0  0  0
  153.0100  143.7322  161.4264 H   0  0  0  0  0  0  0  0  0  0  0  0
  153.9916  143.5428  159.9928 H   0  0  0  0  0  0  0  0  0  0  0  0
  151.0560  142.7372  160.2848 H   0  0  0  0  0  0  0  0  0  0  0  0
  151.6665  144.0791  159.3461 H   0  0  0  0  0  0  0  0  0  0  0  0
  151.1608  142.1230  157.9013 H   0  0  0  0  0  0  0  0  0  0  0  0
  152.8531  142.5433  157.8205 H   0  0  0  0  0  0  0  0  0  0  0  0
  151.6631  140.2668  159.4930 H   0  0  0  0  0  0  0  0  0  0  0  0
  151.7217  138.5865  156.5860 H   0  0  0  0  0  0  0  0  0  0  0  0
  150.7174  139.6291  157.5863 H   0  0  0  0  0  0  0  0  0  0  0  0
  151.4333  141.6362  156.1736 H   0  0  0  0  0  0  0  0  0  0  0  0
  152.4395  140.5748  155.2185 H   0  0  0  0  0  0  0  0  0  0  0  0
  149.5028  142.2380  155.1333 H   0  0  0  0  0  0  0  0  0  0  0  0
  1  2  1  0  0  0  0
  1 22  1  0  0  0  0
  1 23  1  0  0  0  0
  1 24  1  0  0  0  0
  2  7  1  0  0  0  0
  2  3  1  0  0  0  0
  2 25  1  0  0  0  0
  3  4  1  0  0  0  0
  3 26  1  0  0  0  0
  3 27  1  0  0  0  0
  4  5  1  0  0  0  0
  4 28  1  0  0  0  0
  4 29  1  0  0  0  0
  5  6  1  0  0  0  0
  5 30  1  0  0  0  0
  5 31  1  0  0  0  0
  6  7  1  0  0  0  0
  6 32  1  0  0  0  0
  6 33  1  0  0  0  0
  7  8  1  0  0  0  0
  7 34  1  0  0  0  0
  8  9  1  0  0  0  0
  9 10  1  0  0  0  0
  9 35  1  0  0  0  0
  9 36  1  0  0  0  0
 10 11  1  0  0  0  0
 10 37  1  0  0  0  0
 10 38  1  0  0  0  0
 11 19  1  0  0  0  0
 11 12  1  0  0  0  0
 12 13  2  0  0  0  0
 12 39  1  0  0  0  0
 13 14  1  0  0  0  0
 13 16  1  0  0  0  0
 14 15  3  0  0  0  0
 16 17  2  0  0  0  0
 16 18  1  0  0  0  0
 18 21  1  0  0  0  0
 18 19  1  0  0  0  0
 19 20  2  0  0  0  0
M  END
> <s_m_source_file>
AV-unprocessed.smi

> <i_m_source_file_index>
1230

> <i_lp_mmshare_version>
43012

> <i_f3d_flags>
0

> <s_epik_input>
W0NIM11bQ0BASF0xW0NIMl1bQ0gyXVtDSDJdW0NIMl1bQ0BIXTFPW0NIMl1bQ0gyXW4yW2NIXWMoQyNOKWMoPU8pW25IXWMyPU8=

> <s_epik_cmdline>
J2VwaWtfcHl0aG9uJywgJy1waCcsICc3LjAnLCAnLXRuJywgJzgnLCAnLW1hJywgJzIwMCcsICctbWV0YWxfYmluZGluZycsICctaW1hZScsICc8aW5maWxlLm1hZT4nLCAnLW9tYWUnLCAnPG91dGZpbGUubWFlPic=

> <r_epik_Ionization_Penalty>
0.421541

> <r_epik_Ionization_Penalty_Charging>
0.421541

> <r_epik_Ionization_Penalty_Neutral>
2.29267e-11

> <r_epik_State_Penalty>
0.422277

> <r_epik_Charging_Adjusted_Penalty>
0.843818

> <i_epik_Tot_Q>
0

> <i_epik_Tot_abs_Q>
0

> <r_epik_Metal_State_Penalty>
4.11629

> <b_epik_Metal_Only>
0

> <s_lp_Force_Field>
OPLS_2005

> <r_lp_Energy>
13.3679

> <b_lp_Chiralities_Consistent>
1

> <s_lp_Variant>
AV-unprocessed.smi:1230-5

> <Gold.Version>
5.8.1

> <Gold.Id.Protein>
6NUR|6NUR_protein|mol2

> <Gold.PLP.Fitness>
48.8356

> <Gold.PLP.PLP>
-40.8910

> <Gold.PLP.part.hbond>
-2.8042

> <Gold.PLP.part.metal>
0.0000

> <Gold.PLP.part.buried>
-2.8696

> <Gold.PLP.part.nonpolar>
-35.7202

> <Gold.PLP.part.repulsive>
1.3572

> <Gold.PLP.ligand.clash>
0.0000

> <Gold.PLP.ligand.torsion>
0.3162

> <Gold.PLP.Chemscore.Hbond>
1.8613

> <Gold.PLP.Chemscore.CHOScore>
0.9932

> <Gold.PLP.Chemscore.Metal>
0.0000

> <Gold.Chemscore.Hbonds>
donor molecule, donor type, donor heavy atom, donor atom, acceptor molecule, acceptor atom, score
      L1  H    18    21       P1  7948  1.00
      P1  H  7997  8008       L1     8  1.00
      L1  C    12    39       P1  8028  0.81

> <Gold.PLP.Chemscore.Internal.Correction>
0.0138

> <Gold.Rescore>
     Score         DG    S(hbond)    S(metal)    S(lipo)     H(rot)  DE(clash)    DE(int)     intcor
     15.34     -17.31       1.72        0.00      94.42       1.94       0.29       1.68       ----

> <Gold.Chemscore.Fitness>
15.3437

> <Gold.Chemscore.DG>
-17.3099

> <Gold.Chemscore.ZeroCoef>
-5.4800

> <Gold.Chemscore.Hbond>
1.7202

> <Gold.Chemscore.Metal>
0.0000

> <Gold.Chemscore.Lipo>
94.4187

> <Gold.Chemscore.Internal_Hbond>
0.0000

> <Gold.Chemscore.DEClash>
0.2873

> <Gold.Chemscore.DEInternal>
1.6789

> <Gold.Chemscore.Rot>
1.9385

> <Gold.Chemscore.Internal.Correction>
   9.000000E+99

> <Gold.Chemscore.Hbonds>
donor molecule, donor type, donor heavy atom, donor atom, acceptor molecule, acceptor atom, score
      L1  H    18    21       P1  7948  0.90
      P1  H  7997  8008       L1     8  0.88

> <Gold.Chemscore.Hbond.Weighted>
-5.7454

> <Gold.Chemscore.Metal.Weighted>
-0.0000

> <Gold.Chemscore.Lipo.Weighted>
-11.0470

> <Gold.Chemscore.Internal_Hbond.Weighted>
0.0000

> <Gold.Chemscore.DEClash.Weighted>
0.2873

> <Gold.Chemscore.DEInternal.Weighted>
1.6789

> <Gold.Chemscore.Rot.Weighted>
4.9625

> <Gold.Chemscore.Internal.Correction.Weighted>
   9.000000E+99

> <Gold.Protein.RotatedTorsions>
[ 6907 6896 6895 6894 ] final   74.81 input  -60.11 | X-H torsion
[ 7974 7965 7964 7962 ] final   72.88 input  175.53 | X-H torsion
[ 8008 7997 7996 7995 ] final  -67.21 input   59.86 | X-H torsion
[ 10167 10162 10161 10158 ] final   19.93 input  -65.29 | X-H torsion
[ 10718 10713 10712 10709 ] final   -3.43 input   66.30 | X-H torsion
[ 10763 10752 10751 10750 ] final -132.02 input  -60.55 | X-H torsion
[ 11005 11000 10999 10996 ] final  136.52 input  -57.11 | X-H torsion

> <Gold.Protein.ActiveResidues>
 VAL166  LYS551  ARG553  GLY616  TRP617  ASP618  TYR619  PRO620  LYS621  CYS622 
 ASP623  PHE694  ASN695  SER759  ASP760  ASP761  ALA762  ILE779  LEU786  VAL792 
 PHE793  MET794  SER795  GLU796  ALA797  LYS798  CYS799  TRP800  GLU811  SER814 

> <Gold.Protein.RotatedAtoms>
  152.4995  134.4215  159.9481 H   0  0  0  0  0  0  0  0  0  0  0  0  # atno 6907 bound_to 6896
  151.4188  133.3698  159.2761 H   0  0  0  0  0  0  0  0  0  0  0  0  # atno 6908 bound_to 6896
  150.9237  134.8677  159.7565 H   0  0  0  0  0  0  0  0  0  0  0  0  # atno 6909 bound_to 6896
  145.7479  139.2747  143.1448 H   0  0  0  0  0  0  0  0  0  0  0  0  # atno 7974 bound_to 7965
  154.4785  140.0897  156.7320 H   0  0  0  0  0  0  0  0  0  0  0  0  # atno 8008 bound_to 7997
  155.4533  140.3458  155.4285 H   0  0  0  0  0  0  0  0  0  0  0  0  # atno 8009 bound_to 7997
  156.1154  140.1459  156.9268 H   0  0  0  0  0  0  0  0  0  0  0  0  # atno 8010 bound_to 7997
  140.5542  143.9455  150.6598 H   0  0  0  0  0  0  0  0  0  0  0  0  # atno 10167 bound_to 10162
  156.7761  130.5315  149.5759 H   0  0  0  0  0  0  0  0  0  0  0  0  # atno 10718 bound_to 10713
  154.8746  135.3811  154.4342 H   0  0  0  0  0  0  0  0  0  0  0  0  # atno 10763 bound_to 10752
  153.5033  135.7030  153.5825 H   0  0  0  0  0  0  0  0  0  0  0  0  # atno 10764 bound_to 10752
  153.4147  135.3916  155.2039 H   0  0  0  0  0  0  0  0  0  0  0  0  # atno 10765 bound_to 10752
  140.0051  134.9462  157.0158 H   0  0  0  0  0  0  0  0  0  0  0  0  # atno 11005 bound_to 11000
  146.0385  140.8188  142.9840 LP  0  0  0  0  0  0  0  0  0  0  0  0  # atno 17320 bound_to 7965
  144.6856  140.2875  143.7283 LP  0  0  0  0  0  0  0  0  0  0  0  0  # atno 17321 bound_to 7965
  140.2889  143.3338  152.1081 LP  0  0  0  0  0  0  0  0  0  0  0  0  # atno 17342 bound_to 10162
  139.5040  144.6767  151.6110 LP  0  0  0  0  0  0  0  0  0  0  0  0  # atno 17343 bound_to 10162
  156.1247  130.6135  151.0246 LP  0  0  0  0  0  0  0  0  0  0  0  0  # atno 17370 bound_to 10713
  157.6668  131.0870  150.7709 LP  0  0  0  0  0  0  0  0  0  0  0  0  # atno 17371 bound_to 10713
  140.4656  134.1439  155.7196 LP  0  0  0  0  0  0  0  0  0  0  0  0  # atno 17394 bound_to 11000
  141.1671  133.8682  157.1682 LP  0  0  0  0  0  0  0  0  0  0  0  0  # atno 17395 bound_to 11000

$$$$
