AV-unprocessed.smi:100|AV-procd|sdf|898|dock5
  -GOLD-   2262017393D 1   1.00000     0.00000
 Structure written by MMmdl.
 31 33  0  0  0  0  0  0  0  0  1 V2000
  149.1517  138.2512  153.5254 N   0  0  0  0  0  0  0  0  0  0  0  0
  150.1283  138.6673  154.3436 C   0  0  0  0  0  0  0  0  0  0  0  0
  151.1992  137.8605  154.5288 N   0  0  0  0  0  0  0  0  0  0  0  0
  152.1862  138.2533  155.3404 C   0  0  0  0  0  0  0  0  0  0  0  0
  152.2908  139.3857  156.0408 N   0  0  0  0  0  0  0  0  0  0  0  0
  151.2097  140.1984  155.8544 C   0  0  0  0  0  0  0  0  0  0  0  0
  150.0918  139.9117  155.0224 C   0  0  0  0  0  0  0  0  0  0  0  0
  149.1856  140.9620  155.0681 N   0  0  0  0  0  0  0  0  0  0  0  0
  149.7400  141.8190  155.8828 C   0  0  0  0  0  0  0  0  0  0  0  0
  150.9596  141.4421  156.4015 N   0  0  0  0  0  0  0  0  0  0  0  0
  151.8193  142.2204  157.3501 C   0  0  1  0  0  0  0  0  0  0  0  0
  151.4328  143.5585  157.3532 O   0  0  0  0  0  0  0  0  0  0  0  0
  151.5700  144.1244  158.6598 C   0  0  1  0  0  0  0  0  0  0  0  0
  150.1984  144.6576  159.1086 C   0  0  0  0  0  0  0  0  0  0  0  0
  149.1688  143.8314  158.6090 O   0  0  0  0  0  0  0  0  0  0  0  0
  152.0816  142.9837  159.5561 C   0  0  2  0  0  0  0  0  0  0  0  0
  153.4087  143.0685  159.6663 F   0  0  0  0  0  0  0  0  0  0  0  0
  151.7308  141.7204  158.7941 C   0  0  1  0  0  0  0  0  0  0  0  0
  150.4553  141.2275  159.1615 O   0  0  0  0  0  0  0  0  0  0  0  0
  148.3426  138.8356  153.3707 H   0  0  0  0  0  0  0  0  0  0  0  0
  149.2252  137.3540  153.0683 H   0  0  0  0  0  0  0  0  0  0  0  0
  153.0101  137.5628  155.4439 H   0  0  0  0  0  0  0  0  0  0  0  0
  149.2706  142.7604  156.1290 H   0  0  0  0  0  0  0  0  0  0  0  0
  152.8296  142.1472  156.9439 H   0  0  0  0  0  0  0  0  0  0  0  0
  152.2979  144.9374  158.6445 H   0  0  0  0  0  0  0  0  0  0  0  0
  150.1309  144.7384  160.1928 H   0  0  0  0  0  0  0  0  0  0  0  0
  150.0320  145.6562  158.7040 H   0  0  0  0  0  0  0  0  0  0  0  0
  149.1432  143.9194  157.6685 H   0  0  0  0  0  0  0  0  0  0  0  0
  151.6847  143.0046  160.5719 H   0  0  0  0  0  0  0  0  0  0  0  0
  152.4594  140.9243  158.9525 H   0  0  0  0  0  0  0  0  0  0  0  0
  150.3087  141.4302  160.0730 H   0  0  0  0  0  0  0  0  0  0  0  0
  1  2  1  0  0  0  0
  1 20  1  0  0  0  0
  1 21  1  0  0  0  0
  2  7  1  0  0  0  0
  2  3  2  0  0  0  0
  3  4  1  0  0  0  0
  4  5  2  0  0  0  0
  4 22  1  0  0  0  0
  5  6  1  0  0  0  0
  6 10  1  0  0  0  0
  6  7  2  0  0  0  0
  7  8  1  0  0  0  0
  8  9  2  0  0  0  0
  9 10  1  0  0  0  0
  9 23  1  0  0  0  0
 10 11  1  0  0  0  0
 11 18  1  0  0  0  0
 11 12  1  0  0  0  0
 11 24  1  0  0  0  0
 12 13  1  0  0  0  0
 13 14  1  0  0  0  0
 13 16  1  0  0  0  0
 13 25  1  0  0  0  0
 14 15  1  0  0  0  0
 14 26  1  0  0  0  0
 14 27  1  0  0  0  0
 15 28  1  0  0  0  0
 16 17  1  0  0  0  0
 16 18  1  0  0  0  0
 16 29  1  0  0  0  0
 18 19  1  0  0  0  0
 18 30  1  0  0  0  0
 19 31  1  0  0  0  0
M  END
> <s_m_source_file>
AV-unprocessed.smi

> <i_m_source_file_index>
100

> <i_lp_mmshare_version>
43012

> <i_f3d_flags>
0

> <s_epik_input>
bjFbY0hdbmMoW05IMl0pYyhjMTIpbltjSF1uMltDQEBIXTNPW0NAQEhdKFtDSDJdW09IXSlbQ0BIXShGKVtDQEhdM1tPSF0=

> <s_epik_cmdline>
J2VwaWtfcHl0aG9uJywgJy1waCcsICc3LjAnLCAnLXRuJywgJzgnLCAnLW1hJywgJzIwMCcsICctbWV0YWxfYmluZGluZycsICctaW1hZScsICc8aW5maWxlLm1hZT4nLCAnLW9tYWUnLCAnPG91dGZpbGUubWFlPic=

> <r_lp_tautomer_probability>
1

> <r_epik_Ionization_Penalty>
0.000750324

> <r_epik_Ionization_Penalty_Charging>
0

> <r_epik_Ionization_Penalty_Neutral>
0.000750324

> <r_epik_State_Penalty>
-0

> <r_epik_Charging_Adjusted_Penalty>
0

> <i_epik_Tot_Q>
0

> <i_epik_Tot_abs_Q>
0

> <r_epik_Metal_State_Penalty>
-0

> <b_epik_Metal_Only>
0

> <s_epik_Chemistry_Notes>
This compound contains an acetal/aminal-like group ( X-CH(R)-Y where X, Y are N, S, or O) that may be acid/base labile, releasing an aldehyde.

> <s_lp_Force_Field>
OPLS_2005

> <r_lp_Energy>
37.0589

> <b_lp_Chiralities_Consistent>
1

> <s_lp_Variant>
AV-unprocessed.smi:100-2

> <Gold.Version>
5.8.1

> <Gold.Id.Protein>
6NUR|6NUR_protein|mol2

> <Gold.PLP.Fitness>
43.9627

> <Gold.PLP.PLP>
-33.8017

> <Gold.PLP.part.hbond>
-5.9408

> <Gold.PLP.part.metal>
0.0000

> <Gold.PLP.part.buried>
-0.5865

> <Gold.PLP.part.nonpolar>
-26.9570

> <Gold.PLP.part.repulsive>
0.5169

> <Gold.PLP.ligand.clash>
0.0000

> <Gold.PLP.ligand.torsion>
0.7372

> <Gold.PLP.Chemscore.Hbond>
2.8775

> <Gold.PLP.Chemscore.CHOScore>
1.0000

> <Gold.PLP.Chemscore.Metal>
0.0000

> <Gold.Chemscore.Hbonds>
donor molecule, donor type, donor heavy atom, donor atom, acceptor molecule, acceptor atom, score
      L1  H     1    21       P1  7948  1.00
      L1  H    15    28       P1  8028  0.49
      P1  H  7997  8008       L1     5  0.60
      L1  C     9    23       P1  8028  1.00

> <Gold.PLP.Chemscore.Internal.Correction>
0.0029

> <Gold.Rescore>
     Score         DG    S(hbond)    S(metal)    S(lipo)     H(rot)  DE(clash)    DE(int)     intcor
      6.78      -8.89       1.76        0.00      48.79       3.19       1.67       0.44       ----

> <Gold.Chemscore.Fitness>
6.7823

> <Gold.Chemscore.DG>
-8.8869

> <Gold.Chemscore.ZeroCoef>
-5.4800

> <Gold.Chemscore.Hbond>
1.7559

> <Gold.Chemscore.Metal>
0.0000

> <Gold.Chemscore.Lipo>
48.7929

> <Gold.Chemscore.Internal_Hbond>
0.0000

> <Gold.Chemscore.DEClash>
1.6671

> <Gold.Chemscore.DEInternal>
0.4375

> <Gold.Chemscore.Rot>
3.1901

> <Gold.Chemscore.Internal.Correction>
   9.000000E+99

> <Gold.Chemscore.Hbonds>
donor molecule, donor type, donor heavy atom, donor atom, acceptor molecule, acceptor atom, score
      L1  H     1    21       P1  7948  0.97
      L1  H    15    28       P1  8028  0.05
      P1  H  7997  8008       L1     5  0.54

> <Gold.Chemscore.Hbond.Weighted>
-5.8648

> <Gold.Chemscore.Metal.Weighted>
-0.0000

> <Gold.Chemscore.Lipo.Weighted>
-5.7088

> <Gold.Chemscore.Internal_Hbond.Weighted>
0.0000

> <Gold.Chemscore.DEClash.Weighted>
1.6671

> <Gold.Chemscore.DEInternal.Weighted>
0.4375

> <Gold.Chemscore.Rot.Weighted>
8.1667

> <Gold.Chemscore.Internal.Correction.Weighted>
   9.000000E+99

> <Gold.Protein.RotatedTorsions>
[ 6907 6896 6895 6894 ] final  -91.32 input  -60.11 | X-H torsion
[ 7974 7965 7964 7962 ] final   57.20 input  175.53 | X-H torsion
[ 8008 7997 7996 7995 ] final  -39.06 input   59.86 | X-H torsion
[ 10167 10162 10161 10158 ] final  131.17 input  -65.29 | X-H torsion
[ 10718 10713 10712 10709 ] final   51.69 input   66.30 | X-H torsion
[ 10763 10752 10751 10750 ] final    1.66 input  -60.55 | X-H torsion
[ 11005 11000 10999 10996 ] final -153.38 input  -57.11 | X-H torsion

> <Gold.Protein.ActiveResidues>
 VAL166  LYS551  ARG553  GLY616  TRP617  ASP618  TYR619  PRO620  LYS621  CYS622 
 ASP623  PHE694  ASN695  SER759  ASP760  ASP761  ALA762  ILE779  LEU786  VAL792 
 PHE793  MET794  SER795  GLU796  ALA797  LYS798  CYS799  TRP800  GLU811  SER814 

> <Gold.Protein.RotatedAtoms>
  150.6891  134.2296  159.4428 H   0  0  0  0  0  0  0  0  0  0  0  0  # atno 6907 bound_to 6896
  152.0247  134.9800  160.0580 H   0  0  0  0  0  0  0  0  0  0  0  0  # atno 6908 bound_to 6896
  152.1363  133.4402  159.4782 H   0  0  0  0  0  0  0  0  0  0  0  0  # atno 6909 bound_to 6896
  145.9316  139.3812  143.0417 H   0  0  0  0  0  0  0  0  0  0  0  0  # atno 7974 bound_to 7965
  154.4028  140.1561  156.2801 H   0  0  0  0  0  0  0  0  0  0  0  0  # atno 8008 bound_to 7997
  155.8877  140.3440  155.5911 H   0  0  0  0  0  0  0  0  0  0  0  0  # atno 8009 bound_to 7997
  155.7594  140.0815  157.2153 H   0  0  0  0  0  0  0  0  0  0  0  0  # atno 8010 bound_to 7997
  139.5396  144.6717  151.4669 H   0  0  0  0  0  0  0  0  0  0  0  0  # atno 10167 bound_to 10162
  157.5004  130.8434  149.8310 H   0  0  0  0  0  0  0  0  0  0  0  0  # atno 10718 bound_to 10713
  153.3053  135.6959  153.7165 H   0  0  0  0  0  0  0  0  0  0  0  0  # atno 10763 bound_to 10752
  153.6064  135.3452  155.2964 H   0  0  0  0  0  0  0  0  0  0  0  0  # atno 10764 bound_to 10752
  154.8561  135.4353  154.2176 H   0  0  0  0  0  0  0  0  0  0  0  0  # atno 10765 bound_to 10752
  140.7087  134.3856  157.5200 H   0  0  0  0  0  0  0  0  0  0  0  0  # atno 11005 bound_to 11000
  145.8418  140.9576  143.0795 LP  0  0  0  0  0  0  0  0  0  0  0  0  # atno 17320 bound_to 7965
  144.6765  140.0294  143.7483 LP  0  0  0  0  0  0  0  0  0  0  0  0  # atno 17321 bound_to 7965
  140.6620  143.8479  150.6898 LP  0  0  0  0  0  0  0  0  0  0  0  0  # atno 17342 bound_to 10162
  140.1876  143.4063  152.1887 LP  0  0  0  0  0  0  0  0  0  0  0  0  # atno 17343 bound_to 10162
  156.0226  130.3790  150.1917 LP  0  0  0  0  0  0  0  0  0  0  0  0  # atno 17370 bound_to 10713
  157.0107  130.9950  151.3366 LP  0  0  0  0  0  0  0  0  0  0  0  0  # atno 17371 bound_to 10713
  139.8877  134.8875  156.2513 LP  0  0  0  0  0  0  0  0  0  0  0  0  # atno 17394 bound_to 11000
  141.0102  133.7100  156.1100 LP  0  0  0  0  0  0  0  0  0  0  0  0  # atno 17395 bound_to 11000

$$$$
