AV-unprocessed.smi:193|AV-procd|sdf|1501|dock7
  -GOLD-   2262019333D 1   1.00000     0.00000
 Structure written by MMmdl.
 62 66  0  0  0  0  0  0  0  0  2 V2000
  145.0541  135.6169  150.6663 C   0  0  0  0  0  0  0  0  0  0  0  0
  144.8673  135.3184  152.1619 C   0  0  1  0  0  0  0  0  0  0  0  0
  143.8260  136.2994  152.7473 C   0  0  0  0  0  0  0  0  0  0  0  0
  143.7556  136.2901  154.2080 N   0  0  0  0  0  0  0  0  0  0  0  0
  144.5001  137.1928  154.9013 C   0  0  0  0  0  0  0  0  0  0  0  0
  144.3237  137.3159  156.2440 N   0  0  0  0  0  0  0  0  0  0  0  0
  145.0278  138.2127  156.9404 C   0  0  0  0  0  0  0  0  0  0  0  0
  145.9463  139.0740  156.5011 N   0  0  0  0  0  0  0  0  0  0  0  0
  146.1359  138.9523  155.1565 C   0  0  0  0  0  0  0  0  0  0  0  0
  145.4645  138.0441  154.2890 C   0  0  0  0  0  0  0  0  0  0  0  0
  145.9374  138.1978  152.9907 N   0  0  0  0  0  0  0  0  0  0  0  0
  146.8279  139.1470  153.0836 C   0  0  0  0  0  0  0  0  0  0  0  0
  147.0011  139.6667  154.3463 N   0  0  0  0  0  0  0  0  0  0  0  0
  147.9151  140.7305  154.7332 C   0  0  0  0  0  0  0  0  0  0  0  0
  149.4120  140.3500  154.6104 C   0  0  0  0  0  0  0  0  0  0  0  0
  149.8925  140.8673  153.3817 O   0  0  0  0  0  0  0  0  0  0  0  0
  150.2227  140.9883  155.7565 C   0  0  0  0  0  0  0  0  0  0  0  0
  151.6816  140.4987  155.7794 C   0  0  0  0  0  0  0  0  0  0  0  0
  151.7160  139.0787  155.8520 O   0  0  0  0  0  0  0  0  0  0  0  0
  151.1312  138.4565  154.7146 C   0  0  0  0  0  0  0  0  0  0  0  0
  149.6393  138.8219  154.6172 C   0  0  0  0  0  0  0  0  0  0  0  0
  143.4870  135.0182  154.8751 C   0  0  0  0  0  0  0  0  0  0  0  0
  144.7213  134.0974  154.8622 C   0  0  0  0  0  0  0  0  0  0  0  0
  144.8316  133.2336  153.6571 N   0  3  2  0  0  0  0  0  0  0  0  0
  146.1599  132.5803  153.5744 C   0  0  1  0  0  0  0  0  0  0  0  0
  146.1817  131.1616  154.0975 C   0  0  0  0  0  0  0  0  0  0  0  0
  146.2507  131.4134  152.6069 C   0  0  1  0  0  0  0  0  0  0  0  0
  145.1085  130.9814  151.7051 C   0  0  0  0  0  0  0  0  0  0  0  0
  144.4311  133.8470  152.3599 C   0  0  0  0  0  0  0  0  0  0  0  0
  144.1260  135.4709  150.1123 H   0  0  0  0  0  0  0  0  0  0  0  0
  145.8117  134.9684  150.2251 H   0  0  0  0  0  0  0  0  0  0  0  0
  145.3772  136.6463  150.5084 H   0  0  0  0  0  0  0  0  0  0  0  0
  145.8376  135.4798  152.6328 H   0  0  0  0  0  0  0  0  0  0  0  0
  144.0326  137.3142  152.4033 H   0  0  0  0  0  0  0  0  0  0  0  0
  142.8353  136.0634  152.3576 H   0  0  0  0  0  0  0  0  0  0  0  0
  144.8243  138.2467  158.0006 H   0  0  0  0  0  0  0  0  0  0  0  0
  147.3810  139.5031  152.2265 H   0  0  0  0  0  0  0  0  0  0  0  0
  147.6958  141.6094  154.1253 H   0  0  0  0  0  0  0  0  0  0  0  0
  147.6850  141.0111  155.7618 H   0  0  0  0  0  0  0  0  0  0  0  0
  149.8545  140.1829  152.7312 H   0  0  0  0  0  0  0  0  0  0  0  0
  150.1947  142.0765  155.6857 H   0  0  0  0  0  0  0  0  0  0  0  0
  149.7600  140.7337  156.7111 H   0  0  0  0  0  0  0  0  0  0  0  0
  152.2277  140.8437  154.9000 H   0  0  0  0  0  0  0  0  0  0  0  0
  152.1973  140.9058  156.6492 H   0  0  0  0  0  0  0  0  0  0  0  0
  151.6669  138.7489  153.8104 H   0  0  0  0  0  0  0  0  0  0  0  0
  151.2433  137.3764  154.8103 H   0  0  0  0  0  0  0  0  0  0  0  0
  149.1192  138.3858  155.4711 H   0  0  0  0  0  0  0  0  0  0  0  0
  149.2103  138.3595  153.7275 H   0  0  0  0  0  0  0  0  0  0  0  0
  143.1962  135.1979  155.9085 H   0  0  0  0  0  0  0  0  0  0  0  0
  142.6277  134.5284  154.4161 H   0  0  0  0  0  0  0  0  0  0  0  0
  145.6354  134.6775  154.9990 H   0  0  0  0  0  0  0  0  0  0  0  0
  144.6626  133.4338  155.7250 H   0  0  0  0  0  0  0  0  0  0  0  0
  147.0181  133.2302  153.7378 H   0  0  0  0  0  0  0  0  0  0  0  0
  147.0923  130.8204  154.5855 H   0  0  0  0  0  0  0  0  0  0  0  0
  145.2597  130.7409  154.4946 H   0  0  0  0  0  0  0  0  0  0  0  0
  147.2277  131.2708  152.1491 H   0  0  0  0  0  0  0  0  0  0  0  0
  144.1487  131.0446  152.2183 H   0  0  0  0  0  0  0  0  0  0  0  0
  145.2570  129.9487  151.3891 H   0  0  0  0  0  0  0  0  0  0  0  0
  145.0729  131.6106  150.8157 H   0  0  0  0  0  0  0  0  0  0  0  0
  143.3484  133.7664  152.2585 H   0  0  0  0  0  0  0  0  0  0  0  0
  144.8307  133.2279  151.5552 H   0  0  0  0  0  0  0  0  0  0  0  0
  144.1729  132.4815  153.8002 H   0  0  0  0  0  0  0  0  0  0  0  0
  1  2  1  0  0  0  0
  1 30  1  0  0  0  0
  1 31  1  0  0  0  0
  1 32  1  0  0  0  0
  2 29  1  0  0  0  0
  2  3  1  0  0  0  0
  2 33  1  0  0  0  0
  3  4  1  0  0  0  0
  3 34  1  0  0  0  0
  3 35  1  0  0  0  0
  4  5  1  0  0  0  0
  4 22  1  0  0  0  0
  5 10  1  0  0  0  0
  5  6  2  0  0  0  0
  6  7  1  0  0  0  0
  7  8  2  0  0  0  0
  7 36  1  0  0  0  0
  8  9  1  0  0  0  0
  9 13  1  0  0  0  0
  9 10  2  0  0  0  0
 10 11  1  0  0  0  0
 11 12  2  0  0  0  0
 12 13  1  0  0  0  0
 12 37  1  0  0  0  0
 13 14  1  0  0  0  0
 14 15  1  0  0  0  0
 14 38  1  0  0  0  0
 14 39  1  0  0  0  0
 15 21  1  0  0  0  0
 15 16  1  0  0  0  0
 15 17  1  0  0  0  0
 16 40  1  0  0  0  0
 17 18  1  0  0  0  0
 17 41  1  0  0  0  0
 17 42  1  0  0  0  0
 18 19  1  0  0  0  0
 18 43  1  0  0  0  0
 18 44  1  0  0  0  0
 19 20  1  0  0  0  0
 20 21  1  0  0  0  0
 20 45  1  0  0  0  0
 20 46  1  0  0  0  0
 21 47  1  0  0  0  0
 21 48  1  0  0  0  0
 22 23  1  0  0  0  0
 22 49  1  0  0  0  0
 22 50  1  0  0  0  0
 23 24  1  0  0  0  0
 23 51  1  0  0  0  0
 23 52  1  0  0  0  0
 24 25  1  0  0  0  0
 24 29  1  0  0  0  0
 24 62  1  0  0  0  0
 25 27  1  0  0  0  0
 25 26  1  0  0  0  0
 25 53  1  0  0  0  0
 26 27  1  0  0  0  0
 26 54  1  0  0  0  0
 26 55  1  0  0  0  0
 27 28  1  0  0  0  0
 27 56  1  0  0  0  0
 28 57  1  0  0  0  0
 28 58  1  0  0  0  0
 28 59  1  0  0  0  0
 29 60  1  0  0  0  0
 29 61  1  0  0  0  0
M  CHG  1  24   1
M  END
> <s_m_source_file>
AV-unprocessed.smi

> <i_m_source_file_index>
193

> <i_lp_mmshare_version>
43012

> <i_f3d_flags>
0

> <s_epik_input>
W0NIM11bQ0BASF0xW0NIMl1bQ0BIXTFOKFtDSDJdMilbQ0gyXVtDSDJdTihbQ0gyXVtDQEhdMltDSDNdKWMobltjSF1uMyljKGMzNCluW2NIXW40W0NIMl1DNShbT0hdKVtDSDJdW0NIMl1PW0NIMl1bQ0gyXTU=

> <s_epik_cmdline>
J2VwaWtfcHl0aG9uJywgJy1waCcsICc3LjAnLCAnLXRuJywgJzgnLCAnLW1hJywgJzIwMCcsICctbWV0YWxfYmluZGluZycsICctaW1hZScsICc8aW5maWxlLm1hZT4nLCAnLW9tYWUnLCAnPG91dGZpbGUubWFlPic=

> <r_lp_tautomer_probability>
1

> <r_epik_Ionization_Penalty>
0.0540825

> <r_epik_Ionization_Penalty_Charging>
0.0538476

> <r_epik_Ionization_Penalty_Neutral>
0.000234891

> <r_epik_State_Penalty>
0.0200719

> <r_epik_Charging_Adjusted_Penalty>
0.0739194

> <i_epik_Tot_Q>
1

> <i_epik_Tot_abs_Q>
1

> <r_epik_Metal_State_Penalty>
0.0199414

> <b_epik_Metal_Only>
0

> <s_lp_Force_Field>
OPLS_2005

> <r_lp_Energy>
56.4216

> <b_lp_Chiralities_Consistent>
1

> <s_lp_Variant>
AV-unprocessed.smi:193-6

> <Gold.Version>
5.8.1

> <Gold.Id.Protein>
6NUR|6NUR_protein|mol2

> <Gold.PLP.Fitness>
46.4865

> <Gold.PLP.PLP>
-33.7853

> <Gold.PLP.part.hbond>
-2.6720

> <Gold.PLP.part.metal>
0.0000

> <Gold.PLP.part.buried>
-1.1530

> <Gold.PLP.part.nonpolar>
-29.8864

> <Gold.PLP.part.repulsive>
0.2536

> <Gold.PLP.ligand.clash>
0.0000

> <Gold.PLP.ligand.torsion>
1.8019

> <Gold.PLP.Chemscore.Hbond>
3.9560

> <Gold.PLP.Chemscore.CHOScore>
0.9908

> <Gold.PLP.Chemscore.Metal>
0.0000

> <Gold.Chemscore.Hbonds>
donor molecule, donor type, donor heavy atom, donor atom, acceptor molecule, acceptor atom, score
      L1  H    16    40       P1  7957  0.77
      L1  H    24    62       P1 10957  1.98
      P1  H  7989  7998       L1    16  0.20
      P1  H  8011  8017       L1    16  1.00
      L1  C    12    37       P1  7957  1.00

> <Gold.PLP.Chemscore.Internal.Correction>
1.4647

> <Gold.Rescore>
     Score         DG    S(hbond)    S(metal)    S(lipo)     H(rot)  DE(clash)    DE(int)     intcor
     10.89     -15.37       1.36        0.00      87.91       1.93       0.16       4.32       ----

> <Gold.Chemscore.Fitness>
10.8936

> <Gold.Chemscore.DG>
-15.3705

> <Gold.Chemscore.ZeroCoef>
-5.4800

> <Gold.Chemscore.Hbond>
1.3604

> <Gold.Chemscore.Metal>
0.0000

> <Gold.Chemscore.Lipo>
87.9066

> <Gold.Chemscore.Internal_Hbond>
0.0000

> <Gold.Chemscore.DEClash>
0.1568

> <Gold.Chemscore.DEInternal>
4.3201

> <Gold.Chemscore.Rot>
1.9290

> <Gold.Chemscore.Internal.Correction>
   9.000000E+99

> <Gold.Chemscore.Hbonds>
donor molecule, donor type, donor heavy atom, donor atom, acceptor molecule, acceptor atom, score
      L1  H    16    40       P1  7957  0.74
      L1  H    24    62       P1 10957  0.42
      P1  H  7989  7998       L1    16  0.02
      P1  H  8011  8017       L1    16  0.34

> <Gold.Chemscore.Hbond.Weighted>
-4.5437

> <Gold.Chemscore.Metal.Weighted>
-0.0000

> <Gold.Chemscore.Lipo.Weighted>
-10.2851

> <Gold.Chemscore.Internal_Hbond.Weighted>
0.0000

> <Gold.Chemscore.DEClash.Weighted>
0.1568

> <Gold.Chemscore.DEInternal.Weighted>
4.3201

> <Gold.Chemscore.Rot.Weighted>
4.9383

> <Gold.Chemscore.Internal.Correction.Weighted>
   9.000000E+99

> <Gold.Protein.RotatedTorsions>
[ 6907 6896 6895 6894 ] final  115.16 input  -60.11 | X-H torsion
[ 7974 7965 7964 7962 ] final  178.04 input  175.53 | X-H torsion
[ 8008 7997 7996 7995 ] final   74.84 input   59.86 | X-H torsion
[ 10167 10162 10161 10158 ] final   17.31 input  -65.29 | X-H torsion
[ 10718 10713 10712 10709 ] final  138.33 input   66.30 | X-H torsion
[ 10763 10752 10751 10750 ] final  176.92 input  -60.55 | X-H torsion
[ 11005 11000 10999 10996 ] final  -75.10 input  -57.11 | X-H torsion

> <Gold.Protein.ActiveResidues>
 VAL166  LYS551  ARG553  GLY616  TRP617  ASP618  TYR619  PRO620  LYS621  CYS622 
 ASP623  PHE694  ASN695  SER759  ASP760  ASP761  ALA762  ILE779  LEU786  VAL792 
 PHE793  MET794  SER795  GLU796  ALA797  LYS798  CYS799  TRP800  GLU811  SER814 

> <Gold.Protein.RotatedAtoms>
  152.4758  133.8136  159.7016 H   0  0  0  0  0  0  0  0  0  0  0  0  # atno 6907 bound_to 6896
  150.8775  133.7409  159.2948 H   0  0  0  0  0  0  0  0  0  0  0  0  # atno 6908 bound_to 6896
  151.4924  135.1061  159.9859 H   0  0  0  0  0  0  0  0  0  0  0  0  # atno 6909 bound_to 6896
  144.7161  140.0338  143.6438 H   0  0  0  0  0  0  0  0  0  0  0  0  # atno 7974 bound_to 7965
  155.8042  140.3475  155.5420 H   0  0  0  0  0  0  0  0  0  0  0  0  # atno 8008 bound_to 7997
  155.8507  140.0956  157.1697 H   0  0  0  0  0  0  0  0  0  0  0  0  # atno 8009 bound_to 7997
  154.4007  140.1377  156.3828 H   0  0  0  0  0  0  0  0  0  0  0  0  # atno 8010 bound_to 7997
  140.5735  143.9116  150.6732 H   0  0  0  0  0  0  0  0  0  0  0  0  # atno 10167 bound_to 10162
  157.4265  131.1044  151.0297 H   0  0  0  0  0  0  0  0  0  0  0  0  # atno 10718 bound_to 10713
  154.4876  135.2777  155.1522 H   0  0  0  0  0  0  0  0  0  0  0  0  # atno 10763 bound_to 10752
  154.3206  135.6210  153.5510 H   0  0  0  0  0  0  0  0  0  0  0  0  # atno 10764 bound_to 10752
  152.9883  135.5742  154.5290 H   0  0  0  0  0  0  0  0  0  0  0  0  # atno 10765 bound_to 10752
  141.1642  133.6934  156.7465 H   0  0  0  0  0  0  0  0  0  0  0  0  # atno 11005 bound_to 11000
  146.0080  139.3146  143.0887 LP  0  0  0  0  0  0  0  0  0  0  0  0  # atno 17320 bound_to 7965
  145.8715  140.9417  143.0648 LP  0  0  0  0  0  0  0  0  0  0  0  0  # atno 17321 bound_to 7965
  140.2597  143.3532  152.1333 LP  0  0  0  0  0  0  0  0  0  0  0  0  # atno 17342 bound_to 10162
  139.5130  144.6926  151.5719 LP  0  0  0  0  0  0  0  0  0  0  0  0  # atno 17343 bound_to 10162
  157.1209  130.6061  149.5505 LP  0  0  0  0  0  0  0  0  0  0  0  0  # atno 17370 bound_to 10713
  155.9898  130.4947  150.7230 LP  0  0  0  0  0  0  0  0  0  0  0  0  # atno 17371 bound_to 10713
  140.2635  134.8448  157.3781 LP  0  0  0  0  0  0  0  0  0  0  0  0  # atno 17394 bound_to 11000
  140.1588  134.4755  155.7909 LP  0  0  0  0  0  0  0  0  0  0  0  0  # atno 17395 bound_to 11000

$$$$
