AV-unprocessed.smi:295|AV-procd|sdf|2254|dock6
  -GOLD-   2262022143D 1   1.00000     0.00000
 Structure written by MMmdl.
 35 36  0  0  0  0  0  0  0  0  1 V2000
  151.8486  144.7411  157.0581 C   0  0  0  0  0  0  0  0  0  0  0  0
  151.6425  143.5644  158.0299 C   0  0  2  0  0  0  0  0  0  0  0  0
  152.7962  143.4909  159.0500 C   0  0  0  0  0  0  0  0  0  0  0  0
  152.6077  142.3329  160.0417 C   0  0  0  0  0  0  0  0  0  0  0  0
  152.4592  140.9942  159.3055 C   0  0  0  0  0  0  0  0  0  0  0  0
  151.3054  141.0470  158.2938 C   0  0  0  0  0  0  0  0  0  0  0  0
  151.4789  142.2100  157.2965 C   0  0  1  0  0  0  0  0  0  0  0  0
  150.3290  142.2651  156.3997 N   0  0  0  0  0  0  0  0  0  0  0  0
  150.0526  141.3926  155.4184 C   0  0  0  0  0  0  0  0  0  0  0  0
  150.7056  140.3709  155.2098 O   0  0  0  0  0  0  0  0  0  0  0  0
  148.8608  141.7379  154.5239 C   0  0  0  0  0  0  0  0  0  0  0  0
  147.9049  140.6446  154.4910 N   0  0  0  0  0  0  0  0  0  0  0  0
  147.9514  139.4692  153.8548 C   0  0  0  0  0  0  0  0  0  0  0  0
  146.8681  138.7211  154.0241 N   0  0  0  0  0  0  0  0  0  0  0  0
  146.1550  139.5603  154.8300 C   0  0  0  0  0  0  0  0  0  0  0  0
  144.8305  139.2074  155.3118 C   0  0  0  0  0  0  0  0  0  0  0  0
  143.7752  138.9269  155.6951 N   0  0  0  0  0  0  0  0  0  0  0  0
  146.7209  140.7225  155.1473 N   0  0  0  0  0  0  0  0  0  0  0  0
  152.7340  144.5919  156.4395 H   0  0  0  0  0  0  0  0  0  0  0  0
  151.9763  145.6783  157.6003 H   0  0  0  0  0  0  0  0  0  0  0  0
  150.9955  144.8705  156.3914 H   0  0  0  0  0  0  0  0  0  0  0  0
  150.7244  143.7604  158.5866 H   0  0  0  0  0  0  0  0  0  0  0  0
  153.7444  143.3681  158.5248 H   0  0  0  0  0  0  0  0  0  0  0  0
  152.8687  144.4303  159.5993 H   0  0  0  0  0  0  0  0  0  0  0  0
  153.4547  142.2884  160.7269 H   0  0  0  0  0  0  0  0  0  0  0  0
  151.7234  142.5150  160.6539 H   0  0  0  0  0  0  0  0  0  0  0  0
  153.3891  140.7548  158.7879 H   0  0  0  0  0  0  0  0  0  0  0  0
  152.2884  140.1916  160.0234 H   0  0  0  0  0  0  0  0  0  0  0  0
  151.2468  140.0988  157.7579 H   0  0  0  0  0  0  0  0  0  0  0  0
  150.3615  141.1569  158.8297 H   0  0  0  0  0  0  0  0  0  0  0  0
  152.3849  142.0325  156.7134 H   0  0  0  0  0  0  0  0  0  0  0  0
  149.7238  143.0682  156.4934 H   0  0  0  0  0  0  0  0  0  0  0  0
  148.3580  142.6325  154.8938 H   0  0  0  0  0  0  0  0  0  0  0  0
  149.2054  141.9538  153.5114 H   0  0  0  0  0  0  0  0  0  0  0  0
  148.7895  139.1604  153.2472 H   0  0  0  0  0  0  0  0  0  0  0  0
  1  2  1  0  0  0  0
  1 19  1  0  0  0  0
  1 20  1  0  0  0  0
  1 21  1  0  0  0  0
  2  7  1  0  0  0  0
  2  3  1  0  0  0  0
  2 22  1  0  0  0  0
  3  4  1  0  0  0  0
  3 23  1  0  0  0  0
  3 24  1  0  0  0  0
  4  5  1  0  0  0  0
  4 25  1  0  0  0  0
  4 26  1  0  0  0  0
  5  6  1  0  0  0  0
  5 27  1  0  0  0  0
  5 28  1  0  0  0  0
  6  7  1  0  0  0  0
  6 29  1  0  0  0  0
  6 30  1  0  0  0  0
  7  8  1  0  0  0  0
  7 31  1  0  0  0  0
  8  9  1  0  0  0  0
  8 32  1  0  0  0  0
  9 10  2  0  0  0  0
  9 11  1  0  0  0  0
 11 12  1  0  0  0  0
 11 33  1  0  0  0  0
 11 34  1  0  0  0  0
 12 18  1  0  0  0  0
 12 13  1  0  0  0  0
 13 14  2  0  0  0  0
 13 35  1  0  0  0  0
 14 15  1  0  0  0  0
 15 16  1  0  0  0  0
 15 18  2  0  0  0  0
 16 17  3  0  0  0  0
M  END
> <s_m_source_file>
AV-unprocessed.smi

> <i_m_source_file_index>
295

> <i_lp_mmshare_version>
43012

> <i_f3d_flags>
0

> <s_epik_input>
W0NIM11bQ0BASF0xW0NIMl1bQ0gyXVtDSDJdW0NIMl1bQ0BIXTFbTkhdQyg9TylbQ0gyXW4yW2NIXW5jKG4yKUMjTg==

> <s_epik_cmdline>
J2VwaWtfcHl0aG9uJywgJy1waCcsICc3LjAnLCAnLXRuJywgJzgnLCAnLW1hJywgJzIwMCcsICctbWV0YWxfYmluZGluZycsICctaW1hZScsICc8aW5maWxlLm1hZT4nLCAnLW9tYWUnLCAnPG91dGZpbGUubWFlPic=

> <r_lp_tautomer_probability>
1

> <r_epik_Ionization_Penalty>
5.31112e-08

> <r_epik_Ionization_Penalty_Charging>
0

> <r_epik_Ionization_Penalty_Neutral>
5.31112e-08

> <r_epik_State_Penalty>
-0

> <r_epik_Charging_Adjusted_Penalty>
0

> <i_epik_Tot_Q>
0

> <i_epik_Tot_abs_Q>
0

> <r_epik_Metal_State_Penalty>
-0

> <b_epik_Metal_Only>
0

> <s_lp_Force_Field>
OPLS_2005

> <r_lp_Energy>
13.1712

> <b_lp_Chiralities_Consistent>
1

> <s_lp_Variant>
AV-unprocessed.smi:295-1

> <Gold.Version>
5.8.1

> <Gold.Id.Protein>
6NUR|6NUR_protein|mol2

> <Gold.PLP.Fitness>
38.3654

> <Gold.PLP.PLP>
-30.0954

> <Gold.PLP.part.hbond>
-2.0000

> <Gold.PLP.part.metal>
0.0000

> <Gold.PLP.part.buried>
-1.9516

> <Gold.PLP.part.nonpolar>
-25.6544

> <Gold.PLP.part.repulsive>
0.4342

> <Gold.PLP.ligand.clash>
0.0000

> <Gold.PLP.ligand.torsion>
0.3569

> <Gold.PLP.Chemscore.Hbond>
1.9920

> <Gold.PLP.Chemscore.CHOScore>
1.0000

> <Gold.PLP.Chemscore.Metal>
0.0000

> <Gold.Chemscore.Hbonds>
donor molecule, donor type, donor heavy atom, donor atom, acceptor molecule, acceptor atom, score
      L1  H     8    32       P1  8028  0.98
      P1  H  7989  7998       L1    10  1.00
      L1  C    13    35       P1  7957  1.00

> <Gold.PLP.Chemscore.Internal.Correction>
0.0078

> <Gold.Rescore>
     Score         DG    S(hbond)    S(metal)    S(lipo)     H(rot)  DE(clash)    DE(int)     intcor
     12.73     -14.74       1.51        0.00      78.71       1.95       1.70       0.31       ----

> <Gold.Chemscore.Fitness>
12.7318

> <Gold.Chemscore.DG>
-14.7421

> <Gold.Chemscore.ZeroCoef>
-5.4800

> <Gold.Chemscore.Hbond>
1.5083

> <Gold.Chemscore.Metal>
0.0000

> <Gold.Chemscore.Lipo>
78.7148

> <Gold.Chemscore.Internal_Hbond>
0.0000

> <Gold.Chemscore.DEClash>
1.6989

> <Gold.Chemscore.DEInternal>
0.3114

> <Gold.Chemscore.Rot>
1.9474

> <Gold.Chemscore.Internal.Correction>
   9.000000E+99

> <Gold.Chemscore.Hbonds>
donor molecule, donor type, donor heavy atom, donor atom, acceptor molecule, acceptor atom, score
      L1  H     8    32       P1  8028  0.87
      P1  H  7989  7998       L1    10  0.24

> <Gold.Chemscore.Hbond.Weighted>
-5.0378

> <Gold.Chemscore.Metal.Weighted>
-0.0000

> <Gold.Chemscore.Lipo.Weighted>
-9.2096

> <Gold.Chemscore.Internal_Hbond.Weighted>
0.0000

> <Gold.Chemscore.DEClash.Weighted>
1.6989

> <Gold.Chemscore.DEInternal.Weighted>
0.3114

> <Gold.Chemscore.Rot.Weighted>
4.9852

> <Gold.Chemscore.Internal.Correction.Weighted>
   9.000000E+99

> <Gold.Protein.RotatedTorsions>
[ 6907 6896 6895 6894 ] final  162.13 input  -60.11 | X-H torsion
[ 7974 7965 7964 7962 ] final  -21.38 input  175.53 | X-H torsion
[ 8008 7997 7996 7995 ] final  141.17 input   59.86 | X-H torsion
[ 10167 10162 10161 10158 ] final -106.67 input  -65.29 | X-H torsion
[ 10718 10713 10712 10709 ] final   96.69 input   66.30 | X-H torsion
[ 10763 10752 10751 10750 ] final  -71.18 input  -60.55 | X-H torsion
[ 11005 11000 10999 10996 ] final   27.78 input  -57.11 | X-H torsion

> <Gold.Protein.ActiveResidues>
 VAL166  LYS551  ARG553  GLY616  TRP617  ASP618  TYR619  PRO620  LYS621  CYS622 
 ASP623  PHE694  ASN695  SER759  ASP760  ASP761  ALA762  ILE779  LEU786  VAL792 
 PHE793  MET794  SER795  GLU796  ALA797  LYS798  CYS799  TRP800  GLU811  SER814 

> <Gold.Protein.RotatedAtoms>
  151.9451  133.3649  159.3979 H   0  0  0  0  0  0  0  0  0  0  0  0  # atno 6907 bound_to 6896
  150.6991  134.4398  159.5296 H   0  0  0  0  0  0  0  0  0  0  0  0  # atno 6908 bound_to 6896
  152.2062  134.8543  160.0553 H   0  0  0  0  0  0  0  0  0  0  0  0  # atno 6909 bound_to 6896
  146.1736  140.4333  142.8522 H   0  0  0  0  0  0  0  0  0  0  0  0  # atno 7974 bound_to 7965
  156.2969  140.2322  156.4520 H   0  0  0  0  0  0  0  0  0  0  0  0  # atno 8008 bound_to 7997
  154.8093  140.0444  157.1351 H   0  0  0  0  0  0  0  0  0  0  0  0  # atno 8009 bound_to 7997
  154.9442  140.3033  155.5109 H   0  0  0  0  0  0  0  0  0  0  0  0  # atno 8010 bound_to 7997
  140.1853  143.3934  152.1249 H   0  0  0  0  0  0  0  0  0  0  0  0  # atno 10167 bound_to 10162
  157.6923  131.0586  150.4530 H   0  0  0  0  0  0  0  0  0  0  0  0  # atno 10718 bound_to 10713
  154.4281  135.5970  153.6051 H   0  0  0  0  0  0  0  0  0  0  0  0  # atno 10763 bound_to 10752
  152.9797  135.5968  154.3872 H   0  0  0  0  0  0  0  0  0  0  0  0  # atno 10764 bound_to 10752
  154.3707  135.2841  155.2246 H   0  0  0  0  0  0  0  0  0  0  0  0  # atno 10765 bound_to 10752
  140.3226  134.2527  155.7714 H   0  0  0  0  0  0  0  0  0  0  0  0  # atno 11005 bound_to 11000
  144.8201  140.6535  143.6359 LP  0  0  0  0  0  0  0  0  0  0  0  0  # atno 17320 bound_to 7965
  145.4273  139.1554  143.4041 LP  0  0  0  0  0  0  0  0  0  0  0  0  # atno 17321 bound_to 7965
  139.5279  144.7124  151.5163 LP  0  0  0  0  0  0  0  0  0  0  0  0  # atno 17342 bound_to 10162
  140.6492  143.8731  150.6768 LP  0  0  0  0  0  0  0  0  0  0  0  0  # atno 17343 bound_to 10162
  156.4880  130.4089  149.6423 LP  0  0  0  0  0  0  0  0  0  0  0  0  # atno 17370 bound_to 10713
  156.3444  130.7399  151.2349 LP  0  0  0  0  0  0  0  0  0  0  0  0  # atno 17371 bound_to 10713
  141.2083  133.7782  157.0068 LP  0  0  0  0  0  0  0  0  0  0  0  0  # atno 17394 bound_to 11000
  140.0929  134.9582  157.1804 LP  0  0  0  0  0  0  0  0  0  0  0  0  # atno 17395 bound_to 11000

$$$$
