AV-unprocessed.smi:346|AV-procd|sdf|2392|dock9
  -GOLD-   2262022323D 1   1.00000     0.00000
 Structure written by MMmdl.
 33 34  0  0  0  0  0  0  0  0  1 V2000
  150.6496  135.3837  155.2628 C   0  0  0  0  0  0  0  0  0  0  0  0
  151.6156  136.3942  155.4928 O   0  0  0  0  0  0  0  0  0  0  0  0
  151.0323  137.6739  155.6669 C   0  0  0  0  0  0  0  0  0  0  0  0
  152.1346  138.6703  156.0454 C   0  0  0  0  0  0  0  0  0  0  0  0
  151.5826  139.9002  156.5913 N   0  0  0  0  0  0  0  0  0  0  0  0
  150.5774  140.6588  156.0868 C   0  0  0  0  0  0  0  0  0  0  0  0
  149.7505  140.2072  154.5879 S   0  0  0  0  0  0  0  0  0  0  0  0
  148.6708  141.6529  154.3583 C   0  0  0  0  0  0  0  0  0  0  0  0
  147.3225  141.2852  153.7432 C   0  0  0  0  0  0  0  0  0  0  0  0
  147.3386  140.5040  152.6597 N   0  0  0  0  0  0  0  0  0  0  0  0
  146.2768  141.6925  154.2439 O   0  0  0  0  0  0  0  0  0  0  0  0
  150.2700  141.7447  156.7995 N   0  0  0  0  0  0  0  0  0  0  0  0
  151.1512  141.6804  157.8602 C   0  0  0  0  0  0  0  0  0  0  0  0
  151.3245  142.5454  158.9641 C   0  0  0  0  0  0  0  0  0  0  0  0
  152.3040  142.2691  159.9407 C   0  0  0  0  0  0  0  0  0  0  0  0
  152.5031  143.3368  161.2811 Cl  0  0  0  0  0  0  0  0  0  0  0  0
  153.1212  141.1252  159.8271 C   0  0  0  0  0  0  0  0  0  0  0  0
  152.9646  140.2507  158.7344 C   0  0  0  0  0  0  0  0  0  0  0  0
  151.9868  140.5335  157.7618 C   0  0  0  0  0  0  0  0  0  0  0  0
  151.1485  134.4233  155.1332 H   0  0  0  0  0  0  0  0  0  0  0  0
  150.0720  135.5872  154.3604 H   0  0  0  0  0  0  0  0  0  0  0  0
  149.9627  135.2955  156.1055 H   0  0  0  0  0  0  0  0  0  0  0  0
  150.5386  137.9881  154.7460 H   0  0  0  0  0  0  0  0  0  0  0  0
  150.2748  137.6361  156.4514 H   0  0  0  0  0  0  0  0  0  0  0  0
  152.7997  138.2271  156.7870 H   0  0  0  0  0  0  0  0  0  0  0  0
  152.7558  138.9050  155.1807 H   0  0  0  0  0  0  0  0  0  0  0  0
  148.4992  142.1358  155.3211 H   0  0  0  0  0  0  0  0  0  0  0  0
  149.1724  142.3778  153.7156 H   0  0  0  0  0  0  0  0  0  0  0  0
  146.4708  140.2290  152.2230 H   0  0  0  0  0  0  0  0  0  0  0  0
  148.2204  140.1852  152.2854 H   0  0  0  0  0  0  0  0  0  0  0  0
  150.7022  143.4231  159.0589 H   0  0  0  0  0  0  0  0  0  0  0  0
  153.8694  140.9183  160.5784 H   0  0  0  0  0  0  0  0  0  0  0  0
  153.5885  139.3740  158.6460 H   0  0  0  0  0  0  0  0  0  0  0  0
  1  2  1  0  0  0  0
  1 20  1  0  0  0  0
  1 21  1  0  0  0  0
  1 22  1  0  0  0  0
  2  3  1  0  0  0  0
  3  4  1  0  0  0  0
  3 23  1  0  0  0  0
  3 24  1  0  0  0  0
  4  5  1  0  0  0  0
  4 25  1  0  0  0  0
  4 26  1  0  0  0  0
  5 19  1  0  0  0  0
  5  6  1  0  0  0  0
  6  7  1  0  0  0  0
  6 12  2  0  0  0  0
  7  8  1  0  0  0  0
  8  9  1  0  0  0  0
  8 27  1  0  0  0  0
  8 28  1  0  0  0  0
  9 10  1  0  0  0  0
  9 11  2  0  0  0  0
 10 29  1  0  0  0  0
 10 30  1  0  0  0  0
 12 13  1  0  0  0  0
 13 19  2  0  0  0  0
 13 14  1  0  0  0  0
 14 15  2  0  0  0  0
 14 31  1  0  0  0  0
 15 16  1  0  0  0  0
 15 17  1  0  0  0  0
 17 18  2  0  0  0  0
 17 32  1  0  0  0  0
 18 19  1  0  0  0  0
 18 33  1  0  0  0  0
M  END
> <s_m_source_file>
AV-unprocessed.smi

> <i_m_source_file_index>
346

> <i_lp_mmshare_version>
43012

> <i_f3d_flags>
0

> <s_epik_input>
W2NIXTFjKENsKVtjSF1bY0hdYyhjMTIpbihbQ0gyXVtDSDJdT1tDSDNdKWMobjIpU1tDSDJdQyg9TylbTkgyXQ==

> <s_epik_cmdline>
J2VwaWtfcHl0aG9uJywgJy1waCcsICc3LjAnLCAnLXRuJywgJzgnLCAnLW1hJywgJzIwMCcsICctbWV0YWxfYmluZGluZycsICctaW1hZScsICc8aW5maWxlLm1hZT4nLCAnLW9tYWUnLCAnPG91dGZpbGUubWFlPic=

> <r_epik_Ionization_Penalty>
0.00801462

> <r_epik_Ionization_Penalty_Charging>
0

> <r_epik_Ionization_Penalty_Neutral>
0.00801462

> <r_epik_State_Penalty>
0.00601782

> <r_epik_Charging_Adjusted_Penalty>
0.00601782

> <i_epik_Tot_Q>
0

> <i_epik_Tot_abs_Q>
0

> <r_epik_Metal_State_Penalty>
0.00593415

> <b_epik_Metal_Only>
0

> <s_lp_Force_Field>
OPLS_2005

> <r_lp_Energy>
4.29965

> <b_lp_Chiralities_Consistent>
1

> <s_lp_Variant>
AV-unprocessed.smi:346-1

> <Gold.Version>
5.8.1

> <Gold.Id.Protein>
6NUR|6NUR_protein|mol2

> <Gold.PLP.Fitness>
42.7034

> <Gold.PLP.PLP>
-37.8136

> <Gold.PLP.part.hbond>
-2.0000

> <Gold.PLP.part.metal>
0.0000

> <Gold.PLP.part.buried>
-3.5474

> <Gold.PLP.part.nonpolar>
-32.3882

> <Gold.PLP.part.repulsive>
0.4175

> <Gold.PLP.ligand.clash>
0.0000

> <Gold.PLP.ligand.torsion>
0.5677

> <Gold.PLP.Chemscore.Hbond>
2.0000

> <Gold.PLP.Chemscore.CHOScore>
0.0000

> <Gold.PLP.Chemscore.Metal>
0.0000

> <Gold.Chemscore.Hbonds>
donor molecule, donor type, donor heavy atom, donor atom, acceptor molecule, acceptor atom, score
      L1  H    10    30       P1  7957  1.00
      P1  H 10752 10763       L1     2  1.00

> <Gold.PLP.Chemscore.Internal.Correction>
0.0250

> <Gold.Rescore>
     Score         DG    S(hbond)    S(metal)    S(lipo)     H(rot)  DE(clash)    DE(int)     intcor
     14.85     -15.39       1.92        0.00      88.63       2.68       0.02       0.51       ----

> <Gold.Chemscore.Fitness>
14.8543

> <Gold.Chemscore.DG>
-15.3879

> <Gold.Chemscore.ZeroCoef>
-5.4800

> <Gold.Chemscore.Hbond>
1.9169

> <Gold.Chemscore.Metal>
0.0000

> <Gold.Chemscore.Lipo>
88.6319

> <Gold.Chemscore.Internal_Hbond>
0.0000

> <Gold.Chemscore.DEClash>
0.0236

> <Gold.Chemscore.DEInternal>
0.5100

> <Gold.Chemscore.Rot>
2.6814

> <Gold.Chemscore.Internal.Correction>
   9.000000E+99

> <Gold.Chemscore.Hbonds>
donor molecule, donor type, donor heavy atom, donor atom, acceptor molecule, acceptor atom, score
      L1  H    10    30       P1  7957  0.99
      P1  H 10752 10763       L1     2  0.25

> <Gold.Chemscore.Hbond.Weighted>
-6.4023

> <Gold.Chemscore.Metal.Weighted>
-0.0000

> <Gold.Chemscore.Lipo.Weighted>
-10.3699

> <Gold.Chemscore.Internal_Hbond.Weighted>
0.0000

> <Gold.Chemscore.DEClash.Weighted>
0.0236

> <Gold.Chemscore.DEInternal.Weighted>
0.5100

> <Gold.Chemscore.Rot.Weighted>
6.8644

> <Gold.Chemscore.Internal.Correction.Weighted>
   9.000000E+99

> <Gold.Protein.RotatedTorsions>
[ 6907 6896 6895 6894 ] final  -70.61 input  -60.11 | X-H torsion
[ 7974 7965 7964 7962 ] final   36.48 input  175.53 | X-H torsion
[ 8008 7997 7996 7995 ] final -142.99 input   59.86 | X-H torsion
[ 10167 10162 10161 10158 ] final  165.24 input  -65.29 | X-H torsion
[ 10718 10713 10712 10709 ] final   44.56 input   66.30 | X-H torsion
[ 10763 10752 10751 10750 ] final   88.64 input  -60.55 | X-H torsion
[ 11005 11000 10999 10996 ] final  140.02 input  -57.11 | X-H torsion

> <Gold.Protein.ActiveResidues>
 VAL166  LYS551  ARG553  GLY616  TRP617  ASP618  TYR619  PRO620  LYS621  CYS622 
 ASP623  PHE694  ASN695  SER759  ASP760  ASP761  ALA762  ILE779  LEU786  VAL792 
 PHE793  MET794  SER795  GLU796  ALA797  LYS798  CYS799  TRP800  GLU811  SER814 

> <Gold.Protein.RotatedAtoms>
  150.7249  134.5427  159.5755 H   0  0  0  0  0  0  0  0  0  0  0  0  # atno 6907 bound_to 6896
  152.2934  134.7692  160.0382 H   0  0  0  0  0  0  0  0  0  0  0  0  # atno 6908 bound_to 6896
  151.8298  133.3371  159.3646 H   0  0  0  0  0  0  0  0  0  0  0  0  # atno 6909 bound_to 6896
  146.1208  139.6012  142.9291 H   0  0  0  0  0  0  0  0  0  0  0  0  # atno 7974 bound_to 7965
  155.5032  140.0577  157.2935 H   0  0  0  0  0  0  0  0  0  0  0  0  # atno 8008 bound_to 7997
  154.4579  140.1982  156.0276 H   0  0  0  0  0  0  0  0  0  0  0  0  # atno 8009 bound_to 7997
  156.0834  140.3243  155.7727 H   0  0  0  0  0  0  0  0  0  0  0  0  # atno 8010 bound_to 7997
  139.4902  144.4152  151.9252 H   0  0  0  0  0  0  0  0  0  0  0  0  # atno 10167 bound_to 10162
  157.4281  130.8008  149.7577 H   0  0  0  0  0  0  0  0  0  0  0  0  # atno 10718 bound_to 10713
  153.1789  135.4499  155.0002 H   0  0  0  0  0  0  0  0  0  0  0  0  # atno 10763 bound_to 10752
  154.8017  135.3258  154.7536 H   0  0  0  0  0  0  0  0  0  0  0  0  # atno 10764 bound_to 10752
  153.8003  135.6963  153.4912 H   0  0  0  0  0  0  0  0  0  0  0  0  # atno 10765 bound_to 10752
  140.0297  134.9358  157.0638 H   0  0  0  0  0  0  0  0  0  0  0  0  # atno 11005 bound_to 11000
  145.5470  141.0416  143.2299 LP  0  0  0  0  0  0  0  0  0  0  0  0  # atno 17320 bound_to 7965
  144.7595  139.6991  143.7240 LP  0  0  0  0  0  0  0  0  0  0  0  0  # atno 17321 bound_to 7965
  140.3594  144.2991  150.5936 LP  0  0  0  0  0  0  0  0  0  0  0  0  # atno 17342 bound_to 10162
  140.5416  143.2222  151.8076 LP  0  0  0  0  0  0  0  0  0  0  0  0  # atno 17343 bound_to 10162
  155.9903  130.3945  150.3032 LP  0  0  0  0  0  0  0  0  0  0  0  0  # atno 17370 bound_to 10713
  157.1187  131.0241  151.3018 LP  0  0  0  0  0  0  0  0  0  0  0  0  # atno 17371 bound_to 10713
  140.4247  134.1844  155.7165 LP  0  0  0  0  0  0  0  0  0  0  0  0  # atno 17394 bound_to 11000
  141.1823  133.8386  157.1212 LP  0  0  0  0  0  0  0  0  0  0  0  0  # atno 17395 bound_to 11000

$$$$
