AV-unprocessed.smi:1701|AV-procd|sdf|6831|dock1
  -GOLD-   22720 8 03D 1   1.00000     0.00000
 Structure written by MMmdl.
 54 56  0  0  0  0  0  0  0  0  2 V2000
  143.9666  132.1466  149.8565 C   0  0  0  0  0  0  0  0  0  0  0  0
  144.7374  132.0965  151.1850 C   0  0  0  0  0  0  0  0  0  0  0  0
  145.5299  133.3009  151.4308 N   0  0  0  0  0  0  0  0  0  0  0  0
  146.7817  133.1343  152.1730 C   0  0  0  0  0  0  0  0  0  0  0  0
  146.6793  132.0988  153.3045 C   0  0  0  0  0  0  0  0  0  0  0  0
  144.7648  134.4680  151.6496 C   0  0  0  0  0  0  0  0  0  0  0  0
  145.4122  135.7011  151.8907 C   0  0  0  0  0  0  0  0  0  0  0  0
  144.6326  136.8555  152.0903 C   0  0  0  0  0  0  0  0  0  0  0  0
  143.2280  136.7602  152.0411 C   0  0  0  0  0  0  0  0  0  0  0  0
  142.4833  137.9535  152.2522 N   0  0  0  0  0  0  0  0  0  0  0  0
  141.1527  138.1290  152.3779 C   0  0  0  0  0  0  0  0  0  0  0  0
  140.3130  137.2344  152.3306 O   0  0  0  0  0  0  0  0  0  0  0  0
  140.7858  139.4084  152.5709 N   0  0  0  0  0  0  0  0  0  0  0  0
  139.4345  139.9424  152.7443 C   0  0  2  0  0  0  0  0  0  0  0  0
  138.5212  139.7565  151.5160 C   0  0  0  0  0  0  0  0  0  0  0  0
  137.7024  141.0593  151.4139 C   0  0  0  0  0  0  0  0  0  0  0  0
  138.0738  141.8468  152.6048 N   0  3  2  0  0  0  0  0  0  0  0  0
  137.8918  143.3128  152.5297 C   0  0  0  0  0  0  0  0  0  0  0  0
  138.2629  143.9417  153.8883 C   0  0  0  0  0  0  0  0  0  0  0  0
  139.6715  143.5169  154.3522 C   0  0  0  0  0  0  0  0  0  0  0  0
  139.8296  141.9845  154.3203 C   0  0  0  0  0  0  0  0  0  0  0  0
  139.4557  141.4595  152.9250 C   0  0  1  0  0  0  0  0  0  0  0  0
  142.6696  135.4824  151.7947 C   0  0  0  0  0  0  0  0  0  0  0  0
  143.4140  134.3729  151.6036 N   0  0  0  0  0  0  0  0  0  0  0  0
  143.3863  131.2348  149.7144 H   0  0  0  0  0  0  0  0  0  0  0  0
  144.6432  132.2420  149.0066 H   0  0  0  0  0  0  0  0  0  0  0  0
  143.2724  132.9868  149.8291 H   0  0  0  0  0  0  0  0  0  0  0  0
  144.0306  131.9756  152.0063 H   0  0  0  0  0  0  0  0  0  0  0  0
  145.3687  131.2089  151.2105 H   0  0  0  0  0  0  0  0  0  0  0  0
  147.5864  132.8641  151.4882 H   0  0  0  0  0  0  0  0  0  0  0  0
  147.0643  134.0948  152.6049 H   0  0  0  0  0  0  0  0  0  0  0  0
  147.6165  132.0437  153.8583 H   0  0  0  0  0  0  0  0  0  0  0  0
  146.4636  131.0985  152.9296 H   0  0  0  0  0  0  0  0  0  0  0  0
  145.8938  132.3675  154.0112 H   0  0  0  0  0  0  0  0  0  0  0  0
  146.4893  135.7682  151.9344 H   0  0  0  0  0  0  0  0  0  0  0  0
  145.1129  137.8043  152.2798 H   0  0  0  0  0  0  0  0  0  0  0  0
  143.0379  138.7953  152.3027 H   0  0  0  0  0  0  0  0  0  0  0  0
  141.5353  140.0837  152.6184 H   0  0  0  0  0  0  0  0  0  0  0  0
  138.9599  139.4958  153.6207 H   0  0  0  0  0  0  0  0  0  0  0  0
  139.1023  139.6130  150.6037 H   0  0  0  0  0  0  0  0  0  0  0  0
  137.8788  138.8833  151.6350 H   0  0  0  0  0  0  0  0  0  0  0  0
  137.9755  141.6014  150.5070 H   0  0  0  0  0  0  0  0  0  0  0  0
  136.6280  140.8760  151.3893 H   0  0  0  0  0  0  0  0  0  0  0  0
  138.5149  143.7251  151.7347 H   0  0  0  0  0  0  0  0  0  0  0  0
  136.8554  143.5409  152.2791 H   0  0  0  0  0  0  0  0  0  0  0  0
  138.2023  145.0286  153.8257 H   0  0  0  0  0  0  0  0  0  0  0  0
  137.5315  143.6364  154.6379 H   0  0  0  0  0  0  0  0  0  0  0  0
  140.4191  143.9720  153.7014 H   0  0  0  0  0  0  0  0  0  0  0  0
  139.8660  143.8935  155.3569 H   0  0  0  0  0  0  0  0  0  0  0  0
  140.8550  141.7072  154.5671 H   0  0  0  0  0  0  0  0  0  0  0  0
  139.1902  141.5295  155.0782 H   0  0  0  0  0  0  0  0  0  0  0  0
  140.1209  141.9019  152.1792 H   0  0  0  0  0  0  0  0  0  0  0  0
  141.6072  135.3100  151.7486 H   0  0  0  0  0  0  0  0  0  0  0  0
  137.4989  141.5099  153.3640 H   0  0  0  0  0  0  0  0  0  0  0  0
  1  2  1  0  0  0  0
  1 25  1  0  0  0  0
  1 26  1  0  0  0  0
  1 27  1  0  0  0  0
  2  3  1  0  0  0  0
  2 28  1  0  0  0  0
  2 29  1  0  0  0  0
  3  4  1  0  0  0  0
  3  6  1  0  0  0  0
  4  5  1  0  0  0  0
  4 30  1  0  0  0  0
  4 31  1  0  0  0  0
  5 32  1  0  0  0  0
  5 33  1  0  0  0  0
  5 34  1  0  0  0  0
  6 24  1  0  0  0  0
  6  7  2  0  0  0  0
  7  8  1  0  0  0  0
  7 35  1  0  0  0  0
  8  9  2  0  0  0  0
  8 36  1  0  0  0  0
  9 10  1  0  0  0  0
  9 23  1  0  0  0  0
 10 11  1  0  0  0  0
 10 37  1  0  0  0  0
 11 12  2  0  0  0  0
 11 13  1  0  0  0  0
 13 14  1  0  0  0  0
 13 38  1  0  0  0  0
 14 22  1  0  0  0  0
 14 15  1  0  0  0  0
 14 39  1  0  0  0  0
 15 16  1  0  0  0  0
 15 40  1  0  0  0  0
 15 41  1  0  0  0  0
 16 17  1  0  0  0  0
 16 42  1  0  0  0  0
 16 43  1  0  0  0  0
 17 22  1  0  0  0  0
 17 18  1  0  0  0  0
 17 54  1  0  0  0  0
 18 19  1  0  0  0  0
 18 44  1  0  0  0  0
 18 45  1  0  0  0  0
 19 20  1  0  0  0  0
 19 46  1  0  0  0  0
 19 47  1  0  0  0  0
 20 21  1  0  0  0  0
 20 48  1  0  0  0  0
 20 49  1  0  0  0  0
 21 22  1  0  0  0  0
 21 50  1  0  0  0  0
 21 51  1  0  0  0  0
 22 52  1  0  0  0  0
 23 24  2  0  0  0  0
 23 53  1  0  0  0  0
M  CHG  1  17   1
M  END
> <s_m_source_file>
AV-unprocessed.smi

> <i_m_source_file_index>
1701

> <i_lp_mmshare_version>
43012

> <i_f3d_flags>
0

> <s_epik_input>
W0NIM11bQ0gyXU4oW0NIMl1bQ0gzXSljMVtjSF1bY0hdYyhbY0hdbjEpW05IXUMoPU8pW05IXVtDQEhdKFtDSDJdW0NIMl0yKVtDQEBIXShOMjMpW0NIMl1bQ0gyXVtDSDJdW0NIMl0z

> <s_epik_cmdline>
J2VwaWtfcHl0aG9uJywgJy1waCcsICc3LjAnLCAnLXRuJywgJzgnLCAnLW1hJywgJzIwMCcsICctbWV0YWxfYmluZGluZycsICctaW1hZScsICc8aW5maWxlLm1hZT4nLCAnLW9tYWUnLCAnPG91dGZpbGUubWFlPic=

> <r_lp_tautomer_probability>
1

> <r_epik_Ionization_Penalty>
0.56662

> <r_epik_Ionization_Penalty_Charging>
0.000974069

> <r_epik_Ionization_Penalty_Neutral>
0.565646

> <r_epik_State_Penalty>
2.0247

> <r_epik_Charging_Adjusted_Penalty>
2.02568

> <i_epik_Tot_Q>
1

> <i_epik_Tot_abs_Q>
1

> <r_epik_Metal_State_Penalty>
1.51504

> <b_epik_Metal_Only>
0

> <s_lp_Force_Field>
OPLS_2005

> <r_lp_Energy>
54.426

> <b_lp_Chiralities_Consistent>
1

> <s_lp_Variant>
AV-unprocessed.smi:1701-11

> <Gold.Version>
5.8.1

> <Gold.Id.Protein>
6NUR|6NUR_protein|mol2

> <Gold.PLP.Fitness>
46.2855

> <Gold.PLP.PLP>
-40.8353

> <Gold.PLP.part.hbond>
-3.3762

> <Gold.PLP.part.metal>
0.0000

> <Gold.PLP.part.buried>
-5.2201

> <Gold.PLP.part.nonpolar>
-33.7188

> <Gold.PLP.part.repulsive>
0.3192

> <Gold.PLP.ligand.clash>
0.0000

> <Gold.PLP.ligand.torsion>
0.7209

> <Gold.PLP.Chemscore.Hbond>
1.9920

> <Gold.PLP.Chemscore.CHOScore>
0.0000

> <Gold.PLP.Chemscore.Metal>
0.0000

> <Gold.Chemscore.Hbonds>
donor molecule, donor type, donor heavy atom, donor atom, acceptor molecule, acceptor atom, score
      L1  H    10    37       P1 10175  1.00
      L1  H    13    38       P1 10175  0.36

> <Gold.PLP.Chemscore.Internal.Correction>
0.9160

> <Gold.Rescore>
     Score         DG    S(hbond)    S(metal)    S(lipo)     H(rot)  DE(clash)    DE(int)     intcor
     14.96     -18.25       1.76        0.00      87.01       1.28       0.09       3.20       ----

> <Gold.Chemscore.Fitness>
14.9597

> <Gold.Chemscore.DG>
-18.2495

> <Gold.Chemscore.ZeroCoef>
-5.4800

> <Gold.Chemscore.Hbond>
1.7592

> <Gold.Chemscore.Metal>
0.0000

> <Gold.Chemscore.Lipo>
87.0100

> <Gold.Chemscore.Internal_Hbond>
0.0000

> <Gold.Chemscore.DEClash>
0.0874

> <Gold.Chemscore.DEInternal>
3.2023

> <Gold.Chemscore.Rot>
1.2838

> <Gold.Chemscore.Internal.Correction>
   9.000000E+99

> <Gold.Chemscore.Hbonds>
donor molecule, donor type, donor heavy atom, donor atom, acceptor molecule, acceptor atom, score
      L1  H    10    37       P1 10175  1.00
      L1  H    13    38       P1 10175  0.01

> <Gold.Chemscore.Hbond.Weighted>
-5.8758

> <Gold.Chemscore.Metal.Weighted>
-0.0000

> <Gold.Chemscore.Lipo.Weighted>
-10.1802

> <Gold.Chemscore.Internal_Hbond.Weighted>
0.0000

> <Gold.Chemscore.DEClash.Weighted>
0.0874

> <Gold.Chemscore.DEInternal.Weighted>
3.2023

> <Gold.Chemscore.Rot.Weighted>
3.2865

> <Gold.Chemscore.Internal.Correction.Weighted>
   9.000000E+99

> <Gold.Protein.RotatedTorsions>
[ 6907 6896 6895 6894 ] final -112.95 input  -60.11 | X-H torsion
[ 7974 7965 7964 7962 ] final  -58.00 input  175.53 | X-H torsion
[ 8008 7997 7996 7995 ] final -124.88 input   59.86 | X-H torsion
[ 10167 10162 10161 10158 ] final  178.71 input  -65.29 | X-H torsion
[ 10718 10713 10712 10709 ] final  -15.98 input   66.30 | X-H torsion
[ 10763 10752 10751 10750 ] final  137.53 input  -60.55 | X-H torsion
[ 11005 11000 10999 10996 ] final  101.67 input  -57.11 | X-H torsion

> <Gold.Protein.ActiveResidues>
 VAL166  LYS551  ARG553  GLY616  TRP617  ASP618  TYR619  PRO620  LYS621  CYS622 
 ASP623  PHE694  ASN695  SER759  ASP760  ASP761  ALA762  ILE779  LEU786  VAL792 
 PHE793  MET794  SER795  GLU796  ALA797  LYS798  CYS799  TRP800  GLU811  SER814 

> <Gold.Protein.RotatedAtoms>
  150.7794  133.9016  159.3342 H   0  0  0  0  0  0  0  0  0  0  0  0  # atno 6907 bound_to 6896
  151.6883  135.0949  160.0238 H   0  0  0  0  0  0  0  0  0  0  0  0  # atno 6908 bound_to 6896
  152.3840  133.6548  159.6220 H   0  0  0  0  0  0  0  0  0  0  0  0  # atno 6909 bound_to 6896
  145.8444  140.8395  143.0018 H   0  0  0  0  0  0  0  0  0  0  0  0  # atno 7974 bound_to 7965
  155.2042  140.0417  157.2922 H   0  0  0  0  0  0  0  0  0  0  0  0  # atno 8008 bound_to 7997
  154.6054  140.2463  155.7709 H   0  0  0  0  0  0  0  0  0  0  0  0  # atno 8009 bound_to 7997
  156.2347  140.2926  156.0290 H   0  0  0  0  0  0  0  0  0  0  0  0  # atno 8010 bound_to 7997
  139.5305  144.2648  152.0677 H   0  0  0  0  0  0  0  0  0  0  0  0  # atno 10167 bound_to 10162
  156.5941  130.4806  149.6267 H   0  0  0  0  0  0  0  0  0  0  0  0  # atno 10718 bound_to 10713
  153.8746  135.3051  155.3443 H   0  0  0  0  0  0  0  0  0  0  0  0  # atno 10763 bound_to 10752
  154.7790  135.4846  153.9807 H   0  0  0  0  0  0  0  0  0  0  0  0  # atno 10764 bound_to 10752
  153.1387  135.6819  153.9158 H   0  0  0  0  0  0  0  0  0  0  0  0  # atno 10765 bound_to 10752
  139.8774  134.9193  156.4942 H   0  0  0  0  0  0  0  0  0  0  0  0  # atno 11005 bound_to 11000
  144.6732  140.0860  143.7467 LP  0  0  0  0  0  0  0  0  0  0  0  0  # atno 17320 bound_to 7965
  145.9428  139.2681  143.1258 LP  0  0  0  0  0  0  0  0  0  0  0  0  # atno 17321 bound_to 7965
  140.2111  144.4562  150.6385 LP  0  0  0  0  0  0  0  0  0  0  0  0  # atno 17342 bound_to 10162
  140.6480  143.2218  151.6142 LP  0  0  0  0  0  0  0  0  0  0  0  0  # atno 17343 bound_to 10162
  156.2525  130.6915  151.1657 LP  0  0  0  0  0  0  0  0  0  0  0  0  # atno 17370 bound_to 10713
  157.7296  131.0623  150.5765 LP  0  0  0  0  0  0  0  0  0  0  0  0  # atno 17371 bound_to 10713
  140.8636  133.8041  155.9291 LP  0  0  0  0  0  0  0  0  0  0  0  0  # atno 17394 bound_to 11000
  140.9024  134.2362  157.5034 LP  0  0  0  0  0  0  0  0  0  0  0  0  # atno 17395 bound_to 11000

$$$$
