AV-unprocessed.smi:271|AV-procd|sdf|2052|dock7
  -GOLD-   2262021293D 1   1.00000     0.00000
 Structure written by MMmdl.
 58 60  0  0  0  0  0  0  0  0  1 V2000
  151.2040  145.5462  159.2876 C   0  0  0  0  0  0  0  0  0  0  0  0
  151.8155  144.1411  159.1554 C   0  0  0  0  0  0  0  0  0  0  0  0
  153.2183  144.2239  158.5344 C   0  0  0  0  0  0  0  0  0  0  0  0
  150.9168  143.1857  158.3456 C   0  0  0  0  0  0  0  0  0  0  0  0
  151.1594  141.6949  158.6551 C   0  0  0  0  0  0  0  0  0  0  0  0
  150.0224  140.8442  158.3049 N   0  0  0  0  0  0  0  0  0  0  0  0
  149.7279  140.6865  156.8795 C   0  0  0  0  0  0  0  0  0  0  0  0
  150.9474  140.2283  156.0646 C   0  0  0  0  0  0  0  0  0  0  0  0
  151.7636  139.2422  156.7877 C   0  0  0  0  0  0  0  0  0  0  0  0
  152.4057  138.4664  157.3573 N   0  0  0  0  0  0  0  0  0  0  0  0
  149.8524  139.7702  159.1204 C   0  0  0  0  0  0  0  0  0  0  0  0
  148.6785  139.0835  159.0985 N   0  0  0  0  0  0  0  0  0  0  0  0
  148.5062  138.0139  159.8803 C   0  0  0  0  0  0  0  0  0  0  0  0
  149.3623  137.4659  160.7441 N   0  0  0  0  0  0  0  0  0  0  0  0
  150.5424  138.1483  160.7714 C   0  0  0  0  0  0  0  0  0  0  0  0
  150.8685  139.2997  159.9999 C   0  0  0  0  0  0  0  0  0  0  0  0
  152.1570  139.7226  160.3058 N   0  0  0  0  0  0  0  0  0  0  0  0
  152.5717  138.8656  161.1984 C   0  0  0  0  0  0  0  0  0  0  0  0
  151.6681  137.8826  161.5313 N   0  0  0  0  0  0  0  0  0  0  0  0
  151.8703  136.8120  162.4927 C   0  0  0  0  0  0  0  0  0  0  0  0
  150.7849  136.7657  163.5962 C   0  0  1  0  0  0  0  0  0  0  0  0
  150.9795  135.5204  164.4936 C   0  0  0  0  0  0  0  0  0  0  0  0
  150.7533  134.3361  163.7576 O   0  0  0  0  0  0  0  0  0  0  0  0
  150.6879  138.0956  164.3956 C   0  0  1  0  0  0  0  0  0  0  0  0
  149.7969  138.0514  165.6387 C   0  0  0  0  0  0  0  0  0  0  0  0
  150.6704  138.6361  166.7484 C   0  0  0  0  0  0  0  0  0  0  0  0
  151.6313  139.4151  166.0553 O   0  0  0  0  0  0  0  0  0  0  0  0
  152.0156  138.6620  164.9172 C   0  0  0  0  0  0  0  0  0  0  0  0
  151.0368  145.9988  158.3098 H   0  0  0  0  0  0  0  0  0  0  0  0
  151.8631  146.2082  159.8501 H   0  0  0  0  0  0  0  0  0  0  0  0
  150.2496  145.5237  159.8126 H   0  0  0  0  0  0  0  0  0  0  0  0
  151.9308  143.7286  160.1585 H   0  0  0  0  0  0  0  0  0  0  0  0
  153.1788  144.6137  157.5167 H   0  0  0  0  0  0  0  0  0  0  0  0
  153.6906  143.2419  158.4966 H   0  0  0  0  0  0  0  0  0  0  0  0
  153.8698  144.8767  159.1162 H   0  0  0  0  0  0  0  0  0  0  0  0
  149.8700  143.4394  158.5165 H   0  0  0  0  0  0  0  0  0  0  0  0
  151.0977  143.3538  157.2832 H   0  0  0  0  0  0  0  0  0  0  0  0
  152.0604  141.3549  158.1462 H   0  0  0  0  0  0  0  0  0  0  0  0
  151.3564  141.5624  159.7185 H   0  0  0  0  0  0  0  0  0  0  0  0
  148.9321  139.9496  156.7661 H   0  0  0  0  0  0  0  0  0  0  0  0
  149.3350  141.6204  156.4754 H   0  0  0  0  0  0  0  0  0  0  0  0
  150.6515  139.7759  155.1187 H   0  0  0  0  0  0  0  0  0  0  0  0
  151.5868  141.0793  155.8295 H   0  0  0  0  0  0  0  0  0  0  0  0
  147.5455  137.5267  159.8008 H   0  0  0  0  0  0  0  0  0  0  0  0
  153.5561  138.9244  161.6399 H   0  0  0  0  0  0  0  0  0  0  0  0
  151.8901  135.8735  161.9379 H   0  0  0  0  0  0  0  0  0  0  0  0
  152.8583  136.9226  162.9407 H   0  0  0  0  0  0  0  0  0  0  0  0
  149.8222  136.6491  163.0953 H   0  0  0  0  0  0  0  0  0  0  0  0
  151.9875  135.4862  164.9073 H   0  0  0  0  0  0  0  0  0  0  0  0
  150.2904  135.5200  165.3369 H   0  0  0  0  0  0  0  0  0  0  0  0
  149.8517  134.3255  163.4740 H   0  0  0  0  0  0  0  0  0  0  0  0
  150.2481  138.8587  163.7528 H   0  0  0  0  0  0  0  0  0  0  0  0
  148.9171  138.6773  165.4830 H   0  0  0  0  0  0  0  0  0  0  0  0
  149.4371  137.0548  165.8935 H   0  0  0  0  0  0  0  0  0  0  0  0
  150.1031  139.2358  167.4605 H   0  0  0  0  0  0  0  0  0  0  0  0
  151.1785  137.8422  167.2981 H   0  0  0  0  0  0  0  0  0  0  0  0
  152.7070  137.8809  165.2329 H   0  0  0  0  0  0  0  0  0  0  0  0
  152.5235  139.2859  164.1822 H   0  0  0  0  0  0  0  0  0  0  0  0
  1  2  1  0  0  0  0
  1 29  1  0  0  0  0
  1 30  1  0  0  0  0
  1 31  1  0  0  0  0
  2  3  1  0  0  0  0
  2  4  1  0  0  0  0
  2 32  1  0  0  0  0
  3 33  1  0  0  0  0
  3 34  1  0  0  0  0
  3 35  1  0  0  0  0
  4  5  1  0  0  0  0
  4 36  1  0  0  0  0
  4 37  1  0  0  0  0
  5  6  1  0  0  0  0
  5 38  1  0  0  0  0
  5 39  1  0  0  0  0
  6  7  1  0  0  0  0
  6 11  1  0  0  0  0
  7  8  1  0  0  0  0
  7 40  1  0  0  0  0
  7 41  1  0  0  0  0
  8  9  1  0  0  0  0
  8 42  1  0  0  0  0
  8 43  1  0  0  0  0
  9 10  3  0  0  0  0
 11 16  1  0  0  0  0
 11 12  2  0  0  0  0
 12 13  1  0  0  0  0
 13 14  2  0  0  0  0
 13 44  1  0  0  0  0
 14 15  1  0  0  0  0
 15 19  1  0  0  0  0
 15 16  2  0  0  0  0
 16 17  1  0  0  0  0
 17 18  2  0  0  0  0
 18 19  1  0  0  0  0
 18 45  1  0  0  0  0
 19 20  1  0  0  0  0
 20 21  1  0  0  0  0
 20 46  1  0  0  0  0
 20 47  1  0  0  0  0
 21 22  1  0  0  0  0
 21 24  1  0  0  0  0
 21 48  1  0  0  0  0
 22 23  1  0  0  0  0
 22 49  1  0  0  0  0
 22 50  1  0  0  0  0
 23 51  1  0  0  0  0
 24 28  1  0  0  0  0
 24 25  1  0  0  0  0
 24 52  1  0  0  0  0
 25 26  1  0  0  0  0
 25 53  1  0  0  0  0
 25 54  1  0  0  0  0
 26 27  1  0  0  0  0
 26 55  1  0  0  0  0
 26 56  1  0  0  0  0
 27 28  1  0  0  0  0
 28 57  1  0  0  0  0
 28 58  1  0  0  0  0
M  END
> <s_m_source_file>
AV-unprocessed.smi

> <i_m_source_file_index>
271

> <i_lp_mmshare_version>
43012

> <i_f3d_flags>
0

> <s_epik_input>
W0NIM11bQ0hdKFtDSDNdKVtDSDJdW0NIMl1OKFtDSDJdW0NIMl1DI04pYyhuW2NIXW4xKWMoYzEyKW5bY0hdbjJbQ0gyXVtDQEhdKFtDSDJdW09IXSlbQ0BASF0zW0NIMl1bQ0gyXU9bQ0gyXTM=

> <s_epik_cmdline>
J2VwaWtfcHl0aG9uJywgJy1waCcsICc3LjAnLCAnLXRuJywgJzgnLCAnLW1hJywgJzIwMCcsICctbWV0YWxfYmluZGluZycsICctaW1hZScsICc8aW5maWxlLm1hZT4nLCAnLW9tYWUnLCAnPG91dGZpbGUubWFlPic=

> <r_lp_tautomer_probability>
1

> <r_epik_Ionization_Penalty>
0.000825874

> <r_epik_Ionization_Penalty_Charging>
0

> <r_epik_Ionization_Penalty_Neutral>
0.000825874

> <r_epik_State_Penalty>
0.000396768

> <r_epik_Charging_Adjusted_Penalty>
0.000396768

> <i_epik_Tot_Q>
0

> <i_epik_Tot_abs_Q>
0

> <r_epik_Metal_State_Penalty>
-0

> <b_epik_Metal_Only>
0

> <s_lp_Force_Field>
OPLS_2005

> <r_lp_Energy>
37.4576

> <b_lp_Chiralities_Consistent>
1

> <s_lp_Variant>
AV-unprocessed.smi:271-4

> <Gold.Version>
5.8.1

> <Gold.Id.Protein>
6NUR|6NUR_protein|mol2

> <Gold.PLP.Fitness>
55.4864

> <Gold.PLP.PLP>
-51.1269

> <Gold.PLP.part.hbond>
-3.2382

> <Gold.PLP.part.metal>
0.0000

> <Gold.PLP.part.buried>
-6.5028

> <Gold.PLP.part.nonpolar>
-41.4019

> <Gold.PLP.part.repulsive>
0.0118

> <Gold.PLP.ligand.clash>
0.0000

> <Gold.PLP.ligand.torsion>
1.4036

> <Gold.PLP.Chemscore.Hbond>
2.0000

> <Gold.PLP.Chemscore.CHOScore>
0.0000

> <Gold.PLP.Chemscore.Metal>
0.0000

> <Gold.Chemscore.Hbonds>
donor molecule, donor type, donor heavy atom, donor atom, acceptor molecule, acceptor atom, score
      P1  H  6931  6943       L1    14  0.04

> <Gold.PLP.Chemscore.Internal.Correction>
1.1668

> <Gold.Rescore>
     Score         DG    S(hbond)    S(metal)    S(lipo)     H(rot)  DE(clash)    DE(int)     intcor
     13.30     -16.10       1.90        0.00     118.93       3.77       0.04       2.76       ----

> <Gold.Chemscore.Fitness>
13.3014

> <Gold.Chemscore.DG>
-16.1018

> <Gold.Chemscore.ZeroCoef>
-5.4800

> <Gold.Chemscore.Hbond>
1.9025

> <Gold.Chemscore.Metal>
0.0000

> <Gold.Chemscore.Lipo>
118.9261

> <Gold.Chemscore.Internal_Hbond>
0.0000

> <Gold.Chemscore.DEClash>
0.0417

> <Gold.Chemscore.DEInternal>
2.7587

> <Gold.Chemscore.Rot>
3.7683

> <Gold.Chemscore.Internal.Correction>
   9.000000E+99

> <Gold.Chemscore.Hbond.Weighted>
-6.3543

> <Gold.Chemscore.Metal.Weighted>
-0.0000

> <Gold.Chemscore.Lipo.Weighted>
-13.9143

> <Gold.Chemscore.Internal_Hbond.Weighted>
0.0000

> <Gold.Chemscore.DEClash.Weighted>
0.0417

> <Gold.Chemscore.DEInternal.Weighted>
2.7587

> <Gold.Chemscore.Rot.Weighted>
9.6468

> <Gold.Chemscore.Internal.Correction.Weighted>
   9.000000E+99

> <Gold.Protein.RotatedTorsions>
[ 6907 6896 6895 6894 ] final  108.84 input  -60.11 | X-H torsion
[ 7974 7965 7964 7962 ] final -180.00 input  175.53 | X-H torsion
[ 8008 7997 7996 7995 ] final  -40.82 input   59.86 | X-H torsion
[ 10167 10162 10161 10158 ] final  -59.56 input  -65.29 | X-H torsion
[ 10718 10713 10712 10709 ] final    0.22 input   66.30 | X-H torsion
[ 10763 10752 10751 10750 ] final   35.07 input  -60.55 | X-H torsion
[ 11005 11000 10999 10996 ] final -123.17 input  -57.11 | X-H torsion

> <Gold.Protein.ActiveResidues>
 VAL166  LYS551  ARG553  GLY616  TRP617  ASP618  TYR619  PRO620  LYS621  CYS622 
 ASP623  PHE694  ASN695  SER759  ASP760  ASP761  ALA762  ILE779  LEU786  VAL792 
 PHE793  MET794  SER795  GLU796  ALA797  LYS798  CYS799  TRP800  GLU811  SER814 

> <Gold.Protein.RotatedAtoms>
  152.5094  133.9031  159.7450 H   0  0  0  0  0  0  0  0  0  0  0  0  # atno 6907 bound_to 6896
  150.9442  133.6614  159.2791 H   0  0  0  0  0  0  0  0  0  0  0  0  # atno 6908 bound_to 6896
  151.3915  135.0961  159.9580 H   0  0  0  0  0  0  0  0  0  0  0  0  # atno 6909 bound_to 6896
  144.7141  140.0633  143.6432 H   0  0  0  0  0  0  0  0  0  0  0  0  # atno 7974 bound_to 7965
  154.4009  140.1515  156.3089 H   0  0  0  0  0  0  0  0  0  0  0  0  # atno 8008 bound_to 7997
  155.8633  140.3452  155.5750 H   0  0  0  0  0  0  0  0  0  0  0  0  # atno 8009 bound_to 7997
  155.7855  140.0849  157.2027 H   0  0  0  0  0  0  0  0  0  0  0  0  # atno 8010 bound_to 7997
  140.6127  143.2392  151.5671 H   0  0  0  0  0  0  0  0  0  0  0  0  # atno 10167 bound_to 10162
  156.8301  130.5486  149.5688 H   0  0  0  0  0  0  0  0  0  0  0  0  # atno 10718 bound_to 10713
  153.0135  135.6343  154.1768 H   0  0  0  0  0  0  0  0  0  0  0  0  # atno 10763 bound_to 10752
  154.1509  135.2829  155.3137 H   0  0  0  0  0  0  0  0  0  0  0  0  # atno 10764 bound_to 10752
  154.6054  135.5574  153.7478 H   0  0  0  0  0  0  0  0  0  0  0  0  # atno 10765 bound_to 10752
  140.9939  134.0499  157.3621 H   0  0  0  0  0  0  0  0  0  0  0  0  # atno 11005 bound_to 11000
  145.9845  139.2967  143.1022 LP  0  0  0  0  0  0  0  0  0  0  0  0  # atno 17320 bound_to 7965
  145.8973  140.9266  143.0521 LP  0  0  0  0  0  0  0  0  0  0  0  0  # atno 17321 bound_to 7965
  139.5374  144.2743  152.1280 LP  0  0  0  0  0  0  0  0  0  0  0  0  # atno 17342 bound_to 10162
  140.1945  144.4718  150.6462 LP  0  0  0  0  0  0  0  0  0  0  0  0  # atno 17343 bound_to 10162
  156.0939  130.5917  150.9780 LP  0  0  0  0  0  0  0  0  0  0  0  0  # atno 17370 bound_to 10713
  157.6411  131.0910  150.8249 LP  0  0  0  0  0  0  0  0  0  0  0  0  # atno 17371 bound_to 10713
  139.9005  135.0163  156.7247 LP  0  0  0  0  0  0  0  0  0  0  0  0  # atno 17394 bound_to 11000
  140.6996  133.9318  155.8016 LP  0  0  0  0  0  0  0  0  0  0  0  0  # atno 17395 bound_to 11000

$$$$
