AV-unprocessed.smi:1535|AV-procd|sdf|6183|dock5
  -GOLD-   22720 6343D 1   1.00000     0.00000
 Structure written by MMmdl.
 47 48  0  0  0  0  0  0  0  0  2 V2000
  152.5601  143.3584  161.0707 C   0  0  0  0  0  0  0  0  0  0  0  0
  152.2147  142.5962  159.8034 C   0  0  0  0  0  0  0  0  0  0  0  0
  152.5272  141.2205  159.7218 C   0  0  0  0  0  0  0  0  0  0  0  0
  152.2218  140.4763  158.5615 C   0  0  0  0  0  0  0  0  0  0  0  0
  152.4342  139.1401  158.2686 N   0  0  0  0  0  0  0  0  0  0  0  0
  151.9341  139.0514  157.0400 C   0  0  0  0  0  0  0  0  0  0  0  0
  151.4066  140.1706  156.5070 N   0  0  0  0  0  0  0  0  0  0  0  0
  150.7922  140.3141  155.1995 C   0  0  0  0  0  0  0  0  0  0  0  0
  149.8625  139.1345  154.8518 C   0  0  1  0  0  0  0  0  0  0  0  0
  149.1477  139.4721  153.6803 O   0  0  0  0  0  0  0  0  0  0  0  0
  150.6060  137.8024  154.6155 C   0  0  0  0  0  0  0  0  0  0  0  0
  149.6796  136.6425  154.6722 N   0  3  2  0  0  0  0  0  0  0  0  0
  148.7089  136.7485  155.7870 C   0  0  0  0  0  0  0  0  0  0  0  0
  150.3761  135.3311  154.6648 C   0  0  0  0  0  0  0  0  0  0  0  0
  149.4509  134.1704  155.0807 C   0  0  1  0  0  0  0  0  0  0  0  0
  149.3120  133.1341  153.9585 C   0  0  0  0  0  0  0  0  0  0  0  0
  149.9153  133.5351  156.3246 C   0  0  0  0  0  0  0  0  0  0  0  0
  150.2765  133.0377  157.3041 N   0  0  0  0  0  0  0  0  0  0  0  0
  151.5875  141.1504  157.4775 C   0  0  0  0  0  0  0  0  0  0  0  0
  151.2755  142.5197  157.5452 C   0  0  0  0  0  0  0  0  0  0  0  0
  151.5891  143.2489  158.7109 C   0  0  0  0  0  0  0  0  0  0  0  0
  151.2492  144.7274  158.7733 C   0  0  0  0  0  0  0  0  0  0  0  0
  153.0125  142.7051  161.8175 H   0  0  0  0  0  0  0  0  0  0  0  0
  151.6639  143.7972  161.5097 H   0  0  0  0  0  0  0  0  0  0  0  0
  153.2677  144.1587  160.8532 H   0  0  0  0  0  0  0  0  0  0  0  0
  153.0065  140.7239  160.5529 H   0  0  0  0  0  0  0  0  0  0  0  0
  151.9414  138.1153  156.5008 H   0  0  0  0  0  0  0  0  0  0  0  0
  150.2358  141.2527  155.1872 H   0  0  0  0  0  0  0  0  0  0  0  0
  151.5825  140.4079  154.4530 H   0  0  0  0  0  0  0  0  0  0  0  0
  149.1364  139.0164  155.6556 H   0  0  0  0  0  0  0  0  0  0  0  0
  149.7631  139.6149  152.9768 H   0  0  0  0  0  0  0  0  0  0  0  0
  151.1172  137.8535  153.6544 H   0  0  0  0  0  0  0  0  0  0  0  0
  151.3933  137.6503  155.3549 H   0  0  0  0  0  0  0  0  0  0  0  0
  149.2123  136.6706  156.7516 H   0  0  0  0  0  0  0  0  0  0  0  0
  147.9647  135.9537  155.7263 H   0  0  0  0  0  0  0  0  0  0  0  0
  148.1734  137.6974  155.7605 H   0  0  0  0  0  0  0  0  0  0  0  0
  150.8082  135.1519  153.6790 H   0  0  0  0  0  0  0  0  0  0  0  0
  151.2117  135.3647  155.3659 H   0  0  0  0  0  0  0  0  0  0  0  0
  148.4548  134.5539  155.2977 H   0  0  0  0  0  0  0  0  0  0  0  0
  148.6334  132.3321  154.2498 H   0  0  0  0  0  0  0  0  0  0  0  0
  150.2745  132.6827  153.7158 H   0  0  0  0  0  0  0  0  0  0  0  0
  148.9161  133.5880  153.0496 H   0  0  0  0  0  0  0  0  0  0  0  0
  150.8004  143.0067  156.7066 H   0  0  0  0  0  0  0  0  0  0  0  0
  150.8060  145.0734  157.8391 H   0  0  0  0  0  0  0  0  0  0  0  0
  152.1465  145.3192  158.9555 H   0  0  0  0  0  0  0  0  0  0  0  0
  150.5367  144.9221  159.5750 H   0  0  0  0  0  0  0  0  0  0  0  0
  149.1367  136.6715  153.8202 H   0  0  0  0  0  0  0  0  0  0  0  0
  1  2  1  0  0  0  0
  1 23  1  0  0  0  0
  1 24  1  0  0  0  0
  1 25  1  0  0  0  0
  2 21  1  0  0  0  0
  2  3  2  0  0  0  0
  3  4  1  0  0  0  0
  3 26  1  0  0  0  0
  4 19  2  0  0  0  0
  4  5  1  0  0  0  0
  5  6  2  0  0  0  0
  6  7  1  0  0  0  0
  6 27  1  0  0  0  0
  7  8  1  0  0  0  0
  7 19  1  0  0  0  0
  8  9  1  0  0  0  0
  8 28  1  0  0  0  0
  8 29  1  0  0  0  0
  9 10  1  0  0  0  0
  9 11  1  0  0  0  0
  9 30  1  0  0  0  0
 10 31  1  0  0  0  0
 11 12  1  0  0  0  0
 11 32  1  0  0  0  0
 11 33  1  0  0  0  0
 12 13  1  0  0  0  0
 12 14  1  0  0  0  0
 12 47  1  0  0  0  0
 13 34  1  0  0  0  0
 13 35  1  0  0  0  0
 13 36  1  0  0  0  0
 14 15  1  0  0  0  0
 14 37  1  0  0  0  0
 14 38  1  0  0  0  0
 15 16  1  0  0  0  0
 15 17  1  0  0  0  0
 15 39  1  0  0  0  0
 16 40  1  0  0  0  0
 16 41  1  0  0  0  0
 16 42  1  0  0  0  0
 17 18  3  0  0  0  0
 19 20  1  0  0  0  0
 20 21  2  0  0  0  0
 20 43  1  0  0  0  0
 21 22  1  0  0  0  0
 22 44  1  0  0  0  0
 22 45  1  0  0  0  0
 22 46  1  0  0  0  0
M  CHG  1  12   1
M  END
> <s_m_source_file>
AV-unprocessed.smi

> <i_m_source_file_index>
1535

> <i_lp_mmshare_version>
43012

> <i_f3d_flags>
0

> <s_epik_input>
W0NIM11jKFtjSF0xKWMoW0NIM10pW2NIXWMoYzEyKW4oW2NIXW4yKVtDSDJdW0NASF0oW09IXSlbQ0gyXU4oW0NIM10pW0NIMl1bQ0BIXShbQ0gzXSlDI04=

> <s_epik_cmdline>
J2VwaWtfcHl0aG9uJywgJy1waCcsICc3LjAnLCAnLXRuJywgJzgnLCAnLW1hJywgJzIwMCcsICctbWV0YWxfYmluZGluZycsICctaW1hZScsICc8aW5maWxlLm1hZT4nLCAnLW9tYWUnLCAnPG91dGZpbGUubWFlPic=

> <r_epik_Ionization_Penalty>
2.21058

> <r_epik_Ionization_Penalty_Charging>
2.12381

> <r_epik_Ionization_Penalty_Neutral>
0.0867699

> <r_epik_State_Penalty>
2.36208

> <r_epik_Charging_Adjusted_Penalty>
4.48589

> <i_epik_Tot_Q>
1

> <i_epik_Tot_abs_Q>
1

> <r_epik_Metal_State_Penalty>
2.2818

> <b_epik_Metal_Only>
0

> <s_lp_Force_Field>
OPLS_2005

> <r_lp_Energy>
13.4259

> <b_lp_Chiralities_Consistent>
1

> <s_lp_Variant>
AV-unprocessed.smi:1535-14

> <Gold.Version>
5.8.1

> <Gold.Id.Protein>
6NUR|6NUR_protein|mol2

> <Gold.PLP.Fitness>
53.3965

> <Gold.PLP.PLP>
-44.9355

> <Gold.PLP.part.hbond>
-3.0000

> <Gold.PLP.part.metal>
0.0000

> <Gold.PLP.part.buried>
-4.3154

> <Gold.PLP.part.nonpolar>
-38.2384

> <Gold.PLP.part.repulsive>
0.0325

> <Gold.PLP.ligand.clash>
0.0000

> <Gold.PLP.ligand.torsion>
1.4183

> <Gold.PLP.Chemscore.Hbond>
3.7200

> <Gold.PLP.Chemscore.CHOScore>
0.0000

> <Gold.PLP.Chemscore.Metal>
0.0000

> <Gold.Chemscore.Hbonds>
donor molecule, donor type, donor heavy atom, donor atom, acceptor molecule, acceptor atom, score
      L1  H    10    31       P1  7957  0.70
      L1  H    12    47       P1  7948  1.92
      P1  H  6896  6907       L1    18  0.81

> <Gold.PLP.Chemscore.Internal.Correction>
0.1376

> <Gold.Rescore>
     Score         DG    S(hbond)    S(metal)    S(lipo)     H(rot)  DE(clash)    DE(int)     intcor
     19.83     -21.74       2.80        0.00     115.92       2.60       0.33       1.58       ----

> <Gold.Chemscore.Fitness>
19.8272

> <Gold.Chemscore.DG>
-21.7409

> <Gold.Chemscore.ZeroCoef>
-5.4800

> <Gold.Chemscore.Hbond>
2.8029

> <Gold.Chemscore.Metal>
0.0000

> <Gold.Chemscore.Lipo>
115.9241

> <Gold.Chemscore.Internal_Hbond>
0.0000

> <Gold.Chemscore.DEClash>
0.3350

> <Gold.Chemscore.DEInternal>
1.5787

> <Gold.Chemscore.Rot>
2.6031

> <Gold.Chemscore.Internal.Correction>
   9.000000E+99

> <Gold.Chemscore.Hbonds>
donor molecule, donor type, donor heavy atom, donor atom, acceptor molecule, acceptor atom, score
      L1  H    10    31       P1  7957  0.70
      L1  H    12    47       P1  7948  0.88
      P1  H  6896  6907       L1    18  0.80

> <Gold.Chemscore.Hbond.Weighted>
-9.3617

> <Gold.Chemscore.Metal.Weighted>
-0.0000

> <Gold.Chemscore.Lipo.Weighted>
-13.5631

> <Gold.Chemscore.Internal_Hbond.Weighted>
0.0000

> <Gold.Chemscore.DEClash.Weighted>
0.3350

> <Gold.Chemscore.DEInternal.Weighted>
1.5787

> <Gold.Chemscore.Rot.Weighted>
6.6640

> <Gold.Chemscore.Internal.Correction.Weighted>
   9.000000E+99

> <Gold.Protein.RotatedTorsions>
[ 6907 6896 6895 6894 ] final -140.02 input  -60.11 | X-H torsion
[ 7974 7965 7964 7962 ] final  112.75 input  175.53 | X-H torsion
[ 8008 7997 7996 7995 ] final  158.95 input   59.86 | X-H torsion
[ 10167 10162 10161 10158 ] final   27.25 input  -65.29 | X-H torsion
[ 10718 10713 10712 10709 ] final -178.41 input   66.30 | X-H torsion
[ 10763 10752 10751 10750 ] final  178.28 input  -60.55 | X-H torsion
[ 11005 11000 10999 10996 ] final -179.58 input  -57.11 | X-H torsion

> <Gold.Protein.ActiveResidues>
 VAL166  LYS551  ARG553  GLY616  TRP617  ASP618  TYR619  PRO620  LYS621  CYS622 
 ASP623  PHE694  ASN695  SER759  ASP760  ASP761  ALA762  ILE779  LEU786  VAL792 
 PHE793  MET794  SER795  GLU796  ALA797  LYS798  CYS799  TRP800  GLU811  SER814 

> <Gold.Protein.RotatedAtoms>
  151.0552  133.5590  159.2638 H   0  0  0  0  0  0  0  0  0  0  0  0  # atno 6907 bound_to 6896
  151.2586  135.0645  159.9099 H   0  0  0  0  0  0  0  0  0  0  0  0  # atno 6908 bound_to 6896
  152.5388  134.0302  159.8075 H   0  0  0  0  0  0  0  0  0  0  0  0  # atno 6909 bound_to 6896
  145.2256  139.2842  143.4195 H   0  0  0  0  0  0  0  0  0  0  0  0  # atno 7974 bound_to 7965
  156.2270  140.1844  156.7339 H   0  0  0  0  0  0  0  0  0  0  0  0  # atno 8008 bound_to 7997
  154.5957  140.0643  156.9329 H   0  0  0  0  0  0  0  0  0  0  0  0  # atno 8009 bound_to 7997
  155.2259  140.3311  155.4312 H   0  0  0  0  0  0  0  0  0  0  0  0  # atno 8010 bound_to 7997
  140.4954  144.0400  150.6312 H   0  0  0  0  0  0  0  0  0  0  0  0  # atno 10167 bound_to 10162
  156.8438  130.9695  151.3098 H   0  0  0  0  0  0  0  0  0  0  0  0  # atno 10718 bound_to 10713
  154.5056  135.2786  155.1385 H   0  0  0  0  0  0  0  0  0  0  0  0  # atno 10763 bound_to 10752
  154.3000  135.6250  153.5424 H   0  0  0  0  0  0  0  0  0  0  0  0  # atno 10764 bound_to 10752
  152.9910  135.5694  154.5510 H   0  0  0  0  0  0  0  0  0  0  0  0  # atno 10765 bound_to 10752
  140.4170  134.6640  157.4644 H   0  0  0  0  0  0  0  0  0  0  0  0  # atno 11005 bound_to 11000
  146.3365  140.2575  142.8600 LP  0  0  0  0  0  0  0  0  0  0  0  0  # atno 17320 bound_to 7965
  144.9725  140.8382  143.5447 LP  0  0  0  0  0  0  0  0  0  0  0  0  # atno 17321 bound_to 7965
  140.3681  143.2870  152.0309 LP  0  0  0  0  0  0  0  0  0  0  0  0  # atno 17342 bound_to 10162
  139.4860  144.6251  151.7180 LP  0  0  0  0  0  0  0  0  0  0  0  0  # atno 17343 bound_to 10162
  157.6341  130.8752  149.9327 LP  0  0  0  0  0  0  0  0  0  0  0  0  # atno 17370 bound_to 10713
  156.0866  130.3667  150.0476 LP  0  0  0  0  0  0  0  0  0  0  0  0  # atno 17371 bound_to 10713
  140.0227  134.6524  155.9217 LP  0  0  0  0  0  0  0  0  0  0  0  0  # atno 17394 bound_to 11000
  141.1799  133.6545  156.4977 LP  0  0  0  0  0  0  0  0  0  0  0  0  # atno 17395 bound_to 11000

$$$$
