AV-unprocessed.smi:2034|AV-procd|sdf|8265|dock3
  -GOLD-   2272010533D 1   1.00000     0.00000
 Structure written by MMmdl.
 50 52  0  0  0  0  0  0  0  0  1 V2000
  151.8900  144.8455  158.3357 C   0  0  0  0  0  0  0  0  0  0  0  0
  152.1884  143.3425  158.3243 C   0  0  2  0  0  0  0  0  0  0  0  0
  151.2271  142.5727  157.4005 C   0  0  0  0  0  0  0  0  0  0  0  0
  151.4751  141.1423  157.5058 N   0  0  0  0  0  0  0  0  0  0  0  0
  150.7530  140.3806  156.5780 C   0  0  0  0  0  0  0  0  0  0  0  0
  151.3933  139.7167  155.5070 C   0  0  0  0  0  0  0  0  0  0  0  0
  150.6076  138.9661  154.6125 C   0  0  0  0  0  0  0  0  0  0  0  0
  149.2151  138.8914  154.8158 C   0  0  0  0  0  0  0  0  0  0  0  0
  148.4440  138.1430  153.8869 N   0  0  0  0  0  0  0  0  0  0  0  0
  147.1065  138.0724  153.7775 C   0  0  0  0  0  0  0  0  0  0  0  0
  146.3001  138.6379  154.5155 O   0  0  0  0  0  0  0  0  0  0  0  0
  146.7472  137.2747  152.7626 N   0  0  0  0  0  0  0  0  0  0  0  0
  145.3734  136.9472  152.4002 C   0  0  0  0  0  0  0  0  0  0  0  0
  145.3223  135.8463  151.3286 C   0  0  1  0  0  0  0  0  0  0  0  0
  146.1632  134.6178  151.6699 C   0  0  0  0  0  0  0  0  0  0  0  0
  145.4739  133.5441  150.8597 C   0  0  0  0  0  0  0  0  0  0  0  0
  144.0072  133.9350  151.0118 C   0  0  0  0  0  0  0  0  0  0  0  0
  143.9932  135.3505  151.1806 O   0  0  0  0  0  0  0  0  0  0  0  0
  148.6697  139.6032  155.9120 C   0  0  0  0  0  0  0  0  0  0  0  0
  149.4179  140.3269  156.7720 N   0  0  0  0  0  0  0  0  0  0  0  0
  151.3606  140.6553  158.8739 C   0  0  0  0  0  0  0  0  0  0  0  0
  152.2905  141.4493  159.8126 C   0  0  1  0  0  0  0  0  0  0  0  0
  153.7775  141.0847  159.6547 C   0  0  0  0  0  0  0  0  0  0  0  0
  152.0590  142.8530  159.6602 O   0  0  0  0  0  0  0  0  0  0  0  0
  151.9865  145.2730  157.3373 H   0  0  0  0  0  0  0  0  0  0  0  0
  152.5818  145.3749  158.9915 H   0  0  0  0  0  0  0  0  0  0  0  0
  150.8777  145.0444  158.6889 H   0  0  0  0  0  0  0  0  0  0  0  0
  153.2141  143.2047  157.9815 H   0  0  0  0  0  0  0  0  0  0  0  0
  150.1932  142.7878  157.6744 H   0  0  0  0  0  0  0  0  0  0  0  0
  151.3615  142.8938  156.3666 H   0  0  0  0  0  0  0  0  0  0  0  0
  152.4628  139.7784  155.3696 H   0  0  0  0  0  0  0  0  0  0  0  0
  151.0726  138.4513  153.7844 H   0  0  0  0  0  0  0  0  0  0  0  0
  148.9717  137.5487  153.2646 H   0  0  0  0  0  0  0  0  0  0  0  0
  147.4764  136.8434  152.2137 H   0  0  0  0  0  0  0  0  0  0  0  0
  144.8169  136.6387  153.2869 H   0  0  0  0  0  0  0  0  0  0  0  0
  144.8902  137.8522  152.0315 H   0  0  0  0  0  0  0  0  0  0  0  0
  145.6455  136.2365  150.3620 H   0  0  0  0  0  0  0  0  0  0  0  0
  147.2161  134.7386  151.4138 H   0  0  0  0  0  0  0  0  0  0  0  0
  146.0933  134.3842  152.7334 H   0  0  0  0  0  0  0  0  0  0  0  0
  145.7756  133.6129  149.8135 H   0  0  0  0  0  0  0  0  0  0  0  0
  145.6858  132.5345  151.2126 H   0  0  0  0  0  0  0  0  0  0  0  0
  143.4055  133.6298  150.1555 H   0  0  0  0  0  0  0  0  0  0  0  0
  143.5817  133.4771  151.9056 H   0  0  0  0  0  0  0  0  0  0  0  0
  147.6096  139.6239  156.1103 H   0  0  0  0  0  0  0  0  0  0  0  0
  150.3285  140.7656  159.2095 H   0  0  0  0  0  0  0  0  0  0  0  0
  151.5971  139.5911  158.9147 H   0  0  0  0  0  0  0  0  0  0  0  0
  152.0134  141.2046  160.8383 H   0  0  0  0  0  0  0  0  0  0  0  0
  153.9444  140.0348  159.8964 H   0  0  0  0  0  0  0  0  0  0  0  0
  154.3973  141.6799  160.3252 H   0  0  0  0  0  0  0  0  0  0  0  0
  154.1367  141.2421  158.6379 H   0  0  0  0  0  0  0  0  0  0  0  0
  1  2  1  0  0  0  0
  1 25  1  0  0  0  0
  1 26  1  0  0  0  0
  1 27  1  0  0  0  0
  2 24  1  0  0  0  0
  2  3  1  0  0  0  0
  2 28  1  0  0  0  0
  3  4  1  0  0  0  0
  3 29  1  0  0  0  0
  3 30  1  0  0  0  0
  4  5  1  0  0  0  0
  4 21  1  0  0  0  0
  5 20  1  0  0  0  0
  5  6  2  0  0  0  0
  6  7  1  0  0  0  0
  6 31  1  0  0  0  0
  7  8  2  0  0  0  0
  7 32  1  0  0  0  0
  8  9  1  0  0  0  0
  8 19  1  0  0  0  0
  9 10  1  0  0  0  0
  9 33  1  0  0  0  0
 10 11  2  0  0  0  0
 10 12  1  0  0  0  0
 12 13  1  0  0  0  0
 12 34  1  0  0  0  0
 13 14  1  0  0  0  0
 13 35  1  0  0  0  0
 13 36  1  0  0  0  0
 14 18  1  0  0  0  0
 14 15  1  0  0  0  0
 14 37  1  0  0  0  0
 15 16  1  0  0  0  0
 15 38  1  0  0  0  0
 15 39  1  0  0  0  0
 16 17  1  0  0  0  0
 16 40  1  0  0  0  0
 16 41  1  0  0  0  0
 17 18  1  0  0  0  0
 17 42  1  0  0  0  0
 17 43  1  0  0  0  0
 19 20  2  0  0  0  0
 19 44  1  0  0  0  0
 21 22  1  0  0  0  0
 21 45  1  0  0  0  0
 21 46  1  0  0  0  0
 22 23  1  0  0  0  0
 22 24  1  0  0  0  0
 22 47  1  0  0  0  0
 23 48  1  0  0  0  0
 23 49  1  0  0  0  0
 23 50  1  0  0  0  0
M  END
> <s_m_source_file>
AV-unprocessed.smi

> <i_m_source_file_index>
2034

> <i_lp_mmshare_version>
43012

> <i_f3d_flags>
0

> <s_epik_input>
W0NIM11bQ0BASF0xW0NIMl1OKFtDSDJdW0NASF0oTzEpW0NIM10pYzJbY0hdW2NIXWMoW2NIXW4yKVtOSF1DKD1PKVtOSF1bQ0gyXVtDQEBIXTNbQ0gyXVtDSDJdW0NIMl1PMw==

> <s_epik_cmdline>
J2VwaWtfcHl0aG9uJywgJy1waCcsICc3LjAnLCAnLXRuJywgJzgnLCAnLW1hJywgJzIwMCcsICctbWV0YWxfYmluZGluZycsICctaW1hZScsICc8aW5maWxlLm1hZT4nLCAnLW9tYWUnLCAnPG91dGZpbGUubWFlPic=

> <r_lp_tautomer_probability>
1

> <r_epik_Ionization_Penalty>
0.00268225

> <r_epik_Ionization_Penalty_Charging>
0

> <r_epik_Ionization_Penalty_Neutral>
0.00268225

> <r_epik_State_Penalty>
0.00184408

> <r_epik_Charging_Adjusted_Penalty>
0.00184408

> <i_epik_Tot_Q>
0

> <i_epik_Tot_abs_Q>
0

> <r_epik_Metal_State_Penalty>
-0

> <b_epik_Metal_Only>
0

> <s_lp_Force_Field>
OPLS_2005

> <r_lp_Energy>
37.53

> <b_lp_Chiralities_Consistent>
1

> <s_lp_Variant>
AV-unprocessed.smi:2034-3

> <Gold.Version>
5.8.1

> <Gold.Id.Protein>
6NUR|6NUR_protein|mol2

> <Gold.PLP.Fitness>
46.9280

> <Gold.PLP.PLP>
-41.2553

> <Gold.PLP.part.hbond>
-2.0000

> <Gold.PLP.part.metal>
0.0000

> <Gold.PLP.part.buried>
-6.4043

> <Gold.PLP.part.nonpolar>
-34.1437

> <Gold.PLP.part.repulsive>
0.3834

> <Gold.PLP.ligand.clash>
0.0000

> <Gold.PLP.ligand.torsion>
0.1901

> <Gold.PLP.Chemscore.Hbond>
1.9760

> <Gold.PLP.Chemscore.CHOScore>
0.0000

> <Gold.PLP.Chemscore.Metal>
0.0000

> <Gold.Chemscore.Hbonds>
donor molecule, donor type, donor heavy atom, donor atom, acceptor molecule, acceptor atom, score
      L1  H     9    33       P1  7948  0.98
      L1  H    12    34       P1  7948  1.00

> <Gold.PLP.Chemscore.Internal.Correction>
0.1249

> <Gold.Rescore>
     Score         DG    S(hbond)    S(metal)    S(lipo)     H(rot)  DE(clash)    DE(int)     intcor
     19.73     -21.18       1.94        0.00     108.67       1.37       0.02       1.44       ----

> <Gold.Chemscore.Fitness>
19.7272

> <Gold.Chemscore.DG>
-21.1841

> <Gold.Chemscore.ZeroCoef>
-5.4800

> <Gold.Chemscore.Hbond>
1.9425

> <Gold.Chemscore.Metal>
0.0000

> <Gold.Chemscore.Lipo>
108.6661

> <Gold.Chemscore.Internal_Hbond>
0.0000

> <Gold.Chemscore.DEClash>
0.0217

> <Gold.Chemscore.DEInternal>
1.4352

> <Gold.Chemscore.Rot>
1.3663

> <Gold.Chemscore.Internal.Correction>
   9.000000E+99

> <Gold.Chemscore.Hbonds>
donor molecule, donor type, donor heavy atom, donor atom, acceptor molecule, acceptor atom, score
      L1  H     9    33       P1  7948  0.93
      L1  H    12    34       P1  7948  0.99

> <Gold.Chemscore.Hbond.Weighted>
-6.4879

> <Gold.Chemscore.Metal.Weighted>
-0.0000

> <Gold.Chemscore.Lipo.Weighted>
-12.7139

> <Gold.Chemscore.Internal_Hbond.Weighted>
0.0000

> <Gold.Chemscore.DEClash.Weighted>
0.0217

> <Gold.Chemscore.DEInternal.Weighted>
1.4352

> <Gold.Chemscore.Rot.Weighted>
3.4977

> <Gold.Chemscore.Internal.Correction.Weighted>
   9.000000E+99

> <Gold.Protein.RotatedTorsions>
[ 6907 6896 6895 6894 ] final  -96.42 input  -60.11 | X-H torsion
[ 7974 7965 7964 7962 ] final    0.76 input  175.53 | X-H torsion
[ 8008 7997 7996 7995 ] final  113.48 input   59.86 | X-H torsion
[ 10167 10162 10161 10158 ] final  155.20 input  -65.29 | X-H torsion
[ 10718 10713 10712 10709 ] final   28.73 input   66.30 | X-H torsion
[ 10763 10752 10751 10750 ] final  -71.57 input  -60.55 | X-H torsion
[ 11005 11000 10999 10996 ] final  119.76 input  -57.11 | X-H torsion

> <Gold.Protein.ActiveResidues>
 VAL166  LYS551  ARG553  GLY616  TRP617  ASP618  TYR619  PRO620  LYS621  CYS622 
 ASP623  PHE694  ASN695  SER759  ASP760  ASP761  ALA762  ILE779  LEU786  VAL792 
 PHE793  MET794  SER795  GLU796  ALA797  LYS798  CYS799  TRP800  GLU811  SER814 

> <Gold.Protein.RotatedAtoms>
  150.6988  134.1506  159.4138 H   0  0  0  0  0  0  0  0  0  0  0  0  # atno 6907 bound_to 6896
  151.9489  135.0176  160.0550 H   0  0  0  0  0  0  0  0  0  0  0  0  # atno 6908 bound_to 6896
  152.2028  133.4819  159.5105 H   0  0  0  0  0  0  0  0  0  0  0  0  # atno 6909 bound_to 6896
  146.2436  140.1088  142.8344 H   0  0  0  0  0  0  0  0  0  0  0  0  # atno 7974 bound_to 7965
  156.2261  140.2978  156.0070 H   0  0  0  0  0  0  0  0  0  0  0  0  # atno 8008 bound_to 7997
  155.2353  140.0420  157.2985 H   0  0  0  0  0  0  0  0  0  0  0  0  # atno 8009 bound_to 7997
  154.5917  140.2403  155.7919 H   0  0  0  0  0  0  0  0  0  0  0  0  # atno 8010 bound_to 7997
  139.4821  144.5120  151.8010 H   0  0  0  0  0  0  0  0  0  0  0  0  # atno 10167 bound_to 10162
  157.2373  130.7052  149.6341 H   0  0  0  0  0  0  0  0  0  0  0  0  # atno 10718 bound_to 10713
  154.4336  135.5958  153.6084 H   0  0  0  0  0  0  0  0  0  0  0  0  # atno 10763 bound_to 10752
  152.9800  135.5981  154.3808 H   0  0  0  0  0  0  0  0  0  0  0  0  # atno 10764 bound_to 10752
  154.3649  135.2841  155.2277 H   0  0  0  0  0  0  0  0  0  0  0  0  # atno 10765 bound_to 10752
  139.9159  134.9630  156.7704 H   0  0  0  0  0  0  0  0  0  0  0  0  # atno 11005 bound_to 11000
  145.0504  140.9014  143.4998 LP  0  0  0  0  0  0  0  0  0  0  0  0  # atno 17320 bound_to 7965
  145.1185  139.2709  143.5600 LP  0  0  0  0  0  0  0  0  0  0  0  0  # atno 17321 bound_to 7965
  140.4624  144.1703  150.5908 LP  0  0  0  0  0  0  0  0  0  0  0  0  # atno 17342 bound_to 10162
  140.4470  143.2502  151.9398 LP  0  0  0  0  0  0  0  0  0  0  0  0  # atno 17343 bound_to 10162
  155.9672  130.4469  150.5561 LP  0  0  0  0  0  0  0  0  0  0  0  0  # atno 17370 bound_to 10713
  157.3416  131.0718  151.1783 LP  0  0  0  0  0  0  0  0  0  0  0  0  # atno 17371 bound_to 10713
  140.6626  133.9632  155.7813 LP  0  0  0  0  0  0  0  0  0  0  0  0  # atno 17394 bound_to 11000
  141.0633  134.0314  157.3628 LP  0  0  0  0  0  0  0  0  0  0  0  0  # atno 17395 bound_to 11000

$$$$
