AV-unprocessed.smi:3333|AV-procd|sdf|12832|dock6
  -GOLD-   2272019213D 1   1.00000     0.00000
 Structure written by MMmdl.
 41 43  0  0  0  0  0  0  0  0  1 V2000
  146.2522  143.2463  158.5274 C   0  0  0  0  0  0  0  0  0  0  0  0
  145.3442  142.4506  157.5836 C   0  0  0  0  0  0  0  0  0  0  0  0
  145.8742  142.3982  156.1897 C   0  0  0  0  0  0  0  0  0  0  0  0
  147.1193  142.0194  155.8898 N   0  0  0  0  0  0  0  0  0  0  0  0
  147.3937  142.1002  154.5204 C   0  0  0  0  0  0  0  0  0  0  0  0
  148.7537  141.7210  154.0043 C   0  0  0  0  0  0  0  0  0  0  0  0
  149.7465  141.4639  155.1453 C   0  0  0  0  0  0  0  0  0  0  0  0
  150.4711  140.4673  155.1470 O   0  0  0  0  0  0  0  0  0  0  0  0
  149.7735  142.3873  156.1186 N   0  0  0  0  0  0  0  0  0  0  0  0
  150.6370  142.3388  157.2936 C   0  0  0  0  0  0  0  0  0  0  0  0
  150.8737  143.7395  157.8977 C   0  0  1  0  0  0  0  0  0  0  0  0
  150.0816  144.0147  159.1927 C   0  0  0  0  0  0  0  0  0  0  0  0
  151.1643  144.5482  160.1499 C   0  0  1  0  0  0  0  0  0  0  0  0
  152.0571  143.3786  160.6030 C   0  0  0  0  0  0  0  0  0  0  0  0
  152.8814  143.0740  159.3386 C   0  0  0  0  0  0  0  0  0  0  0  0
  152.3248  144.0842  158.3139 C   0  0  2  0  0  0  0  0  0  0  0  0
  152.0911  145.3025  159.2021 C   0  0  0  0  0  0  0  0  0  0  0  0
  146.3243  142.5423  153.7807 C   0  0  0  0  0  0  0  0  0  0  0  0
  144.9435  142.8979  154.7820 S   0  0  0  0  0  0  0  0  0  0  0  0
  145.8382  143.2717  159.5355 H   0  0  0  0  0  0  0  0  0  0  0  0
  146.3674  144.2760  158.1875 H   0  0  0  0  0  0  0  0  0  0  0  0
  147.2452  142.7994  158.5859 H   0  0  0  0  0  0  0  0  0  0  0  0
  145.2230  141.4320  157.9543 H   0  0  0  0  0  0  0  0  0  0  0  0
  144.3491  142.8959  157.5631 H   0  0  0  0  0  0  0  0  0  0  0  0
  148.6958  140.8223  153.3892 H   0  0  0  0  0  0  0  0  0  0  0  0
  149.1438  142.5109  153.3609 H   0  0  0  0  0  0  0  0  0  0  0  0
  149.1517  143.1791  156.0410 H   0  0  0  0  0  0  0  0  0  0  0  0
  150.1996  141.6801  158.0454 H   0  0  0  0  0  0  0  0  0  0  0  0
  151.5797  141.8726  157.0085 H   0  0  0  0  0  0  0  0  0  0  0  0
  150.5613  144.4766  157.1557 H   0  0  0  0  0  0  0  0  0  0  0  0
  149.3109  144.7663  159.0159 H   0  0  0  0  0  0  0  0  0  0  0  0
  149.5902  143.1252  159.5893 H   0  0  0  0  0  0  0  0  0  0  0  0
  150.7659  145.1386  160.9753 H   0  0  0  0  0  0  0  0  0  0  0  0
  152.7103  143.6807  161.4226 H   0  0  0  0  0  0  0  0  0  0  0  0
  151.4751  142.5192  160.9381 H   0  0  0  0  0  0  0  0  0  0  0  0
  153.9388  143.2671  159.5241 H   0  0  0  0  0  0  0  0  0  0  0  0
  152.7957  142.0372  159.0165 H   0  0  0  0  0  0  0  0  0  0  0  0
  152.9908  144.2612  157.4690 H   0  0  0  0  0  0  0  0  0  0  0  0
  151.6017  146.1305  158.6862 H   0  0  0  0  0  0  0  0  0  0  0  0
  152.9991  145.6690  159.6847 H   0  0  0  0  0  0  0  0  0  0  0  0
  146.2701  142.6932  152.7128 H   0  0  0  0  0  0  0  0  0  0  0  0
  1  2  1  0  0  0  0
  1 20  1  0  0  0  0
  1 21  1  0  0  0  0
  1 22  1  0  0  0  0
  2  3  1  0  0  0  0
  2 23  1  0  0  0  0
  2 24  1  0  0  0  0
  3 19  1  0  0  0  0
  3  4  2  0  0  0  0
  4  5  1  0  0  0  0
  5  6  1  0  0  0  0
  5 18  2  0  0  0  0
  6  7  1  0  0  0  0
  6 25  1  0  0  0  0
  6 26  1  0  0  0  0
  7  8  2  0  0  0  0
  7  9  1  0  0  0  0
  9 10  1  0  0  0  0
  9 27  1  0  0  0  0
 10 11  1  0  0  0  0
 10 28  1  0  0  0  0
 10 29  1  0  0  0  0
 11 16  1  0  0  0  0
 11 12  1  0  0  0  0
 11 30  1  0  0  0  0
 12 13  1  0  0  0  0
 12 31  1  0  0  0  0
 12 32  1  0  0  0  0
 13 17  1  0  0  0  0
 13 14  1  0  0  0  0
 13 33  1  0  0  0  0
 14 15  1  0  0  0  0
 14 34  1  0  0  0  0
 14 35  1  0  0  0  0
 15 16  1  0  0  0  0
 15 36  1  0  0  0  0
 15 37  1  0  0  0  0
 16 17  1  0  0  0  0
 16 38  1  0  0  0  0
 17 39  1  0  0  0  0
 17 40  1  0  0  0  0
 18 19  1  0  0  0  0
 18 41  1  0  0  0  0
M  END
> <s_m_source_file>
AV-unprocessed.smi

> <i_m_source_file_index>
3333

> <i_lp_mmshare_version>
43012

> <i_f3d_flags>
0

> <s_epik_input>
W0NIM11bQ0gyXWMxbmMoW2NIXXMxKVtDSDJdQyg9TylbTkhdW0NIMl1bQ0BIXShbQ0gyXVtDQEBIXTIzKVtDQEBIXShbQ0gyXTMpW0NIMl1bQ0gyXTI=

> <s_epik_cmdline>
J2VwaWtfcHl0aG9uJywgJy1waCcsICc3LjAnLCAnLXRuJywgJzgnLCAnLW1hJywgJzIwMCcsICctbWV0YWxfYmluZGluZycsICctaW1hZScsICc8aW5maWxlLm1hZT4nLCAnLW9tYWUnLCAnPG91dGZpbGUubWFlPic=

> <r_lp_tautomer_probability>
1

> <r_epik_Ionization_Penalty>
6.68371e-05

> <r_epik_Ionization_Penalty_Charging>
0

> <r_epik_Ionization_Penalty_Neutral>
6.68371e-05

> <r_epik_State_Penalty>
-0

> <r_epik_Charging_Adjusted_Penalty>
0

> <i_epik_Tot_Q>
0

> <i_epik_Tot_abs_Q>
0

> <r_epik_Metal_State_Penalty>
-0

> <b_epik_Metal_Only>
0

> <s_lp_Force_Field>
OPLS_2005

> <r_lp_Energy>
44.5958

> <b_lp_Chiralities_Consistent>
1

> <s_lp_Variant>
AV-unprocessed.smi:3333-2

> <Gold.Version>
5.8.1

> <Gold.Id.Protein>
6NUR|6NUR_protein|mol2

> <Gold.PLP.Fitness>
49.2386

> <Gold.PLP.PLP>
-45.3168

> <Gold.PLP.part.hbond>
-2.0000

> <Gold.PLP.part.metal>
0.0000

> <Gold.PLP.part.buried>
-2.8034

> <Gold.PLP.part.nonpolar>
-41.5049

> <Gold.PLP.part.repulsive>
0.3138

> <Gold.PLP.ligand.clash>
0.0000

> <Gold.PLP.ligand.torsion>
1.0527

> <Gold.PLP.Chemscore.Hbond>
2.0000

> <Gold.PLP.Chemscore.CHOScore>
0.0000

> <Gold.PLP.Chemscore.Metal>
0.0000

> <Gold.Chemscore.Hbonds>
donor molecule, donor type, donor heavy atom, donor atom, acceptor molecule, acceptor atom, score
      L1  H     9    27       P1  8028  1.00
      P1  H  7989  7998       L1     8  0.90

> <Gold.PLP.Chemscore.Internal.Correction>
0.0272

> <Gold.Rescore>
     Score         DG    S(hbond)    S(metal)    S(lipo)     H(rot)  DE(clash)    DE(int)     intcor
     17.77     -19.33       1.00        0.00     121.09       1.42       0.07       1.50       ----

> <Gold.Chemscore.Fitness>
17.7651

> <Gold.Chemscore.DG>
-19.3337

> <Gold.Chemscore.ZeroCoef>
-5.4800

> <Gold.Chemscore.Hbond>
0.9963

> <Gold.Chemscore.Metal>
0.0000

> <Gold.Chemscore.Lipo>
121.0939

> <Gold.Chemscore.Internal_Hbond>
0.0000

> <Gold.Chemscore.DEClash>
0.0666

> <Gold.Chemscore.DEInternal>
1.5019

> <Gold.Chemscore.Rot>
1.4227

> <Gold.Chemscore.Internal.Correction>
   9.000000E+99

> <Gold.Chemscore.Hbonds>
donor molecule, donor type, donor heavy atom, donor atom, acceptor molecule, acceptor atom, score
      L1  H     9    27       P1  8028  0.94
      P1  H  7989  7998       L1     8  0.18

> <Gold.Chemscore.Hbond.Weighted>
-3.3278

> <Gold.Chemscore.Metal.Weighted>
-0.0000

> <Gold.Chemscore.Lipo.Weighted>
-14.1680

> <Gold.Chemscore.Internal_Hbond.Weighted>
0.0000

> <Gold.Chemscore.DEClash.Weighted>
0.0666

> <Gold.Chemscore.DEInternal.Weighted>
1.5019

> <Gold.Chemscore.Rot.Weighted>
3.6421

> <Gold.Chemscore.Internal.Correction.Weighted>
   9.000000E+99

> <Gold.Protein.RotatedTorsions>
[ 6907 6896 6895 6894 ] final   97.36 input  -60.11 | X-H torsion
[ 7974 7965 7964 7962 ] final   80.80 input  175.53 | X-H torsion
[ 8008 7997 7996 7995 ] final  106.80 input   59.86 | X-H torsion
[ 10167 10162 10161 10158 ] final  143.71 input  -65.29 | X-H torsion
[ 10718 10713 10712 10709 ] final   57.46 input   66.30 | X-H torsion
[ 10763 10752 10751 10750 ] final   27.23 input  -60.55 | X-H torsion
[ 11005 11000 10999 10996 ] final  -29.74 input  -57.11 | X-H torsion

> <Gold.Protein.ActiveResidues>
 VAL166  LYS551  ARG553  GLY616  TRP617  ASP618  TYR619  PRO620  LYS621  CYS622 
 ASP623  PHE694  ASN695  SER759  ASP760  ASP761  ALA762  ILE779  LEU786  VAL792 
 PHE793  MET794  SER795  GLU796  ALA797  LYS798  CYS799  TRP800  GLU811  SER814 

> <Gold.Protein.RotatedAtoms>
  152.5424  134.0745  159.8208 H   0  0  0  0  0  0  0  0  0  0  0  0  # atno 6907 bound_to 6896
  151.0855  133.5349  159.2625 H   0  0  0  0  0  0  0  0  0  0  0  0  # atno 6908 bound_to 6896
  151.2160  135.0509  159.8985 H   0  0  0  0  0  0  0  0  0  0  0  0  # atno 6909 bound_to 6896
  145.6465  139.2437  143.2001 H   0  0  0  0  0  0  0  0  0  0  0  0  # atno 7974 bound_to 7965
  156.1772  140.3106  155.9082 H   0  0  0  0  0  0  0  0  0  0  0  0  # atno 8008 bound_to 7997
  155.3461  140.0468  157.3062 H   0  0  0  0  0  0  0  0  0  0  0  0  # atno 8009 bound_to 7997
  154.5303  140.2228  155.8826 H   0  0  0  0  0  0  0  0  0  0  0  0  # atno 8010 bound_to 7997
  139.4963  144.6022  151.6457 H   0  0  0  0  0  0  0  0  0  0  0  0  # atno 10167 bound_to 10162
  157.5516  130.8770  149.8972 H   0  0  0  0  0  0  0  0  0  0  0  0  # atno 10718 bound_to 10713
  153.0569  135.6542  154.0555 H   0  0  0  0  0  0  0  0  0  0  0  0  # atno 10763 bound_to 10752
  154.0231  135.2918  155.3380 H   0  0  0  0  0  0  0  0  0  0  0  0  # atno 10764 bound_to 10752
  154.6889  135.5290  153.8432 H   0  0  0  0  0  0  0  0  0  0  0  0  # atno 10765 bound_to 10752
  140.9323  133.7330  156.0954 H   0  0  0  0  0  0  0  0  0  0  0  0  # atno 11005 bound_to 11000
  146.1238  140.7274  142.9445 LP  0  0  0  0  0  0  0  0  0  0  0  0  # atno 17320 bound_to 7965
  144.7138  140.4136  143.7060 LP  0  0  0  0  0  0  0  0  0  0  0  0  # atno 17321 bound_to 7965
  140.5674  144.0167  150.6199 LP  0  0  0  0  0  0  0  0  0  0  0  0  # atno 17342 bound_to 10162
  140.3273  143.3100  152.0723 LP  0  0  0  0  0  0  0  0  0  0  0  0  # atno 17343 bound_to 10162
  156.0582  130.3704  150.1043 LP  0  0  0  0  0  0  0  0  0  0  0  0  # atno 17370 bound_to 10713
  156.9215  130.9684  151.3547 LP  0  0  0  0  0  0  0  0  0  0  0  0  # atno 17371 bound_to 10713
  140.7846  134.3686  157.5479 LP  0  0  0  0  0  0  0  0  0  0  0  0  # atno 17394 bound_to 11000
  139.8799  134.9103  156.3010 LP  0  0  0  0  0  0  0  0  0  0  0  0  # atno 17395 bound_to 11000

$$$$
