#       Name:                AV-unprocessed.smi:2044
#       Creating user name   scv26
#       Creation time:       Fri Mar 27 10:57:26 2020


#       File generated by GOLD software.
#

@<TRIPOS>MOLECULE
AV-unprocessed.smi:2044
    47    48     1
SMALL
NO_CHARGES


@<TRIPOS>ATOM
      1 ****        -5.7387   3.0935   0.3591 C.3            1 S1                 0.0000
      2 ****        -4.3024   2.6957   0.3312 C.2            1 S1                 0.0000
      3 ****        -3.4533   2.2174   1.2890 C.2            1 S1                 0.0000
      4 ****        -2.2317   2.0543   0.5833 C.2            1 S1                 0.0000
      5 ****        -1.0755   1.5584   1.2413 N.am           1 S1                 0.0000
      6 ****         0.1580   1.3652   0.7410 C.2            1 S1                 0.0000
      7 ****         0.4168   1.6850  -0.4255 O.2            1 S1                 0.0000
      8 ****         0.9998   0.7900   1.6442 N.pl3          1 S1                -1.0000
      9 ****         2.4118   0.4755   1.3991 C.3            1 S1                 0.0000
     10 ****         2.6002  -0.9734   0.8691 C.3            1 S1                 0.0000
     11 ****         2.2963  -2.0775   1.9127 C.3            1 S1                 0.0000
     12 ****         1.9146  -1.1585  -0.4499 N.4            1 S1                 1.0000
     13 ****         2.8082  -1.6100  -1.5438 C.3            1 S1                 0.0000
     14 ****         2.0655  -1.5467  -2.8897 C.3            1 S1                 0.0000
     15 ****         0.8773  -2.3269  -2.8258 O.3            1 S1                 0.0000
     16 ****        -0.0190  -1.8537  -1.8271 C.3            1 S1                 0.0000
     17 ****         0.6562  -1.9520  -0.4510 C.3            1 S1                 0.0000
     18 ****        -2.3292   2.3954  -0.6934 N.2            1 S1                 0.0000
     19 ****        -3.6553   2.8114  -0.8605 O.3            1 S1                 0.0000
     20 ****        -6.3205   2.3992   0.9655 H              1 S1                 0.0000
     21 ****        -6.1636   3.1010  -0.6450 H              1 S1                 0.0000
     22 ****        -5.8537   4.0912   0.7827 H              1 S1                 0.0000
     23 ****        -3.6723   2.0185   2.3277 H              1 S1                 0.0000
     24 ****        -1.2022   1.2977   2.2081 H              1 S1                 0.0000
     25 ****         2.8653   1.1673   0.6877 H              1 S1                 0.0000
     26 ****         2.9971   0.5900   2.3115 H              1 S1                 0.0000
     27 ****         3.6721  -1.0556   0.6834 H              1 S1                 0.0000
     28 ****         2.9120  -1.9669   2.8073 H              1 S1                 0.0000
     29 ****         2.5175  -3.0648   1.5066 H              1 S1                 0.0000
     30 ****         1.2546  -2.0801   2.2377 H              1 S1                 0.0000
     31 ****         3.6927  -0.9736  -1.5918 H              1 S1                 0.0000
     32 ****         3.1493  -2.6265  -1.3426 H              1 S1                 0.0000
     33 ****         1.8208  -0.5151  -3.1489 H              1 S1                 0.0000
     34 ****         2.7000  -1.9333  -3.6873 H              1 S1                 0.0000
     35 ****        -0.3198  -0.8267  -2.0418 H              1 S1                 0.0000
     36 ****        -0.9236  -2.4617  -1.8467 H              1 S1                 0.0000
     37 ****         0.8667  -2.9973  -0.2221 H              1 S1                 0.0000
     38 ****        -0.0291  -1.5834   0.3123 H              1 S1                 0.0000
     39 ****         1.6354  -0.2212  -0.7065 H              1 S1                 0.0000
     40 ****        -0.2929   2.0896  -1.0022 LP             1 S1                 0.0000
     41 ****         1.3358   1.5389  -0.7919 LP             1 S1                 0.0000
     42 ****         0.6266   0.5645   2.5441 LP             1 S1                 0.0000
     43 ****         1.1235  -3.2732  -2.6163 LP             1 S1                 0.0000
     44 ****         0.4192  -2.2906  -3.7140 LP             1 S1                 0.0000
     45 ****        -1.6103   2.3626  -1.3879 LP             1 S1                 0.0000
     46 ****        -3.6734   3.7646  -1.1621 LP             1 S1                 0.0000
     47 ****        -4.1045   2.2367  -1.5446 LP             1 S1                 0.0000
@<TRIPOS>BOND
    1    1    2 1     
    2    1   20 1     
    3    1   21 1     
    4    1   22 1     
    5    2   19 1     
    6    2    3 2     
    7    3    4 1     
    8    3   23 1     
    9    4    5 1     
   10    4   18 2     
   11    5    6 am    
   12    5   24 1     
   13    6    7 2     
   14    6    8 1     
   15    8    9 1     
   16    9   10 1     
   17    9   25 1     
   18    9   26 1     
   19   10   11 1     
   20   10   12 1     
   21   10   27 1     
   22   11   28 1     
   23   11   29 1     
   24   11   30 1     
   25   12   17 1     
   26   12   13 1     
   27   12   39 1     
   28   13   14 1     
   29   13   31 1     
   30   13   32 1     
   31   14   15 1     
   32   14   33 1     
   33   14   34 1     
   34   15   16 1     
   35   16   17 1     
   36   16   35 1     
   37   16   36 1     
   38   17   37 1     
   39   17   38 1     
   40   18   19 1     
   41    7   40 1     
   42    7   41 1     
   43    8   42 1     
   44   15   43 1     
   45   15   44 1     
   46   18   45 1     
   47   19   46 1     
   48   19   47 1     
@<TRIPOS>SUBSTRUCTURE
      1 S1             1
@<TRIPOS>SET
LONE_PAIRS      STATIC     ATOMS    <user>   **** ""
8 40 41 42 43 44 45 46 47
DONOR_HYDROGENS      STATIC     ATOMS    <user>   **** ""
2 24 39
ATOM$BLUE        STATIC     ATOMS    COLORGROUP SYSTEM
8 40 41 42 43 44 45 46 47
ATOM$RED        STATIC     ATOMS    COLORGROUP SYSTEM
2 24 39
