#       Name:                AV-unprocessed.smi:2416
#       Creating user name   scv26
#       Creation time:       Fri Mar 27 13:17:51 2020


#       File generated by GOLD software.
#

@<TRIPOS>MOLECULE
AV-unprocessed.smi:2416
    45    46     1
SMALL
NO_CHARGES


@<TRIPOS>ATOM
      1 ****        -3.6491   0.7754   3.3634 C.3            1 S1                 0.0000
      2 ****        -2.9015  -0.0524   2.4811 O.3            1 S1                 0.0000
      3 ****        -1.4750  -0.0585   2.6329 C.3            1 S1                 0.0000
      4 ****        -1.0880  -0.4565   4.0628 C.3            1 S1                 0.0000
      5 ****        -0.8680   1.2150   2.0125 C.3            1 S1                 0.0000
      6 ****        -0.9322   0.4988   0.6650 C.3            1 S1                 0.0000
      7 ****         0.2152   0.7930  -0.1877 N.am           1 S1                 0.0000
      8 ****         0.3537   0.3496  -1.4449 C.2            1 S1                 0.0000
      9 ****        -0.4791  -0.3627  -2.0065 O.2            1 S1                 0.0000
     10 ****         1.5045   0.7807  -1.9917 N.am           1 S1                 0.0000
     11 ****         2.0039   0.5285  -3.2977 C.ar           1 S1                 0.0000
     12 ****         3.2414   1.1441  -3.5946 C.ar           1 S1                 0.0000
     13 ****         3.8211   0.9581  -4.8649 C.ar           1 S1                 0.0000
     14 ****         3.1466   0.1591  -5.8051 C.ar           1 S1                 0.0000
     15 ****         3.6645  -0.0486  -7.0389 F              1 S1                 0.0000
     16 ****         1.9201  -0.4194  -5.4302 C.ar           1 S1                 0.0000
     17 ****         1.3633  -0.2412  -4.2133 N.ar           1 S1                 0.0000
     18 ****        -0.8540  -0.8463   1.4327 C.3            1 S1                 0.0000
     19 ****         0.5522  -1.4314   1.6649 C.3            1 S1                 0.0000
     20 ****        -1.6916  -1.9944   0.8585 C.3            1 S1                 0.0000
     21 ****        -4.6856   0.8061   3.0279 H              1 S1                 0.0000
     22 ****        -3.2791   1.7998   3.3873 H              1 S1                 0.0000
     23 ****        -3.6513   0.3797   4.3788 H              1 S1                 0.0000
     24 ****        -0.0101  -0.5677   4.1746 H              1 S1                 0.0000
     25 ****        -1.5453  -1.4044   4.3471 H              1 S1                 0.0000
     26 ****        -1.3908   0.2947   4.7920 H              1 S1                 0.0000
     27 ****        -1.4787   2.1156   2.0690 H              1 S1                 0.0000
     28 ****         0.1491   1.4106   2.3568 H              1 S1                 0.0000
     29 ****        -1.8966   0.6526   0.1749 H              1 S1                 0.0000
     30 ****         0.9425   1.3735   0.2035 H              1 S1                 0.0000
     31 ****         2.0882   1.3613  -1.4082 H              1 S1                 0.0000
     32 ****         3.7449   1.7550  -2.8596 H              1 S1                 0.0000
     33 ****         4.7652   1.4208  -5.1121 H              1 S1                 0.0000
     34 ****         1.3714  -1.0401  -6.1230 H              1 S1                 0.0000
     35 ****         0.9915  -1.8032   0.7386 H              1 S1                 0.0000
     36 ****         0.5267  -2.2666   2.3656 H              1 S1                 0.0000
     37 ****         1.2441  -0.6934   2.0707 H              1 S1                 0.0000
     38 ****        -1.2161  -2.4398  -0.0157 H              1 S1                 0.0000
     39 ****        -2.6783  -1.6593   0.5382 H              1 S1                 0.0000
     40 ****        -1.8403  -2.7859   1.5936 H              1 S1                 0.0000
     41 ****        -3.1027   0.2450   1.5478 LP             1 S1                 0.0000
     42 ****        -3.2208  -0.9915   2.6079 LP             1 S1                 0.0000
     43 ****        -1.3093  -0.6384  -1.5220 LP             1 S1                 0.0000
     44 ****        -0.3252  -0.6655  -2.9470 LP             1 S1                 0.0000
     45 ****         0.4889  -0.6715  -3.9892 LP             1 S1                 0.0000
@<TRIPOS>BOND
    1    1    2 1     
    2    1   21 1     
    3    1   22 1     
    4    1   23 1     
    5    2    3 1     
    6    3   18 1     
    7    3    4 1     
    8    3    5 1     
    9    4   24 1     
   10    4   25 1     
   11    4   26 1     
   12    5    6 1     
   13    5   27 1     
   14    5   28 1     
   15    6    7 1     
   16    6   18 1     
   17    6   29 1     
   18    7    8 am    
   19    7   30 1     
   20    8    9 2     
   21    8   10 am    
   22   10   11 1     
   23   10   31 1     
   24   11   17 ar    
   25   11   12 ar    
   26   12   13 ar    
   27   12   32 1     
   28   13   14 ar    
   29   13   33 1     
   30   14   15 1     
   31   14   16 ar    
   32   16   17 ar    
   33   16   34 1     
   34   18   19 1     
   35   18   20 1     
   36   19   35 1     
   37   19   36 1     
   38   19   37 1     
   39   20   38 1     
   40   20   39 1     
   41   20   40 1     
   42    2   41 1     
   43    2   42 1     
   44    9   43 1     
   45    9   44 1     
   46   17   45 1     
@<TRIPOS>SUBSTRUCTURE
      1 S1             1
@<TRIPOS>SET
LONE_PAIRS      STATIC     ATOMS    <user>   **** ""
5 41 42 43 44 45
DONOR_HYDROGENS      STATIC     ATOMS    <user>   **** ""
2 30 31
ATOM$BLUE        STATIC     ATOMS    COLORGROUP SYSTEM
5 41 42 43 44 45
ATOM$RED        STATIC     ATOMS    COLORGROUP SYSTEM
2 30 31
