#       Name:                AV-unprocessed.smi:2402
#       Creating user name   scv26
#       Creation time:       Fri Mar 27 13:13:42 2020


#       File generated by GOLD software.
#

@<TRIPOS>MOLECULE
AV-unprocessed.smi:2402
    43    44     1
SMALL
NO_CHARGES


@<TRIPOS>ATOM
      1 ****        -4.5491   3.6118  -0.3978 C.3            1 S1                 0.0000
      2 ****        -3.9090   2.2519  -0.5825 C.ar           1 S1                 0.0000
      3 ****        -4.6933   1.1134  -0.8496 C.ar           1 S1                 0.0000
      4 ****        -4.0370  -0.1227  -1.0107 C.ar           1 S1                 0.0000
      5 ****        -4.8178  -1.3891  -1.2932 C.3            1 S1                 0.0000
      6 ****        -2.6968  -0.2623  -0.9237 N.ar           1 S1                 0.0000
      7 ****        -1.9312   0.8278  -0.6689 C.ar           1 S1                 0.0000
      8 ****        -0.5157   0.7883  -0.5584 N.am           1 S1                 0.0000
      9 ****         0.3019  -0.2663  -0.7250 C.2            1 S1                 0.0000
     10 ****        -0.0566  -1.4083  -1.0148 O.2            1 S1                 0.0000
     11 ****         1.5844   0.0789  -0.5404 N.am           1 S1                 0.0000
     12 ****         2.7174  -0.8307  -0.6711 C.3            1 S1                 0.0000
     13 ****         4.0145  -0.0690  -0.6586 C.2            1 S1                 0.0000
     14 ****         4.8679  -0.5234   0.2566 C.2            1 S1                 0.0000
     15 ****         4.3150  -1.6788   1.0489 C.3            1 S1                 0.0000
     16 ****         4.4239  -1.4504   2.5654 C.3            1 S1                 0.0000
     17 ****         3.9850  -2.5964   3.2636 O.3            1 S1                 0.0000
     18 ****         2.8576  -1.7997   0.5320 C.3            1 S1                 0.0000
     19 ****        -2.5103   2.1043  -0.4906 C.ar           1 S1                 0.0000
     20 ****         2.6547  -1.3818  -1.6108 H              1 S1                 0.0000
     21 ****         4.8850  -2.5652   0.7669 H              1 S1                 0.0000
     22 ****        -5.6373   3.5412  -0.3953 H              1 S1                 0.0000
     23 ****        -4.2520   4.2810  -1.2054 H              1 S1                 0.0000
     24 ****        -4.2344   4.0527   0.5483 H              1 S1                 0.0000
     25 ****        -5.7684   1.1852  -0.9276 H              1 S1                 0.0000
     26 ****        -5.8824  -1.1818  -1.4035 H              1 S1                 0.0000
     27 ****        -4.6922  -2.1003  -0.4763 H              1 S1                 0.0000
     28 ****        -4.4649  -1.8560  -2.2131 H              1 S1                 0.0000
     29 ****        -0.0739   1.6674  -0.3343 H              1 S1                 0.0000
     30 ****         1.7934   1.0371  -0.3011 H              1 S1                 0.0000
     31 ****         4.2123   0.7430  -1.3430 H              1 S1                 0.0000
     32 ****         5.8609  -0.1339   0.4256 H              1 S1                 0.0000
     33 ****         5.4585  -1.2511   2.8468 H              1 S1                 0.0000
     34 ****         3.8324  -0.5880   2.8749 H              1 S1                 0.0000
     35 ****         4.0675  -2.4344   4.1909 H              1 S1                 0.0000
     36 ****         2.1531  -1.5342   1.3219 H              1 S1                 0.0000
     37 ****         2.6259  -2.8247   0.2408 H              1 S1                 0.0000
     38 ****        -1.8894   2.9649  -0.2866 H              1 S1                 0.0000
     39 ****        -2.2732  -1.1599  -1.0458 LP             1 S1                 0.0000
     40 ****        -1.0273  -1.6096  -1.1457 LP             1 S1                 0.0000
     41 ****         0.6231  -2.1344  -1.1192 LP             1 S1                 0.0000
     42 ****         4.5473  -3.3828   3.0076 LP             1 S1                 0.0000
     43 ****         3.0288  -2.7828   3.0379 LP             1 S1                 0.0000
@<TRIPOS>BOND
    1    1    2 1     
    2    1   22 1     
    3    1   23 1     
    4    1   24 1     
    5    2   19 ar    
    6    2    3 ar    
    7    3    4 ar    
    8    3   25 1     
    9    4    5 1     
   10    4    6 ar    
   11    5   26 1     
   12    5   27 1     
   13    5   28 1     
   14    6    7 ar    
   15    7    8 1     
   16    7   19 ar    
   17    8    9 am    
   18    8   29 1     
   19    9   10 2     
   20    9   11 am    
   21   11   12 1     
   22   11   30 1     
   23   12   20 1     
   24   12   18 1     
   25   12   13 1     
   26   13   14 2     
   27   13   31 1     
   28   14   15 1     
   29   14   32 1     
   30   15   21 1     
   31   15   16 1     
   32   15   18 1     
   33   16   17 1     
   34   16   33 1     
   35   16   34 1     
   36   17   35 1     
   37   18   36 1     
   38   18   37 1     
   39   19   38 1     
   40    6   39 1     
   41   10   40 1     
   42   10   41 1     
   43   17   42 1     
   44   17   43 1     
@<TRIPOS>SUBSTRUCTURE
      1 S1             1
@<TRIPOS>SET
LONE_PAIRS      STATIC     ATOMS    <user>   **** ""
5 39 40 41 42 43
DONOR_HYDROGENS      STATIC     ATOMS    <user>   **** ""
3 29 30 35
ATOM$BLUE        STATIC     ATOMS    COLORGROUP SYSTEM
5 39 40 41 42 43
ATOM$RED        STATIC     ATOMS    COLORGROUP SYSTEM
3 29 30 35
