AV-unprocessed.smi:67|AV-procd|sdf|636|dock5
  -GOLD-   2262016533D 1   1.00000     0.00000
 Structure written by MMmdl.
 48 50  0  0  0  0  0  0  0  0  2 V2000
  147.5962  133.2273  150.4238 O   0  0  0  0  0  0  0  0  0  0  0  0
  146.2429  132.9329  150.7112 C   0  0  2  0  0  0  0  0  0  0  0  0
  146.1596  132.3588  152.1468 C   0  0  0  0  0  0  0  0  0  0  0  0
  147.0950  131.2210  152.3513 N   0  3  2  0  0  0  0  0  0  0  0  0
  146.4013  129.9162  152.5086 C   0  0  0  0  0  0  0  0  0  0  0  0
  147.4036  128.7501  152.4999 C   0  0  0  0  0  0  0  0  0  0  0  0
  148.5019  128.9669  153.5614 C   0  0  1  0  0  0  0  0  0  0  0  0
  149.4221  127.8817  153.7031 O   0  0  0  0  0  0  0  0  0  0  0  0
  149.2314  126.6399  153.1272 C   0  0  0  0  0  0  0  0  0  0  0  0
  149.3801  126.3265  151.7529 C   0  0  0  0  0  0  0  0  0  0  0  0
  149.1590  125.0155  151.2902 C   0  0  0  0  0  0  0  0  0  0  0  0
  148.7841  123.9999  152.1876 C   0  0  0  0  0  0  0  0  0  0  0  0
  148.6239  124.2921  153.5575 C   0  0  0  0  0  0  0  0  0  0  0  0
  148.2263  123.1989  154.5385 C   0  0  0  0  0  0  0  0  0  0  0  0
  147.0595  122.6767  154.1630 F   0  0  0  0  0  0  0  0  0  0  0  0
  149.1423  122.2302  154.5643 F   0  0  0  0  0  0  0  0  0  0  0  0
  148.1011  123.6860  155.7735 F   0  0  0  0  0  0  0  0  0  0  0  0
  148.8555  125.6080  154.0130 C   0  0  0  0  0  0  0  0  0  0  0  0
  149.1530  130.3626  153.4712 C   0  0  0  0  0  0  0  0  0  0  0  0
  148.0767  131.4603  153.4416 C   0  0  0  0  0  0  0  0  0  0  0  0
  145.6258  132.0217  149.6444 C   0  0  0  0  0  0  0  0  0  0  0  0
  144.1483  132.3996  149.6909 C   0  0  0  0  0  0  0  0  0  0  0  0
  144.1206  133.8285  149.9819 N   0  0  0  0  0  0  0  0  0  0  0  0
  145.4007  134.2142  150.5764 C   0  0  0  0  0  0  0  0  0  0  0  0
  148.1051  132.4360  150.5157 H   0  0  0  0  0  0  0  0  0  0  0  0
  146.3511  133.1433  152.8811 H   0  0  0  0  0  0  0  0  0  0  0  0
  145.1353  132.0360  152.3397 H   0  0  0  0  0  0  0  0  0  0  0  0
  145.8279  129.9179  153.4370 H   0  0  0  0  0  0  0  0  0  0  0  0
  145.6880  129.7773  151.6948 H   0  0  0  0  0  0  0  0  0  0  0  0
  146.8786  127.8158  152.7007 H   0  0  0  0  0  0  0  0  0  0  0  0
  147.8126  128.6523  151.4978 H   0  0  0  0  0  0  0  0  0  0  0  0
  147.9788  128.9588  154.5188 H   0  0  0  0  0  0  0  0  0  0  0  0
  149.6645  127.0606  151.0199 H   0  0  0  0  0  0  0  0  0  0  0  0
  149.2788  124.7877  150.2412 H   0  0  0  0  0  0  0  0  0  0  0  0
  148.6222  122.9976  151.8193 H   0  0  0  0  0  0  0  0  0  0  0  0
  148.7443  125.8344  155.0634 H   0  0  0  0  0  0  0  0  0  0  0  0
  149.8079  130.5173  154.3294 H   0  0  0  0  0  0  0  0  0  0  0  0
  149.7839  130.4702  152.5929 H   0  0  0  0  0  0  0  0  0  0  0  0
  148.5568  132.4295  153.3041 H   0  0  0  0  0  0  0  0  0  0  0  0
  147.5545  131.5003  154.3988 H   0  0  0  0  0  0  0  0  0  0  0  0
  146.0257  132.2694  148.6595 H   0  0  0  0  0  0  0  0  0  0  0  0
  145.7976  130.9577  149.8086 H   0  0  0  0  0  0  0  0  0  0  0  0
  143.6277  132.1650  148.7622 H   0  0  0  0  0  0  0  0  0  0  0  0
  143.6543  131.8517  150.4939 H   0  0  0  0  0  0  0  0  0  0  0  0
  143.3487  134.0509  150.6028 H   0  0  0  0  0  0  0  0  0  0  0  0
  145.2606  134.7185  151.5328 H   0  0  0  0  0  0  0  0  0  0  0  0
  145.8939  134.9252  149.9122 H   0  0  0  0  0  0  0  0  0  0  0  0
  147.6281  131.1533  151.4957 H   0  0  0  0  0  0  0  0  0  0  0  0
  1  2  1  0  0  0  0
  1 25  1  0  0  0  0
  2 24  1  0  0  0  0
  2  3  1  0  0  0  0
  2 21  1  0  0  0  0
  3  4  1  0  0  0  0
  3 26  1  0  0  0  0
  3 27  1  0  0  0  0
  4 20  1  0  0  0  0
  4  5  1  0  0  0  0
  4 48  1  0  0  0  0
  5  6  1  0  0  0  0
  5 28  1  0  0  0  0
  5 29  1  0  0  0  0
  6  7  1  0  0  0  0
  6 30  1  0  0  0  0
  6 31  1  0  0  0  0
  7  8  1  0  0  0  0
  7 19  1  0  0  0  0
  7 32  1  0  0  0  0
  8  9  1  0  0  0  0
  9 18  1  0  0  0  0
  9 10  2  0  0  0  0
 10 11  1  0  0  0  0
 10 33  1  0  0  0  0
 11 12  2  0  0  0  0
 11 34  1  0  0  0  0
 12 13  1  0  0  0  0
 12 35  1  0  0  0  0
 13 14  1  0  0  0  0
 13 18  2  0  0  0  0
 14 15  1  0  0  0  0
 14 16  1  0  0  0  0
 14 17  1  0  0  0  0
 18 36  1  0  0  0  0
 19 20  1  0  0  0  0
 19 37  1  0  0  0  0
 19 38  1  0  0  0  0
 20 39  1  0  0  0  0
 20 40  1  0  0  0  0
 21 22  1  0  0  0  0
 21 41  1  0  0  0  0
 21 42  1  0  0  0  0
 22 23  1  0  0  0  0
 22 43  1  0  0  0  0
 22 44  1  0  0  0  0
 23 24  1  0  0  0  0
 23 45  1  0  0  0  0
 24 46  1  0  0  0  0
 24 47  1  0  0  0  0
M  CHG  1   4   1
M  END
> <s_m_source_file>
AV-unprocessed.smi

> <i_m_source_file_index>
67

> <i_lp_mmshare_version>
43012

> <i_f3d_flags>
0

> <s_epik_input>
W0NIMl0xW05IXVtDSDJdW0NIMl1bQ0BAXTEoW09IXSlbQ0gyXU4yW0NIMl1bQ0gyXVtDSF0oW0NIMl1bQ0gyXTIpT2MzW2NIXVtjSF1bY0hdYyhDKEYpKEYpRilbY0hdMw==

> <s_epik_cmdline>
J2VwaWtfcHl0aG9uJywgJy1waCcsICc3LjAnLCAnLXRuJywgJzgnLCAnLW1hJywgJzIwMCcsICctbWV0YWxfYmluZGluZycsICctaW1hZScsICc8aW5maWxlLm1hZT4nLCAnLW9tYWUnLCAnPG91dGZpbGUubWFlPic=

> <r_epik_Ionization_Penalty>
2.37709

> <r_epik_Ionization_Penalty_Charging>
0.0305656

> <r_epik_Ionization_Penalty_Neutral>
2.34653

> <r_epik_State_Penalty>
2.56959

> <r_epik_Charging_Adjusted_Penalty>
2.60016

> <i_epik_Tot_Q>
1

> <i_epik_Tot_abs_Q>
1

> <r_epik_Metal_State_Penalty>
2.56925

> <b_epik_Metal_Only>
0

> <s_lp_Force_Field>
OPLS_2005

> <r_lp_Energy>
55.6007

> <b_lp_Chiralities_Consistent>
1

> <s_lp_Variant>
AV-unprocessed.smi:67-8

> <Gold.Version>
5.8.1

> <Gold.Id.Protein>
6NUR|6NUR_protein|mol2

> <Gold.PLP.Fitness>
48.6459

> <Gold.PLP.PLP>
-45.3701

> <Gold.PLP.part.hbond>
-2.3313

> <Gold.PLP.part.metal>
0.0000

> <Gold.PLP.part.buried>
-5.5951

> <Gold.PLP.part.nonpolar>
-36.3899

> <Gold.PLP.part.repulsive>
0.1135

> <Gold.PLP.ligand.clash>
1.3222

> <Gold.PLP.ligand.torsion>
1.5555

> <Gold.PLP.Chemscore.Hbond>
2.0000

> <Gold.PLP.Chemscore.CHOScore>
0.0000

> <Gold.PLP.Chemscore.Metal>
0.0000

> <Gold.Chemscore.Hbonds>
donor molecule, donor type, donor heavy atom, donor atom, acceptor molecule, acceptor atom, score
      L1  H     1    25       P1 10747  1.00
      L1  H     4    48       P1 10747  1.00

> <Gold.PLP.Chemscore.Internal.Correction>
1.7090

> <Gold.Rescore>
     Score         DG    S(hbond)    S(metal)    S(lipo)     H(rot)  DE(clash)    DE(int)     intcor
     18.71     -20.41       2.00        0.00     118.12       2.17       0.16       1.54       ----

> <Gold.Chemscore.Fitness>
18.7075

> <Gold.Chemscore.DG>
-20.4066

> <Gold.Chemscore.ZeroCoef>
-5.4800

> <Gold.Chemscore.Hbond>
1.9973

> <Gold.Chemscore.Metal>
0.0000

> <Gold.Chemscore.Lipo>
118.1165

> <Gold.Chemscore.Internal_Hbond>
0.0000

> <Gold.Chemscore.DEClash>
0.1638

> <Gold.Chemscore.DEInternal>
1.5354

> <Gold.Chemscore.Rot>
2.1734

> <Gold.Chemscore.Internal.Correction>
   9.000000E+99

> <Gold.Chemscore.Hbonds>
donor molecule, donor type, donor heavy atom, donor atom, acceptor molecule, acceptor atom, score
      L1  H     1    25       P1 10747  1.00
      L1  H     4    48       P1 10747  1.00

> <Gold.Chemscore.Hbond.Weighted>
-6.6710

> <Gold.Chemscore.Metal.Weighted>
-0.0000

> <Gold.Chemscore.Lipo.Weighted>
-13.8196

> <Gold.Chemscore.Internal_Hbond.Weighted>
0.0000

> <Gold.Chemscore.DEClash.Weighted>
0.1638

> <Gold.Chemscore.DEInternal.Weighted>
1.5354

> <Gold.Chemscore.Rot.Weighted>
5.5640

> <Gold.Chemscore.Internal.Correction.Weighted>
   9.000000E+99

> <Gold.Protein.RotatedTorsions>
[ 6907 6896 6895 6894 ] final   21.55 input  -60.11 | X-H torsion
[ 7974 7965 7964 7962 ] final  138.89 input  175.53 | X-H torsion
[ 8008 7997 7996 7995 ] final  -23.99 input   59.86 | X-H torsion
[ 10167 10162 10161 10158 ] final  170.99 input  -65.29 | X-H torsion
[ 10718 10713 10712 10709 ] final  -45.00 input   66.30 | X-H torsion
[ 10763 10752 10751 10750 ] final -147.97 input  -60.55 | X-H torsion
[ 11005 11000 10999 10996 ] final   45.14 input  -57.11 | X-H torsion

> <Gold.Protein.ActiveResidues>
 VAL166  LYS551  ARG553  GLY616  TRP617  ASP618  TYR619  PRO620  LYS621  CYS622 
 ASP623  PHE694  ASN695  SER759  ASP760  ASP761  ALA762  ILE779  LEU786  VAL792 
 PHE793  MET794  SER795  GLU796  ALA797  LYS798  CYS799  TRP800  GLU811  SER814 

> <Gold.Protein.RotatedAtoms>
  151.9135  135.0329  160.0516 H   0  0  0  0  0  0  0  0  0  0  0  0  # atno 6907 bound_to 6896
  152.2259  133.5016  159.5197 H   0  0  0  0  0  0  0  0  0  0  0  0  # atno 6908 bound_to 6896
  150.7012  134.1197  159.4073 H   0  0  0  0  0  0  0  0  0  0  0  0  # atno 6909 bound_to 6896
  144.9330  139.5024  143.5609 H   0  0  0  0  0  0  0  0  0  0  0  0  # atno 7974 bound_to 7965
  154.4554  140.1966  156.0395 H   0  0  0  0  0  0  0  0  0  0  0  0  # atno 8008 bound_to 7997
  156.0735  140.3281  155.7577 H   0  0  0  0  0  0  0  0  0  0  0  0  # atno 8009 bound_to 7997
  155.5226  140.0571  157.2895 H   0  0  0  0  0  0  0  0  0  0  0  0  # atno 8010 bound_to 7997
  139.5034  144.3535  151.9898 H   0  0  0  0  0  0  0  0  0  0  0  0  # atno 10167 bound_to 10162
  156.2328  130.4174  149.8854 H   0  0  0  0  0  0  0  0  0  0  0  0  # atno 10718 bound_to 10713
  154.8258  135.3346  154.6901 H   0  0  0  0  0  0  0  0  0  0  0  0  # atno 10763 bound_to 10752
  153.7527  135.6938  153.4946 H   0  0  0  0  0  0  0  0  0  0  0  0  # atno 10764 bound_to 10752
  153.2165  135.4464  155.0390 H   0  0  0  0  0  0  0  0  0  0  0  0  # atno 10765 bound_to 10752
  140.1487  134.4490  155.8397 H   0  0  0  0  0  0  0  0  0  0  0  0  # atno 11005 bound_to 11000
  146.3255  139.8294  142.8911 LP  0  0  0  0  0  0  0  0  0  0  0  0  # atno 17320 bound_to 7965
  145.3112  141.0220  143.3553 LP  0  0  0  0  0  0  0  0  0  0  0  0  # atno 17321 bound_to 7965
  140.2972  144.3687  150.6071 LP  0  0  0  0  0  0  0  0  0  0  0  0  # atno 17342 bound_to 10162
  140.5901  143.2168  151.7268 LP  0  0  0  0  0  0  0  0  0  0  0  0  # atno 17343 bound_to 10162
  156.6462  130.8725  151.3523 LP  0  0  0  0  0  0  0  0  0  0  0  0  # atno 17370 bound_to 10713
  157.7141  130.9475  150.1191 LP  0  0  0  0  0  0  0  0  0  0  0  0  # atno 17371 bound_to 10713
  141.2196  133.6863  156.7381 LP  0  0  0  0  0  0  0  0  0  0  0  0  # atno 17394 bound_to 11000
  140.2632  134.8450  157.3778 LP  0  0  0  0  0  0  0  0  0  0  0  0  # atno 17395 bound_to 11000

$$$$
