AV-unprocessed.smi:967|AV-procd|sdf|4287|dock9
  -GOLD-   22720 2193D 1   1.00000     0.00000
 Structure written by MMmdl.
 42 43  0  0  0  0  0  0  0  0  1 V2000
  151.9594  139.7973  154.7603 C   0  0  0  0  0  0  0  0  0  0  0  0
  151.0358  140.9141  154.6326 N   0  0  0  0  0  0  0  0  0  0  0  0
  150.9950  141.8480  155.7471 C   0  0  0  0  0  0  0  0  0  0  0  0
  149.7603  140.5266  154.2020 C   0  0  0  0  0  0  0  0  0  0  0  0
  148.7007  141.4576  154.1099 C   0  0  0  0  0  0  0  0  0  0  0  0
  147.4407  141.0098  153.6687 C   0  0  0  0  0  0  0  0  0  0  0  0
  147.2818  139.6458  153.3265 C   0  0  0  0  0  0  0  0  0  0  0  0
  146.0590  139.0674  152.8919 N   0  0  0  0  0  0  0  0  0  0  0  0
  145.8381  137.8237  152.4332 C   0  0  0  0  0  0  0  0  0  0  0  0
  146.6886  136.9389  152.3404 O   0  0  0  0  0  0  0  0  0  0  0  0
  144.5491  137.6564  152.1041 N   0  0  0  0  0  0  0  0  0  0  0  0
  143.9441  136.4286  151.5949 C   0  0  2  0  0  0  0  0  0  0  0  0
  143.7544  135.4267  152.7503 C   0  0  0  0  0  0  0  0  0  0  0  0
  143.2125  134.0795  152.2458 C   0  0  0  0  0  0  0  0  0  0  0  0
  144.1205  133.4932  151.1515 C   0  0  1  0  0  0  0  0  0  0  0  0
  143.5617  132.2900  150.6682 O   0  0  0  0  0  0  0  0  0  0  0  0
  144.2937  134.4846  149.9882 C   0  0  0  0  0  0  0  0  0  0  0  0
  144.8352  135.8339  150.4870 C   0  0  0  0  0  0  0  0  0  0  0  0
  148.4005  138.7991  153.4675 C   0  0  0  0  0  0  0  0  0  0  0  0
  149.6114  139.2219  153.8874 N   0  0  0  0  0  0  0  0  0  0  0  0
  151.9285  139.1655  153.8718 H   0  0  0  0  0  0  0  0  0  0  0  0
  151.7165  139.1842  155.6289 H   0  0  0  0  0  0  0  0  0  0  0  0
  152.9792  140.1645  154.8764 H   0  0  0  0  0  0  0  0  0  0  0  0
  150.2759  142.6464  155.5597 H   0  0  0  0  0  0  0  0  0  0  0  0
  151.9744  142.3048  155.8904 H   0  0  0  0  0  0  0  0  0  0  0  0
  150.7153  141.3417  156.6715 H   0  0  0  0  0  0  0  0  0  0  0  0
  148.8454  142.4947  154.3752 H   0  0  0  0  0  0  0  0  0  0  0  0
  146.6247  141.7137  153.6171 H   0  0  0  0  0  0  0  0  0  0  0  0
  145.2438  139.6542  152.9931 H   0  0  0  0  0  0  0  0  0  0  0  0
  143.9291  138.4439  152.2239 H   0  0  0  0  0  0  0  0  0  0  0  0
  142.9621  136.6373  151.1663 H   0  0  0  0  0  0  0  0  0  0  0  0
  144.7057  135.2631  153.2591 H   0  0  0  0  0  0  0  0  0  0  0  0
  143.0732  135.8400  153.4953 H   0  0  0  0  0  0  0  0  0  0  0  0
  143.1291  133.3806  153.0789 H   0  0  0  0  0  0  0  0  0  0  0  0
  142.2032  134.2195  151.8559 H   0  0  0  0  0  0  0  0  0  0  0  0
  145.0976  133.2618  151.5778 H   0  0  0  0  0  0  0  0  0  0  0  0
  142.9611  132.4972  149.9686 H   0  0  0  0  0  0  0  0  0  0  0  0
  144.9705  134.0705  149.2398 H   0  0  0  0  0  0  0  0  0  0  0  0
  143.3367  134.6423  149.4884 H   0  0  0  0  0  0  0  0  0  0  0  0
  144.9077  136.5314  149.6517 H   0  0  0  0  0  0  0  0  0  0  0  0
  145.8499  135.6959  150.8632 H   0  0  0  0  0  0  0  0  0  0  0  0
  148.3250  137.7476  153.2315 H   0  0  0  0  0  0  0  0  0  0  0  0
  1  2  1  0  0  0  0
  1 21  1  0  0  0  0
  1 22  1  0  0  0  0
  1 23  1  0  0  0  0
  2  3  1  0  0  0  0
  2  4  1  0  0  0  0
  3 24  1  0  0  0  0
  3 25  1  0  0  0  0
  3 26  1  0  0  0  0
  4 20  1  0  0  0  0
  4  5  2  0  0  0  0
  5  6  1  0  0  0  0
  5 27  1  0  0  0  0
  6  7  2  0  0  0  0
  6 28  1  0  0  0  0
  7  8  1  0  0  0  0
  7 19  1  0  0  0  0
  8  9  1  0  0  0  0
  8 29  1  0  0  0  0
  9 10  2  0  0  0  0
  9 11  1  0  0  0  0
 11 12  1  0  0  0  0
 11 30  1  0  0  0  0
 12 18  1  0  0  0  0
 12 13  1  0  0  0  0
 12 31  1  0  0  0  0
 13 14  1  0  0  0  0
 13 32  1  0  0  0  0
 13 33  1  0  0  0  0
 14 15  1  0  0  0  0
 14 34  1  0  0  0  0
 14 35  1  0  0  0  0
 15 16  1  0  0  0  0
 15 17  1  0  0  0  0
 15 36  1  0  0  0  0
 16 37  1  0  0  0  0
 17 18  1  0  0  0  0
 17 38  1  0  0  0  0
 17 39  1  0  0  0  0
 18 40  1  0  0  0  0
 18 41  1  0  0  0  0
 19 20  2  0  0  0  0
 19 42  1  0  0  0  0
M  END
> <s_m_source_file>
AV-unprocessed.smi

> <i_m_source_file_index>
967

> <i_lp_mmshare_version>
43012

> <i_f3d_flags>
0

> <s_epik_input>
W0NIM11OKFtDSDNdKWMxW2NIXVtjSF1jKFtjSF1uMSlbTkhdQyg9TylbTkhdW0NAQEhdMltDSDJdW0NIMl1bQ0BASF0oW09IXSlbQ0gyXVtDSDJdMg==

> <s_epik_cmdline>
J2VwaWtfcHl0aG9uJywgJy1waCcsICc3LjAnLCAnLXRuJywgJzgnLCAnLW1hJywgJzIwMCcsICctbWV0YWxfYmluZGluZycsICctaW1hZScsICc8aW5maWxlLm1hZT4nLCAnLW9tYWUnLCAnPG91dGZpbGUubWFlPic=

> <r_lp_tautomer_probability>
1

> <r_epik_Ionization_Penalty>
0.629464

> <r_epik_Ionization_Penalty_Charging>
0

> <r_epik_Ionization_Penalty_Neutral>
0.629464

> <r_epik_State_Penalty>
0.645019

> <r_epik_Charging_Adjusted_Penalty>
0.645019

> <i_epik_Tot_Q>
0

> <i_epik_Tot_abs_Q>
0

> <r_epik_Metal_State_Penalty>
0.308581

> <b_epik_Metal_Only>
0

> <s_lp_Force_Field>
OPLS_2005

> <r_lp_Energy>
16.3049

> <b_lp_Chiralities_Consistent>
1

> <s_lp_Variant>
AV-unprocessed.smi:967-3

> <Gold.Version>
5.8.1

> <Gold.Id.Protein>
6NUR|6NUR_protein|mol2

> <Gold.PLP.Fitness>
42.7810

> <Gold.PLP.PLP>
-33.7855

> <Gold.PLP.part.hbond>
-3.9417

> <Gold.PLP.part.metal>
0.0000

> <Gold.PLP.part.buried>
-1.4798

> <Gold.PLP.part.nonpolar>
-31.6311

> <Gold.PLP.part.repulsive>
3.8833

> <Gold.PLP.ligand.clash>
0.0000

> <Gold.PLP.ligand.torsion>
0.4856

> <Gold.PLP.Chemscore.Hbond>
2.2746

> <Gold.PLP.Chemscore.CHOScore>
0.9767

> <Gold.PLP.Chemscore.Metal>
0.0000

> <Gold.Chemscore.Hbonds>
donor molecule, donor type, donor heavy atom, donor atom, acceptor molecule, acceptor atom, score
      L1  H     8    29       P1 10175  1.00
      L1  H    11    30       P1 10175  1.00
      L1  C    19    42       P1  7948  1.00

> <Gold.PLP.Chemscore.Internal.Correction>
0.2127

> <Gold.Rescore>
     Score         DG    S(hbond)    S(metal)    S(lipo)     H(rot)  DE(clash)    DE(int)     intcor
     11.18     -15.67       1.77        0.00      73.97       1.71       1.78       2.71       ----

> <Gold.Chemscore.Fitness>
11.1794

> <Gold.Chemscore.DG>
-15.6730

> <Gold.Chemscore.ZeroCoef>
-5.4800

> <Gold.Chemscore.Hbond>
1.7700

> <Gold.Chemscore.Metal>
0.0000

> <Gold.Chemscore.Lipo>
73.9711

> <Gold.Chemscore.Internal_Hbond>
0.0000

> <Gold.Chemscore.DEClash>
1.7795

> <Gold.Chemscore.DEInternal>
2.7141

> <Gold.Chemscore.Rot>
1.7084

> <Gold.Chemscore.Internal.Correction>
   9.000000E+99

> <Gold.Chemscore.Hbonds>
donor molecule, donor type, donor heavy atom, donor atom, acceptor molecule, acceptor atom, score
      L1  H     8    29       P1 10175  0.99
      L1  H    11    30       P1 10175  0.89

> <Gold.Chemscore.Hbond.Weighted>
-5.9119

> <Gold.Chemscore.Metal.Weighted>
-0.0000

> <Gold.Chemscore.Lipo.Weighted>
-8.6546

> <Gold.Chemscore.Internal_Hbond.Weighted>
0.0000

> <Gold.Chemscore.DEClash.Weighted>
1.7795

> <Gold.Chemscore.DEInternal.Weighted>
2.7141

> <Gold.Chemscore.Rot.Weighted>
4.3735

> <Gold.Chemscore.Internal.Correction.Weighted>
   9.000000E+99

> <Gold.Protein.RotatedTorsions>
[ 6907 6896 6895 6894 ] final   83.75 input  -60.11 | X-H torsion
[ 7974 7965 7964 7962 ] final -113.92 input  175.53 | X-H torsion
[ 8008 7997 7996 7995 ] final   18.55 input   59.86 | X-H torsion
[ 10167 10162 10161 10158 ] final  -92.91 input  -65.29 | X-H torsion
[ 10718 10713 10712 10709 ] final  -18.69 input   66.30 | X-H torsion
[ 10763 10752 10751 10750 ] final  -15.91 input  -60.55 | X-H torsion
[ 11005 11000 10999 10996 ] final -133.04 input  -57.11 | X-H torsion

> <Gold.Protein.ActiveResidues>
 VAL166  LYS551  ARG553  GLY616  TRP617  ASP618  TYR619  PRO620  LYS621  CYS622 
 ASP623  PHE694  ASN695  SER759  ASP760  ASP761  ALA762  ILE779  LEU786  VAL792 
 PHE793  MET794  SER795  GLU796  ALA797  LYS798  CYS799  TRP800  GLU811  SER814 

> <Gold.Protein.RotatedAtoms>
  152.5335  134.2846  159.9020 H   0  0  0  0  0  0  0  0  0  0  0  0  # atno 6907 bound_to 6896
  151.2800  133.4208  159.2634 H   0  0  0  0  0  0  0  0  0  0  0  0  # atno 6908 bound_to 6896
  151.0292  134.9542  159.8158 H   0  0  0  0  0  0  0  0  0  0  0  0  # atno 6909 bound_to 6896
  145.1263  140.8699  143.3784 H   0  0  0  0  0  0  0  0  0  0  0  0  # atno 7974 bound_to 7965
  154.9077  140.3009  155.5283 H   0  0  0  0  0  0  0  0  0  0  0  0  # atno 8008 bound_to 7997
  156.3016  140.2395  156.4048 H   0  0  0  0  0  0  0  0  0  0  0  0  # atno 8009 bound_to 7997
  154.8457  140.0411  157.1560 H   0  0  0  0  0  0  0  0  0  0  0  0  # atno 8010 bound_to 7997
  140.3300  143.3000  151.9952 H   0  0  0  0  0  0  0  0  0  0  0  0  # atno 10167 bound_to 10162
  156.5561  130.4714  149.6429 H   0  0  0  0  0  0  0  0  0  0  0  0  # atno 10718 bound_to 10713
  153.5505  135.7011  153.5593 H   0  0  0  0  0  0  0  0  0  0  0  0  # atno 10763 bound_to 10752
  153.3520  135.3993  155.1653 H   0  0  0  0  0  0  0  0  0  0  0  0  # atno 10764 bound_to 10752
  154.8662  135.3767  154.5016 H   0  0  0  0  0  0  0  0  0  0  0  0  # atno 10765 bound_to 10752
  140.9116  134.1561  157.4385 H   0  0  0  0  0  0  0  0  0  0  0  0  # atno 11005 bound_to 11000
  145.0684  139.3050  143.5844 LP  0  0  0  0  0  0  0  0  0  0  0  0  # atno 17320 bound_to 7965
  146.3517  140.0150  142.8663 LP  0  0  0  0  0  0  0  0  0  0  0  0  # atno 17321 bound_to 7965
  139.4858  144.6242  151.7196 LP  0  0  0  0  0  0  0  0  0  0  0  0  # atno 17342 bound_to 10162
  140.5405  144.0586  150.6087 LP  0  0  0  0  0  0  0  0  0  0  0  0  # atno 17343 bound_to 10162
  156.2841  130.7087  151.1919 LP  0  0  0  0  0  0  0  0  0  0  0  0  # atno 17370 bound_to 10713
  157.7378  131.0548  150.5334 LP  0  0  0  0  0  0  0  0  0  0  0  0  # atno 17371 bound_to 10713
  139.8758  134.9938  156.5661 LP  0  0  0  0  0  0  0  0  0  0  0  0  # atno 17394 bound_to 11000
  140.8103  133.8434  155.8804 LP  0  0  0  0  0  0  0  0  0  0  0  0  # atno 17395 bound_to 11000

$$$$
