#       Name:                AV-unprocessed.smi:1984
#       Creating user name   scv26
#       Creation time:       Fri Mar 27 10:23:37 2020


#       File generated by GOLD software.
#

@<TRIPOS>MOLECULE
AV-unprocessed.smi:1984
    41    42     1
SMALL
NO_CHARGES


@<TRIPOS>ATOM
      1 ****        -3.5197   0.2319  -1.8960 C.3            1 S1                 0.0000
      2 ****        -2.2765  -0.6078  -1.9044 C.2            1 S1                 0.0000
      3 ****        -2.1160  -1.9485  -1.4565 C.2            1 S1                 0.0000
      4 ****        -0.7944  -2.2210  -1.6715 C.2            1 S1                 0.0000
      5 ****        -0.0129  -3.4636  -1.3968 C.3            1 S1                 0.0000
      6 ****        -0.2326  -1.0808  -2.2191 N.pl3          1 S1                 0.0000
      7 ****         1.1498  -0.8263  -2.6039 C.3            1 S1                 0.0000
      8 ****         1.8705   0.0159  -1.5480 C.2            1 S1                 0.0000
      9 ****         2.3705   1.0970  -1.8570 O.2            1 S1                 0.0000
     10 ****         1.8881  -0.4758  -0.2992 N.am           1 S1                 0.0000
     11 ****         2.3180   0.2584   0.8840 C.3            1 S1                 0.0000
     12 ****         1.2445   1.2697   1.3349 C.3            1 S1                 0.0000
     13 ****         1.6397   2.0281   2.6160 C.3            1 S1                 0.0000
     14 ****         0.4142   2.7977   3.1190 C.3            1 S1                 0.0000
     15 ****        -1.0264   1.7369   2.7268 S.o2           1 S1                 0.0000
     16 ****        -1.4064   0.9671   3.9210 O.2            1 S1                 0.0000
     17 ****        -2.0212   2.5288   1.9877 O.2            1 S1                 0.0000
     18 ****        -0.1369   0.6307   1.5683 C.3            1 S1                 0.0000
     19 ****        -1.1473  -0.0964  -2.3652 N.2            1 S1                 0.0000
     20 ****        -4.4069  -0.3803  -1.7331 H              1 S1                 0.0000
     21 ****        -3.6501   0.7577  -2.8424 H              1 S1                 0.0000
     22 ****        -3.4804   0.9778  -1.1019 H              1 S1                 0.0000
     23 ****        -2.8591  -2.6092  -1.0351 H              1 S1                 0.0000
     24 ****        -0.6270  -4.2044  -0.8844 H              1 S1                 0.0000
     25 ****         0.8504  -3.2519  -0.7660 H              1 S1                 0.0000
     26 ****         0.3444  -3.9091  -2.3253 H              1 S1                 0.0000
     27 ****         1.6750  -1.7712  -2.7435 H              1 S1                 0.0000
     28 ****         1.1597  -0.3108  -3.5655 H              1 S1                 0.0000
     29 ****         1.4681  -1.3807  -0.1436 H              1 S1                 0.0000
     30 ****         2.5070  -0.4650   1.6776 H              1 S1                 0.0000
     31 ****         3.2659   0.7632   0.6905 H              1 S1                 0.0000
     32 ****         1.1240   2.0198   0.5515 H              1 S1                 0.0000
     33 ****         1.9449   1.3112   3.3792 H              1 S1                 0.0000
     34 ****         2.4860   2.6946   2.4473 H              1 S1                 0.0000
     35 ****         0.4487   3.0120   4.1871 H              1 S1                 0.0000
     36 ****         0.2991   3.7364   2.5764 H              1 S1                 0.0000
     37 ****        -0.7103   0.5142   0.6480 H              1 S1                 0.0000
     38 ****        -0.0452  -0.3456   2.0447 H              1 S1                 0.0000
     39 ****         2.3064   1.4265  -2.7990 LP             1 S1                 0.0000
     40 ****         2.8410   1.6460  -1.1662 LP             1 S1                 0.0000
     41 ****        -1.0018   0.8192  -2.7401 LP             1 S1                 0.0000
@<TRIPOS>BOND
    1    1    2 1     
    2    1   20 1     
    3    1   21 1     
    4    1   22 1     
    5    2   19 2     
    6    2    3 1     
    7    3    4 2     
    8    3   23 1     
    9    4    5 1     
   10    4    6 1     
   11    5   24 1     
   12    5   25 1     
   13    5   26 1     
   14    6    7 1     
   15    6   19 1     
   16    7    8 1     
   17    7   27 1     
   18    7   28 1     
   19    8    9 2     
   20    8   10 am    
   21   10   11 1     
   22   10   29 1     
   23   11   12 1     
   24   11   30 1     
   25   11   31 1     
   26   12   18 1     
   27   12   13 1     
   28   12   32 1     
   29   13   14 1     
   30   13   33 1     
   31   13   34 1     
   32   14   15 1     
   33   14   35 1     
   34   14   36 1     
   35   15   16 2     
   36   15   17 2     
   37   15   18 1     
   38   18   37 1     
   39   18   38 1     
   40    9   39 1     
   41    9   40 1     
   42   19   41 1     
@<TRIPOS>SUBSTRUCTURE
      1 S1             1
@<TRIPOS>SET
LONE_PAIRS      STATIC     ATOMS    <user>   **** ""
5 39 40 16 17 41
DONOR_HYDROGENS      STATIC     ATOMS    <user>   **** ""
1 29
ATOM$BLUE        STATIC     ATOMS    COLORGROUP SYSTEM
5 39 40 16 17 41
ATOM$RED        STATIC     ATOMS    COLORGROUP SYSTEM
1 29
