AV-unprocessed.smi:1268|AV-procd|sdf|5323|dock6
  -GOLD-   22720 4453D 1   1.00000     0.00000
 Structure written by MMmdl.
 40 41  0  0  0  0  0  0  0  0  2 V2000
  146.8137  140.1063  153.7660 O   0  0  0  0  0  0  0  0  0  0  0  0
  147.6754  139.3241  153.3642 C   0  0  0  0  0  0  0  0  0  0  0  0
  147.4321  138.3569  152.4683 N   0  0  0  0  0  0  0  0  0  0  0  0
  146.1307  138.0745  151.8713 C   0  0  0  0  0  0  0  0  0  0  0  0
  145.6495  136.6392  152.1727 C   0  0  2  0  0  0  0  0  0  0  0  0
  146.5493  136.0497  153.0911 O   0  0  0  0  0  0  0  0  0  0  0  0
  145.6619  135.7611  150.9039 C   0  0  0  0  0  0  0  0  0  0  0  0
  145.1407  134.3905  151.1465 N   0  3  0  0  0  0  0  0  0  0  0  0
  146.2046  133.4588  151.6044 C   0  0  0  0  0  0  0  0  0  0  0  0
  145.6216  132.0869  151.9829 C   0  0  0  0  0  0  0  0  0  0  0  0
  144.8362  131.4819  150.8125 C   0  0  0  0  0  0  0  0  0  0  0  0
  143.7626  132.4701  150.3401 C   0  0  0  0  0  0  0  0  0  0  0  0
  144.3833  133.8339  149.9931 C   0  0  0  0  0  0  0  0  0  0  0  0
  148.9627  139.3177  153.7520 N   0  0  0  0  0  0  0  0  0  0  0  0
  149.6013  140.1748  154.6865 C   0  0  0  0  0  0  0  0  0  0  0  0
  150.9076  140.1378  154.9743 N   0  0  0  0  0  0  0  0  0  0  0  0
  151.2619  141.0966  155.9267 C   0  0  0  0  0  0  0  0  0  0  0  0
  150.2049  141.8583  156.3585 C   0  0  0  0  0  0  0  0  0  0  0  0
  148.7134  141.3995  155.5809 S   0  0  0  0  0  0  0  0  0  0  0  0
  148.1981  137.7588  152.1947 H   0  0  0  0  0  0  0  0  0  0  0  0
  145.4408  138.7907  152.3187 H   0  0  0  0  0  0  0  0  0  0  0  0
  146.1286  138.2866  150.8002 H   0  0  0  0  0  0  0  0  0  0  0  0
  144.6513  136.6706  152.6088 H   0  0  0  0  0  0  0  0  0  0  0  0
  147.4250  136.3434  152.8848 H   0  0  0  0  0  0  0  0  0  0  0  0
  145.0806  136.2274  150.1070 H   0  0  0  0  0  0  0  0  0  0  0  0
  146.6877  135.7054  150.5352 H   0  0  0  0  0  0  0  0  0  0  0  0
  146.9540  133.3466  150.8193 H   0  0  0  0  0  0  0  0  0  0  0  0
  146.7141  133.8792  152.4725 H   0  0  0  0  0  0  0  0  0  0  0  0
  146.4227  131.4109  152.2826 H   0  0  0  0  0  0  0  0  0  0  0  0
  144.9663  132.1931  152.8486 H   0  0  0  0  0  0  0  0  0  0  0  0
  145.5155  131.2532  149.9902 H   0  0  0  0  0  0  0  0  0  0  0  0
  144.3777  130.5390  151.1117 H   0  0  0  0  0  0  0  0  0  0  0  0
  143.2410  132.0656  149.4722 H   0  0  0  0  0  0  0  0  0  0  0  0
  143.0114  132.5970  151.1211 H   0  0  0  0  0  0  0  0  0  0  0  0
  143.5875  134.5152  149.6952 H   0  0  0  0  0  0  0  0  0  0  0  0
  145.0488  133.7330  149.1342 H   0  0  0  0  0  0  0  0  0  0  0  0
  149.5536  138.6109  153.3399 H   0  0  0  0  0  0  0  0  0  0  0  0
  152.2928  141.1682  156.2412 H   0  0  0  0  0  0  0  0  0  0  0  0
  150.2134  142.6584  157.0835 H   0  0  0  0  0  0  0  0  0  0  0  0
  144.4909  134.4731  151.9159 H   0  0  0  0  0  0  0  0  0  0  0  0
  1  2  2  0  0  0  0
  2  3  1  0  0  0  0
  2 14  1  0  0  0  0
  3  4  1  0  0  0  0
  3 20  1  0  0  0  0
  4  5  1  0  0  0  0
  4 21  1  0  0  0  0
  4 22  1  0  0  0  0
  5  6  1  0  0  0  0
  5  7  1  0  0  0  0
  5 23  1  0  0  0  0
  6 24  1  0  0  0  0
  7  8  1  0  0  0  0
  7 25  1  0  0  0  0
  7 26  1  0  0  0  0
  8 13  1  0  0  0  0
  8  9  1  0  0  0  0
  8 40  1  0  0  0  0
  9 10  1  0  0  0  0
  9 27  1  0  0  0  0
  9 28  1  0  0  0  0
 10 11  1  0  0  0  0
 10 29  1  0  0  0  0
 10 30  1  0  0  0  0
 11 12  1  0  0  0  0
 11 31  1  0  0  0  0
 11 32  1  0  0  0  0
 12 13  1  0  0  0  0
 12 33  1  0  0  0  0
 12 34  1  0  0  0  0
 13 35  1  0  0  0  0
 13 36  1  0  0  0  0
 14 15  1  0  0  0  0
 14 37  1  0  0  0  0
 15 19  1  0  0  0  0
 15 16  2  0  0  0  0
 16 17  1  0  0  0  0
 17 18  2  0  0  0  0
 17 38  1  0  0  0  0
 18 19  1  0  0  0  0
 18 39  1  0  0  0  0
M  CHG  1   8   1
M  END
> <s_m_source_file>
AV-unprocessed.smi

> <i_m_source_file_index>
1268

> <i_lp_mmshare_version>
43012

> <i_f3d_flags>
0

> <s_epik_input>
czFbY0hdW2NIXW5jMVtOSF1DKD1PKVtOSF1bQ0gyXVtDQEhdKFtPSF0pW0NIMl1OMltDSDJdW0NIMl1bQ0gyXVtDSDJdW0NIMl0y

> <s_epik_cmdline>
J2VwaWtfcHl0aG9uJywgJy1waCcsICc3LjAnLCAnLXRuJywgJzgnLCAnLW1hJywgJzIwMCcsICctbWV0YWxfYmluZGluZycsICctaW1hZScsICc8aW5maWxlLm1hZT4nLCAnLW9tYWUnLCAnPG91dGZpbGUubWFlPic=

> <r_lp_tautomer_probability>
0.999

> <r_epik_Ionization_Penalty>
0.00539631

> <r_epik_Ionization_Penalty_Charging>
0.00525788

> <r_epik_Ionization_Penalty_Neutral>
0.000138432

> <r_epik_State_Penalty>
0.0038355

> <r_epik_Charging_Adjusted_Penalty>
0.00909338

> <i_epik_Tot_Q>
1

> <i_epik_Tot_abs_Q>
1

> <r_epik_Metal_State_Penalty>
0.0500806

> <b_epik_Metal_Only>
0

> <s_lp_Force_Field>
OPLS_2005

> <r_lp_Energy>
16.7111

> <b_lp_Chiralities_Consistent>
1

> <s_lp_Variant>
AV-unprocessed.smi:1268-1

> <Gold.Version>
5.8.1

> <Gold.Id.Protein>
6NUR|6NUR_protein|mol2

> <Gold.PLP.Fitness>
44.2356

> <Gold.PLP.PLP>
-37.0221

> <Gold.PLP.part.hbond>
-5.0000

> <Gold.PLP.part.metal>
0.0000

> <Gold.PLP.part.buried>
-2.2985

> <Gold.PLP.part.nonpolar>
-29.5099

> <Gold.PLP.part.repulsive>
0.3907

> <Gold.PLP.ligand.clash>
0.0000

> <Gold.PLP.ligand.torsion>
1.1226

> <Gold.PLP.Chemscore.Hbond>
3.0000

> <Gold.PLP.Chemscore.CHOScore>
0.1455

> <Gold.PLP.Chemscore.Metal>
0.0000

> <Gold.Chemscore.Hbonds>
donor molecule, donor type, donor heavy atom, donor atom, acceptor molecule, acceptor atom, score
      L1  H     3    20       P1  7948  1.00
      L1  H     6    24       P1  7948  0.99
      P1  H  7989  7998       L1    16  1.00
      L1  C    18    39       P1  8028  0.11

> <Gold.PLP.Chemscore.Internal.Correction>
0.0222

> <Gold.Rescore>
     Score         DG    S(hbond)    S(metal)    S(lipo)     H(rot)  DE(clash)    DE(int)     intcor
     12.54     -16.30       2.45        0.00      78.04       2.54       0.39       3.36       ----

> <Gold.Chemscore.Fitness>
12.5442

> <Gold.Chemscore.DG>
-16.2998

> <Gold.Chemscore.ZeroCoef>
-5.4800

> <Gold.Chemscore.Hbond>
2.4513

> <Gold.Chemscore.Metal>
0.0000

> <Gold.Chemscore.Lipo>
78.0398

> <Gold.Chemscore.Internal_Hbond>
0.0000

> <Gold.Chemscore.DEClash>
0.3946

> <Gold.Chemscore.DEInternal>
3.3611

> <Gold.Chemscore.Rot>
2.5383

> <Gold.Chemscore.Internal.Correction>
   9.000000E+99

> <Gold.Chemscore.Hbonds>
donor molecule, donor type, donor heavy atom, donor atom, acceptor molecule, acceptor atom, score
      L1  H     3    20       P1  7948  0.98
      L1  H     6    24       P1  7948  0.94
      P1  H  7989  7998       L1    16  0.09

> <Gold.Chemscore.Hbond.Weighted>
-8.1872

> <Gold.Chemscore.Metal.Weighted>
-0.0000

> <Gold.Chemscore.Lipo.Weighted>
-9.1307

> <Gold.Chemscore.Internal_Hbond.Weighted>
0.0000

> <Gold.Chemscore.DEClash.Weighted>
0.3946

> <Gold.Chemscore.DEInternal.Weighted>
3.3611

> <Gold.Chemscore.Rot.Weighted>
6.4981

> <Gold.Chemscore.Internal.Correction.Weighted>
   9.000000E+99

> <Gold.Protein.RotatedTorsions>
[ 6907 6896 6895 6894 ] final  139.39 input  -60.11 | X-H torsion
[ 7974 7965 7964 7962 ] final -106.43 input  175.53 | X-H torsion
[ 8008 7997 7996 7995 ] final -174.64 input   59.86 | X-H torsion
[ 10167 10162 10161 10158 ] final   77.72 input  -65.29 | X-H torsion
[ 10718 10713 10712 10709 ] final  -36.39 input   66.30 | X-H torsion
[ 10763 10752 10751 10750 ] final   -4.69 input  -60.55 | X-H torsion
[ 11005 11000 10999 10996 ] final -137.78 input  -57.11 | X-H torsion

> <Gold.Protein.ActiveResidues>
 VAL166  LYS551  ARG553  GLY616  TRP617  ASP618  TYR619  PRO620  LYS621  CYS622 
 ASP623  PHE694  ASN695  SER759  ASP760  ASP761  ALA762  ILE779  LEU786  VAL792 
 PHE793  MET794  SER795  GLU796  ALA797  LYS798  CYS799  TRP800  GLU811  SER814 

> <Gold.Protein.RotatedAtoms>
  152.2554  133.5251  159.5349 H   0  0  0  0  0  0  0  0  0  0  0  0  # atno 6907 bound_to 6896
  150.7107  134.0902  159.3938 H   0  0  0  0  0  0  0  0  0  0  0  0  # atno 6908 bound_to 6896
  151.8821  135.0449  160.0540 H   0  0  0  0  0  0  0  0  0  0  0  0  # atno 6909 bound_to 6896
  145.2180  140.9123  143.3276 H   0  0  0  0  0  0  0  0  0  0  0  0  # atno 7974 bound_to 7965
  155.9727  140.1166  157.0798 H   0  0  0  0  0  0  0  0  0  0  0  0  # atno 8008 bound_to 7997
  154.4161  140.1160  156.5395 H   0  0  0  0  0  0  0  0  0  0  0  0  # atno 8009 bound_to 7997
  155.6575  140.3473  155.4773 H   0  0  0  0  0  0  0  0  0  0  0  0  # atno 8010 bound_to 7997
  139.9786  144.5843  150.7921 H   0  0  0  0  0  0  0  0  0  0  0  0  # atno 10167 bound_to 10162
  156.3274  130.4274  149.7903 H   0  0  0  0  0  0  0  0  0  0  0  0  # atno 10718 bound_to 10713
  153.3883  135.7001  153.6514 H   0  0  0  0  0  0  0  0  0  0  0  0  # atno 10763 bound_to 10752
  153.5097  135.3634  155.2581 H   0  0  0  0  0  0  0  0  0  0  0  0  # atno 10764 bound_to 10752
  154.8700  135.4132  154.3195 H   0  0  0  0  0  0  0  0  0  0  0  0  # atno 10765 bound_to 10752
  140.8679  134.2088  157.4669 H   0  0  0  0  0  0  0  0  0  0  0  0  # atno 11005 bound_to 11000
  144.9793  139.3800  143.6270 LP  0  0  0  0  0  0  0  0  0  0  0  0  # atno 17320 bound_to 7965
  146.3382  139.8926  142.8807 LP  0  0  0  0  0  0  0  0  0  0  0  0  # atno 17321 bound_to 7965
  140.7497  143.2943  151.3246 LP  0  0  0  0  0  0  0  0  0  0  0  0  # atno 17342 bound_to 10162
  139.6427  144.0509  152.2567 LP  0  0  0  0  0  0  0  0  0  0  0  0  # atno 17343 bound_to 10162
  156.5188  130.8206  151.3196 LP  0  0  0  0  0  0  0  0  0  0  0  0  # atno 17370 bound_to 10713
  157.7424  130.9889  150.2513 LP  0  0  0  0  0  0  0  0  0  0  0  0  # atno 17371 bound_to 10713
  139.8710  134.9760  156.4905 LP  0  0  0  0  0  0  0  0  0  0  0  0  # atno 17394 bound_to 11000
  140.8608  133.8061  155.9263 LP  0  0  0  0  0  0  0  0  0  0  0  0  # atno 17395 bound_to 11000

$$$$
