AV-unprocessed.smi:2151|AV-procd|sdf|8758|dock7
  -GOLD-   2272011533D 1   1.00000     0.00000
 Structure written by MMmdl.
 39 40  0  0  0  0  0  0  0  0  1 V2000
  146.0633  142.1559  154.8761 C   0  0  0  0  0  0  0  0  0  0  0  0
  147.1846  141.1513  155.1953 C   0  0  2  0  0  0  0  0  0  0  0  0
  148.4382  141.8671  155.4179 N   0  0  0  0  0  0  0  0  0  0  0  0
  149.6185  141.2983  155.7069 C   0  0  0  0  0  0  0  0  0  0  0  0
  149.7669  140.0829  155.8418 O   0  0  0  0  0  0  0  0  0  0  0  0
  150.7998  142.2617  155.8900 C   0  0  0  0  0  0  0  0  0  0  0  0
  151.4011  142.1977  157.2325 N   0  0  0  0  0  0  0  0  0  0  0  0
  151.2025  143.3076  158.0770 C   0  0  0  0  0  0  0  0  0  0  0  0
  151.7023  143.3774  159.3257 C   0  0  0  0  0  0  0  0  0  0  0  0
  151.4153  144.5592  160.2389 C   0  0  0  0  0  0  0  0  0  0  0  0
  151.9757  144.3865  161.4360 F   0  0  0  0  0  0  0  0  0  0  0  0
  151.9121  145.6743  159.7057 F   0  0  0  0  0  0  0  0  0  0  0  0
  150.1038  144.7296  160.4110 F   0  0  0  0  0  0  0  0  0  0  0  0
  152.4471  142.2226  159.7875 C   0  0  0  0  0  0  0  0  0  0  0  0
  152.6340  141.1470  158.9978 C   0  0  0  0  0  0  0  0  0  0  0  0
  152.0964  141.0926  157.6365 C   0  0  0  0  0  0  0  0  0  0  0  0
  152.2600  140.1152  156.9058 O   0  0  0  0  0  0  0  0  0  0  0  0
  147.3852  140.1243  154.0645 C   0  0  2  0  0  0  0  0  0  0  0  0
  147.2472  140.6918  152.6491 C   0  0  0  0  0  0  0  0  0  0  0  0
  146.7568  139.5117  151.8220 C   0  0  0  0  0  0  0  0  0  0  0  0
  146.4216  138.4396  152.8603 C   0  0  0  0  0  0  0  0  0  0  0  0
  146.3617  139.1409  154.0926 O   0  0  0  0  0  0  0  0  0  0  0  0
  145.1058  141.6526  154.7414 H   0  0  0  0  0  0  0  0  0  0  0  0
  146.2778  142.7132  153.9637 H   0  0  0  0  0  0  0  0  0  0  0  0
  145.9364  142.8772  155.6839 H   0  0  0  0  0  0  0  0  0  0  0  0
  146.9196  140.6090  156.1050 H   0  0  0  0  0  0  0  0  0  0  0  0
  148.4077  142.8720  155.3242 H   0  0  0  0  0  0  0  0  0  0  0  0
  151.5546  142.0570  155.1283 H   0  0  0  0  0  0  0  0  0  0  0  0
  150.4496  143.2729  155.6780 H   0  0  0  0  0  0  0  0  0  0  0  0
  150.6033  144.0967  157.6461 H   0  0  0  0  0  0  0  0  0  0  0  0
  152.8649  142.2204  160.7835 H   0  0  0  0  0  0  0  0  0  0  0  0
  153.1949  140.3046  159.3754 H   0  0  0  0  0  0  0  0  0  0  0  0
  148.3512  139.6259  154.1696 H   0  0  0  0  0  0  0  0  0  0  0  0
  146.4981  141.4847  152.6279 H   0  0  0  0  0  0  0  0  0  0  0  0
  148.1835  141.1070  152.2756 H   0  0  0  0  0  0  0  0  0  0  0  0
  145.8745  139.7920  151.2457 H   0  0  0  0  0  0  0  0  0  0  0  0
  147.5155  139.1570  151.1239 H   0  0  0  0  0  0  0  0  0  0  0  0
  145.4833  137.9268  152.6481 H   0  0  0  0  0  0  0  0  0  0  0  0
  147.2150  137.6926  152.9113 H   0  0  0  0  0  0  0  0  0  0  0  0
  1  2  1  0  0  0  0
  1 23  1  0  0  0  0
  1 24  1  0  0  0  0
  1 25  1  0  0  0  0
  2  3  1  0  0  0  0
  2 18  1  0  0  0  0
  2 26  1  0  0  0  0
  3  4  1  0  0  0  0
  3 27  1  0  0  0  0
  4  5  2  0  0  0  0
  4  6  1  0  0  0  0
  6  7  1  0  0  0  0
  6 28  1  0  0  0  0
  6 29  1  0  0  0  0
  7 16  1  0  0  0  0
  7  8  1  0  0  0  0
  8  9  2  0  0  0  0
  8 30  1  0  0  0  0
  9 10  1  0  0  0  0
  9 14  1  0  0  0  0
 10 11  1  0  0  0  0
 10 12  1  0  0  0  0
 10 13  1  0  0  0  0
 14 15  2  0  0  0  0
 14 31  1  0  0  0  0
 15 16  1  0  0  0  0
 15 32  1  0  0  0  0
 16 17  2  0  0  0  0
 18 22  1  0  0  0  0
 18 19  1  0  0  0  0
 18 33  1  0  0  0  0
 19 20  1  0  0  0  0
 19 34  1  0  0  0  0
 19 35  1  0  0  0  0
 20 21  1  0  0  0  0
 20 36  1  0  0  0  0
 20 37  1  0  0  0  0
 21 22  1  0  0  0  0
 21 38  1  0  0  0  0
 21 39  1  0  0  0  0
M  END
> <s_m_source_file>
AV-unprocessed.smi

> <i_m_source_file_index>
2151

> <i_lp_mmshare_version>
43012

> <i_f3d_flags>
0

> <s_epik_input>
TzFbQ0gyXVtDSDJdW0NIMl1bQ0BIXTFbQ0BIXShbQ0gzXSlbTkhdQyg9TylbQ0gyXW4yW2NIXWMoQyhGKShGKUYpW2NIXVtjSF1jMj1P

> <s_epik_cmdline>
J2VwaWtfcHl0aG9uJywgJy1waCcsICc3LjAnLCAnLXRuJywgJzgnLCAnLW1hJywgJzIwMCcsICctbWV0YWxfYmluZGluZycsICctaW1hZScsICc8aW5maWxlLm1hZT4nLCAnLW9tYWUnLCAnPG91dGZpbGUubWFlPic=

> <r_lp_tautomer_probability>
1

> <r_epik_Ionization_Penalty>
4.20109e-08

> <r_epik_Ionization_Penalty_Charging>
1.89977e-08

> <r_epik_Ionization_Penalty_Neutral>
2.30132e-08

> <r_epik_State_Penalty>
-0

> <r_epik_Charging_Adjusted_Penalty>
1.89977e-08

> <i_epik_Tot_Q>
0

> <i_epik_Tot_abs_Q>
0

> <r_epik_Metal_State_Penalty>
-0

> <b_epik_Metal_Only>
0

> <s_lp_Force_Field>
OPLS_2005

> <r_lp_Energy>
29.9007

> <b_lp_Chiralities_Consistent>
1

> <s_lp_Variant>
AV-unprocessed.smi:2151-1

> <Gold.Version>
5.8.1

> <Gold.Id.Protein>
6NUR|6NUR_protein|mol2

> <Gold.PLP.Fitness>
47.7556

> <Gold.PLP.PLP>
-40.8838

> <Gold.PLP.part.hbond>
-2.0000

> <Gold.PLP.part.metal>
0.0000

> <Gold.PLP.part.buried>
-0.4432

> <Gold.PLP.part.nonpolar>
-37.1343

> <Gold.PLP.part.repulsive>
0.2456

> <Gold.PLP.ligand.clash>
0.0000

> <Gold.PLP.ligand.torsion>
0.4873

> <Gold.PLP.Chemscore.Hbond>
1.9500

> <Gold.PLP.Chemscore.CHOScore>
0.6327

> <Gold.PLP.Chemscore.Metal>
0.0000

> <Gold.Chemscore.Hbonds>
donor molecule, donor type, donor heavy atom, donor atom, acceptor molecule, acceptor atom, score
      L1  H     3    27       P1  8028  1.00
      P1  H  7997  8008       L1    17  0.78
      L1  C     8    30       P1  8028  0.65

> <Gold.PLP.Chemscore.Internal.Correction>
0.0982

> <Gold.Rescore>
     Score         DG    S(hbond)    S(metal)    S(lipo)     H(rot)  DE(clash)    DE(int)     intcor
     14.05     -18.11       1.72        0.00      98.75       1.82       1.51       2.56       ----

> <Gold.Chemscore.Fitness>
14.0466

> <Gold.Chemscore.DG>
-18.1113

> <Gold.Chemscore.ZeroCoef>
-5.4800

> <Gold.Chemscore.Hbond>
1.7199

> <Gold.Chemscore.Metal>
0.0000

> <Gold.Chemscore.Lipo>
98.7456

> <Gold.Chemscore.Internal_Hbond>
0.0000

> <Gold.Chemscore.DEClash>
1.5060

> <Gold.Chemscore.DEInternal>
2.5587

> <Gold.Chemscore.Rot>
1.8228

> <Gold.Chemscore.Internal.Correction>
   9.000000E+99

> <Gold.Chemscore.Hbonds>
donor molecule, donor type, donor heavy atom, donor atom, acceptor molecule, acceptor atom, score
      L1  H     3    27       P1  8028  0.99
      P1  H  7997  8008       L1    17  0.34

> <Gold.Chemscore.Hbond.Weighted>
-5.7446

> <Gold.Chemscore.Metal.Weighted>
-0.0000

> <Gold.Chemscore.Lipo.Weighted>
-11.5532

> <Gold.Chemscore.Internal_Hbond.Weighted>
0.0000

> <Gold.Chemscore.DEClash.Weighted>
1.5060

> <Gold.Chemscore.DEInternal.Weighted>
2.5587

> <Gold.Chemscore.Rot.Weighted>
4.6665

> <Gold.Chemscore.Internal.Correction.Weighted>
   9.000000E+99

> <Gold.Protein.RotatedTorsions>
[ 6907 6896 6895 6894 ] final  -43.65 input  -60.11 | X-H torsion
[ 7974 7965 7964 7962 ] final   93.87 input  175.53 | X-H torsion
[ 8008 7997 7996 7995 ] final  -51.29 input   59.86 | X-H torsion
[ 10167 10162 10161 10158 ] final  -17.71 input  -65.29 | X-H torsion
[ 10718 10713 10712 10709 ] final  113.90 input   66.30 | X-H torsion
[ 10763 10752 10751 10750 ] final  -63.49 input  -60.55 | X-H torsion
[ 11005 11000 10999 10996 ] final   69.47 input  -57.11 | X-H torsion

> <Gold.Protein.ActiveResidues>
 VAL166  LYS551  ARG553  GLY616  TRP617  ASP618  TYR619  PRO620  LYS621  CYS622 
 ASP623  PHE694  ASN695  SER759  ASP760  ASP761  ALA762  ILE779  LEU786  VAL792 
 PHE793  MET794  SER795  GLU796  ALA797  LYS798  CYS799  TRP800  GLU811  SER814 

> <Gold.Protein.RotatedAtoms>
  150.9415  134.8824  159.7615 H   0  0  0  0  0  0  0  0  0  0  0  0  # atno 6907 bound_to 6896
  152.5082  134.3934  159.9402 H   0  0  0  0  0  0  0  0  0  0  0  0  # atno 6908 bound_to 6896
  151.3955  133.3734  159.2761 H   0  0  0  0  0  0  0  0  0  0  0  0  # atno 6909 bound_to 6896
  145.4731  139.2281  143.2924 H   0  0  0  0  0  0  0  0  0  0  0  0  # atno 7974 bound_to 7965
  154.4080  140.1251  156.4804 H   0  0  0  0  0  0  0  0  0  0  0  0  # atno 8008 bound_to 7997
  155.7090  140.3494  155.4946 H   0  0  0  0  0  0  0  0  0  0  0  0  # atno 8009 bound_to 7997
  155.9317  140.1071  157.1117 H   0  0  0  0  0  0  0  0  0  0  0  0  # atno 8010 bound_to 7997
  140.7250  143.4988  150.9896 H   0  0  0  0  0  0  0  0  0  0  0  0  # atno 10167 bound_to 10162
  157.6312  131.0990  150.7107 H   0  0  0  0  0  0  0  0  0  0  0  0  # atno 10718 bound_to 10713
  154.3158  135.6206  153.5485 H   0  0  0  0  0  0  0  0  0  0  0  0  # atno 10763 bound_to 10752
  152.9825  135.5712  154.5126 H   0  0  0  0  0  0  0  0  0  0  0  0  # atno 10764 bound_to 10752
  154.4785  135.2862  155.1565 H   0  0  0  0  0  0  0  0  0  0  0  0  # atno 10765 bound_to 10752
  139.9652  134.6993  156.0561 H   0  0  0  0  0  0  0  0  0  0  0  0  # atno 11005 bound_to 11000
  146.2385  140.5511  142.8944 LP  0  0  0  0  0  0  0  0  0  0  0  0  # atno 17320 bound_to 7965
  144.7933  140.6074  143.6527 LP  0  0  0  0  0  0  0  0  0  0  0  0  # atno 17321 bound_to 7965
  139.8696  143.7209  152.3167 LP  0  0  0  0  0  0  0  0  0  0  0  0  # atno 17342 bound_to 10162
  139.7453  144.7549  151.0589 LP  0  0  0  0  0  0  0  0  0  0  0  0  # atno 17343 bound_to 10162
  156.7446  130.4750  149.5470 LP  0  0  0  0  0  0  0  0  0  0  0  0  # atno 17370 bound_to 10713
  156.1517  130.6314  151.0604 LP  0  0  0  0  0  0  0  0  0  0  0  0  # atno 17371 bound_to 10713
  141.1331  133.6581  156.3519 LP  0  0  0  0  0  0  0  0  0  0  0  0  # atno 17394 bound_to 11000
  140.5413  134.6118  157.5380 LP  0  0  0  0  0  0  0  0  0  0  0  0  # atno 17395 bound_to 11000

$$$$
