#       Name:                AV-unprocessed.smi:2408
#       Creating user name   scv26
#       Creation time:       Fri Mar 27 13:15:23 2020


#       File generated by GOLD software.
#

@<TRIPOS>MOLECULE
AV-unprocessed.smi:2408
    52    54     1
SMALL
NO_CHARGES


@<TRIPOS>ATOM
      1 ****        -4.1587  -0.7378  -0.1557 C.3            1 S1                 0.0000
      2 ****        -3.9879   0.6762  -0.6832 C.ar           1 S1                 0.0000
      3 ****        -5.0872   1.4596  -0.6101 N.ar           1 S1                 0.0000
      4 ****        -4.9992   2.7280  -1.0619 C.ar           1 S1                 0.0000
      5 ****        -3.8223   3.2710  -1.6104 C.ar           1 S1                 0.0000
      6 ****        -2.6783   2.4545  -1.6853 C.ar           1 S1                 0.0000
      7 ****        -2.7486   1.1258  -1.2014 C.ar           1 S1                 0.0000
      8 ****        -1.6494   0.2257  -1.2585 N.am           1 S1                 0.0000
      9 ****        -0.3417   0.5186  -1.1665 C.2            1 S1                 0.0000
     10 ****         0.1215   1.6504  -1.0259 O.2            1 S1                 0.0000
     11 ****         0.4080  -0.5972  -1.2066 N.am           1 S1                 0.0000
     12 ****         1.8735  -0.7111  -1.0832 C.3            1 S1                 0.0000
     13 ****         2.3900  -0.3912   0.3496 C.2            1 S1                 0.0000
     14 ****         3.5994  -0.2810   0.5568 O.2            1 S1                 0.0000
     15 ****         1.4868  -0.2627   1.3354 N.am           1 S1                 0.0000
     16 ****         1.7971   0.0423   2.7229 C.3            1 S1                 0.0000
     17 ****         0.5721   0.2909   3.5777 C.3            1 S1                 0.0000
     18 ****         0.6671   0.2658   5.0852 C.3            1 S1                 0.0000
     19 ****        -0.0733  -0.8307   4.3574 C.3            1 S1                 0.0000
     20 ****         2.2759  -2.1634  -1.4389 C.3            1 S1                 0.0000
     21 ****         3.5960  -2.0721  -2.2013 C.3            1 S1                 0.0000
     22 ****         3.4522  -0.7985  -3.0226 C.3            1 S1                 0.0000
     23 ****         2.6020   0.1474  -2.1655 C.3            1 S1                 0.0000
     24 ****        -3.4442  -0.9334   0.6443 H              1 S1                 0.0000
     25 ****        -3.9919  -1.4626  -0.9528 H              1 S1                 0.0000
     26 ****        -5.1610  -0.8993   0.2435 H              1 S1                 0.0000
     27 ****        -5.8954   3.3262  -0.9897 H              1 S1                 0.0000
     28 ****        -3.7989   4.2891  -1.9700 H              1 S1                 0.0000
     29 ****        -1.7754   2.8530  -2.1228 H              1 S1                 0.0000
     30 ****        -1.8886  -0.7550  -1.2685 H              1 S1                 0.0000
     31 ****        -0.0844  -1.4708  -1.3208 H              1 S1                 0.0000
     32 ****         0.5109  -0.3659   1.0980 H              1 S1                 0.0000
     33 ****         2.3794  -0.7758   3.1499 H              1 S1                 0.0000
     34 ****         2.4249   0.9338   2.7612 H              1 S1                 0.0000
     35 ****        -0.1020   1.0401   3.1659 H              1 S1                 0.0000
     36 ****         1.6279   0.0130   5.5294 H              1 S1                 0.0000
     37 ****         0.0737   0.9914   5.6380 H              1 S1                 0.0000
     38 ****        -1.1593  -0.8350   4.4220 H              1 S1                 0.0000
     39 ****         0.3954  -1.8122   4.3190 H              1 S1                 0.0000
     40 ****         2.3607  -2.8164  -0.5684 H              1 S1                 0.0000
     41 ****         1.5289  -2.6169  -2.0931 H              1 S1                 0.0000
     42 ****         4.4261  -1.9713  -1.5008 H              1 S1                 0.0000
     43 ****         3.7864  -2.9501  -2.8192 H              1 S1                 0.0000
     44 ****         4.4159  -0.3658  -3.2933 H              1 S1                 0.0000
     45 ****         2.9216  -1.0242  -3.9486 H              1 S1                 0.0000
     46 ****         1.9129   0.6903  -2.8131 H              1 S1                 0.0000
     47 ****         3.2421   0.9081  -1.7161 H              1 S1                 0.0000
     48 ****        -5.9433   1.1082  -0.2311 LP             1 S1                 0.0000
     49 ****        -0.4917   2.4384  -0.9719 LP             1 S1                 0.0000
     50 ****         1.1110   1.7818  -0.9658 LP             1 S1                 0.0000
     51 ****         4.2481  -0.3971  -0.1953 LP             1 S1                 0.0000
     52 ****         3.9323  -0.0755   1.4770 LP             1 S1                 0.0000
@<TRIPOS>BOND
    1    1    2 1     
    2    1   24 1     
    3    1   25 1     
    4    1   26 1     
    5    2    7 ar    
    6    2    3 ar    
    7    3    4 ar    
    8    4    5 ar    
    9    4   27 1     
   10    5    6 ar    
   11    5   28 1     
   12    6    7 ar    
   13    6   29 1     
   14    7    8 1     
   15    8    9 am    
   16    8   30 1     
   17    9   10 2     
   18    9   11 am    
   19   11   12 1     
   20   11   31 1     
   21   12   23 1     
   22   12   13 1     
   23   12   20 1     
   24   13   14 2     
   25   13   15 am    
   26   15   16 1     
   27   15   32 1     
   28   16   17 1     
   29   16   33 1     
   30   16   34 1     
   31   17   19 1     
   32   17   18 1     
   33   17   35 1     
   34   18   19 1     
   35   18   36 1     
   36   18   37 1     
   37   19   38 1     
   38   19   39 1     
   39   20   21 1     
   40   20   40 1     
   41   20   41 1     
   42   21   22 1     
   43   21   42 1     
   44   21   43 1     
   45   22   23 1     
   46   22   44 1     
   47   22   45 1     
   48   23   46 1     
   49   23   47 1     
   50    3   48 1     
   51   10   49 1     
   52   10   50 1     
   53   14   51 1     
   54   14   52 1     
@<TRIPOS>SUBSTRUCTURE
      1 S1             1
@<TRIPOS>SET
LONE_PAIRS      STATIC     ATOMS    <user>   **** ""
5 48 49 50 51 52
DONOR_HYDROGENS      STATIC     ATOMS    <user>   **** ""
3 30 31 32
ATOM$BLUE        STATIC     ATOMS    COLORGROUP SYSTEM
5 48 49 50 51 52
ATOM$RED        STATIC     ATOMS    COLORGROUP SYSTEM
3 30 31 32
