AV-unprocessed.smi:1675|AV-procd|sdf|6715|dock3
  -GOLD-   22720 7463D 1   1.00000     0.00000
 Structure written by MMmdl.
 40 42  0  0  0  0  0  0  0  0  1 V2000
  147.7425  138.3989  152.0541 N   0  0  0  0  0  0  0  0  0  0  0  0
  146.4766  138.5222  152.4616 C   0  0  0  0  0  0  0  0  0  0  0  0
  145.7295  137.5548  152.5909 O   0  0  0  0  0  0  0  0  0  0  0  0
  145.9764  139.9351  152.7674 C   0  0  0  0  0  0  0  0  0  0  0  0
  146.6967  140.5135  153.8875 N   0  0  0  0  0  0  0  0  0  0  0  0
  147.9032  141.1859  153.8688 C   0  0  0  0  0  0  0  0  0  0  0  0
  148.1602  141.5214  155.1680 C   0  0  0  0  0  0  0  0  0  0  0  0
  149.2695  142.2133  155.7167 N   0  0  0  0  0  0  0  0  0  0  0  0
  150.3233  141.6879  156.3660 C   0  0  0  0  0  0  0  0  0  0  0  0
  150.4901  140.4835  156.5587 O   0  0  0  0  0  0  0  0  0  0  0  0
  151.3639  142.6945  156.8708 C   0  0  0  0  0  0  0  0  0  0  0  0
  151.4211  142.8013  158.4118 C   0  0  2  0  0  0  0  0  0  0  0  0
  150.2455  143.5908  159.0381 C   0  0  0  0  0  0  0  0  0  0  0  0
  150.9556  144.6756  159.8679 C   0  0  1  0  0  0  0  0  0  0  0  0
  151.6596  144.0260  161.0736 C   0  0  0  0  0  0  0  0  0  0  0  0
  152.8495  143.2982  160.4195 C   0  0  0  0  0  0  0  0  0  0  0  0
  152.6464  143.5951  158.9212 C   0  0  2  0  0  0  0  0  0  0  0  0
  152.1308  145.0308  158.9670 C   0  0  0  0  0  0  0  0  0  0  0  0
  147.0667  141.0200  155.9207 C   0  0  0  0  0  0  0  0  0  0  0  0
  146.1850  140.4137  155.1403 N   0  0  0  0  0  0  0  0  0  0  0  0
  148.1119  137.4855  151.8333 H   0  0  0  0  0  0  0  0  0  0  0  0
  148.3230  139.2199  151.9603 H   0  0  0  0  0  0  0  0  0  0  0  0
  146.1152  140.5745  151.8945 H   0  0  0  0  0  0  0  0  0  0  0  0
  144.9074  139.9202  152.9866 H   0  0  0  0  0  0  0  0  0  0  0  0
  148.4511  141.3522  152.9533 H   0  0  0  0  0  0  0  0  0  0  0  0
  149.2589  143.2173  155.6095 H   0  0  0  0  0  0  0  0  0  0  0  0
  152.3376  142.3828  156.4914 H   0  0  0  0  0  0  0  0  0  0  0  0
  151.1652  143.6743  156.4345 H   0  0  0  0  0  0  0  0  0  0  0  0
  151.4532  141.7919  158.8258 H   0  0  0  0  0  0  0  0  0  0  0  0
  149.6227  144.0558  158.2725 H   0  0  0  0  0  0  0  0  0  0  0  0
  149.5996  142.9571  159.6474 H   0  0  0  0  0  0  0  0  0  0  0  0
  150.3102  145.5127  160.1359 H   0  0  0  0  0  0  0  0  0  0  0  0
  152.0127  144.7834  161.7744 H   0  0  0  0  0  0  0  0  0  0  0  0
  151.0027  143.3460  161.6172 H   0  0  0  0  0  0  0  0  0  0  0  0
  153.7934  143.7170  160.7714 H   0  0  0  0  0  0  0  0  0  0  0  0
  152.8581  142.2300  160.6386 H   0  0  0  0  0  0  0  0  0  0  0  0
  153.5488  143.4478  158.3266 H   0  0  0  0  0  0  0  0  0  0  0  0
  151.8286  145.4209  157.9939 H   0  0  0  0  0  0  0  0  0  0  0  0
  152.8327  145.7285  159.4275 H   0  0  0  0  0  0  0  0  0  0  0  0
  146.8863  141.0743  156.9842 H   0  0  0  0  0  0  0  0  0  0  0  0
  1  2  1  0  0  0  0
  1 21  1  0  0  0  0
  1 22  1  0  0  0  0
  2  3  2  0  0  0  0
  2  4  1  0  0  0  0
  4  5  1  0  0  0  0
  4 23  1  0  0  0  0
  4 24  1  0  0  0  0
  5 20  1  0  0  0  0
  5  6  1  0  0  0  0
  6  7  2  0  0  0  0
  6 25  1  0  0  0  0
  7  8  1  0  0  0  0
  7 19  1  0  0  0  0
  8  9  1  0  0  0  0
  8 26  1  0  0  0  0
  9 10  2  0  0  0  0
  9 11  1  0  0  0  0
 11 12  1  0  0  0  0
 11 27  1  0  0  0  0
 11 28  1  0  0  0  0
 12 17  1  0  0  0  0
 12 13  1  0  0  0  0
 12 29  1  0  0  0  0
 13 14  1  0  0  0  0
 13 30  1  0  0  0  0
 13 31  1  0  0  0  0
 14 18  1  0  0  0  0
 14 15  1  0  0  0  0
 14 32  1  0  0  0  0
 15 16  1  0  0  0  0
 15 33  1  0  0  0  0
 15 34  1  0  0  0  0
 16 17  1  0  0  0  0
 16 35  1  0  0  0  0
 16 36  1  0  0  0  0
 17 18  1  0  0  0  0
 17 37  1  0  0  0  0
 18 38  1  0  0  0  0
 18 39  1  0  0  0  0
 19 20  2  0  0  0  0
 19 40  1  0  0  0  0
M  END
> <s_m_source_file>
AV-unprocessed.smi

> <i_m_source_file_index>
1675

> <i_lp_mmshare_version>
43012

> <i_f3d_flags>
0

> <s_epik_input>
W05IMl1DKD1PKVtDSDJdbjFbY0hdYyhbY0hdbjEpW05IXUMoPU8pW0NIMl1bQ0BIXShbQ0gyXVtDQEBIXTIzKVtDQEBIXShbQ0gyXTMpW0NIMl1bQ0gyXTI=

> <s_epik_cmdline>
J2VwaWtfcHl0aG9uJywgJy1waCcsICc3LjAnLCAnLXRuJywgJzgnLCAnLW1hJywgJzIwMCcsICctbWV0YWxfYmluZGluZycsICctaW1hZScsICc8aW5maWxlLm1hZT4nLCAnLW9tYWUnLCAnPG91dGZpbGUubWFlPic=

> <r_lp_tautomer_probability>
1

> <r_epik_Ionization_Penalty>
2.17494e-05

> <r_epik_Ionization_Penalty_Charging>
0

> <r_epik_Ionization_Penalty_Neutral>
2.17494e-05

> <r_epik_State_Penalty>
-0

> <r_epik_Charging_Adjusted_Penalty>
0

> <i_epik_Tot_Q>
0

> <i_epik_Tot_abs_Q>
0

> <r_epik_Metal_State_Penalty>
-0

> <b_epik_Metal_Only>
0

> <s_lp_Force_Field>
OPLS_2005

> <r_lp_Energy>
52.6068

> <b_lp_Chiralities_Consistent>
1

> <s_lp_Variant>
AV-unprocessed.smi:1675-1

> <Gold.Version>
5.8.1

> <Gold.Id.Protein>
6NUR|6NUR_protein|mol2

> <Gold.PLP.Fitness>
46.9784

> <Gold.PLP.PLP>
-37.6345

> <Gold.PLP.part.hbond>
-2.6321

> <Gold.PLP.part.metal>
0.0000

> <Gold.PLP.part.buried>
-0.9086

> <Gold.PLP.part.nonpolar>
-36.2322

> <Gold.PLP.part.repulsive>
0.7843

> <Gold.PLP.ligand.clash>
0.0000

> <Gold.PLP.ligand.torsion>
1.2463

> <Gold.PLP.Chemscore.Hbond>
2.9345

> <Gold.PLP.Chemscore.CHOScore>
1.0000

> <Gold.PLP.Chemscore.Metal>
0.0000

> <Gold.Chemscore.Hbonds>
donor molecule, donor type, donor heavy atom, donor atom, acceptor molecule, acceptor atom, score
      L1  H     1    21       P1  7948  0.86
      L1  H     1    22       P1  7957  0.96
      L1  H     8    26       P1  8028  1.00
      L1  C     6    25       P1  7957  1.00

> <Gold.PLP.Chemscore.Internal.Correction>
0.0329

> <Gold.Rescore>
     Score         DG    S(hbond)    S(metal)    S(lipo)     H(rot)  DE(clash)    DE(int)     intcor
     18.67     -23.14       2.86        0.00     116.42       2.15       3.36       1.11       ----

> <Gold.Chemscore.Fitness>
18.6697

> <Gold.Chemscore.DG>
-23.1398

> <Gold.Chemscore.ZeroCoef>
-5.4800

> <Gold.Chemscore.Hbond>
2.8561

> <Gold.Chemscore.Metal>
0.0000

> <Gold.Chemscore.Lipo>
116.4158

> <Gold.Chemscore.Internal_Hbond>
0.0000

> <Gold.Chemscore.DEClash>
3.3609

> <Gold.Chemscore.DEInternal>
1.1093

> <Gold.Chemscore.Rot>
2.1486

> <Gold.Chemscore.Internal.Correction>
   9.000000E+99

> <Gold.Chemscore.Hbonds>
donor molecule, donor type, donor heavy atom, donor atom, acceptor molecule, acceptor atom, score
      L1  H     1    21       P1  7948  0.84
      L1  H     1    22       P1  7957  0.92
      L1  H     8    26       P1  8028  0.95

> <Gold.Chemscore.Hbond.Weighted>
-9.5395

> <Gold.Chemscore.Metal.Weighted>
-0.0000

> <Gold.Chemscore.Lipo.Weighted>
-13.6206

> <Gold.Chemscore.Internal_Hbond.Weighted>
0.0000

> <Gold.Chemscore.DEClash.Weighted>
3.3609

> <Gold.Chemscore.DEInternal.Weighted>
1.1093

> <Gold.Chemscore.Rot.Weighted>
5.5004

> <Gold.Chemscore.Internal.Correction.Weighted>
   9.000000E+99

> <Gold.Protein.RotatedTorsions>
[ 6907 6896 6895 6894 ] final  -39.00 input  -60.11 | X-H torsion
[ 7974 7965 7964 7962 ] final  143.65 input  175.53 | X-H torsion
[ 8008 7997 7996 7995 ] final   82.07 input   59.86 | X-H torsion
[ 10167 10162 10161 10158 ] final  165.14 input  -65.29 | X-H torsion
[ 10718 10713 10712 10709 ] final -139.59 input   66.30 | X-H torsion
[ 10763 10752 10751 10750 ] final   67.31 input  -60.55 | X-H torsion
[ 11005 11000 10999 10996 ] final   34.17 input  -57.11 | X-H torsion

> <Gold.Protein.ActiveResidues>
 VAL166  LYS551  ARG553  GLY616  TRP617  ASP618  TYR619  PRO620  LYS621  CYS622 
 ASP623  PHE694  ASN695  SER759  ASP760  ASP761  ALA762  ILE779  LEU786  VAL792 
 PHE793  MET794  SER795  GLU796  ALA797  LYS798  CYS799  TRP800  GLU811  SER814 

> <Gold.Protein.RotatedAtoms>
  150.9956  134.9280  159.7924 H   0  0  0  0  0  0  0  0  0  0  0  0  # atno 6907 bound_to 6896
  152.5263  134.3223  159.9163 H   0  0  0  0  0  0  0  0  0  0  0  0  # atno 6908 bound_to 6896
  151.3229  133.3991  159.2690 H   0  0  0  0  0  0  0  0  0  0  0  0  # atno 6909 bound_to 6896
  144.8903  139.5568  143.5801 H   0  0  0  0  0  0  0  0  0  0  0  0  # atno 7974 bound_to 7965
  155.9057  140.3430  155.6060 H   0  0  0  0  0  0  0  0  0  0  0  0  # atno 8008 bound_to 7997
  155.7447  140.0812  157.2248 H   0  0  0  0  0  0  0  0  0  0  0  0  # atno 8009 bound_to 7997
  154.4049  140.1564  156.2643 H   0  0  0  0  0  0  0  0  0  0  0  0  # atno 8010 bound_to 7997
  139.4900  144.4163  151.9240 H   0  0  0  0  0  0  0  0  0  0  0  0  # atno 10167 bound_to 10162
  156.3125  130.7490  151.1569 H   0  0  0  0  0  0  0  0  0  0  0  0  # atno 10718 bound_to 10713
  153.0180  135.5289  154.6959 H   0  0  0  0  0  0  0  0  0  0  0  0  # atno 10763 bound_to 10752
  154.6081  135.2875  155.0464 H   0  0  0  0  0  0  0  0  0  0  0  0  # atno 10764 bound_to 10752
  154.1496  135.6565  153.5013 H   0  0  0  0  0  0  0  0  0  0  0  0  # atno 10765 bound_to 10752
  140.2556  134.3252  155.7875 H   0  0  0  0  0  0  0  0  0  0  0  0  # atno 11005 bound_to 11000
  146.3049  139.7548  142.9063 LP  0  0  0  0  0  0  0  0  0  0  0  0  # atno 17320 bound_to 7965
  145.3795  141.0356  143.3185 LP  0  0  0  0  0  0  0  0  0  0  0  0  # atno 17321 bound_to 7965
  140.3605  144.2978  150.5934 LP  0  0  0  0  0  0  0  0  0  0  0  0  # atno 17342 bound_to 10162
  140.5406  143.2224  151.8090 LP  0  0  0  0  0  0  0  0  0  0  0  0  # atno 17343 bound_to 10162
  157.7394  131.0529  150.5232 LP  0  0  0  0  0  0  0  0  0  0  0  0  # atno 17370 bound_to 10713
  156.5374  130.4199  149.6171 LP  0  0  0  0  0  0  0  0  0  0  0  0  # atno 17371 bound_to 10713
  141.2196  133.7379  156.9106 LP  0  0  0  0  0  0  0  0  0  0  0  0  # atno 17394 bound_to 11000
  140.1515  134.9227  157.2598 LP  0  0  0  0  0  0  0  0  0  0  0  0  # atno 17395 bound_to 11000

$$$$
