AV-unprocessed.smi:2928|AV-procd|sdf|11238|dock5
  -GOLD-   2272016133D 1   1.00000     0.00000
 Structure written by MMmdl.
 56 59  0  0  0  0  0  0  0  0  3 V2000
  149.0596  142.2323  157.5347 C   0  0  0  0  0  0  0  0  0  0  0  0
  148.0183  142.2868  156.4812 N   0  3  2  0  0  0  0  0  0  0  0  0
  146.6409  142.0069  156.9518 C   0  0  1  0  0  0  0  0  0  0  0  0
  145.6334  142.5092  155.8923 C   0  0  0  0  0  0  0  0  0  0  0  0
  145.8978  141.9699  154.4737 C   0  0  0  0  0  0  0  0  0  0  0  0
  147.3969  141.9570  154.1165 C   0  0  0  0  0  0  0  0  0  0  0  0
  148.3143  141.4865  155.2692 C   0  0  2  0  0  0  0  0  0  0  0  0
  148.2712  139.9664  155.5680 C   0  0  0  0  0  0  0  0  0  0  0  0
  147.0509  139.4707  156.3830 C   0  0  2  0  0  0  0  0  0  0  0  0
  146.0349  138.8754  155.5176 N   0  0  0  0  0  0  0  0  0  0  0  0
  146.2502  137.9345  154.5866 C   0  0  0  0  0  0  0  0  0  0  0  0
  147.3589  137.4590  154.3432 O   0  0  0  0  0  0  0  0  0  0  0  0
  145.1035  137.5734  153.9875 N   0  0  0  0  0  0  0  0  0  0  0  0
  144.9043  136.5571  153.0105 C   0  0  0  0  0  0  0  0  0  0  0  0
  145.8203  136.3199  151.9540 C   0  0  0  0  0  0  0  0  0  0  0  0
  145.5514  135.3082  151.0107 C   0  0  0  0  0  0  0  0  0  0  0  0
  144.3676  134.5571  151.1299 C   0  0  0  0  0  0  0  0  0  0  0  0
  143.5084  134.8184  152.1372 N   0  3  0  0  0  0  0  0  0  0  0  0
  143.7202  135.7788  153.0702 C   0  0  0  0  0  0  0  0  0  0  0  0
  142.7618  135.9703  154.0804 N   0  0  0  0  0  0  0  0  0  0  0  0
  142.0068  137.2091  153.9968 C   0  0  0  0  0  0  0  0  0  0  0  0
  140.8050  137.0173  154.9254 C   0  0  0  0  0  0  0  0  0  0  0  0
  140.6570  135.4976  155.0717 C   0  0  0  0  0  0  0  0  0  0  0  0
  141.7789  134.9082  154.2131 C   0  0  0  0  0  0  0  0  0  0  0  0
  146.4727  140.5238  157.3672 C   0  0  0  0  0  0  0  0  0  0  0  0
  149.1672  141.2342  157.9587 H   0  0  0  0  0  0  0  0  0  0  0  0
  148.8150  142.9187  158.3456 H   0  0  0  0  0  0  0  0  0  0  0  0
  150.0262  142.5326  157.1295 H   0  0  0  0  0  0  0  0  0  0  0  0
  146.4681  142.6106  157.8441 H   0  0  0  0  0  0  0  0  0  0  0  0
  144.6123  142.2774  156.1966 H   0  0  0  0  0  0  0  0  0  0  0  0
  145.6924  143.5979  155.8572 H   0  0  0  0  0  0  0  0  0  0  0  0
  145.4727  140.9784  154.3624 H   0  0  0  0  0  0  0  0  0  0  0  0
  145.3573  142.5784  153.7477 H   0  0  0  0  0  0  0  0  0  0  0  0
  147.5645  141.3530  153.2241 H   0  0  0  0  0  0  0  0  0  0  0  0
  147.6879  142.9730  153.8459 H   0  0  0  0  0  0  0  0  0  0  0  0
  149.3337  141.7227  154.9597 H   0  0  0  0  0  0  0  0  0  0  0  0
  148.3759  139.3972  154.6432 H   0  0  0  0  0  0  0  0  0  0  0  0
  149.1664  139.7218  156.1407 H   0  0  0  0  0  0  0  0  0  0  0  0
  147.4155  138.6393  156.9898 H   0  0  0  0  0  0  0  0  0  0  0  0
  145.0886  139.2037  155.6442 H   0  0  0  0  0  0  0  0  0  0  0  0
  144.2617  137.9980  154.3482 H   0  0  0  0  0  0  0  0  0  0  0  0
  146.7198  136.9057  151.8419 H   0  0  0  0  0  0  0  0  0  0  0  0
  146.2428  135.1157  150.2032 H   0  0  0  0  0  0  0  0  0  0  0  0
  144.0804  133.7658  150.4526 H   0  0  0  0  0  0  0  0  0  0  0  0
  142.6162  138.0614  154.2991 H   0  0  0  0  0  0  0  0  0  0  0  0
  141.6666  137.3831  152.9751 H   0  0  0  0  0  0  0  0  0  0  0  0
  141.0018  137.4664  155.8996 H   0  0  0  0  0  0  0  0  0  0  0  0
  139.9071  137.4846  154.5197 H   0  0  0  0  0  0  0  0  0  0  0  0
  140.7880  135.2107  156.1159 H   0  0  0  0  0  0  0  0  0  0  0  0
  139.6773  135.1427  154.7505 H   0  0  0  0  0  0  0  0  0  0  0  0
  141.3906  134.6208  153.2350 H   0  0  0  0  0  0  0  0  0  0  0  0
  142.2160  134.0225  154.6754 H   0  0  0  0  0  0  0  0  0  0  0  0
  146.9871  140.3916  158.3197 H   0  0  0  0  0  0  0  0  0  0  0  0
  145.4261  140.3193  157.5953 H   0  0  0  0  0  0  0  0  0  0  0  0
  148.0118  143.2500  156.1768 H   0  0  0  0  0  0  0  0  0  0  0  0
  142.6546  134.2634  152.1986 H   0  0  0  0  0  0  0  0  0  0  0  0
  1  2  1  0  0  0  0
  1 26  1  0  0  0  0
  1 27  1  0  0  0  0
  1 28  1  0  0  0  0
  2  7  1  0  0  0  0
  2  3  1  0  0  0  0
  2 55  1  0  0  0  0
  3 25  1  0  0  0  0
  3  4  1  0  0  0  0
  3 29  1  0  0  0  0
  4  5  1  0  0  0  0
  4 30  1  0  0  0  0
  4 31  1  0  0  0  0
  5  6  1  0  0  0  0
  5 32  1  0  0  0  0
  5 33  1  0  0  0  0
  6  7  1  0  0  0  0
  6 34  1  0  0  0  0
  6 35  1  0  0  0  0
  7  8  1  0  0  0  0
  7 36  1  0  0  0  0
  8  9  1  0  0  0  0
  8 37  1  0  0  0  0
  8 38  1  0  0  0  0
  9 10  1  0  0  0  0
  9 25  1  0  0  0  0
  9 39  1  0  0  0  0
 10 11  1  0  0  0  0
 10 40  1  0  0  0  0
 11 12  2  0  0  0  0
 11 13  1  0  0  0  0
 13 14  1  0  0  0  0
 13 41  1  0  0  0  0
 14 19  1  0  0  0  0
 14 15  2  0  0  0  0
 15 16  1  0  0  0  0
 15 42  1  0  0  0  0
 16 17  2  0  0  0  0
 16 43  1  0  0  0  0
 17 18  1  0  0  0  0
 17 44  1  0  0  0  0
 18 19  2  0  0  0  0
 18 56  1  0  0  0  0
 19 20  1  0  0  0  0
 20 24  1  0  0  0  0
 20 21  1  0  0  0  0
 21 22  1  0  0  0  0
 21 45  1  0  0  0  0
 21 46  1  0  0  0  0
 22 23  1  0  0  0  0
 22 47  1  0  0  0  0
 22 48  1  0  0  0  0
 23 24  1  0  0  0  0
 23 49  1  0  0  0  0
 23 50  1  0  0  0  0
 24 51  1  0  0  0  0
 24 52  1  0  0  0  0
 25 53  1  0  0  0  0
 25 54  1  0  0  0  0
M  CHG  1   2   1
M  CHG  1  18   1
M  END
> <s_m_source_file>
AV-unprocessed.smi

> <i_m_source_file_index>
2928

> <i_lp_mmshare_version>
43012

> <i_f3d_flags>
0

> <s_epik_input>
W0NIMl0xW0NIMl1bQ0gyXVtDQEhdKE4oW0NIM10pW0NIXTEyKVtDSDJdW0NASF0oW0NIMl0yKVtOSF1DKD1PKVtOSF1jM1tjSF1bY0hdW2NIXW5jM040W0NIMl1bQ0gyXVtDSDJdW0NIMl00

> <s_epik_cmdline>
J2VwaWtfcHl0aG9uJywgJy1waCcsICc3LjAnLCAnLXRuJywgJzgnLCAnLW1hJywgJzIwMCcsICctbWV0YWxfYmluZGluZycsICctaW1hZScsICc8aW5maWxlLm1hZT4nLCAnLW9tYWUnLCAnPG91dGZpbGUubWFlPic=

> <r_lp_tautomer_probability>
0.999994

> <r_epik_Ionization_Penalty>
1.2404

> <r_epik_Ionization_Penalty_Charging>
1.24038

> <r_epik_Ionization_Penalty_Neutral>
1.86539e-05

> <r_epik_State_Penalty>
1.30821

> <r_epik_Charging_Adjusted_Penalty>
2.54859

> <i_epik_Tot_Q>
2

> <i_epik_Tot_abs_Q>
2

> <r_epik_Metal_State_Penalty>
1.3782

> <b_epik_Metal_Only>
0

> <s_lp_Force_Field>
OPLS_2005

> <r_lp_Energy>
76.0972

> <b_lp_Chiralities_Consistent>
1

> <s_lp_Variant>
AV-unprocessed.smi:2928-8

> <Gold.Version>
5.8.1

> <Gold.Id.Protein>
6NUR|6NUR_protein|mol2

> <Gold.PLP.Fitness>
38.5905

> <Gold.PLP.PLP>
-35.3992

> <Gold.PLP.part.hbond>
-2.0000

> <Gold.PLP.part.metal>
0.0000

> <Gold.PLP.part.buried>
-3.9559

> <Gold.PLP.part.nonpolar>
-28.9956

> <Gold.PLP.part.repulsive>
0.2648

> <Gold.PLP.ligand.clash>
1.6803

> <Gold.PLP.ligand.torsion>
0.6021

> <Gold.PLP.Chemscore.Hbond>
2.0000

> <Gold.PLP.Chemscore.CHOScore>
0.0000

> <Gold.PLP.Chemscore.Metal>
0.0000

> <Gold.Chemscore.Hbonds>
donor molecule, donor type, donor heavy atom, donor atom, acceptor molecule, acceptor atom, score
      L1  H     2    55       P1  8028  2.00

> <Gold.PLP.Chemscore.Internal.Correction>
0.0759

> <Gold.Rescore>
     Score         DG    S(hbond)    S(metal)    S(lipo)     H(rot)  DE(clash)    DE(int)     intcor
     12.62     -15.05       0.99        0.00      79.44       1.19       0.44       1.99       ----

> <Gold.Chemscore.Fitness>
12.6213

> <Gold.Chemscore.DG>
-15.0499

> <Gold.Chemscore.ZeroCoef>
-5.4800

> <Gold.Chemscore.Hbond>
0.9928

> <Gold.Chemscore.Metal>
0.0000

> <Gold.Chemscore.Lipo>
79.4448

> <Gold.Chemscore.Internal_Hbond>
0.0000

> <Gold.Chemscore.DEClash>
0.4350

> <Gold.Chemscore.DEInternal>
1.9936

> <Gold.Chemscore.Rot>
1.1879

> <Gold.Chemscore.Internal.Correction>
   9.000000E+99

> <Gold.Chemscore.Hbonds>
donor molecule, donor type, donor heavy atom, donor atom, acceptor molecule, acceptor atom, score
      L1  H     2    55       P1  8028  0.29

> <Gold.Chemscore.Hbond.Weighted>
-3.3159

> <Gold.Chemscore.Metal.Weighted>
-0.0000

> <Gold.Chemscore.Lipo.Weighted>
-9.2950

> <Gold.Chemscore.Internal_Hbond.Weighted>
0.0000

> <Gold.Chemscore.DEClash.Weighted>
0.4350

> <Gold.Chemscore.DEInternal.Weighted>
1.9936

> <Gold.Chemscore.Rot.Weighted>
3.0410

> <Gold.Chemscore.Internal.Correction.Weighted>
   9.000000E+99

> <Gold.Protein.RotatedTorsions>
[ 6907 6896 6895 6894 ] final   20.40 input  -60.11 | X-H torsion
[ 7974 7965 7964 7962 ] final -172.24 input  175.53 | X-H torsion
[ 8008 7997 7996 7995 ] final  -59.49 input   59.86 | X-H torsion
[ 10167 10162 10161 10158 ] final   93.89 input  -65.29 | X-H torsion
[ 10718 10713 10712 10709 ] final  106.38 input   66.30 | X-H torsion
[ 10763 10752 10751 10750 ] final   36.83 input  -60.55 | X-H torsion
[ 11005 11000 10999 10996 ] final   37.88 input  -57.11 | X-H torsion

> <Gold.Protein.ActiveResidues>
 VAL166  LYS551  ARG553  GLY616  TRP617  ASP618  TYR619  PRO620  LYS621  CYS622 
 ASP623  PHE694  ASN695  SER759  ASP760  ASP761  ALA762  ILE779  LEU786  VAL792 
 PHE793  MET794  SER795  GLU796  ALA797  LYS798  CYS799  TRP800  GLU811  SER814 

> <Gold.Protein.RotatedAtoms>
  151.8958  135.0398  160.0501 H   0  0  0  0  0  0  0  0  0  0  0  0  # atno 6907 bound_to 6896
  152.2399  133.5122  159.5272 H   0  0  0  0  0  0  0  0  0  0  0  0  # atno 6908 bound_to 6896
  150.7050  134.1020  159.4011 H   0  0  0  0  0  0  0  0  0  0  0  0  # atno 6909 bound_to 6896
  144.7148  140.1802  143.6359 H   0  0  0  0  0  0  0  0  0  0  0  0  # atno 7974 bound_to 7965
  154.4355  140.1060  156.6124 H   0  0  0  0  0  0  0  0  0  0  0  0  # atno 8008 bound_to 7997
  155.5795  140.3490  155.4518 H   0  0  0  0  0  0  0  0  0  0  0  0  # atno 8009 bound_to 7997
  156.0329  140.1264  157.0228 H   0  0  0  0  0  0  0  0  0  0  0  0  # atno 8010 bound_to 7997
  139.8136  144.6762  150.9608 H   0  0  0  0  0  0  0  0  0  0  0  0  # atno 10167 bound_to 10162
  157.6670  131.0849  150.5998 H   0  0  0  0  0  0  0  0  0  0  0  0  # atno 10718 bound_to 10713
  153.0061  135.6295  154.2047 H   0  0  0  0  0  0  0  0  0  0  0  0  # atno 10763 bound_to 10752
  154.1791  135.2814  155.3059 H   0  0  0  0  0  0  0  0  0  0  0  0  # atno 10764 bound_to 10752
  154.5849  135.5636  153.7281 H   0  0  0  0  0  0  0  0  0  0  0  0  # atno 10765 bound_to 10752
  140.2181  134.3674  155.8017 H   0  0  0  0  0  0  0  0  0  0  0  0  # atno 11005 bound_to 11000
  145.8864  139.2351  143.1575 LP  0  0  0  0  0  0  0  0  0  0  0  0  # atno 17320 bound_to 7965
  145.9946  140.8573  143.0049 LP  0  0  0  0  0  0  0  0  0  0  0  0  # atno 17321 bound_to 7965
  140.7817  143.4160  151.0916 LP  0  0  0  0  0  0  0  0  0  0  0  0  # atno 17342 bound_to 10162
  139.7825  143.8334  152.3140 LP  0  0  0  0  0  0  0  0  0  0  0  0  # atno 17343 bound_to 10162
  156.6298  130.4429  149.5791 LP  0  0  0  0  0  0  0  0  0  0  0  0  # atno 17370 bound_to 10713
  156.2290  130.6783  151.1445 LP  0  0  0  0  0  0  0  0  0  0  0  0  # atno 17371 bound_to 10713
  141.2224  133.7179  156.8530 LP  0  0  0  0  0  0  0  0  0  0  0  0  # atno 17394 bound_to 11000
  140.1879  134.8987  157.3025 LP  0  0  0  0  0  0  0  0  0  0  0  0  # atno 17395 bound_to 11000

$$$$
