#       Name:                AV-unprocessed.smi:2389
#       Creating user name   scv26
#       Creation time:       Fri Mar 27 13:10:14 2020


#       File generated by GOLD software.
#

@<TRIPOS>MOLECULE
AV-unprocessed.smi:2389
    39    40     1
SMALL
NO_CHARGES


@<TRIPOS>ATOM
      1 ****        -4.6065  -2.1293  -0.3281 C.3            1 S1                 0.0000
      2 ****        -3.1046  -1.8359  -0.3558 C.3            1 S1                 0.0000
      3 ****        -2.3969  -3.0714  -0.4069 O.3            1 S1                 0.0000
      4 ****        -1.0174  -3.0385  -0.4189 C.ar           1 S1                 0.0000
      5 ****        -0.3121  -4.2559  -0.4628 C.ar           1 S1                 0.0000
      6 ****         1.0936  -4.2172  -0.4701 C.ar           1 S1                 0.0000
      7 ****         1.7397  -2.9669  -0.4335 C.ar           1 S1                 0.0000
      8 ****         0.9645  -1.7869  -0.3920 C.ar           1 S1                 0.0000
      9 ****         1.7066  -0.5763  -0.3572 N.am           1 S1                 0.0000
     10 ****         1.2379   0.6843  -0.3427 C.2            1 S1                 0.0000
     11 ****         0.0480   1.0020  -0.3540 O.2            1 S1                 0.0000
     12 ****         2.2401   1.5743  -0.3169 N.am           1 S1                 0.0000
     13 ****         2.0701   3.0213  -0.2982 C.3            1 S1                 0.0000
     14 ****         1.6822   3.6040   1.0474 C.3            1 S1                 0.0000
     15 ****         0.2395   3.9049   1.3836 C.3            1 S1                 0.0000
     16 ****         1.2107   5.0358   1.1493 C.3            1 S1                 0.0000
     17 ****        -0.3902  -1.8372  -0.3855 N.ar           1 S1                 0.0000
     18 ****        -5.1829  -1.2047  -0.2931 H              1 S1                 0.0000
     19 ****        -4.8729  -2.7224   0.5469 H              1 S1                 0.0000
     20 ****        -4.9142  -2.6828  -1.2156 H              1 S1                 0.0000
     21 ****        -2.8660  -1.2247  -1.2278 H              1 S1                 0.0000
     22 ****        -2.8269  -1.2732   0.5371 H              1 S1                 0.0000
     23 ****        -0.8384  -5.1987  -0.4887 H              1 S1                 0.0000
     24 ****         1.6677  -5.1314  -0.5023 H              1 S1                 0.0000
     25 ****         2.8190  -2.9195  -0.4380 H              1 S1                 0.0000
     26 ****         2.7101  -0.6822  -0.3473 H              1 S1                 0.0000
     27 ****         3.1879   1.2270  -0.3101 H              1 S1                 0.0000
     28 ****         3.0189   3.4664  -0.5982 H              1 S1                 0.0000
     29 ****         1.3408   3.3209  -1.0529 H              1 S1                 0.0000
     30 ****         2.3074   3.2610   1.8699 H              1 S1                 0.0000
     31 ****        -0.5097   3.7184   0.6166 H              1 S1                 0.0000
     32 ****        -0.0852   3.7215   2.4057 H              1 S1                 0.0000
     33 ****         1.5323   5.6102   2.0155 H              1 S1                 0.0000
     34 ****         1.1058   5.6028   0.2262 H              1 S1                 0.0000
     35 ****        -2.6884  -3.5447  -1.2382 LP             1 S1                 0.0000
     36 ****        -2.6728  -3.6033   0.3937 LP             1 S1                 0.0000
     37 ****        -0.6582   0.2944  -0.3757 LP             1 S1                 0.0000
     38 ****        -0.2118   1.9676  -0.3416 LP             1 S1                 0.0000
     39 ****        -0.9242  -0.9922  -0.3563 LP             1 S1                 0.0000
@<TRIPOS>BOND
    1    1    2 1     
    2    1   18 1     
    3    1   19 1     
    4    1   20 1     
    5    2    3 1     
    6    2   21 1     
    7    2   22 1     
    8    3    4 1     
    9    4   17 ar    
   10    4    5 ar    
   11    5    6 ar    
   12    5   23 1     
   13    6    7 ar    
   14    6   24 1     
   15    7    8 ar    
   16    7   25 1     
   17    8    9 1     
   18    8   17 ar    
   19    9   10 am    
   20    9   26 1     
   21   10   11 2     
   22   10   12 am    
   23   12   13 1     
   24   12   27 1     
   25   13   14 1     
   26   13   28 1     
   27   13   29 1     
   28   14   16 1     
   29   14   15 1     
   30   14   30 1     
   31   15   16 1     
   32   15   31 1     
   33   15   32 1     
   34   16   33 1     
   35   16   34 1     
   36    3   35 1     
   37    3   36 1     
   38   11   37 1     
   39   11   38 1     
   40   17   39 1     
@<TRIPOS>SUBSTRUCTURE
      1 S1             1
@<TRIPOS>SET
LONE_PAIRS      STATIC     ATOMS    <user>   **** ""
5 35 36 37 38 39
DONOR_HYDROGENS      STATIC     ATOMS    <user>   **** ""
2 26 27
ATOM$BLUE        STATIC     ATOMS    COLORGROUP SYSTEM
5 35 36 37 38 39
ATOM$RED        STATIC     ATOMS    COLORGROUP SYSTEM
2 26 27
