AV-unprocessed.smi:1512|AV-procd|sdf|6107|dock2
  -GOLD-   22720 6243D 1   1.00000     0.00000
 Structure written by MMmdl.
 44 46  0  0  0  0  0  0  0  0  3 V2000
  141.9284  134.9445  153.2040 C   0  0  0  0  0  0  0  0  0  0  0  0
  143.4217  134.9234  152.8391 C   0  0  1  0  0  0  0  0  0  0  0  0
  144.1519  134.2449  153.9086 N   0  0  0  0  0  0  0  0  0  0  0  0
  145.3075  134.6524  154.4558 C   0  0  0  0  0  0  0  0  0  0  0  0
  145.8698  135.7061  154.1552 O   0  0  0  0  0  0  0  0  0  0  0  0
  145.9182  133.7200  155.5109 C   0  0  0  0  0  0  0  0  0  0  0  0
  147.2913  133.3051  155.1755 N   0  0  0  0  0  0  0  0  0  0  0  0
  147.6142  133.2086  153.8089 C   0  0  0  0  0  0  0  0  0  0  0  0
  148.8299  132.8252  153.3936 C   0  0  0  0  0  0  0  0  0  0  0  0
  149.8241  132.5098  154.3900 C   0  0  0  0  0  0  0  0  0  0  0  0
  149.5379  132.5970  155.7095 C   0  0  0  0  0  0  0  0  0  0  0  0
  150.5813  132.2712  156.6545 N   0  3  0  0  0  0  0  0  0  0  0  0
  150.3699  132.4372  157.8518 O   0  0  0  0  0  0  0  0  0  0  0  0
  151.6514  131.8513  156.2237 O   0  5  0  0  0  0  0  0  0  0  0  0
  148.1949  133.0135  156.1632 C   0  0  0  0  0  0  0  0  0  0  0  0
  147.8852  133.0896  157.3541 O   0  0  0  0  0  0  0  0  0  0  0  0
  143.6885  134.2166  151.4867 C   0  0  1  0  0  0  0  0  0  0  0  0
  144.9680  134.7140  150.7704 C   0  0  0  0  0  0  0  0  0  0  0  0
  145.7564  133.4181  150.5100 C   0  0  2  0  0  0  0  0  0  0  0  0
  145.0342  132.5820  149.4381 C   0  0  0  0  0  0  0  0  0  0  0  0
  143.7994  132.0586  150.1946 C   0  0  0  0  0  0  0  0  0  0  0  0
  143.9615  132.6924  151.5895 C   0  0  1  0  0  0  0  0  0  0  0  0
  145.4727  132.6259  151.7791 C   0  0  0  0  0  0  0  0  0  0  0  0
  141.3420  135.4870  152.4628 H   0  0  0  0  0  0  0  0  0  0  0  0
  141.7679  135.4349  154.1649 H   0  0  0  0  0  0  0  0  0  0  0  0
  141.5221  133.9350  153.2741 H   0  0  0  0  0  0  0  0  0  0  0  0
  143.7562  135.9587  152.7591 H   0  0  0  0  0  0  0  0  0  0  0  0
  143.7662  133.3686  154.2291 H   0  0  0  0  0  0  0  0  0  0  0  0
  145.8885  134.2333  156.4729 H   0  0  0  0  0  0  0  0  0  0  0  0
  145.2874  132.8378  155.6373 H   0  0  0  0  0  0  0  0  0  0  0  0
  146.8142  133.4556  153.1261 H   0  0  0  0  0  0  0  0  0  0  0  0
  149.0585  132.7522  152.3405 H   0  0  0  0  0  0  0  0  0  0  0  0
  150.8094  132.2089  154.0644 H   0  0  0  0  0  0  0  0  0  0  0  0
  142.8208  134.3817  150.8457 H   0  0  0  0  0  0  0  0  0  0  0  0
  144.7441  135.2550  149.8504 H   0  0  0  0  0  0  0  0  0  0  0  0
  145.5529  135.3778  151.4082 H   0  0  0  0  0  0  0  0  0  0  0  0
  146.8128  133.5845  150.2970 H   0  0  0  0  0  0  0  0  0  0  0  0
  144.7660  133.1756  148.5633 H   0  0  0  0  0  0  0  0  0  0  0  0
  145.6585  131.7527  149.1035 H   0  0  0  0  0  0  0  0  0  0  0  0
  142.8625  132.3407  149.7131 H   0  0  0  0  0  0  0  0  0  0  0  0
  143.8242  130.9700  150.2602 H   0  0  0  0  0  0  0  0  0  0  0  0
  143.3848  132.1721  152.3539 H   0  0  0  0  0  0  0  0  0  0  0  0
  145.8679  131.6088  151.7523 H   0  0  0  0  0  0  0  0  0  0  0  0
  145.8209  133.1195  152.6877 H   0  0  0  0  0  0  0  0  0  0  0  0
  1  2  1  0  0  0  0
  1 24  1  0  0  0  0
  1 25  1  0  0  0  0
  1 26  1  0  0  0  0
  2  3  1  0  0  0  0
  2 17  1  0  0  0  0
  2 27  1  0  0  0  0
  3  4  1  0  0  0  0
  3 28  1  0  0  0  0
  4  5  2  0  0  0  0
  4  6  1  0  0  0  0
  6  7  1  0  0  0  0
  6 29  1  0  0  0  0
  6 30  1  0  0  0  0
  7 15  1  0  0  0  0
  7  8  1  0  0  0  0
  8  9  2  0  0  0  0
  8 31  1  0  0  0  0
  9 10  1  0  0  0  0
  9 32  1  0  0  0  0
 10 11  2  0  0  0  0
 10 33  1  0  0  0  0
 11 12  1  0  0  0  0
 11 15  1  0  0  0  0
 12 13  2  0  0  0  0
 12 14  1  0  0  0  0
 15 16  2  0  0  0  0
 17 22  1  0  0  0  0
 17 18  1  0  0  0  0
 17 34  1  0  0  0  0
 18 19  1  0  0  0  0
 18 35  1  0  0  0  0
 18 36  1  0  0  0  0
 19 23  1  0  0  0  0
 19 20  1  0  0  0  0
 19 37  1  0  0  0  0
 20 21  1  0  0  0  0
 20 38  1  0  0  0  0
 20 39  1  0  0  0  0
 21 22  1  0  0  0  0
 21 40  1  0  0  0  0
 21 41  1  0  0  0  0
 22 23  1  0  0  0  0
 22 42  1  0  0  0  0
 23 43  1  0  0  0  0
 23 44  1  0  0  0  0
M  CHG  1  12   1
M  CHG  1  14  -1
M  END
> <s_m_source_file>
AV-unprocessed.smi

> <i_m_source_file_index>
1512

> <i_lp_mmshare_version>
43012

> <i_f3d_flags>
0

> <s_epik_input>
W0NIMl0xW0NIMl1bQ0BIXShbQ0gyXTIpW0NAQEhdKFtDSDJdW0NAQEhdMTIpW0NASF0oW0NIM10pW05IXUMoPU8pW0NIMl1uM1tjSF1bY0hdW2NIXWMoW04rXSg9TylbTy1dKWMzPU8=

> <s_epik_cmdline>
J2VwaWtfcHl0aG9uJywgJy1waCcsICc3LjAnLCAnLXRuJywgJzgnLCAnLW1hJywgJzIwMCcsICctbWV0YWxfYmluZGluZycsICctaW1hZScsICc8aW5maWxlLm1hZT4nLCAnLW9tYWUnLCAnPG91dGZpbGUubWFlPic=

> <r_lp_tautomer_probability>
1

> <r_epik_Ionization_Penalty>
2.17697e-08

> <r_epik_Ionization_Penalty_Charging>
1.42735e-10

> <r_epik_Ionization_Penalty_Neutral>
2.16269e-08

> <r_epik_State_Penalty>
-0

> <r_epik_Charging_Adjusted_Penalty>
1.42735e-10

> <i_epik_Tot_Q>
0

> <i_epik_Tot_abs_Q>
2

> <r_epik_Metal_State_Penalty>
-0

> <b_epik_Metal_Only>
0

> <s_lp_Force_Field>
OPLS_2005

> <r_lp_Energy>
63.9552

> <b_lp_Chiralities_Consistent>
1

> <s_lp_Variant>
AV-unprocessed.smi:1512-8

> <Gold.Version>
5.8.1

> <Gold.Id.Protein>
6NUR|6NUR_protein|mol2

> <Gold.PLP.Fitness>
38.8317

> <Gold.PLP.PLP>
-35.9434

> <Gold.PLP.part.hbond>
-2.0000

> <Gold.PLP.part.metal>
0.0000

> <Gold.PLP.part.buried>
-4.3215

> <Gold.PLP.part.nonpolar>
-29.0829

> <Gold.PLP.part.repulsive>
0.0586

> <Gold.PLP.ligand.clash>
0.5526

> <Gold.PLP.ligand.torsion>
1.3101

> <Gold.PLP.Chemscore.Hbond>
2.0000

> <Gold.PLP.Chemscore.CHOScore>
0.0000

> <Gold.PLP.Chemscore.Metal>
0.0000

> <Gold.Chemscore.Hbonds>
donor molecule, donor type, donor heavy atom, donor atom, acceptor molecule, acceptor atom, score
      L1  H     3    28       P1 10957  1.00
      P1  H  6896  6907       L1    13  1.00

> <Gold.PLP.Chemscore.Internal.Correction>
0.0610

> <Gold.Rescore>
     Score         DG    S(hbond)    S(metal)    S(lipo)     H(rot)  DE(clash)    DE(int)     intcor
     14.34     -18.21       2.00        0.00      90.08       1.75       0.10       3.78       ----

> <Gold.Chemscore.Fitness>
14.3357

> <Gold.Chemscore.DG>
-18.2128

> <Gold.Chemscore.ZeroCoef>
-5.4800

> <Gold.Chemscore.Hbond>
1.9961

> <Gold.Chemscore.Metal>
0.0000

> <Gold.Chemscore.Lipo>
90.0770

> <Gold.Chemscore.Internal_Hbond>
0.0000

> <Gold.Chemscore.DEClash>
0.0985

> <Gold.Chemscore.DEInternal>
3.7786

> <Gold.Chemscore.Rot>
1.7474

> <Gold.Chemscore.Internal.Correction>
   9.000000E+99

> <Gold.Chemscore.Hbonds>
donor molecule, donor type, donor heavy atom, donor atom, acceptor molecule, acceptor atom, score
      L1  H     3    28       P1 10957  0.93
      P1  H  6896  6907       L1    13  0.99

> <Gold.Chemscore.Hbond.Weighted>
-6.6671

> <Gold.Chemscore.Metal.Weighted>
-0.0000

> <Gold.Chemscore.Lipo.Weighted>
-10.5390

> <Gold.Chemscore.Internal_Hbond.Weighted>
0.0000

> <Gold.Chemscore.DEClash.Weighted>
0.0985

> <Gold.Chemscore.DEInternal.Weighted>
3.7786

> <Gold.Chemscore.Rot.Weighted>
4.4733

> <Gold.Chemscore.Internal.Correction.Weighted>
   9.000000E+99

> <Gold.Protein.RotatedTorsions>
[ 6907 6896 6895 6894 ] final -160.69 input  -60.11 | X-H torsion
[ 7974 7965 7964 7962 ] final   37.34 input  175.53 | X-H torsion
[ 8008 7997 7996 7995 ] final   20.28 input   59.86 | X-H torsion
[ 10167 10162 10161 10158 ] final  160.23 input  -65.29 | X-H torsion
[ 10718 10713 10712 10709 ] final   48.21 input   66.30 | X-H torsion
[ 10763 10752 10751 10750 ] final  -18.76 input  -60.55 | X-H torsion
[ 11005 11000 10999 10996 ] final  152.16 input  -57.11 | X-H torsion

> <Gold.Protein.ActiveResidues>
 VAL166  LYS551  ARG553  GLY616  TRP617  ASP618  TYR619  PRO620  LYS621  CYS622 
 ASP623  PHE694  ASN695  SER759  ASP760  ASP761  ALA762  ILE779  LEU786  VAL792 
 PHE793  MET794  SER795  GLU796  ALA797  LYS798  CYS799  TRP800  GLU811  SER814 

> <Gold.Protein.RotatedAtoms>
  151.3530  133.3918  159.2681 H   0  0  0  0  0  0  0  0  0  0  0  0  # atno 6907 bound_to 6896
  150.9786  134.9146  159.7841 H   0  0  0  0  0  0  0  0  0  0  0  0  # atno 6908 bound_to 6896
  152.5209  134.3493  159.9298 H   0  0  0  0  0  0  0  0  0  0  0  0  # atno 6909 bound_to 6896
  146.1145  139.5906  142.9330 H   0  0  0  0  0  0  0  0  0  0  0  0  # atno 7974 bound_to 7965
  154.9333  140.3043  155.5157 H   0  0  0  0  0  0  0  0  0  0  0  0  # atno 8008 bound_to 7997
  156.3002  140.2350  156.4332 H   0  0  0  0  0  0  0  0  0  0  0  0  # atno 8009 bound_to 7997
  154.8216  140.0423  157.1403 H   0  0  0  0  0  0  0  0  0  0  0  0  # atno 8010 bound_to 7997
  139.4838  144.4654  151.8648 H   0  0  0  0  0  0  0  0  0  0  0  0  # atno 10167 bound_to 10162
  157.4663  130.8228  149.7940 H   0  0  0  0  0  0  0  0  0  0  0  0  # atno 10718 bound_to 10713
  153.5942  135.7001  153.5410 H   0  0  0  0  0  0  0  0  0  0  0  0  # atno 10763 bound_to 10752
  153.3152  135.4090  155.1370 H   0  0  0  0  0  0  0  0  0  0  0  0  # atno 10764 bound_to 10752
  154.8595  135.3682  154.5475 H   0  0  0  0  0  0  0  0  0  0  0  0  # atno 10765 bound_to 10752
  140.1283  134.8819  157.2168 H   0  0  0  0  0  0  0  0  0  0  0  0  # atno 11005 bound_to 11000
  145.5596  141.0405  143.2233 LP  0  0  0  0  0  0  0  0  0  0  0  0  # atno 17320 bound_to 7965
  144.7540  139.7120  143.7261 LP  0  0  0  0  0  0  0  0  0  0  0  0  # atno 17321 bound_to 7965
  140.4119  144.2357  150.5888 LP  0  0  0  0  0  0  0  0  0  0  0  0  # atno 17342 bound_to 10162
  140.4958  143.2333  151.8752 LP  0  0  0  0  0  0  0  0  0  0  0  0  # atno 17343 bound_to 10162
  156.0052  130.3859  150.2457 LP  0  0  0  0  0  0  0  0  0  0  0  0  # atno 17370 bound_to 10713
  157.0637  131.0097  151.3214 LP  0  0  0  0  0  0  0  0  0  0  0  0  # atno 17371 bound_to 10713
  140.2875  134.3278  155.7325 LP  0  0  0  0  0  0  0  0  0  0  0  0  # atno 17394 bound_to 11000
  141.2165  133.7515  156.9455 LP  0  0  0  0  0  0  0  0  0  0  0  0  # atno 17395 bound_to 11000

$$$$
