#       Name:                AV-unprocessed.smi:3082
#       Creating user name   scv26
#       Creation time:       Fri Mar 27 17:13:54 2020


#       File generated by GOLD software.
#

@<TRIPOS>MOLECULE
AV-unprocessed.smi:3082
    29    30     1
SMALL
NO_CHARGES


@<TRIPOS>ATOM
      1 ****        -4.5404   0.8997   0.0062 C.3            1 S1                 0.0000
      2 ****        -3.0389   0.8918   0.0070 C.2            1 S1                 0.0000
      3 ****        -2.1581   2.0098   0.0322 C.2            1 S1                 0.0000
      4 ****        -0.8829   1.6585   0.0285 N.2            1 S1                 0.0000
      5 ****        -0.9014   0.3074  -0.0009 N.pl3          1 S1                 0.0000
      6 ****         0.3446  -0.4445  -0.0127 C.3            1 S1                 0.0000
      7 ****         1.1713  -0.1539  -1.2816 C.3            1 S1                 0.0000
      8 ****         2.4881  -0.9449  -1.2526 C.3            1 S1                 0.0000
      9 ****         3.2727  -0.6578   0.0386 C.3            1 S1                 0.0000
     10 ****         2.4437  -0.9434   1.2301 N.4            1 S1                 1.0000
     11 ****         1.1826  -0.1704   1.2547 C.3            1 S1                 0.0000
     12 ****        -2.1918  -0.1797  -0.0162 C.2            1 S1                 0.0000
     13 ****        -4.9412   1.9137   0.0063 H              1 S1                 0.0000
     14 ****        -4.9452   0.3951   0.8838 H              1 S1                 0.0000
     15 ****        -4.9446   0.3952  -0.8716 H              1 S1                 0.0000
     16 ****        -2.4066   3.0607   0.0544 H              1 S1                 0.0000
     17 ****         0.0787  -1.5032  -0.0188 H              1 S1                 0.0000
     18 ****         0.5996  -0.4137  -2.1733 H              1 S1                 0.0000
     19 ****         1.3937   0.9117  -1.3539 H              1 S1                 0.0000
     20 ****         2.2761  -2.0125  -1.3240 H              1 S1                 0.0000
     21 ****         3.0947  -0.6910  -2.1223 H              1 S1                 0.0000
     22 ****         4.1744  -1.2694   0.0776 H              1 S1                 0.0000
     23 ****         3.5924   0.3849   0.0651 H              1 S1                 0.0000
     24 ****         2.2174  -1.9276   1.2359 H              1 S1                 0.0000
     25 ****         1.4242   0.8901   1.3409 H              1 S1                 0.0000
     26 ****         0.6202  -0.4423   2.1484 H              1 S1                 0.0000
     27 ****        -2.4008  -1.2392  -0.0409 H              1 S1                 0.0000
     28 ****         2.9767  -0.7263   2.0602 H              1 S1                 0.0000
     29 ****        -0.0833   2.2589   0.0440 LP             1 S1                 0.0000
@<TRIPOS>BOND
    1    1    2 1     
    2    1   13 1     
    3    1   14 1     
    4    1   15 1     
    5    2   12 2     
    6    2    3 1     
    7    3    4 2     
    8    3   16 1     
    9    4    5 1     
   10    5    6 1     
   11    5   12 1     
   12    6   11 1     
   13    6    7 1     
   14    6   17 1     
   15    7    8 1     
   16    7   18 1     
   17    7   19 1     
   18    8    9 1     
   19    8   20 1     
   20    8   21 1     
   21    9   10 1     
   22    9   22 1     
   23    9   23 1     
   24   10   11 1     
   25   10   24 1     
   26   10   28 1     
   27   11   25 1     
   28   11   26 1     
   29   12   27 1     
   30    4   29 1     
@<TRIPOS>SUBSTRUCTURE
      1 S1             1
@<TRIPOS>SET
LONE_PAIRS      STATIC     ATOMS    <user>   **** ""
1 29
DONOR_HYDROGENS      STATIC     ATOMS    <user>   **** ""
2 24 28
ATOM$BLUE        STATIC     ATOMS    COLORGROUP SYSTEM
1 29
ATOM$RED        STATIC     ATOMS    COLORGROUP SYSTEM
2 24 28
