AV-unprocessed.smi:1633|AV-procd|sdf|6534|dock9
  -GOLD-   22720 7213D 1   1.00000     0.00000
 Structure written by MMmdl.
 52 54  0  0  0  0  0  0  0  0  3 V2000
  145.4032  133.5189  156.0413 C   0  0  0  0  0  0  0  0  0  0  0  0
  146.7549  133.0733  155.4789 C   0  0  0  0  0  0  0  0  0  0  0  0
  147.1604  131.9487  155.7714 O   0  0  0  0  0  0  0  0  0  0  0  0
  147.4561  133.9197  154.6870 N   0  0  0  0  0  0  0  0  0  0  0  0
  148.7783  133.5906  154.1470 C   0  0  0  0  0  0  0  0  0  0  0  0
  149.8276  134.5279  154.7716 C   0  0  0  0  0  0  0  0  0  0  0  0
  149.4733  135.9572  154.5633 N   0  3  0  0  0  0  0  0  0  0  0  0
  150.4927  136.8772  155.1314 C   0  0  0  0  0  0  0  0  0  0  0  0
  150.1798  138.3629  154.8591 C   0  0  2  0  0  0  0  0  0  0  0  0
  149.8691  138.5156  153.4879 O   0  0  0  0  0  0  0  0  0  0  0  0
  151.3710  139.2714  155.2226 C   0  0  0  0  0  0  0  0  0  0  0  0
  150.9558  140.5525  155.8134 N   0  0  0  0  0  0  0  0  0  0  0  0
  150.1077  141.4985  155.3248 C   0  0  0  0  0  0  0  0  0  0  0  0
  150.0387  142.5027  156.2418 N   0  3  0  0  0  0  0  0  0  0  0  0
  150.8527  142.1941  157.3335 C   0  0  0  0  0  0  0  0  0  0  0  0
  151.1107  142.8989  158.5030 C   0  0  0  0  0  0  0  0  0  0  0  0
  152.0008  142.3093  159.4284 C   0  0  0  0  0  0  0  0  0  0  0  0
  152.3097  143.0568  160.7146 C   0  0  0  0  0  0  0  0  0  0  0  0
  152.5961  141.0482  159.1667 C   0  0  0  0  0  0  0  0  0  0  0  0
  153.5506  140.4229  160.1697 C   0  0  0  0  0  0  0  0  0  0  0  0
  152.3194  140.3462  157.9716 C   0  0  0  0  0  0  0  0  0  0  0  0
  151.4426  140.9427  157.0678 C   0  0  0  0  0  0  0  0  0  0  0  0
  148.0809  136.2690  154.9902 C   0  0  0  0  0  0  0  0  0  0  0  0
  147.0698  135.2954  154.3577 C   0  0  0  0  0  0  0  0  0  0  0  0
  145.5162  134.4053  156.6660 H   0  0  0  0  0  0  0  0  0  0  0  0
  144.9653  132.7322  156.6569 H   0  0  0  0  0  0  0  0  0  0  0  0
  144.7021  133.7382  155.2355 H   0  0  0  0  0  0  0  0  0  0  0  0
  149.0642  132.5524  154.3222 H   0  0  0  0  0  0  0  0  0  0  0  0
  148.7620  133.7148  153.0631 H   0  0  0  0  0  0  0  0  0  0  0  0
  149.9118  134.3288  155.8414 H   0  0  0  0  0  0  0  0  0  0  0  0
  150.8043  134.3228  154.3316 H   0  0  0  0  0  0  0  0  0  0  0  0
  150.5845  136.6947  156.2031 H   0  0  0  0  0  0  0  0  0  0  0  0
  151.4684  136.6478  154.7000 H   0  0  0  0  0  0  0  0  0  0  0  0
  149.3161  138.6831  155.4410 H   0  0  0  0  0  0  0  0  0  0  0  0
  149.6002  137.6765  153.1451 H   0  0  0  0  0  0  0  0  0  0  0  0
  152.0038  138.7735  155.9582 H   0  0  0  0  0  0  0  0  0  0  0  0
  152.0061  139.4622  154.3569 H   0  0  0  0  0  0  0  0  0  0  0  0
  149.5818  141.4598  154.3816 H   0  0  0  0  0  0  0  0  0  0  0  0
  150.6527  143.8581  158.6969 H   0  0  0  0  0  0  0  0  0  0  0  0
  151.9794  142.4815  161.5798 H   0  0  0  0  0  0  0  0  0  0  0  0
  151.8070  144.0238  160.7450 H   0  0  0  0  0  0  0  0  0  0  0  0
  153.3810  143.2370  160.8064 H   0  0  0  0  0  0  0  0  0  0  0  0
  153.8759  139.4330  159.8484 H   0  0  0  0  0  0  0  0  0  0  0  0
  153.0696  140.3138  161.1420 H   0  0  0  0  0  0  0  0  0  0  0  0
  154.4390  141.0437  160.2893 H   0  0  0  0  0  0  0  0  0  0  0  0
  152.7779  139.3889  157.7735 H   0  0  0  0  0  0  0  0  0  0  0  0
  148.0141  136.2130  156.0781 H   0  0  0  0  0  0  0  0  0  0  0  0
  147.8149  137.2869  154.7084 H   0  0  0  0  0  0  0  0  0  0  0  0
  147.0708  135.4122  153.2729 H   0  0  0  0  0  0  0  0  0  0  0  0
  146.0621  135.5576  154.6768 H   0  0  0  0  0  0  0  0  0  0  0  0
  149.5017  136.0973  153.5628 H   0  0  0  0  0  0  0  0  0  0  0  0
  149.4745  143.3356  156.1298 H   0  0  0  0  0  0  0  0  0  0  0  0
  1  2  1  0  0  0  0
  1 25  1  0  0  0  0
  1 26  1  0  0  0  0
  1 27  1  0  0  0  0
  2  3  2  0  0  0  0
  2  4  1  0  0  0  0
  4 24  1  0  0  0  0
  4  5  1  0  0  0  0
  5  6  1  0  0  0  0
  5 28  1  0  0  0  0
  5 29  1  0  0  0  0
  6  7  1  0  0  0  0
  6 30  1  0  0  0  0
  6 31  1  0  0  0  0
  7  8  1  0  0  0  0
  7 23  1  0  0  0  0
  7 51  1  0  0  0  0
  8  9  1  0  0  0  0
  8 32  1  0  0  0  0
  8 33  1  0  0  0  0
  9 10  1  0  0  0  0
  9 11  1  0  0  0  0
  9 34  1  0  0  0  0
 10 35  1  0  0  0  0
 11 12  1  0  0  0  0
 11 36  1  0  0  0  0
 11 37  1  0  0  0  0
 12 22  1  0  0  0  0
 12 13  1  0  0  0  0
 13 14  2  0  0  0  0
 13 38  1  0  0  0  0
 14 15  1  0  0  0  0
 14 52  1  0  0  0  0
 15 22  2  0  0  0  0
 15 16  1  0  0  0  0
 16 17  2  0  0  0  0
 16 39  1  0  0  0  0
 17 18  1  0  0  0  0
 17 19  1  0  0  0  0
 18 40  1  0  0  0  0
 18 41  1  0  0  0  0
 18 42  1  0  0  0  0
 19 20  1  0  0  0  0
 19 21  2  0  0  0  0
 20 43  1  0  0  0  0
 20 44  1  0  0  0  0
 20 45  1  0  0  0  0
 21 22  1  0  0  0  0
 21 46  1  0  0  0  0
 23 24  1  0  0  0  0
 23 47  1  0  0  0  0
 23 48  1  0  0  0  0
 24 49  1  0  0  0  0
 24 50  1  0  0  0  0
M  CHG  1   7   1
M  CHG  1  14   1
M  END
> <s_m_source_file>
AV-unprocessed.smi

> <i_m_source_file_index>
1633

> <i_lp_mmshare_version>
43012

> <i_f3d_flags>
0

> <s_epik_input>
W0NIM11DKD1PKU4xW0NIMl1bQ0gyXU4oW0NIMl1bQ0gyXTEpW0NIMl1bQ0BIXShbT0hdKVtDSDJdbihbY0hdbjIpYyhjMjMpW2NIXWMoW0NIM10pYyhbY0hdMylbQ0gzXQ==

> <s_epik_cmdline>
J2VwaWtfcHl0aG9uJywgJy1waCcsICc3LjAnLCAnLXRuJywgJzgnLCAnLW1hJywgJzIwMCcsICctbWV0YWxfYmluZGluZycsICctaW1hZScsICc8aW5maWxlLm1hZT4nLCAnLW9tYWUnLCAnPG91dGZpbGUubWFlPic=

> <r_epik_Ionization_Penalty>
1.18448

> <r_epik_Ionization_Penalty_Charging>
1.18447

> <r_epik_Ionization_Penalty_Neutral>
4.53746e-06

> <r_epik_State_Penalty>
1.28566

> <r_epik_Charging_Adjusted_Penalty>
2.47013

> <i_epik_Tot_Q>
2

> <i_epik_Tot_abs_Q>
2

> <r_epik_Metal_State_Penalty>
5.30076

> <b_epik_Metal_Only>
0

> <s_lp_Force_Field>
OPLS_2005

> <r_lp_Energy>
52.9318

> <b_lp_Chiralities_Consistent>
1

> <s_lp_Variant>
AV-unprocessed.smi:1633-3

> <Gold.Version>
5.8.1

> <Gold.Id.Protein>
6NUR|6NUR_protein|mol2

> <Gold.PLP.Fitness>
57.1809

> <Gold.PLP.PLP>
-43.3624

> <Gold.PLP.part.hbond>
-4.0000

> <Gold.PLP.part.metal>
0.0000

> <Gold.PLP.part.buried>
-2.7102

> <Gold.PLP.part.nonpolar>
-34.7063

> <Gold.PLP.part.repulsive>
0.1245

> <Gold.PLP.ligand.clash>
0.0000

> <Gold.PLP.ligand.torsion>
0.6067

> <Gold.PLP.Chemscore.Hbond>
5.0000

> <Gold.PLP.Chemscore.CHOScore>
0.0000

> <Gold.PLP.Chemscore.Metal>
0.0000

> <Gold.Chemscore.Hbonds>
donor molecule, donor type, donor heavy atom, donor atom, acceptor molecule, acceptor atom, score
      L1  H     7    51       P1  7948  2.00
      L1  H    10    35       P1  7948  1.00
      L1  H    14    52       P1  8028  2.00

> <Gold.PLP.Chemscore.Internal.Correction>
0.0318

> <Gold.Rescore>
     Score         DG    S(hbond)    S(metal)    S(lipo)     H(rot)  DE(clash)    DE(int)     intcor
     20.50     -21.12       2.90        0.00      99.40       2.22       0.08       0.54       ----

> <Gold.Chemscore.Fitness>
20.5016

> <Gold.Chemscore.DG>
-21.1229

> <Gold.Chemscore.ZeroCoef>
-5.4800

> <Gold.Chemscore.Hbond>
2.9015

> <Gold.Chemscore.Metal>
0.0000

> <Gold.Chemscore.Lipo>
99.3968

> <Gold.Chemscore.Internal_Hbond>
0.0000

> <Gold.Chemscore.DEClash>
0.0824

> <Gold.Chemscore.DEInternal>
0.5388

> <Gold.Chemscore.Rot>
2.2178

> <Gold.Chemscore.Internal.Correction>
   9.000000E+99

> <Gold.Chemscore.Hbonds>
donor molecule, donor type, donor heavy atom, donor atom, acceptor molecule, acceptor atom, score
      L1  H     7    51       P1  7948  0.50
      L1  H    10    35       P1  7948  0.75
      L1  H    14    52       P1  8028  0.97

> <Gold.Chemscore.Hbond.Weighted>
-9.6910

> <Gold.Chemscore.Metal.Weighted>
-0.0000

> <Gold.Chemscore.Lipo.Weighted>
-11.6294

> <Gold.Chemscore.Internal_Hbond.Weighted>
0.0000

> <Gold.Chemscore.DEClash.Weighted>
0.0824

> <Gold.Chemscore.DEInternal.Weighted>
0.5388

> <Gold.Chemscore.Rot.Weighted>
5.6775

> <Gold.Chemscore.Internal.Correction.Weighted>
   9.000000E+99

> <Gold.Protein.RotatedTorsions>
[ 6907 6896 6895 6894 ] final -102.25 input  -60.11 | X-H torsion
[ 7974 7965 7964 7962 ] final -152.93 input  175.53 | X-H torsion
[ 8008 7997 7996 7995 ] final -125.91 input   59.86 | X-H torsion
[ 10167 10162 10161 10158 ] final  152.80 input  -65.29 | X-H torsion
[ 10718 10713 10712 10709 ] final -136.21 input   66.30 | X-H torsion
[ 10763 10752 10751 10750 ] final  170.09 input  -60.55 | X-H torsion
[ 11005 11000 10999 10996 ] final -108.43 input  -57.11 | X-H torsion

> <Gold.Protein.ActiveResidues>
 VAL166  LYS551  ARG553  GLY616  TRP617  ASP618  TYR619  PRO620  LYS621  CYS622 
 ASP623  PHE694  ASN695  SER759  ASP760  ASP761  ALA762  ILE779  LEU786  VAL792 
 PHE793  MET794  SER795  GLU796  ALA797  LYS798  CYS799  TRP800  GLU811  SER814 

> <Gold.Protein.RotatedAtoms>
  150.7188  134.0610  159.3830 H   0  0  0  0  0  0  0  0  0  0  0  0  # atno 6907 bound_to 6896
  151.8589  135.0529  160.0476 H   0  0  0  0  0  0  0  0  0  0  0  0  # atno 6908 bound_to 6896
  152.2732  133.5366  159.5488 H   0  0  0  0  0  0  0  0  0  0  0  0  # atno 6909 bound_to 6896
  144.7768  140.4596  143.5868 H   0  0  0  0  0  0  0  0  0  0  0  0  # atno 7974 bound_to 7965
  155.2210  140.0422  157.2948 H   0  0  0  0  0  0  0  0  0  0  0  0  # atno 8008 bound_to 7997
  154.5950  140.2437  155.7840 H   0  0  0  0  0  0  0  0  0  0  0  0  # atno 8009 bound_to 7997
  156.2284  140.2947  156.0134 H   0  0  0  0  0  0  0  0  0  0  0  0  # atno 8010 bound_to 7997
  139.4830  144.5327  151.7696 H   0  0  0  0  0  0  0  0  0  0  0  0  # atno 10167 bound_to 10162
  156.2745  130.7285  151.1263 H   0  0  0  0  0  0  0  0  0  0  0  0  # atno 10718 bound_to 10713
  154.3926  135.2754  155.2145 H   0  0  0  0  0  0  0  0  0  0  0  0  # atno 10763 bound_to 10752
  154.4205  135.6001  153.6010 H   0  0  0  0  0  0  0  0  0  0  0  0  # atno 10764 bound_to 10752
  152.9832  135.5971  154.4183 H   0  0  0  0  0  0  0  0  0  0  0  0  # atno 10765 bound_to 10752
  141.0902  133.9069  157.2094 H   0  0  0  0  0  0  0  0  0  0  0  0  # atno 11005 bound_to 11000
  145.6164  139.1519  143.3047 LP  0  0  0  0  0  0  0  0  0  0  0  0  # atno 17320 bound_to 7965
  146.1952  140.6277  142.9127 LP  0  0  0  0  0  0  0  0  0  0  0  0  # atno 17321 bound_to 7965
  140.4856  144.1386  150.5940 LP  0  0  0  0  0  0  0  0  0  0  0  0  # atno 17342 bound_to 10162
  140.4229  143.2603  151.9692 LP  0  0  0  0  0  0  0  0  0  0  0  0  # atno 17343 bound_to 10162
  157.7295  131.0624  150.5772 LP  0  0  0  0  0  0  0  0  0  0  0  0  # atno 17370 bound_to 10713
  156.5872  130.4319  149.5952 LP  0  0  0  0  0  0  0  0  0  0  0  0  # atno 17371 bound_to 10713
  139.9726  135.0123  156.9551 LP  0  0  0  0  0  0  0  0  0  0  0  0  # atno 17394 bound_to 11000
  140.5270  134.0850  155.7306 LP  0  0  0  0  0  0  0  0  0  0  0  0  # atno 17395 bound_to 11000

$$$$
