#       Name:                AV-unprocessed.smi:3351
#       Creating user name   scv26
#       Creation time:       Fri Mar 27 19:38:45 2020


#       File generated by GOLD software.
#

@<TRIPOS>MOLECULE
AV-unprocessed.smi:3351
    39    40     1
SMALL
NO_CHARGES


@<TRIPOS>ATOM
      1 ****        -1.7435  -1.6231  -1.7653 C.3            1 S1                 0.0000
      2 ****        -1.2583  -0.7688  -0.5826 C.3            1 S1                 0.0000
      3 ****        -1.7880  -1.2626   0.7811 C.3            1 S1                 0.0000
      4 ****        -3.2370  -1.3046   0.8386 N.pl3          1 S1                 0.0000
      5 ****        -4.1007  -0.2226   0.9446 C.2            1 S1                 0.0000
      6 ****        -5.3767  -0.7390   0.9676 C.2            1 S1                 0.0000
      7 ****        -5.3218  -2.1283   0.8830 N.2            1 S1                 0.0000
      8 ****        -4.0230  -2.3899   0.8128 C.2            1 S1                 0.0000
      9 ****         0.2018  -0.7459  -0.5773 N.am           1 S1                 0.0000
     10 ****         0.9619   0.2404  -0.0773 C.2            1 S1                 0.0000
     11 ****         0.4963   1.2441   0.4641 O.2            1 S1                 0.0000
     12 ****         2.4791   0.0421  -0.1846 C.3            1 S1                 0.0000
     13 ****         3.2138   1.3043  -0.2862 N.am           1 S1                 0.0000
     14 ****         3.8375   1.8654   0.9059 C.3            1 S1                 0.0000
     15 ****         4.8084   2.9597   0.4580 C.3            1 S1                 0.0000
     16 ****         4.2751   3.5331  -1.1667 S.3            1 S1                 0.0000
     17 ****         3.2897   2.0590  -1.4496 C.2            1 S1                 0.0000
     18 ****         2.7788   1.8095  -2.5400 O.2            1 S1                 0.0000
     19 ****        -2.8283  -1.5864  -1.8669 H              1 S1                 0.0000
     20 ****        -1.4552  -2.6676  -1.6444 H              1 S1                 0.0000
     21 ****        -1.3200  -1.2670  -2.7050 H              1 S1                 0.0000
     22 ****        -1.6190   0.2482  -0.7488 H              1 S1                 0.0000
     23 ****        -1.4027  -2.2602   0.9976 H              1 S1                 0.0000
     24 ****        -1.4399  -0.6125   1.5850 H              1 S1                 0.0000
     25 ****        -3.7455   0.7965   0.9915 H              1 S1                 0.0000
     26 ****        -6.3221  -0.2221   1.0398 H              1 S1                 0.0000
     27 ****        -3.6347  -3.3950   0.7364 H              1 S1                 0.0000
     28 ****         0.6699  -1.5348  -0.9997 H              1 S1                 0.0000
     29 ****         2.8153  -0.5142   0.6912 H              1 S1                 0.0000
     30 ****         2.7113  -0.5794  -1.0512 H              1 S1                 0.0000
     31 ****         3.0546   2.2903   1.5353 H              1 S1                 0.0000
     32 ****         4.3514   1.1003   1.4890 H              1 S1                 0.0000
     33 ****         4.8586   3.7832   1.1704 H              1 S1                 0.0000
     34 ****         5.8123   2.5466   0.3548 H              1 S1                 0.0000
     35 ****        -6.0831  -2.7767   0.8766 LP             1 S1                 0.0000
     36 ****        -0.4942   1.3532   0.5476 LP             1 S1                 0.0000
     37 ****         1.1088   1.9499   0.8200 LP             1 S1                 0.0000
     38 ****         2.2345   0.9791  -2.6589 LP             1 S1                 0.0000
     39 ****         2.9077   2.4371  -3.3079 LP             1 S1                 0.0000
@<TRIPOS>BOND
    1    1    2 1     
    2    1   19 1     
    3    1   20 1     
    4    1   21 1     
    5    2    3 1     
    6    2    9 1     
    7    2   22 1     
    8    3    4 1     
    9    3   23 1     
   10    3   24 1     
   11    4    8 1     
   12    4    5 1     
   13    5    6 2     
   14    5   25 1     
   15    6    7 1     
   16    6   26 1     
   17    7    8 2     
   18    8   27 1     
   19    9   10 am    
   20    9   28 1     
   21   10   11 2     
   22   10   12 1     
   23   12   13 1     
   24   12   29 1     
   25   12   30 1     
   26   13   17 am    
   27   13   14 1     
   28   14   15 1     
   29   14   31 1     
   30   14   32 1     
   31   15   16 1     
   32   15   33 1     
   33   15   34 1     
   34   16   17 1     
   35   17   18 2     
   36    7   35 1     
   37   11   36 1     
   38   11   37 1     
   39   18   38 1     
   40   18   39 1     
@<TRIPOS>SUBSTRUCTURE
      1 S1             1
@<TRIPOS>SET
LONE_PAIRS      STATIC     ATOMS    <user>   **** ""
5 35 36 37 38 39
DONOR_HYDROGENS      STATIC     ATOMS    <user>   **** ""
1 28
ATOM$BLUE        STATIC     ATOMS    COLORGROUP SYSTEM
5 35 36 37 38 39
ATOM$RED        STATIC     ATOMS    COLORGROUP SYSTEM
1 28
