AV-unprocessed.smi:481|AV-procd|sdf|2683|dock8
  -GOLD-   2262023113D 1   1.00000     0.00000
 Structure written by MMmdl.
 42 44  0  0  0  0  0  0  0  0  2 V2000
  148.2709  141.1250  154.1933 C   0  0  0  0  0  0  0  0  0  0  0  0
  148.7467  139.8541  153.7779 O   0  0  0  0  0  0  0  0  0  0  0  0
  149.7787  139.3281  154.6005 C   0  0  0  0  0  0  0  0  0  0  0  0
  150.4886  138.1345  153.9387 C   0  0  0  0  0  0  0  0  0  0  0  0
  151.2776  137.3799  154.9068 N   0  0  0  0  0  0  0  0  0  0  0  0
  151.2034  136.0526  155.1801 C   0  0  0  0  0  0  0  0  0  0  0  0
  150.2772  135.2571  154.4911 N   0  0  0  0  0  0  0  0  0  0  0  0
  150.1548  133.9478  154.7132 N   0  0  0  0  0  0  0  0  0  0  0  0
  149.3072  133.2184  154.0624 C   0  0  0  0  0  0  0  0  0  0  0  0
  148.2775  133.6745  153.1044 C   0  0  0  0  0  0  0  0  0  0  0  0
  147.4069  134.7559  153.3784 C   0  0  0  0  0  0  0  0  0  0  0  0
  146.4414  135.1523  152.4332 C   0  0  0  0  0  0  0  0  0  0  0  0
  146.3284  134.4654  151.2103 C   0  0  0  0  0  0  0  0  0  0  0  0
  147.1778  133.3771  150.9364 C   0  0  0  0  0  0  0  0  0  0  0  0
  148.1437  132.9810  151.8818 C   0  0  0  0  0  0  0  0  0  0  0  0
  152.0614  135.6336  156.1170 N   0  0  0  0  0  0  0  0  0  0  0  0
  152.7325  136.7948  156.4686 C   0  0  0  0  0  0  0  0  0  0  0  0
  152.2725  137.8609  155.7615 C   0  0  0  0  0  0  0  0  0  0  0  0
  152.7781  139.2407  155.9262 C   0  0  0  0  0  0  0  0  0  0  0  0
  152.3099  140.1699  155.2710 O   0  0  0  0  0  0  0  0  0  0  0  0
  153.7765  139.3153  156.8627 N   0  5  0  0  0  0  0  0  0  0  0  0
  154.2779  138.2620  157.5982 C   0  0  0  0  0  0  0  0  0  0  0  0
  155.1780  138.4164  158.4246 O   0  0  0  0  0  0  0  0  0  0  0  0
  153.7711  137.0017  157.4167 N   0  0  0  0  0  0  0  0  0  0  0  0
  154.2848  135.8627  158.1830 C   0  0  0  0  0  0  0  0  0  0  0  0
  147.4354  141.4231  153.5603 H   0  0  0  0  0  0  0  0  0  0  0  0
  149.0381  141.8941  154.1082 H   0  0  0  0  0  0  0  0  0  0  0  0
  147.9153  141.0991  155.2241 H   0  0  0  0  0  0  0  0  0  0  0  0
  150.4875  140.1104  154.8759 H   0  0  0  0  0  0  0  0  0  0  0  0
  149.3157  138.9935  155.5292 H   0  0  0  0  0  0  0  0  0  0  0  0
  149.7555  137.4770  153.4717 H   0  0  0  0  0  0  0  0  0  0  0  0
  151.1441  138.4530  153.1302 H   0  0  0  0  0  0  0  0  0  0  0  0
  149.4627  135.7700  154.1854 H   0  0  0  0  0  0  0  0  0  0  0  0
  149.3599  132.1420  154.2268 H   0  0  0  0  0  0  0  0  0  0  0  0
  147.4688  135.2892  154.3155 H   0  0  0  0  0  0  0  0  0  0  0  0
  145.7859  135.9832  152.6484 H   0  0  0  0  0  0  0  0  0  0  0  0
  145.5886  134.7703  150.4849 H   0  0  0  0  0  0  0  0  0  0  0  0
  147.0902  132.8464  149.9999 H   0  0  0  0  0  0  0  0  0  0  0  0
  148.7911  132.1458  151.6557 H   0  0  0  0  0  0  0  0  0  0  0  0
  154.1267  136.0196  159.2507 H   0  0  0  0  0  0  0  0  0  0  0  0
  155.3545  135.7361  158.0108 H   0  0  0  0  0  0  0  0  0  0  0  0
  153.8003  134.9239  157.9160 H   0  0  0  0  0  0  0  0  0  0  0  0
  1  2  1  0  0  0  0
  1 26  1  0  0  0  0
  1 27  1  0  0  0  0
  1 28  1  0  0  0  0
  2  3  1  0  0  0  0
  3  4  1  0  0  0  0
  3 29  1  0  0  0  0
  3 30  1  0  0  0  0
  4  5  1  0  0  0  0
  4 31  1  0  0  0  0
  4 32  1  0  0  0  0
  5 18  1  0  0  0  0
  5  6  1  0  0  0  0
  6  7  1  0  0  0  0
  6 16  2  0  0  0  0
  7  8  1  0  0  0  0
  7 33  1  0  0  0  0
  8  9  2  0  0  0  0
  9 10  1  0  0  0  0
  9 34  1  0  0  0  0
 10 15  1  0  0  0  0
 10 11  2  0  0  0  0
 11 12  1  0  0  0  0
 11 35  1  0  0  0  0
 12 13  2  0  0  0  0
 12 36  1  0  0  0  0
 13 14  1  0  0  0  0
 13 37  1  0  0  0  0
 14 15  2  0  0  0  0
 14 38  1  0  0  0  0
 15 39  1  0  0  0  0
 16 17  1  0  0  0  0
 17 24  1  0  0  0  0
 17 18  2  0  0  0  0
 18 19  1  0  0  0  0
 19 20  2  0  0  0  0
 19 21  1  0  0  0  0
 21 22  1  0  0  0  0
 22 23  2  0  0  0  0
 22 24  1  0  0  0  0
 24 25  1  0  0  0  0
 25 40  1  0  0  0  0
 25 41  1  0  0  0  0
 25 42  1  0  0  0  0
M  CHG  1  21  -1
M  END
> <s_m_source_file>
AV-unprocessed.smi

> <i_m_source_file_index>
481

> <i_lp_mmshare_version>
43012

> <i_f3d_flags>
0

> <s_epik_input>
W0NIM11uMWMoPU8pW25IXWMoPU8pYyhjMTIpbihbQ0gyXVtDSDJdT1tDSDNdKWMobjIpW05IXS9OPVtDSF0vYzNbY0hdW2NIXVtjSF1bY0hdW2NIXTM=

> <s_epik_cmdline>
J2VwaWtfcHl0aG9uJywgJy1waCcsICc3LjAnLCAnLXRuJywgJzgnLCAnLW1hJywgJzIwMCcsICctbWV0YWxfYmluZGluZycsICctaW1hZScsICc8aW5maWxlLm1hZT4nLCAnLW9tYWUnLCAnPG91dGZpbGUubWFlPic=

> <r_epik_Ionization_Penalty>
4.48471

> <r_epik_Ionization_Penalty_Charging>
4.58449e-09

> <r_epik_Ionization_Penalty_Neutral>
4.48471

> <r_epik_State_Penalty>
4.48428

> <r_epik_Charging_Adjusted_Penalty>
4.48428

> <i_epik_Tot_Q>
-1

> <i_epik_Tot_abs_Q>
1

> <r_epik_Metal_State_Penalty>
0.811551

> <b_epik_Metal_Only>
1

> <s_epik_Chemistry_Notes>
This compound has an imine and may undergo hydrolysis.

> <s_lp_Force_Field>
OPLS_2005

> <r_lp_Energy>
49.411

> <b_lp_Chiralities_Consistent>
1

> <s_lp_Variant>
AV-unprocessed.smi:481-4

> <Gold.Version>
5.8.1

> <Gold.Id.Protein>
6NUR|6NUR_protein|mol2

> <Gold.PLP.Fitness>
39.7482

> <Gold.PLP.PLP>
-30.0391

> <Gold.PLP.part.hbond>
-4.7416

> <Gold.PLP.part.metal>
0.0000

> <Gold.PLP.part.buried>
4.6879

> <Gold.PLP.part.nonpolar>
-30.0701

> <Gold.PLP.part.repulsive>
1.4973

> <Gold.PLP.ligand.clash>
0.0000

> <Gold.PLP.ligand.torsion>
0.5310

> <Gold.PLP.Chemscore.Hbond>
3.4092

> <Gold.PLP.Chemscore.CHOScore>
0.0000

> <Gold.PLP.Chemscore.Metal>
0.0000

> <Gold.Chemscore.Hbonds>
donor molecule, donor type, donor heavy atom, donor atom, acceptor molecule, acceptor atom, score
      L1  H     7    33       P1  7948  0.04
      P1  H  7989  7998       L1    20  0.62
      P1  H  7997  8009       L1    23  0.16
      P1  H  7997  8010       L1    21  0.12

> <Gold.PLP.Chemscore.Internal.Correction>
0.5435

> <Gold.Rescore>
     Score         DG    S(hbond)    S(metal)    S(lipo)     H(rot)  DE(clash)    DE(int)     intcor
     10.58     -13.87       1.57        0.00      60.10       1.52       1.54       1.75       ----

> <Gold.Chemscore.Fitness>
10.5808

> <Gold.Chemscore.DG>
-13.8700

> <Gold.Chemscore.ZeroCoef>
-5.4800

> <Gold.Chemscore.Hbond>
1.5741

> <Gold.Chemscore.Metal>
0.0000

> <Gold.Chemscore.Lipo>
60.0981

> <Gold.Chemscore.Internal_Hbond>
0.0000

> <Gold.Chemscore.DEClash>
1.5428

> <Gold.Chemscore.DEInternal>
1.7465

> <Gold.Chemscore.Rot>
1.5230

> <Gold.Chemscore.Internal.Correction>
   9.000000E+99

> <Gold.Chemscore.Hbonds>
donor molecule, donor type, donor heavy atom, donor atom, acceptor molecule, acceptor atom, score
      L1  H     7    33       P1  7948  0.03
      P1  H  7989  7998       L1    20  0.61

> <Gold.Chemscore.Hbond.Weighted>
-5.2574

> <Gold.Chemscore.Metal.Weighted>
-0.0000

> <Gold.Chemscore.Lipo.Weighted>
-7.0315

> <Gold.Chemscore.Internal_Hbond.Weighted>
0.0000

> <Gold.Chemscore.DEClash.Weighted>
1.5428

> <Gold.Chemscore.DEInternal.Weighted>
1.7465

> <Gold.Chemscore.Rot.Weighted>
3.8989

> <Gold.Chemscore.Internal.Correction.Weighted>
   9.000000E+99

> <Gold.Protein.RotatedTorsions>
[ 6907 6896 6895 6894 ] final   60.85 input  -60.11 | X-H torsion
[ 7974 7965 7964 7962 ] final   87.64 input  175.53 | X-H torsion
[ 8008 7997 7996 7995 ] final   88.81 input   59.86 | X-H torsion
[ 10167 10162 10161 10158 ] final  -52.52 input  -65.29 | X-H torsion
[ 10718 10713 10712 10709 ] final  136.74 input   66.30 | X-H torsion
[ 10763 10752 10751 10750 ] final  -93.16 input  -60.55 | X-H torsion
[ 11005 11000 10999 10996 ] final  -80.58 input  -57.11 | X-H torsion

> <Gold.Protein.ActiveResidues>
 VAL166  LYS551  ARG553  GLY616  TRP617  ASP618  TYR619  PRO620  LYS621  CYS622 
 ASP623  PHE694  ASN695  SER759  ASP760  ASP761  ALA762  ILE779  LEU786  VAL792 
 PHE793  MET794  SER795  GLU796  ALA797  LYS798  CYS799  TRP800  GLU811  SER814 

> <Gold.Protein.RotatedAtoms>
  152.4039  134.6240  160.0058 H   0  0  0  0  0  0  0  0  0  0  0  0  # atno 6907 bound_to 6896
  151.6437  133.3319  159.3144 H   0  0  0  0  0  0  0  0  0  0  0  0  # atno 6908 bound_to 6896
  150.7936  134.7020  159.6600 H   0  0  0  0  0  0  0  0  0  0  0  0  # atno 6909 bound_to 6896
  145.5563  139.2300  143.2484 H   0  0  0  0  0  0  0  0  0  0  0  0  # atno 7974 bound_to 7965
  155.9923  140.3367  155.6765 H   0  0  0  0  0  0  0  0  0  0  0  0  # atno 8008 bound_to 7997
  155.6404  140.0694  157.2638 H   0  0  0  0  0  0  0  0  0  0  0  0  # atno 8009 bound_to 7997
  154.4223  140.1744  156.1554 H   0  0  0  0  0  0  0  0  0  0  0  0  # atno 8010 bound_to 7997
  140.6533  143.2581  151.4660 H   0  0  0  0  0  0  0  0  0  0  0  0  # atno 10167 bound_to 10162
  157.4435  131.1060  151.0116 H   0  0  0  0  0  0  0  0  0  0  0  0  # atno 10718 bound_to 10713
  154.6932  135.5205  153.8421 H   0  0  0  0  0  0  0  0  0  0  0  0  # atno 10763 bound_to 10752
  153.0647  135.6581  154.0390 H   0  0  0  0  0  0  0  0  0  0  0  0  # atno 10764 bound_to 10752
  154.0261  135.2989  155.3354 H   0  0  0  0  0  0  0  0  0  0  0  0  # atno 10765 bound_to 10752
  141.1668  133.7156  156.8293 H   0  0  0  0  0  0  0  0  0  0  0  0  # atno 11005 bound_to 11000
  146.1882  140.6387  142.9158 LP  0  0  0  0  0  0  0  0  0  0  0  0  # atno 17320 bound_to 7965
  144.7505  140.5178  143.6805 LP  0  0  0  0  0  0  0  0  0  0  0  0  # atno 17321 bound_to 7965
  139.5751  144.1838  152.1891 LP  0  0  0  0  0  0  0  0  0  0  0  0  # atno 17342 bound_to 10162
  140.1146  144.5427  150.6902 LP  0  0  0  0  0  0  0  0  0  0  0  0  # atno 17343 bound_to 10162
  157.0971  130.5966  149.5452 LP  0  0  0  0  0  0  0  0  0  0  0  0  # atno 17370 bound_to 10713
  155.9958  130.5026  150.7473 LP  0  0  0  0  0  0  0  0  0  0  0  0  # atno 17371 bound_to 10713
  140.2062  134.8861  157.3224 LP  0  0  0  0  0  0  0  0  0  0  0  0  # atno 17394 bound_to 11000
  140.2134  134.4110  155.7601 LP  0  0  0  0  0  0  0  0  0  0  0  0  # atno 17395 bound_to 11000

$$$$
