#       Name:                AV-unprocessed.smi:1451
#       Creating user name   scv26
#       Creation time:       Fri Mar 27 05:58:24 2020


#       File generated by GOLD software.
#

@<TRIPOS>MOLECULE
AV-unprocessed.smi:1451
    51    52     1
SMALL
NO_CHARGES


@<TRIPOS>ATOM
      1 ****        -3.2466   3.5481  -4.0434 C.3            1 S1                 0.0000
      2 ****        -3.2916   2.4970  -2.9250 C.3            1 S1                 0.0000
      3 ****        -4.3563   2.8432  -1.8708 C.3            1 S1                 0.0000
      4 ****        -4.3611   1.7904  -0.7555 C.3            1 S1                 0.0000
      5 ****        -2.9610   1.6337  -0.1412 C.3            1 S1                 0.0000
      6 ****        -1.9533   1.2972  -1.1803 N.4            1 S1                 1.0000
      7 ****        -0.6200   1.0109  -0.5929 C.3            1 S1                 0.0000
      8 ****         0.2579   0.1430  -1.5161 C.3            1 S1                 0.0000
      9 ****         1.5419  -0.1617  -0.8962 N.am           1 S1                 0.0000
     10 ****         1.7394  -1.1043   0.0378 C.2            1 S1                 0.0000
     11 ****         0.8401  -1.8351   0.4555 O.2            1 S1                 0.0000
     12 ****         3.1747  -1.2433   0.5652 C.3            1 S1                 0.0000
     13 ****         3.2407  -1.8069   1.9243 N.am           1 S1                 0.0000
     14 ****         3.5632  -3.1736   2.0396 C.2            1 S1                 0.0000
     15 ****         3.6399  -3.8111   3.2235 C.2            1 S1                 0.0000
     16 ****         4.0409  -5.2750   3.3174 C.3            1 S1                 0.0000
     17 ****         4.6107  -5.5435   4.4925 F              1 S1                 0.0000
     18 ****         2.9637  -6.0489   3.1913 F              1 S1                 0.0000
     19 ****         4.9006  -5.6002   2.3511 F              1 S1                 0.0000
     20 ****         3.4041  -3.0065   4.4063 C.2            1 S1                 0.0000
     21 ****         3.1009  -1.6969   4.3143 C.2            1 S1                 0.0000
     22 ****         2.9971  -1.0235   3.0178 C.2            1 S1                 0.0000
     23 ****         2.7084   0.1697   2.9193 O.2            1 S1                 0.0000
     24 ****        -1.9131   2.3254  -2.2551 C.3            1 S1                 0.0000
     25 ****        -2.9734   4.5301  -3.6555 H              1 S1                 0.0000
     26 ****        -4.2165   3.6421  -4.5332 H              1 S1                 0.0000
     27 ****        -2.5178   3.2773  -4.8079 H              1 S1                 0.0000
     28 ****        -3.5652   1.5445  -3.3821 H              1 S1                 0.0000
     29 ****        -4.1535   3.8272  -1.4453 H              1 S1                 0.0000
     30 ****        -5.3429   2.8996  -2.3319 H              1 S1                 0.0000
     31 ****        -5.0778   2.0703   0.0173 H              1 S1                 0.0000
     32 ****        -4.6957   0.8324  -1.1558 H              1 S1                 0.0000
     33 ****        -2.6670   2.5527   0.3686 H              1 S1                 0.0000
     34 ****        -2.9911   0.8472   0.6140 H              1 S1                 0.0000
     35 ****        -0.1158   1.9461  -0.3436 H              1 S1                 0.0000
     36 ****        -0.7569   0.4775   0.3488 H              1 S1                 0.0000
     37 ****        -0.2588  -0.7819  -1.7782 H              1 S1                 0.0000
     38 ****         0.4669   0.6578  -2.4528 H              1 S1                 0.0000
     39 ****         2.3361   0.3882  -1.1912 H              1 S1                 0.0000
     40 ****         3.7357  -1.8607  -0.1376 H              1 S1                 0.0000
     41 ****         3.6673  -0.2690   0.5447 H              1 S1                 0.0000
     42 ****         3.7416  -3.6758   1.0998 H              1 S1                 0.0000
     43 ****         3.4664  -3.4617   5.3837 H              1 S1                 0.0000
     44 ****         2.9287  -1.1288   5.2169 H              1 S1                 0.0000
     45 ****        -1.1856   2.0429  -3.0151 H              1 S1                 0.0000
     46 ****        -1.5763   3.2749  -1.8357 H              1 S1                 0.0000
     47 ****        -2.2680   0.4367  -1.6055 H              1 S1                 0.0000
     48 ****        -0.0886  -1.7401   0.0968 LP             1 S1                 0.0000
     49 ****         1.0386  -2.5233   1.1532 LP             1 S1                 0.0000
     50 ****         2.6457   0.5962   2.0169 LP             1 S1                 0.0000
     51 ****         2.5367   0.7122   3.7416 LP             1 S1                 0.0000
@<TRIPOS>BOND
    1    1    2 1     
    2    1   25 1     
    3    1   26 1     
    4    1   27 1     
    5    2   24 1     
    6    2    3 1     
    7    2   28 1     
    8    3    4 1     
    9    3   29 1     
   10    3   30 1     
   11    4    5 1     
   12    4   31 1     
   13    4   32 1     
   14    5    6 1     
   15    5   33 1     
   16    5   34 1     
   17    6    7 1     
   18    6   24 1     
   19    6   47 1     
   20    7    8 1     
   21    7   35 1     
   22    7   36 1     
   23    8    9 1     
   24    8   37 1     
   25    8   38 1     
   26    9   10 am    
   27    9   39 1     
   28   10   11 2     
   29   10   12 1     
   30   12   13 1     
   31   12   40 1     
   32   12   41 1     
   33   13   22 am    
   34   13   14 1     
   35   14   15 2     
   36   14   42 1     
   37   15   16 1     
   38   15   20 1     
   39   16   17 1     
   40   16   18 1     
   41   16   19 1     
   42   20   21 2     
   43   20   43 1     
   44   21   22 1     
   45   21   44 1     
   46   22   23 2     
   47   24   45 1     
   48   24   46 1     
   49   11   48 1     
   50   11   49 1     
   51   23   50 1     
   52   23   51 1     
@<TRIPOS>SUBSTRUCTURE
      1 S1             1
@<TRIPOS>SET
LONE_PAIRS      STATIC     ATOMS    <user>   **** ""
4 48 49 50 51
DONOR_HYDROGENS      STATIC     ATOMS    <user>   **** ""
2 47 39
ATOM$BLUE        STATIC     ATOMS    COLORGROUP SYSTEM
4 48 49 50 51
ATOM$RED        STATIC     ATOMS    COLORGROUP SYSTEM
2 47 39
