#       Name:                AV-unprocessed.smi:1762
#       Creating user name   scv26
#       Creation time:       Fri Mar 27 08:31:49 2020


#       File generated by GOLD software.
#

@<TRIPOS>MOLECULE
AV-unprocessed.smi:1762
    58    59     1
SMALL
NO_CHARGES


@<TRIPOS>ATOM
      1 ****        -5.0826  -1.4290  -2.3091 C.3            1 S1                 0.0000
      2 ****        -3.5677  -1.4520  -2.0767 C.3            1 S1                 0.0000
      3 ****        -3.1855  -0.9256  -0.6812 C.3            1 S1                 0.0000
      4 ****        -1.7343  -0.8655  -0.4766 N.3            1 S1                 0.0000
      5 ****        -1.3581  -0.4324   0.8987 C.3            1 S1                 0.0000
      6 ****         0.1575  -0.1672   1.0611 C.2            1 S1                 0.0000
      7 ****         0.9738  -1.0646   0.8487 O.2            1 S1                 0.0000
      8 ****         0.5167   1.0794   1.4072 N.am           1 S1                 0.0000
      9 ****         1.8907   1.5393   1.5667 C.3            1 S1                 0.0000
     10 ****         2.5370   1.8586   0.2082 C.3            1 S1                 0.0000
     11 ****         3.9656   2.3473   0.3513 C.ar           1 S1                 0.0000
     12 ****         5.0503   1.4697   0.1392 C.ar           1 S1                 0.0000
     13 ****         6.3578   1.9705   0.2892 C.ar           1 S1                 0.0000
     14 ****         6.5294   3.3222   0.6453 C.ar           1 S1                 0.0000
     15 ****         5.3809   4.1159   0.8369 C.ar           1 S1                 0.0000
     16 ****         4.1226   3.6456   0.6955 N.ar           1 S1                 0.0000
     17 ****        -1.8877  -1.3539   2.0490 C.3            1 S1                 0.0000
     18 ****        -1.5228  -0.8506   3.4606 C.3            1 S1                 0.0000
     19 ****        -1.4966  -2.8364   1.8908 C.3            1 S1                 0.0000
     20 ****        -1.1453  -0.0524  -1.5558 C.3            1 S1                 0.0000
     21 ****        -1.5400  -0.5284  -2.9681 C.3            1 S1                 0.0000
     22 ****        -0.8235  -1.8207  -3.3978 C.3            1 S1                 0.0000
     23 ****        -2.9567  -0.6434  -3.0763 O.3            1 S1                 0.0000
     24 ****        -5.6010  -2.0504  -1.5785 H              1 S1                 0.0000
     25 ****        -5.3300  -1.8071  -3.3013 H              1 S1                 0.0000
     26 ****        -5.4793  -0.4165  -2.2297 H              1 S1                 0.0000
     27 ****        -3.2248  -2.4816  -2.1825 H              1 S1                 0.0000
     28 ****        -3.6233   0.0623  -0.5268 H              1 S1                 0.0000
     29 ****        -3.6521  -1.5912   0.0419 H              1 S1                 0.0000
     30 ****        -1.8385   0.5355   1.0589 H              1 S1                 0.0000
     31 ****        -0.2140   1.7598   1.5579 H              1 S1                 0.0000
     32 ****         1.8788   2.4310   2.1941 H              1 S1                 0.0000
     33 ****         2.4760   0.7903   2.1031 H              1 S1                 0.0000
     34 ****         2.5280   0.9746  -0.4310 H              1 S1                 0.0000
     35 ****         1.9535   2.6180  -0.3144 H              1 S1                 0.0000
     36 ****         4.8859   0.4367  -0.1309 H              1 S1                 0.0000
     37 ****         7.2133   1.3295   0.1349 H              1 S1                 0.0000
     38 ****         7.5173   3.7405   0.7693 H              1 S1                 0.0000
     39 ****         5.4755   5.1560   1.1120 H              1 S1                 0.0000
     40 ****        -2.9754  -1.3112   2.0311 H              1 S1                 0.0000
     41 ****        -0.4569  -0.9488   3.6693 H              1 S1                 0.0000
     42 ****        -2.0531  -1.4197   4.2247 H              1 S1                 0.0000
     43 ****        -1.7950   0.1975   3.5881 H              1 S1                 0.0000
     44 ****        -0.4212  -2.9865   1.9799 H              1 S1                 0.0000
     45 ****        -1.8092  -3.2337   0.9251 H              1 S1                 0.0000
     46 ****        -1.9737  -3.4460   2.6586 H              1 S1                 0.0000
     47 ****        -1.4569   0.9866  -1.4342 H              1 S1                 0.0000
     48 ****        -0.0566  -0.0503  -1.5150 H              1 S1                 0.0000
     49 ****        -1.2437   0.2459  -3.6763 H              1 S1                 0.0000
     50 ****         0.2561  -1.6725  -3.4301 H              1 S1                 0.0000
     51 ****        -1.1440  -2.1311  -4.3925 H              1 S1                 0.0000
     52 ****        -1.0161  -2.6449  -2.7113 H              1 S1                 0.0000
     53 ****        -1.3470  -1.7855  -0.5355 LP             1 S1                 0.0000
     54 ****         0.6584  -1.9715   0.5694 LP             1 S1                 0.0000
     55 ****         1.9519  -0.8863   0.9555 LP             1 S1                 0.0000
     56 ****         3.3312   4.2394   0.8409 LP             1 S1                 0.0000
     57 ****        -3.3489   0.2746  -3.0166 LP             1 S1                 0.0000
     58 ****        -3.1694  -1.0392  -3.9697 LP             1 S1                 0.0000
@<TRIPOS>BOND
    1    1    2 1     
    2    1   24 1     
    3    1   25 1     
    4    1   26 1     
    5    2   23 1     
    6    2    3 1     
    7    2   27 1     
    8    3    4 1     
    9    3   28 1     
   10    3   29 1     
   11    4    5 1     
   12    4   20 1     
   13    5    6 1     
   14    5   17 1     
   15    5   30 1     
   16    6    7 2     
   17    6    8 am    
   18    8    9 1     
   19    8   31 1     
   20    9   10 1     
   21    9   32 1     
   22    9   33 1     
   23   10   11 1     
   24   10   34 1     
   25   10   35 1     
   26   11   16 ar    
   27   11   12 ar    
   28   12   13 ar    
   29   12   36 1     
   30   13   14 ar    
   31   13   37 1     
   32   14   15 ar    
   33   14   38 1     
   34   15   16 ar    
   35   15   39 1     
   36   17   18 1     
   37   17   19 1     
   38   17   40 1     
   39   18   41 1     
   40   18   42 1     
   41   18   43 1     
   42   19   44 1     
   43   19   45 1     
   44   19   46 1     
   45   20   21 1     
   46   20   47 1     
   47   20   48 1     
   48   21   22 1     
   49   21   23 1     
   50   21   49 1     
   51   22   50 1     
   52   22   51 1     
   53   22   52 1     
   54    4   53 1     
   55    7   54 1     
   56    7   55 1     
   57   16   56 1     
   58   23   57 1     
   59   23   58 1     
@<TRIPOS>SUBSTRUCTURE
      1 S1             1
@<TRIPOS>SET
LONE_PAIRS      STATIC     ATOMS    <user>   **** ""
6 53 54 55 56 57 58
DONOR_HYDROGENS      STATIC     ATOMS    <user>   **** ""
1 31
ATOM$BLUE        STATIC     ATOMS    COLORGROUP SYSTEM
6 53 54 55 56 57 58
ATOM$RED        STATIC     ATOMS    COLORGROUP SYSTEM
1 31
