AV-unprocessed.smi:829|AV-procd|sdf|3868|dock3
  -GOLD-   22720 1323D 1   1.00000     0.00000
 Structure written by MMmdl.
 50 52  0  0  0  0  0  0  0  0  3 V2000
  146.8175  132.6438  153.9006 O   0  0  0  0  0  0  0  0  0  0  0  0
  147.4030  132.1530  152.9357 C   0  0  0  0  0  0  0  0  0  0  0  0
  146.9252  132.1026  151.6801 N   0  0  0  0  0  0  0  0  0  0  0  0
  145.6786  132.5779  151.1891 C   0  0  0  0  0  0  0  0  0  0  0  0
  145.3208  132.2301  149.8673 C   0  0  0  0  0  0  0  0  0  0  0  0
  144.0992  132.6889  149.3336 C   0  0  0  0  0  0  0  0  0  0  0  0
  143.2868  133.4641  150.0832 N   0  3  0  0  0  0  0  0  0  0  0  0
  143.5925  133.8356  151.3449 C   0  0  0  0  0  0  0  0  0  0  0  0
  144.8003  133.4072  151.9326 C   0  0  0  0  0  0  0  0  0  0  0  0
  148.6106  131.5761  153.0217 N   0  0  0  0  0  0  0  0  0  0  0  0
  149.3824  131.4272  154.2523 C   0  0  2  0  0  0  0  0  0  0  0  0
  150.3179  132.6309  154.4686 C   0  0  0  0  0  0  0  0  0  0  0  0
  151.2032  132.4314  155.7109 C   0  0  0  0  0  0  0  0  0  0  0  0
  151.9809  131.1685  155.6206 N   0  3  1  0  0  0  0  0  0  0  0  0
  152.9530  131.0048  156.7326 C   0  0  0  0  0  0  0  0  0  0  0  0
  154.0872  130.0291  156.3654 C   0  0  0  0  0  0  0  0  0  0  0  0
  155.4813  130.4357  156.8526 C   0  0  0  0  0  0  0  0  0  0  0  0
  156.4557  129.6374  155.9809 C   0  0  0  0  0  0  0  0  0  0  0  0
  155.6973  129.3010  154.6885 C   0  0  0  0  0  0  0  0  0  0  0  0
  154.2886  129.8817  154.8546 C   0  0  0  0  0  0  0  0  0  0  0  0
  151.0902  129.9907  155.4503 C   0  0  0  0  0  0  0  0  0  0  0  0
  150.2135  130.1358  154.1960 C   0  0  0  0  0  0  0  0  0  0  0  0
  147.4894  131.5982  151.0118 H   0  0  0  0  0  0  0  0  0  0  0  0
  145.9714  131.6111  149.2663 H   0  0  0  0  0  0  0  0  0  0  0  0
  143.7514  132.4621  148.3362 H   0  0  0  0  0  0  0  0  0  0  0  0
  142.8694  134.4655  151.8422 H   0  0  0  0  0  0  0  0  0  0  0  0
  145.0328  133.7325  152.9349 H   0  0  0  0  0  0  0  0  0  0  0  0
  149.0187  131.1963  152.1798 H   0  0  0  0  0  0  0  0  0  0  0  0
  148.6956  131.3536  155.0980 H   0  0  0  0  0  0  0  0  0  0  0  0
  150.9513  132.7713  153.5912 H   0  0  0  0  0  0  0  0  0  0  0  0
  149.7362  133.5470  154.5790 H   0  0  0  0  0  0  0  0  0  0  0  0
  151.8858  133.2775  155.8001 H   0  0  0  0  0  0  0  0  0  0  0  0
  150.5899  132.4196  156.6135 H   0  0  0  0  0  0  0  0  0  0  0  0
  153.4093  131.9686  156.9632 H   0  0  0  0  0  0  0  0  0  0  0  0
  152.4474  130.6947  157.6485 H   0  0  0  0  0  0  0  0  0  0  0  0
  153.8532  129.0421  156.7689 H   0  0  0  0  0  0  0  0  0  0  0  0
  155.6382  131.5021  156.6848 H   0  0  0  0  0  0  0  0  0  0  0  0
  155.6287  130.2408  157.9153 H   0  0  0  0  0  0  0  0  0  0  0  0
  157.3700  130.1987  155.7859 H   0  0  0  0  0  0  0  0  0  0  0  0
  156.7421  128.7153  156.4882 H   0  0  0  0  0  0  0  0  0  0  0  0
  156.1928  129.7105  153.8077 H   0  0  0  0  0  0  0  0  0  0  0  0
  155.6479  128.2190  154.5606 H   0  0  0  0  0  0  0  0  0  0  0  0
  153.5251  129.2569  154.3902 H   0  0  0  0  0  0  0  0  0  0  0  0
  154.2448  130.8621  154.3775 H   0  0  0  0  0  0  0  0  0  0  0  0
  151.6819  129.0796  155.3700 H   0  0  0  0  0  0  0  0  0  0  0  0
  150.4606  129.8786  156.3346 H   0  0  0  0  0  0  0  0  0  0  0  0
  149.5554  129.2706  154.1055 H   0  0  0  0  0  0  0  0  0  0  0  0
  150.8483  130.1371  153.3084 H   0  0  0  0  0  0  0  0  0  0  0  0
  152.5322  131.2432  154.7775 H   0  0  0  0  0  0  0  0  0  0  0  0
  142.4077  133.7869  149.6780 H   0  0  0  0  0  0  0  0  0  0  0  0
  1  2  2  0  0  0  0
  2  3  1  0  0  0  0
  2 10  1  0  0  0  0
  3  4  1  0  0  0  0
  3 23  1  0  0  0  0
  4  9  1  0  0  0  0
  4  5  2  0  0  0  0
  5  6  1  0  0  0  0
  5 24  1  0  0  0  0
  6  7  2  0  0  0  0
  6 25  1  0  0  0  0
  7  8  1  0  0  0  0
  7 50  1  0  0  0  0
  8  9  2  0  0  0  0
  8 26  1  0  0  0  0
  9 27  1  0  0  0  0
 10 11  1  0  0  0  0
 10 28  1  0  0  0  0
 11 22  1  0  0  0  0
 11 12  1  0  0  0  0
 11 29  1  0  0  0  0
 12 13  1  0  0  0  0
 12 30  1  0  0  0  0
 12 31  1  0  0  0  0
 13 14  1  0  0  0  0
 13 32  1  0  0  0  0
 13 33  1  0  0  0  0
 14 15  1  0  0  0  0
 14 21  1  0  0  0  0
 14 49  1  0  0  0  0
 15 16  1  0  0  0  0
 15 34  1  0  0  0  0
 15 35  1  0  0  0  0
 16 20  1  0  0  0  0
 16 17  1  0  0  0  0
 16 36  1  0  0  0  0
 17 18  1  0  0  0  0
 17 37  1  0  0  0  0
 17 38  1  0  0  0  0
 18 19  1  0  0  0  0
 18 39  1  0  0  0  0
 18 40  1  0  0  0  0
 19 20  1  0  0  0  0
 19 41  1  0  0  0  0
 19 42  1  0  0  0  0
 20 43  1  0  0  0  0
 20 44  1  0  0  0  0
 21 22  1  0  0  0  0
 21 45  1  0  0  0  0
 21 46  1  0  0  0  0
 22 47  1  0  0  0  0
 22 48  1  0  0  0  0
M  CHG  1   7   1
M  CHG  1  14   1
M  END
> <s_m_source_file>
AV-unprocessed.smi

> <i_m_source_file_index>
829

> <i_lp_mmshare_version>
43012

> <i_f3d_flags>
0

> <s_epik_input>
W2NIXTFbY0hdbltjSF1bY0hdYzFbTkhdQyg9TylbTkhdW0NIXTJbQ0gyXVtDSDJdTihbQ0gyXVtDSDJdMilbQ0gyXVtDSF0zW0NIMl1bQ0gyXVtDSDJdW0NIMl0z

> <s_epik_cmdline>
J2VwaWtfcHl0aG9uJywgJy1waCcsICc3LjAnLCAnLXRuJywgJzgnLCAnLW1hJywgJzIwMCcsICctbWV0YWxfYmluZGluZycsICctaW1hZScsICc8aW5maWxlLm1hZT4nLCAnLW9tYWUnLCAnPG91dGZpbGUubWFlPic=

> <r_epik_Ionization_Penalty>
1.10644

> <r_epik_Ionization_Penalty_Charging>
1.10642

> <r_epik_Ionization_Penalty_Neutral>
1.84455e-05

> <r_epik_State_Penalty>
1.14949

> <r_epik_Charging_Adjusted_Penalty>
2.25592

> <i_epik_Tot_Q>
2

> <i_epik_Tot_abs_Q>
2

> <r_epik_Metal_State_Penalty>
1.23448

> <b_epik_Metal_Only>
0

> <s_lp_Force_Field>
OPLS_2005

> <r_lp_Energy>
49.76

> <b_lp_Chiralities_Consistent>
1

> <s_lp_Variant>
AV-unprocessed.smi:829-3

> <Gold.Version>
5.8.1

> <Gold.Id.Protein>
6NUR|6NUR_protein|mol2

> <Gold.PLP.Fitness>
46.9025

> <Gold.PLP.PLP>
-37.0498

> <Gold.PLP.part.hbond>
-3.0000

> <Gold.PLP.part.metal>
0.0000

> <Gold.PLP.part.buried>
-5.7863

> <Gold.PLP.part.nonpolar>
-27.8175

> <Gold.PLP.part.repulsive>
0.1902

> <Gold.PLP.ligand.clash>
0.0000

> <Gold.PLP.ligand.torsion>
1.0936

> <Gold.PLP.Chemscore.Hbond>
4.0000

> <Gold.PLP.Chemscore.CHOScore>
0.0000

> <Gold.PLP.Chemscore.Metal>
0.0000

> <Gold.Chemscore.Hbonds>
donor molecule, donor type, donor heavy atom, donor atom, acceptor molecule, acceptor atom, score
      L1  H     3    23       P1 10747  1.00
      L1  H     7    50       P1 10186  2.00
      L1  H    10    28       P1 10747  1.00

> <Gold.PLP.Chemscore.Internal.Correction>
0.0400

> <Gold.Rescore>
     Score         DG    S(hbond)    S(metal)    S(lipo)     H(rot)  DE(clash)    DE(int)     intcor
     19.74     -21.85       2.59        0.00      96.13       1.37       0.02       2.10       ----

> <Gold.Chemscore.Fitness>
19.7371

> <Gold.Chemscore.DG>
-21.8534

> <Gold.Chemscore.ZeroCoef>
-5.4800

> <Gold.Chemscore.Hbond>
2.5853

> <Gold.Chemscore.Metal>
0.0000

> <Gold.Chemscore.Lipo>
96.1322

> <Gold.Chemscore.Internal_Hbond>
0.0000

> <Gold.Chemscore.DEClash>
0.0166

> <Gold.Chemscore.DEInternal>
2.0997

> <Gold.Chemscore.Rot>
1.3707

> <Gold.Chemscore.Internal.Correction>
   9.000000E+99

> <Gold.Chemscore.Hbonds>
donor molecule, donor type, donor heavy atom, donor atom, acceptor molecule, acceptor atom, score
      L1  H     3    23       P1 10747  0.99
      L1  H     7    50       P1 10186  0.94
      L1  H    10    28       P1 10747  0.53

> <Gold.Chemscore.Hbond.Weighted>
-8.6348

> <Gold.Chemscore.Metal.Weighted>
-0.0000

> <Gold.Chemscore.Lipo.Weighted>
-11.2475

> <Gold.Chemscore.Internal_Hbond.Weighted>
0.0000

> <Gold.Chemscore.DEClash.Weighted>
0.0166

> <Gold.Chemscore.DEInternal.Weighted>
2.0997

> <Gold.Chemscore.Rot.Weighted>
3.5089

> <Gold.Chemscore.Internal.Correction.Weighted>
   9.000000E+99

> <Gold.Protein.RotatedTorsions>
[ 6907 6896 6895 6894 ] final -131.93 input  -60.11 | X-H torsion
[ 7974 7965 7964 7962 ] final   15.29 input  175.53 | X-H torsion
[ 8008 7997 7996 7995 ] final   25.57 input   59.86 | X-H torsion
[ 10167 10162 10161 10158 ] final  -70.86 input  -65.29 | X-H torsion
[ 10718 10713 10712 10709 ] final   22.03 input   66.30 | X-H torsion
[ 10763 10752 10751 10750 ] final  -19.38 input  -60.55 | X-H torsion
[ 11005 11000 10999 10996 ] final   75.34 input  -57.11 | X-H torsion

> <Gold.Protein.ActiveResidues>
 VAL166  LYS551  ARG553  GLY616  TRP617  ASP618  TYR619  PRO620  LYS621  CYS622 
 ASP623  PHE694  ASN695  SER759  ASP760  ASP761  ALA762  ILE779  LEU786  VAL792 
 PHE793  MET794  SER795  GLU796  ALA797  LYS798  CYS799  TRP800  GLU811  SER814 

> <Gold.Protein.RotatedAtoms>
  150.9566  133.6491  159.2761 H   0  0  0  0  0  0  0  0  0  0  0  0  # atno 6907 bound_to 6896
  151.3828  135.0941  159.9511 H   0  0  0  0  0  0  0  0  0  0  0  0  # atno 6908 bound_to 6896
  152.5131  133.9096  159.7536 H   0  0  0  0  0  0  0  0  0  0  0  0  # atno 6909 bound_to 6896
  146.2282  139.8915  142.8554 H   0  0  0  0  0  0  0  0  0  0  0  0  # atno 7974 bound_to 7965
  155.0138  140.3139  155.4819 H   0  0  0  0  0  0  0  0  0  0  0  0  # atno 8008 bound_to 7997
  156.2904  140.2210  156.5195 H   0  0  0  0  0  0  0  0  0  0  0  0  # atno 8009 bound_to 7997
  154.7512  140.0466  157.0882 H   0  0  0  0  0  0  0  0  0  0  0  0  # atno 8010 bound_to 7997
  140.5319  143.2321  151.7247 H   0  0  0  0  0  0  0  0  0  0  0  0  # atno 10167 bound_to 10162
  157.1467  130.6656  149.5998 H   0  0  0  0  0  0  0  0  0  0  0  0  # atno 10718 bound_to 10713
  153.6040  135.6998  153.5373 H   0  0  0  0  0  0  0  0  0  0  0  0  # atno 10763 bound_to 10752
  153.3073  135.4111  155.1305 H   0  0  0  0  0  0  0  0  0  0  0  0  # atno 10764 bound_to 10752
  154.8577  135.3663  154.5576 H   0  0  0  0  0  0  0  0  0  0  0  0  # atno 10765 bound_to 10752
  139.9348  134.7510  156.1259 H   0  0  0  0  0  0  0  0  0  0  0  0  # atno 11005 bound_to 11000
  145.2412  141.0010  143.3934 LP  0  0  0  0  0  0  0  0  0  0  0  0  # atno 17320 bound_to 7965
  144.9450  139.4146  143.6430 LP  0  0  0  0  0  0  0  0  0  0  0  0  # atno 17321 bound_to 7965
  139.4957  144.4101  152.0089 LP  0  0  0  0  0  0  0  0  0  0  0  0  # atno 17342 bound_to 10162
  140.3204  144.3434  150.6011 LP  0  0  0  0  0  0  0  0  0  0  0  0  # atno 17343 bound_to 10162
  155.9778  130.4759  150.6616 LP  0  0  0  0  0  0  0  0  0  0  0  0  # atno 17370 bound_to 10713
  157.4258  131.0843  151.1087 LP  0  0  0  0  0  0  0  0  0  0  0  0  # atno 17371 bound_to 10713
  141.0956  133.6697  156.2638 LP  0  0  0  0  0  0  0  0  0  0  0  0  # atno 17394 bound_to 11000
  140.6105  134.5463  157.5532 LP  0  0  0  0  0  0  0  0  0  0  0  0  # atno 17395 bound_to 11000

$$$$
