AV-unprocessed.smi:1570|AV-procd|sdf|6323|dock5
  -GOLD-   22720 6533D 1   1.00000     0.00000
 Structure written by MMmdl.
 52 54  0  0  0  0  0  0  0  0  2 V2000
  155.1427  140.8060  160.0911 C   0  0  0  0  0  0  0  0  0  0  0  0
  153.8275  141.2355  160.7533 C   0  0  0  0  0  0  0  0  0  0  0  0
  152.9192  141.8382  159.7810 N   0  0  0  0  0  0  0  0  0  0  0  0
  152.5503  141.3150  158.5887 C   0  0  0  0  0  0  0  0  0  0  0  0
  152.9327  140.2438  158.1173 O   0  0  0  0  0  0  0  0  0  0  0  0
  151.6714  142.1664  158.0083 N   0  0  0  0  0  0  0  0  0  0  0  0
  151.0217  141.9892  156.7100 C   0  0  0  0  0  0  0  0  0  0  0  0
  149.7155  141.1773  156.8278 C   0  0  1  0  0  0  0  0  0  0  0  0
  148.6633  142.0748  157.1242 O   0  0  0  0  0  0  0  0  0  0  0  0
  149.3638  140.4645  155.5060 C   0  0  0  0  0  0  0  0  0  0  0  0
  150.2126  139.2695  155.2668 N   0  3  1  0  0  0  0  0  0  0  0  0
  151.6216  139.6177  154.9723 C   0  0  0  0  0  0  0  0  0  0  0  0
  152.4253  138.3526  154.6199 C   0  0  1  0  0  0  0  0  0  0  0  0
  153.9107  138.6581  154.3976 C   0  0  0  0  0  0  0  0  0  0  0  0
  152.3266  137.4135  155.6875 O   0  0  0  0  0  0  0  0  0  0  0  0
  150.9950  137.0260  156.0262 C   0  0  2  0  0  0  0  0  0  0  0  0
  150.3597  136.1197  154.9566 C   0  0  0  0  0  0  0  0  0  0  0  0
  150.1489  138.2696  156.3613 C   0  0  0  0  0  0  0  0  0  0  0  0
  151.4599  143.2592  158.8619 C   0  0  0  0  0  0  0  0  0  0  0  0
  150.6364  144.3917  158.7331 C   0  0  0  0  0  0  0  0  0  0  0  0
  150.6458  145.3231  159.7979 C   0  0  0  0  0  0  0  0  0  0  0  0
  151.4559  145.1105  160.9433 C   0  0  0  0  0  0  0  0  0  0  0  0
  152.2729  143.9608  161.0490 C   0  0  0  0  0  0  0  0  0  0  0  0
  152.2458  143.0522  159.9767 C   0  0  0  0  0  0  0  0  0  0  0  0
  155.8142  140.3539  160.8210 H   0  0  0  0  0  0  0  0  0  0  0  0
  155.6584  141.6583  159.6475 H   0  0  0  0  0  0  0  0  0  0  0  0
  154.9672  140.0727  159.3033 H   0  0  0  0  0  0  0  0  0  0  0  0
  153.3453  140.3764  161.2204 H   0  0  0  0  0  0  0  0  0  0  0  0
  154.0320  141.9415  161.5595 H   0  0  0  0  0  0  0  0  0  0  0  0
  150.8510  142.9468  156.2174 H   0  0  0  0  0  0  0  0  0  0  0  0
  151.7264  141.4563  156.0697 H   0  0  0  0  0  0  0  0  0  0  0  0
  149.8009  140.4507  157.6347 H   0  0  0  0  0  0  0  0  0  0  0  0
  148.8315  142.8945  156.6845 H   0  0  0  0  0  0  0  0  0  0  0  0
  148.3110  140.1778  155.5312 H   0  0  0  0  0  0  0  0  0  0  0  0
  149.4698  141.1464  154.6605 H   0  0  0  0  0  0  0  0  0  0  0  0
  151.6615  140.3179  154.1369 H   0  0  0  0  0  0  0  0  0  0  0  0
  152.0608  140.1217  155.8350 H   0  0  0  0  0  0  0  0  0  0  0  0
  152.0316  137.9118  153.7038 H   0  0  0  0  0  0  0  0  0  0  0  0
  154.0485  139.3638  153.5779 H   0  0  0  0  0  0  0  0  0  0  0  0
  154.4625  137.7508  154.1503 H   0  0  0  0  0  0  0  0  0  0  0  0
  154.3639  139.0892  155.2908 H   0  0  0  0  0  0  0  0  0  0  0  0
  151.0775  136.4281  156.9344 H   0  0  0  0  0  0  0  0  0  0  0  0
  149.3988  135.7340  155.2987 H   0  0  0  0  0  0  0  0  0  0  0  0
  150.9997  135.2630  154.7439 H   0  0  0  0  0  0  0  0  0  0  0  0
  150.1802  136.6457  154.0194 H   0  0  0  0  0  0  0  0  0  0  0  0
  150.5212  138.7252  157.2804 H   0  0  0  0  0  0  0  0  0  0  0  0
  149.1202  137.9694  156.5580 H   0  0  0  0  0  0  0  0  0  0  0  0
  150.0174  144.5494  157.8628 H   0  0  0  0  0  0  0  0  0  0  0  0
  150.0269  146.2063  159.7396 H   0  0  0  0  0  0  0  0  0  0  0  0
  151.4474  145.8341  161.7452 H   0  0  0  0  0  0  0  0  0  0  0  0
  152.8880  143.7911  161.9204 H   0  0  0  0  0  0  0  0  0  0  0  0
  149.8501  138.8257  154.4345 H   0  0  0  0  0  0  0  0  0  0  0  0
  1  2  1  0  0  0  0
  1 25  1  0  0  0  0
  1 26  1  0  0  0  0
  1 27  1  0  0  0  0
  2  3  1  0  0  0  0
  2 28  1  0  0  0  0
  2 29  1  0  0  0  0
  3 24  1  0  0  0  0
  3  4  1  0  0  0  0
  4  5  2  0  0  0  0
  4  6  1  0  0  0  0
  6  7  1  0  0  0  0
  6 19  1  0  0  0  0
  7  8  1  0  0  0  0
  7 30  1  0  0  0  0
  7 31  1  0  0  0  0
  8  9  1  0  0  0  0
  8 10  1  0  0  0  0
  8 32  1  0  0  0  0
  9 33  1  0  0  0  0
 10 11  1  0  0  0  0
 10 34  1  0  0  0  0
 10 35  1  0  0  0  0
 11 18  1  0  0  0  0
 11 12  1  0  0  0  0
 11 52  1  0  0  0  0
 12 13  1  0  0  0  0
 12 36  1  0  0  0  0
 12 37  1  0  0  0  0
 13 14  1  0  0  0  0
 13 15  1  0  0  0  0
 13 38  1  0  0  0  0
 14 39  1  0  0  0  0
 14 40  1  0  0  0  0
 14 41  1  0  0  0  0
 15 16  1  0  0  0  0
 16 17  1  0  0  0  0
 16 18  1  0  0  0  0
 16 42  1  0  0  0  0
 17 43  1  0  0  0  0
 17 44  1  0  0  0  0
 17 45  1  0  0  0  0
 18 46  1  0  0  0  0
 18 47  1  0  0  0  0
 19 24  2  0  0  0  0
 19 20  1  0  0  0  0
 20 21  2  0  0  0  0
 20 48  1  0  0  0  0
 21 22  1  0  0  0  0
 21 49  1  0  0  0  0
 22 23  2  0  0  0  0
 22 50  1  0  0  0  0
 23 24  1  0  0  0  0
 23 51  1  0  0  0  0
M  CHG  1  11   1
M  END
> <s_m_source_file>
AV-unprocessed.smi

> <i_m_source_file_index>
1570

> <i_lp_mmshare_version>
43012

> <i_f3d_flags>
0

> <s_epik_input>
W2NIXTFbY0hdW2NIXVtjSF1jKGMxMiluKFtDSDJdW0NIM10pYyg9TyluMltDSDJdW0NASF0oW09IXSlbQ0gyXU4zW0NIMl1bQ0BASF0oW0NIM10pT1tDQEBIXShbQ0gzXSlbQ0gyXTM=

> <s_epik_cmdline>
J2VwaWtfcHl0aG9uJywgJy1waCcsICc3LjAnLCAnLXRuJywgJzgnLCAnLW1hJywgJzIwMCcsICctbWV0YWxfYmluZGluZycsICctaW1hZScsICc8aW5maWxlLm1hZT4nLCAnLW9tYWUnLCAnPG91dGZpbGUubWFlPic=

> <r_epik_Ionization_Penalty>
0.706332

> <r_epik_Ionization_Penalty_Charging>
0.706318

> <r_epik_Ionization_Penalty_Neutral>
1.42224e-05

> <r_epik_State_Penalty>
0.729493

> <r_epik_Charging_Adjusted_Penalty>
1.43581

> <i_epik_Tot_Q>
1

> <i_epik_Tot_abs_Q>
1

> <r_epik_Metal_State_Penalty>
0.729493

> <b_epik_Metal_Only>
0

> <s_lp_Force_Field>
OPLS_2005

> <r_lp_Energy>
55.371

> <b_lp_Chiralities_Consistent>
1

> <s_lp_Variant>
AV-unprocessed.smi:1570-12

> <Gold.Version>
5.8.1

> <Gold.Id.Protein>
6NUR|6NUR_protein|mol2

> <Gold.PLP.Fitness>
54.0951

> <Gold.PLP.PLP>
-48.6892

> <Gold.PLP.part.hbond>
-2.9538

> <Gold.PLP.part.metal>
0.0000

> <Gold.PLP.part.buried>
-2.6814

> <Gold.PLP.part.nonpolar>
-43.6750

> <Gold.PLP.part.repulsive>
0.0853

> <Gold.PLP.ligand.clash>
0.0000

> <Gold.PLP.ligand.torsion>
0.8984

> <Gold.PLP.Chemscore.Hbond>
2.3502

> <Gold.PLP.Chemscore.CHOScore>
0.0000

> <Gold.PLP.Chemscore.Metal>
0.0000

> <Gold.Chemscore.Hbonds>
donor molecule, donor type, donor heavy atom, donor atom, acceptor molecule, acceptor atom, score
      L1  H     9    33       P1  8028  0.86
      P1  H  7997  8009       L1     5  0.96
      P1  H 10752 10764       L1    15  0.35

> <Gold.PLP.Chemscore.Internal.Correction>
0.1523

> <Gold.Rescore>
     Score         DG    S(hbond)    S(metal)    S(lipo)     H(rot)  DE(clash)    DE(int)     intcor
     18.01     -22.35       1.85        0.00     137.87       2.13       1.78       2.56       ----

> <Gold.Chemscore.Fitness>
18.0076

> <Gold.Chemscore.DG>
-22.3469

> <Gold.Chemscore.ZeroCoef>
-5.4800

> <Gold.Chemscore.Hbond>
1.8532

> <Gold.Chemscore.Metal>
0.0000

> <Gold.Chemscore.Lipo>
137.8685

> <Gold.Chemscore.Internal_Hbond>
0.0000

> <Gold.Chemscore.DEClash>
1.7835

> <Gold.Chemscore.DEInternal>
2.5558

> <Gold.Chemscore.Rot>
2.1303

> <Gold.Chemscore.Internal.Correction>
   9.000000E+99

> <Gold.Chemscore.Hbonds>
donor molecule, donor type, donor heavy atom, donor atom, acceptor molecule, acceptor atom, score
      L1  H     9    33       P1  8028  0.79
      P1  H  7997  8009       L1     5  0.90
      P1  H 10752 10764       L1    15  0.02

> <Gold.Chemscore.Hbond.Weighted>
-6.1898

> <Gold.Chemscore.Metal.Weighted>
-0.0000

> <Gold.Chemscore.Lipo.Weighted>
-16.1306

> <Gold.Chemscore.Internal_Hbond.Weighted>
0.0000

> <Gold.Chemscore.DEClash.Weighted>
1.7835

> <Gold.Chemscore.DEInternal.Weighted>
2.5558

> <Gold.Chemscore.Rot.Weighted>
5.4535

> <Gold.Chemscore.Internal.Correction.Weighted>
   9.000000E+99

> <Gold.Protein.RotatedTorsions>
[ 6907 6896 6895 6894 ] final -152.04 input  -60.11 | X-H torsion
[ 7974 7965 7964 7962 ] final   24.81 input  175.53 | X-H torsion
[ 8008 7997 7996 7995 ] final  162.86 input   59.86 | X-H torsion
[ 10167 10162 10161 10158 ] final   29.11 input  -65.29 | X-H torsion
[ 10718 10713 10712 10709 ] final  -70.69 input   66.30 | X-H torsion
[ 10763 10752 10751 10750 ] final  -60.62 input  -60.55 | X-H torsion
[ 11005 11000 10999 10996 ] final  164.28 input  -57.11 | X-H torsion

> <Gold.Protein.ActiveResidues>
 VAL166  LYS551  ARG553  GLY616  TRP617  ASP618  TYR619  PRO620  LYS621  CYS622 
 ASP623  PHE694  ASN695  SER759  ASP760  ASP761  ALA762  ILE779  LEU786  VAL792 
 PHE793  MET794  SER795  GLU796  ALA797  LYS798  CYS799  TRP800  GLU811  SER814 

> <Gold.Protein.RotatedAtoms>
  151.2219  133.4498  159.2600 H   0  0  0  0  0  0  0  0  0  0  0  0  # atno 6907 bound_to 6896
  151.0877  134.9897  159.8397 H   0  0  0  0  0  0  0  0  0  0  0  0  # atno 6908 bound_to 6896
  152.5431  134.2154  159.8819 H   0  0  0  0  0  0  0  0  0  0  0  0  # atno 6909 bound_to 6896
  146.1920  139.7553  142.8825 H   0  0  0  0  0  0  0  0  0  0  0  0  # atno 7974 bound_to 7965
  156.2000  140.1739  156.7919 H   0  0  0  0  0  0  0  0  0  0  0  0  # atno 8008 bound_to 7997
  154.5579  140.0705  156.8803 H   0  0  0  0  0  0  0  0  0  0  0  0  # atno 8009 bound_to 7997
  155.2904  140.3355  155.4255 H   0  0  0  0  0  0  0  0  0  0  0  0  # atno 8010 bound_to 7997
  140.4794  144.0639  150.6261 H   0  0  0  0  0  0  0  0  0  0  0  0  # atno 10167 bound_to 10162
  156.0396  130.4336  150.2333 H   0  0  0  0  0  0  0  0  0  0  0  0  # atno 10718 bound_to 10713
  154.2720  135.6288  153.5313 H   0  0  0  0  0  0  0  0  0  0  0  0  # atno 10763 bound_to 10752
  152.9879  135.5612  154.5590 H   0  0  0  0  0  0  0  0  0  0  0  0  # atno 10764 bound_to 10752
  154.5162  135.2880  155.1276 H   0  0  0  0  0  0  0  0  0  0  0  0  # atno 10765 bound_to 10752
  140.2443  134.8026  157.3441 H   0  0  0  0  0  0  0  0  0  0  0  0  # atno 11005 bound_to 11000
  145.3764  141.0351  143.3202 LP  0  0  0  0  0  0  0  0  0  0  0  0  # atno 17320 bound_to 7965
  144.8504  139.5330  143.6859 LP  0  0  0  0  0  0  0  0  0  0  0  0  # atno 17321 bound_to 7965
  140.3877  143.2769  152.0097 LP  0  0  0  0  0  0  0  0  0  0  0  0  # atno 17342 bound_to 10162
  139.4831  144.6103  151.7445 LP  0  0  0  0  0  0  0  0  0  0  0  0  # atno 17343 bound_to 10162
  157.0429  131.0040  151.3278 LP  0  0  0  0  0  0  0  0  0  0  0  0  # atno 17370 bound_to 10713
  157.5196  130.7990  149.7794 LP  0  0  0  0  0  0  0  0  0  0  0  0  # atno 17371 bound_to 10713
  140.1621  134.4715  155.7887 LP  0  0  0  0  0  0  0  0  0  0  0  0  # atno 17394 bound_to 11000
  141.2207  133.6906  156.7563 LP  0  0  0  0  0  0  0  0  0  0  0  0  # atno 17395 bound_to 11000

$$$$
