AV-unprocessed.smi:2424|AV-procd|sdf|9566|dock6
  -GOLD-   2272013193D 1   1.00000     0.00000
 Structure written by MMmdl.
 50 51  0  0  0  0  0  0  0  0  1 V2000
  146.6810  137.9675  157.7586 C   0  0  0  0  0  0  0  0  0  0  0  0
  147.5370  138.9384  156.9268 C   0  0  0  0  0  0  0  0  0  0  0  0
  147.9030  138.4534  155.5016 C   0  0  0  0  0  0  0  0  0  0  0  0
  148.6189  137.0827  155.6209 C   0  0  0  0  0  0  0  0  0  0  0  0
  149.8773  137.0806  156.5054 C   0  0  0  0  0  0  0  0  0  0  0  0
  146.7240  138.5495  154.4886 C   0  0  2  0  0  0  0  0  0  0  0  0
  146.8213  137.5876  153.3879 N   0  0  0  0  0  0  0  0  0  0  0  0
  145.9054  136.6614  153.0781 C   0  0  0  0  0  0  0  0  0  0  0  0
  144.8494  136.5223  153.6934 O   0  0  0  0  0  0  0  0  0  0  0  0
  146.3163  135.9241  152.0307 N   0  0  0  0  0  0  0  0  0  0  0  0
  145.6731  134.8569  151.3895 C   0  0  0  0  0  0  0  0  0  0  0  0
  144.5601  135.1303  150.6870 C   0  0  0  0  0  0  0  0  0  0  0  0
  143.8558  134.1316  150.0111 N   0  0  0  0  0  0  0  0  0  0  0  0
  144.2119  132.8272  149.9974 C   0  0  0  0  0  0  0  0  0  0  0  0
  143.5429  132.0053  149.3736 O   0  0  0  0  0  0  0  0  0  0  0  0
  145.4215  132.4933  150.7668 C   0  0  0  0  0  0  0  0  0  0  0  0
  145.8667  131.0420  150.8008 C   0  0  0  0  0  0  0  0  0  0  0  0
  146.1030  133.4627  151.4210 C   0  0  0  0  0  0  0  0  0  0  0  0
  147.2219  139.9432  154.0708 C   0  0  2  0  0  0  0  0  0  0  0  0
  147.0844  140.4497  152.6361 C   0  0  0  0  0  0  0  0  0  0  0  0
  148.5968  139.5424  154.6305 C   0  0  2  0  0  0  0  0  0  0  0  0
  149.4265  139.0210  153.5983 O   0  0  0  0  0  0  0  0  0  0  0  0
  150.7222  138.6696  154.0533 C   0  0  0  0  0  0  0  0  0  0  0  0
  143.0326  134.4158  149.5003 H   0  0  0  0  0  0  0  0  0  0  0  0
  146.5943  138.3219  158.7857 H   0  0  0  0  0  0  0  0  0  0  0  0
  147.1176  136.9699  157.7934 H   0  0  0  0  0  0  0  0  0  0  0  0
  145.6680  137.8800  157.3677 H   0  0  0  0  0  0  0  0  0  0  0  0
  147.0432  139.9087  156.8891 H   0  0  0  0  0  0  0  0  0  0  0  0
  148.4470  139.1267  157.4963 H   0  0  0  0  0  0  0  0  0  0  0  0
  147.9380  136.3378  156.0319 H   0  0  0  0  0  0  0  0  0  0  0  0
  148.8759  136.6889  154.6390 H   0  0  0  0  0  0  0  0  0  0  0  0
  150.2451  136.0637  156.6424 H   0  0  0  0  0  0  0  0  0  0  0  0
  149.6753  137.4918  157.4943 H   0  0  0  0  0  0  0  0  0  0  0  0
  150.6882  137.6559  156.0599 H   0  0  0  0  0  0  0  0  0  0  0  0
  145.7471  138.5767  154.9748 H   0  0  0  0  0  0  0  0  0  0  0  0
  147.6586  137.6342  152.8257 H   0  0  0  0  0  0  0  0  0  0  0  0
  147.2224  136.1581  151.6521 H   0  0  0  0  0  0  0  0  0  0  0  0
  144.1318  136.1166  150.5820 H   0  0  0  0  0  0  0  0  0  0  0  0
  146.7636  130.9131  151.4074 H   0  0  0  0  0  0  0  0  0  0  0  0
  146.0878  130.6883  149.7932 H   0  0  0  0  0  0  0  0  0  0  0  0
  145.0824  130.4121  151.2218 H   0  0  0  0  0  0  0  0  0  0  0  0
  146.9766  133.1653  151.9769 H   0  0  0  0  0  0  0  0  0  0  0  0
  146.7783  140.6756  154.7470 H   0  0  0  0  0  0  0  0  0  0  0  0
  147.5520  139.7788  151.9157 H   0  0  0  0  0  0  0  0  0  0  0  0
  147.5517  141.4274  152.5201 H   0  0  0  0  0  0  0  0  0  0  0  0
  146.0357  140.5510  152.3563 H   0  0  0  0  0  0  0  0  0  0  0  0
  149.0616  140.3591  155.1852 H   0  0  0  0  0  0  0  0  0  0  0  0
  151.2927  138.2384  153.2308 H   0  0  0  0  0  0  0  0  0  0  0  0
  150.6821  137.9354  154.8579 H   0  0  0  0  0  0  0  0  0  0  0  0
  151.2610  139.5475  154.4113 H   0  0  0  0  0  0  0  0  0  0  0  0
  1  2  1  0  0  0  0
  1 25  1  0  0  0  0
  1 26  1  0  0  0  0
  1 27  1  0  0  0  0
  2  3  1  0  0  0  0
  2 28  1  0  0  0  0
  2 29  1  0  0  0  0
  3 21  1  0  0  0  0
  3  4  1  0  0  0  0
  3  6  1  0  0  0  0
  4  5  1  0  0  0  0
  4 30  1  0  0  0  0
  4 31  1  0  0  0  0
  5 32  1  0  0  0  0
  5 33  1  0  0  0  0
  5 34  1  0  0  0  0
  6  7  1  0  0  0  0
  6 19  1  0  0  0  0
  6 35  1  0  0  0  0
  7  8  1  0  0  0  0
  7 36  1  0  0  0  0
  8  9  2  0  0  0  0
  8 10  1  0  0  0  0
 10 11  1  0  0  0  0
 10 37  1  0  0  0  0
 11 18  1  0  0  0  0
 11 12  2  0  0  0  0
 12 13  1  0  0  0  0
 12 38  1  0  0  0  0
 13 24  1  0  0  0  0
 13 14  1  0  0  0  0
 14 15  2  0  0  0  0
 14 16  1  0  0  0  0
 16 17  1  0  0  0  0
 16 18  2  0  0  0  0
 17 39  1  0  0  0  0
 17 40  1  0  0  0  0
 17 41  1  0  0  0  0
 18 42  1  0  0  0  0
 19 20  1  0  0  0  0
 19 21  1  0  0  0  0
 19 43  1  0  0  0  0
 20 44  1  0  0  0  0
 20 45  1  0  0  0  0
 20 46  1  0  0  0  0
 21 22  1  0  0  0  0
 21 47  1  0  0  0  0
 22 23  1  0  0  0  0
 23 48  1  0  0  0  0
 23 49  1  0  0  0  0
 23 50  1  0  0  0  0
M  END
> <s_m_source_file>
AV-unprocessed.smi

> <i_m_source_file_index>
2424

> <i_lp_mmshare_version>
43012

> <i_f3d_flags>
0

> <s_epik_input>
W0NIM11PW0NAQEhdMVtDQEhdKFtDSDNdKVtDQEBIXShDMShbQ0gyXVtDSDNdKVtDSDJdW0NIM10pW05IXUMoPU8pW05IXWMyW2NIXVtuSF1jKD1PKWMoW0NIM10pW2NIXTI=

> <s_epik_cmdline>
J2VwaWtfcHl0aG9uJywgJy1waCcsICc3LjAnLCAnLXRuJywgJzgnLCAnLW1hJywgJzIwMCcsICctbWV0YWxfYmluZGluZycsICctaW1hZScsICc8aW5maWxlLm1hZT4nLCAnLW9tYWUnLCAnPG91dGZpbGUubWFlPic=

> <r_lp_tautomer_probability>
1

> <r_epik_Ionization_Penalty>
4.7326e-05

> <r_epik_Ionization_Penalty_Charging>
2.70169e-05

> <r_epik_Ionization_Penalty_Neutral>
2.0309e-05

> <r_epik_State_Penalty>
-0

> <r_epik_Charging_Adjusted_Penalty>
2.70169e-05

> <i_epik_Tot_Q>
0

> <i_epik_Tot_abs_Q>
0

> <r_epik_Metal_State_Penalty>
0.0198736

> <b_epik_Metal_Only>
0

> <s_lp_Force_Field>
OPLS_2005

> <r_lp_Energy>
37.0094

> <b_lp_Chiralities_Consistent>
1

> <s_lp_Variant>
AV-unprocessed.smi:2424-8

> <Gold.Version>
5.8.1

> <Gold.Id.Protein>
6NUR|6NUR_protein|mol2

> <Gold.PLP.Fitness>
39.8020

> <Gold.PLP.PLP>
-28.2018

> <Gold.PLP.part.hbond>
-4.0770

> <Gold.PLP.part.metal>
0.0000

> <Gold.PLP.part.buried>
-5.9676

> <Gold.PLP.part.nonpolar>
-21.2473

> <Gold.PLP.part.repulsive>
3.3057

> <Gold.PLP.ligand.clash>
0.0000

> <Gold.PLP.ligand.torsion>
1.0414

> <Gold.PLP.Chemscore.Hbond>
3.3272

> <Gold.PLP.Chemscore.CHOScore>
1.0000

> <Gold.PLP.Chemscore.Metal>
0.0000

> <Gold.Chemscore.Hbonds>
donor molecule, donor type, donor heavy atom, donor atom, acceptor molecule, acceptor atom, score
      L1  H     7    36       P1  7948  0.55
      L1  H    10    37       P1  7948  1.00
      L1  H    13    24       P1 10186  0.88
      P1  H 10785 10796       L1    15  0.98
      L1  C    12    38       P1 10171  0.87

> <Gold.PLP.Chemscore.Internal.Correction>
0.7012

> <Gold.Rescore>
     Score         DG    S(hbond)    S(metal)    S(lipo)     H(rot)  DE(clash)    DE(int)     intcor
     17.69     -20.84       3.44        0.00      66.94       1.55       1.31       1.83       ----

> <Gold.Chemscore.Fitness>
17.6949

> <Gold.Chemscore.DG>
-20.8360

> <Gold.Chemscore.ZeroCoef>
-5.4800

> <Gold.Chemscore.Hbond>
3.4409

> <Gold.Chemscore.Metal>
0.0000

> <Gold.Chemscore.Lipo>
66.9388

> <Gold.Chemscore.Internal_Hbond>
0.0000

> <Gold.Chemscore.DEClash>
1.3125

> <Gold.Chemscore.DEInternal>
1.8286

> <Gold.Chemscore.Rot>
1.5502

> <Gold.Chemscore.Internal.Correction>
   9.000000E+99

> <Gold.Chemscore.Hbonds>
donor molecule, donor type, donor heavy atom, donor atom, acceptor molecule, acceptor atom, score
      L1  H     7    36       P1  7948  0.55
      L1  H    10    37       P1  7948  0.94
      L1  H    13    24       P1 10186  0.81
      P1  H 10785 10796       L1    15  0.89

> <Gold.Chemscore.Hbond.Weighted>
-11.4927

> <Gold.Chemscore.Metal.Weighted>
-0.0000

> <Gold.Chemscore.Lipo.Weighted>
-7.8318

> <Gold.Chemscore.Internal_Hbond.Weighted>
0.0000

> <Gold.Chemscore.DEClash.Weighted>
1.3125

> <Gold.Chemscore.DEInternal.Weighted>
1.8286

> <Gold.Chemscore.Rot.Weighted>
3.9685

> <Gold.Chemscore.Internal.Correction.Weighted>
   9.000000E+99

> <Gold.Protein.RotatedTorsions>
[ 6907 6896 6895 6894 ] final  160.87 input  -60.11 | X-H torsion
[ 7974 7965 7964 7962 ] final  155.03 input  175.53 | X-H torsion
[ 8008 7997 7996 7995 ] final  172.52 input   59.86 | X-H torsion
[ 10167 10162 10161 10158 ] final   60.00 input  -65.29 | X-H torsion
[ 10718 10713 10712 10709 ] final  -96.86 input   66.30 | X-H torsion
[ 10763 10752 10751 10750 ] final   86.64 input  -60.55 | X-H torsion
[ 11005 11000 10999 10996 ] final   62.94 input  -57.11 | X-H torsion

> <Gold.Protein.ActiveResidues>
 VAL166  LYS551  ARG553  GLY616  TRP617  ASP618  TYR619  PRO620  LYS621  CYS622 
 ASP623  PHE694  ASN695  SER759  ASP760  ASP761  ALA762  ILE779  LEU786  VAL792 
 PHE793  MET794  SER795  GLU796  ALA797  LYS798  CYS799  TRP800  GLU811  SER814 

> <Gold.Protein.RotatedAtoms>
  151.9641  133.3704  159.4046 H   0  0  0  0  0  0  0  0  0  0  0  0  # atno 6907 bound_to 6896
  150.6959  134.4209  159.5214 H   0  0  0  0  0  0  0  0  0  0  0  0  # atno 6908 bound_to 6896
  152.1903  134.8678  160.0569 H   0  0  0  0  0  0  0  0  0  0  0  0  # atno 6909 bound_to 6896
  144.8050  139.7014  143.6165 H   0  0  0  0  0  0  0  0  0  0  0  0  # atno 7974 bound_to 7965
  156.1166  140.1484  156.9263 H   0  0  0  0  0  0  0  0  0  0  0  0  # atno 8008 bound_to 7997
  154.4805  140.0881  156.7408 H   0  0  0  0  0  0  0  0  0  0  0  0  # atno 8009 bound_to 7997
  155.4502  140.3434  155.4302 H   0  0  0  0  0  0  0  0  0  0  0  0  # atno 8010 bound_to 7997
  140.1703  144.4283  150.6665 H   0  0  0  0  0  0  0  0  0  0  0  0  # atno 10167 bound_to 10162
  156.0071  130.5169  150.6289 H   0  0  0  0  0  0  0  0  0  0  0  0  # atno 10718 bound_to 10713
  153.1590  135.4573  154.9745 H   0  0  0  0  0  0  0  0  0  0  0  0  # atno 10763 bound_to 10752
  154.7883  135.3211  154.7838 H   0  0  0  0  0  0  0  0  0  0  0  0  # atno 10764 bound_to 10752
  153.8331  135.6937  153.4866 H   0  0  0  0  0  0  0  0  0  0  0  0  # atno 10765 bound_to 10752
  140.0058  134.6372  155.9857 H   0  0  0  0  0  0  0  0  0  0  0  0  # atno 11005 bound_to 11000
  146.2340  139.5869  142.9536 LP  0  0  0  0  0  0  0  0  0  0  0  0  # atno 17320 bound_to 7965
  145.5459  141.0417  143.2305 LP  0  0  0  0  0  0  0  0  0  0  0  0  # atno 17321 bound_to 7965
  140.6586  143.2245  151.5909 LP  0  0  0  0  0  0  0  0  0  0  0  0  # atno 17342 bound_to 10162
  139.5341  144.2832  152.1213 LP  0  0  0  0  0  0  0  0  0  0  0  0  # atno 17343 bound_to 10162
  157.4091  131.0821  151.1238 LP  0  0  0  0  0  0  0  0  0  0  0  0  # atno 17370 bound_to 10713
  157.1875  130.6337  149.5693 LP  0  0  0  0  0  0  0  0  0  0  0  0  # atno 17371 bound_to 10713
  141.1676  133.6537  156.4534 LP  0  0  0  0  0  0  0  0  0  0  0  0  # atno 17394 bound_to 11000
  140.4644  134.6812  157.5100 LP  0  0  0  0  0  0  0  0  0  0  0  0  # atno 17395 bound_to 11000

$$$$
