#       Name:                AV-unprocessed.smi:1854
#       Creating user name   scv26
#       Creation time:       Fri Mar 27 09:24:03 2020


#       File generated by GOLD software.
#

@<TRIPOS>MOLECULE
AV-unprocessed.smi:1854
    44    46     1
SMALL
NO_CHARGES


@<TRIPOS>ATOM
      1 ****        -2.8537   3.5267   3.3295 O.2            1 S1                 0.0000
      2 ****        -1.6542   3.2883   3.4595 C.2            1 S1                 0.0000
      3 ****        -0.8680   2.7949   2.4922 N.am           1 S1                 0.0000
      4 ****        -1.3096   2.4570   1.1428 C.3            1 S1                 0.0000
      5 ****        -1.8542   1.0582   1.1379 C.2            1 S1                 0.0000
      6 ****        -3.1627   0.8093   1.2046 N.2            1 S1                 0.0000
      7 ****        -3.2129  -0.5703   1.1647 C.ar           1 S1                 0.0000
      8 ****        -4.3179  -1.4507   1.1988 C.ar           1 S1                 0.0000
      9 ****        -4.1208  -2.8459   1.1372 C.ar           1 S1                 0.0000
     10 ****        -2.8192  -3.3795   1.0415 C.ar           1 S1                 0.0000
     11 ****        -1.7044  -2.5199   1.0081 C.ar           1 S1                 0.0000
     12 ****        -1.9066  -1.1283   1.0708 C.ar           1 S1                 0.0000
     13 ****        -1.0504  -0.0324   1.0594 N.pl3          1 S1                 0.0000
     14 ****         0.4002  -0.0791   0.9677 C.3            1 S1                 0.0000
     15 ****         0.8699  -0.0956  -0.4915 C.3            1 S1                 0.0000
     16 ****         2.2898  -0.1093  -0.5083 O.3            1 S1                 0.0000
     17 ****         2.9318  -0.1090  -1.7294 C.ar           1 S1                 0.0000
     18 ****         2.2568  -0.1207  -2.9772 C.ar           1 S1                 0.0000
     19 ****         2.9833  -0.1184  -4.1836 C.ar           1 S1                 0.0000
     20 ****         4.3895  -0.1045  -4.1616 C.ar           1 S1                 0.0000
     21 ****         5.0692  -0.0940  -2.9300 C.ar           1 S1                 0.0000
     22 ****         4.3449  -0.0964  -1.7216 C.ar           1 S1                 0.0000
     23 ****         5.2053  -0.0816  -0.2237 Cl             1 S1                 0.0000
     24 ****        -1.0808   3.4518   4.3850 H              1 S1                 0.0000
     25 ****         0.1054   2.6348   2.7075 H              1 S1                 0.0000
     26 ****        -2.0726   3.1543   0.7920 H              1 S1                 0.0000
     27 ****        -0.4708   2.5364   0.4516 H              1 S1                 0.0000
     28 ****        -5.3189  -1.0517   1.2710 H              1 S1                 0.0000
     29 ****        -4.9724  -3.5100   1.1627 H              1 S1                 0.0000
     30 ****        -2.6769  -4.4492   0.9938 H              1 S1                 0.0000
     31 ****        -0.7062  -2.9252   0.9343 H              1 S1                 0.0000
     32 ****         0.8269   0.7714   1.4990 H              1 S1                 0.0000
     33 ****         0.7534  -0.9712   1.4856 H              1 S1                 0.0000
     34 ****         0.4771  -0.9809  -0.9943 H              1 S1                 0.0000
     35 ****         0.4954   0.7876  -1.0115 H              1 S1                 0.0000
     36 ****         1.1793  -0.1323  -3.0374 H              1 S1                 0.0000
     37 ****         2.4594  -0.1276  -5.1281 H              1 S1                 0.0000
     38 ****         4.9459  -0.1022  -5.0873 H              1 S1                 0.0000
     39 ****         6.1492  -0.0841  -2.9133 H              1 S1                 0.0000
     40 ****        -3.3062   3.3522   2.4550 LP             1 S1                 0.0000
     41 ****        -3.3765   3.8950   4.0983 LP             1 S1                 0.0000
     42 ****        -3.9195   1.4599   1.2678 LP             1 S1                 0.0000
     43 ****         2.5833  -0.9313  -0.0202 LP             1 S1                 0.0000
     44 ****         2.5991   0.7016  -0.0115 LP             1 S1                 0.0000
@<TRIPOS>BOND
    1    1    2 2     
    2    2    3 am    
    3    2   24 1     
    4    3    4 1     
    5    3   25 1     
    6    4    5 1     
    7    4   26 1     
    8    4   27 1     
    9    5   13 1     
   10    5    6 2     
   11    6    7 1     
   12    7   12 ar    
   13    7    8 ar    
   14    8    9 ar    
   15    8   28 1     
   16    9   10 ar    
   17    9   29 1     
   18   10   11 ar    
   19   10   30 1     
   20   11   12 ar    
   21   11   31 1     
   22   12   13 1     
   23   13   14 1     
   24   14   15 1     
   25   14   32 1     
   26   14   33 1     
   27   15   16 1     
   28   15   34 1     
   29   15   35 1     
   30   16   17 1     
   31   17   22 ar    
   32   17   18 ar    
   33   18   19 ar    
   34   18   36 1     
   35   19   20 ar    
   36   19   37 1     
   37   20   21 ar    
   38   20   38 1     
   39   21   22 ar    
   40   21   39 1     
   41   22   23 1     
   42    1   40 1     
   43    1   41 1     
   44    6   42 1     
   45   16   43 1     
   46   16   44 1     
@<TRIPOS>SUBSTRUCTURE
      1 S1             1
@<TRIPOS>SET
LONE_PAIRS      STATIC     ATOMS    <user>   **** ""
5 40 41 42 43 44
DONOR_HYDROGENS      STATIC     ATOMS    <user>   **** ""
1 25
ATOM$BLUE        STATIC     ATOMS    COLORGROUP SYSTEM
5 40 41 42 43 44
ATOM$RED        STATIC     ATOMS    COLORGROUP SYSTEM
1 25
