AV-unprocessed.smi:2923|AV-procd|sdf|11204|dock8
  -GOLD-   2272016 93D 1   1.00000     0.00000
 Structure written by MMmdl.
 47 49  0  0  0  0  0  0  0  0  2 V2000
  145.1659  137.7182  152.9583 C   0  0  0  0  0  0  0  0  0  0  0  0
  146.1377  138.6084  152.3368 N   0  0  0  0  0  0  0  0  0  0  0  0
  146.3694  138.5568  150.8975 C   0  0  0  0  0  0  0  0  0  0  0  0
  146.8997  139.4854  153.1389 C   0  0  0  0  0  0  0  0  0  0  0  0
  148.0698  139.0860  153.8300 C   0  0  0  0  0  0  0  0  0  0  0  0
  148.7769  140.0221  154.6118 C   0  0  0  0  0  0  0  0  0  0  0  0
  148.3215  141.3543  154.6957 C   0  0  0  0  0  0  0  0  0  0  0  0
  149.0594  142.2577  155.5077 N   0  0  0  0  0  0  0  0  0  0  0  0
  150.0547  141.9866  156.3694 C   0  0  0  0  0  0  0  0  0  0  0  0
  150.4735  140.8622  156.6430 O   0  0  0  0  0  0  0  0  0  0  0  0
  150.5418  143.1080  156.9169 N   0  0  0  0  0  0  0  0  0  0  0  0
  151.6312  143.1438  157.8877 C   0  0  2  0  0  0  0  0  0  0  0  0
  151.5508  141.9952  158.9052 C   0  0  1  0  0  0  0  0  0  0  0  0
  152.6248  140.9416  158.9332 C   0  0  0  0  0  0  0  0  0  0  0  0
  153.5713  141.4474  160.0257 C   0  0  0  0  0  0  0  0  0  0  0  0
  153.3074  142.8457  160.1108 O   0  0  0  0  0  0  0  0  0  0  0  0
  151.9005  143.0262  159.9677 C   0  0  1  0  0  0  0  0  0  0  0  0
  151.4412  144.1679  159.0365 C   0  0  0  0  0  0  0  0  0  0  0  0
  152.3433  145.4023  158.9950 C   0  0  0  0  0  0  0  0  0  0  0  0
  150.0167  144.6699  159.3134 C   0  0  0  0  0  0  0  0  0  0  0  0
  147.1413  141.7023  153.9967 C   0  0  0  0  0  0  0  0  0  0  0  0
  146.4942  140.7730  153.2609 N   0  3  0  0  0  0  0  0  0  0  0  0
  145.6566  137.0484  153.6653 H   0  0  0  0  0  0  0  0  0  0  0  0
  144.6585  137.1039  152.2143 H   0  0  0  0  0  0  0  0  0  0  0  0
  144.4059  138.2916  153.4900 H   0  0  0  0  0  0  0  0  0  0  0  0
  146.1772  139.5297  150.4434 H   0  0  0  0  0  0  0  0  0  0  0  0
  145.7158  137.8291  150.4158 H   0  0  0  0  0  0  0  0  0  0  0  0
  147.4005  138.2714  150.6853 H   0  0  0  0  0  0  0  0  0  0  0  0
  148.4394  138.0728  153.7751 H   0  0  0  0  0  0  0  0  0  0  0  0
  149.6680  139.7150  155.1400 H   0  0  0  0  0  0  0  0  0  0  0  0
  148.7753  143.2247  155.4497 H   0  0  0  0  0  0  0  0  0  0  0  0
  150.1410  143.9933  156.6443 H   0  0  0  0  0  0  0  0  0  0  0  0
  152.6225  143.2113  157.4338 H   0  0  0  0  0  0  0  0  0  0  0  0
  150.5354  141.6161  159.0354 H   0  0  0  0  0  0  0  0  0  0  0  0
  152.2357  139.9503  159.1671 H   0  0  0  0  0  0  0  0  0  0  0  0
  153.1371  140.8826  157.9724 H   0  0  0  0  0  0  0  0  0  0  0  0
  153.3334  140.9830  160.9839 H   0  0  0  0  0  0  0  0  0  0  0  0
  154.6196  141.2494  159.8012 H   0  0  0  0  0  0  0  0  0  0  0  0
  151.3467  142.9106  160.9006 H   0  0  0  0  0  0  0  0  0  0  0  0
  152.3459  145.9284  159.9499 H   0  0  0  0  0  0  0  0  0  0  0  0
  152.0205  146.1077  158.2285 H   0  0  0  0  0  0  0  0  0  0  0  0
  153.3767  145.1379  158.7695 H   0  0  0  0  0  0  0  0  0  0  0  0
  149.9599  145.2001  160.2644 H   0  0  0  0  0  0  0  0  0  0  0  0
  149.3007  143.8490  159.3634 H   0  0  0  0  0  0  0  0  0  0  0  0
  149.6722  145.3549  158.5381 H   0  0  0  0  0  0  0  0  0  0  0  0
  146.6776  142.6771  154.0011 H   0  0  0  0  0  0  0  0  0  0  0  0
  145.6472  141.0588  152.7693 H   0  0  0  0  0  0  0  0  0  0  0  0
  1  2  1  0  0  0  0
  1 23  1  0  0  0  0
  1 24  1  0  0  0  0
  1 25  1  0  0  0  0
  2  3  1  0  0  0  0
  2  4  1  0  0  0  0
  3 26  1  0  0  0  0
  3 27  1  0  0  0  0
  3 28  1  0  0  0  0
  4 22  1  0  0  0  0
  4  5  2  0  0  0  0
  5  6  1  0  0  0  0
  5 29  1  0  0  0  0
  6  7  2  0  0  0  0
  6 30  1  0  0  0  0
  7  8  1  0  0  0  0
  7 21  1  0  0  0  0
  8  9  1  0  0  0  0
  8 31  1  0  0  0  0
  9 10  2  0  0  0  0
  9 11  1  0  0  0  0
 11 12  1  0  0  0  0
 11 32  1  0  0  0  0
 12 18  1  0  0  0  0
 12 13  1  0  0  0  0
 12 33  1  0  0  0  0
 13 17  1  0  0  0  0
 13 14  1  0  0  0  0
 13 34  1  0  0  0  0
 14 15  1  0  0  0  0
 14 35  1  0  0  0  0
 14 36  1  0  0  0  0
 15 16  1  0  0  0  0
 15 37  1  0  0  0  0
 15 38  1  0  0  0  0
 16 17  1  0  0  0  0
 17 18  1  0  0  0  0
 17 39  1  0  0  0  0
 18 19  1  0  0  0  0
 18 20  1  0  0  0  0
 19 40  1  0  0  0  0
 19 41  1  0  0  0  0
 19 42  1  0  0  0  0
 20 43  1  0  0  0  0
 20 44  1  0  0  0  0
 20 45  1  0  0  0  0
 21 22  2  0  0  0  0
 21 46  1  0  0  0  0
 22 47  1  0  0  0  0
M  CHG  1  22   1
M  END
> <s_m_source_file>
AV-unprocessed.smi

> <i_m_source_file_index>
2923

> <i_lp_mmshare_version>
43012

> <i_f3d_flags>
0

> <s_epik_input>
W0NIM11OKFtDSDNdKWMxW2NIXVtjSF1jKFtjSF1uMSlbTkhdQyg9TylbTkhdW0NASF0yQyhbQ0gzXSkoW0NIM10pW0NAQEhdKFtDQEhdMjMpT1tDSDJdW0NIMl0z

> <s_epik_cmdline>
J2VwaWtfcHl0aG9uJywgJy1waCcsICc3LjAnLCAnLXRuJywgJzgnLCAnLW1hJywgJzIwMCcsICctbWV0YWxfYmluZGluZycsICctaW1hZScsICc8aW5maWxlLm1hZT4nLCAnLW9tYWUnLCAnPG91dGZpbGUubWFlPic=

> <r_lp_tautomer_probability>
0.999994

> <r_epik_Ionization_Penalty>
0.252205

> <r_epik_Ionization_Penalty_Charging>
0.252185

> <r_epik_Ionization_Penalty_Neutral>
1.99479e-05

> <r_epik_State_Penalty>
0.243573

> <r_epik_Charging_Adjusted_Penalty>
0.495758

> <i_epik_Tot_Q>
1

> <i_epik_Tot_abs_Q>
1

> <r_epik_Metal_State_Penalty>
0.534372

> <b_epik_Metal_Only>
0

> <s_lp_Force_Field>
OPLS_2005

> <r_lp_Energy>
44.365

> <b_lp_Chiralities_Consistent>
1

> <s_lp_Variant>
AV-unprocessed.smi:2923-3

> <Gold.Version>
5.8.1

> <Gold.Id.Protein>
6NUR|6NUR_protein|mol2

> <Gold.PLP.Fitness>
53.3392

> <Gold.PLP.PLP>
-44.8253

> <Gold.PLP.part.hbond>
-3.0000

> <Gold.PLP.part.metal>
0.0000

> <Gold.PLP.part.buried>
-1.9370

> <Gold.PLP.part.nonpolar>
-42.1461

> <Gold.PLP.part.repulsive>
0.2189

> <Gold.PLP.ligand.clash>
0.0058

> <Gold.PLP.ligand.torsion>
1.7928

> <Gold.PLP.Chemscore.Hbond>
3.9760

> <Gold.PLP.Chemscore.CHOScore>
0.0000

> <Gold.PLP.Chemscore.Metal>
0.0000

> <Gold.Chemscore.Hbonds>
donor molecule, donor type, donor heavy atom, donor atom, acceptor molecule, acceptor atom, score
      L1  H     8    31       P1  8028  0.93
      L1  H    11    32       P1  8028  0.90
      L1  H    22    47       P1 10175  1.28

> <Gold.PLP.Chemscore.Internal.Correction>
0.1773

> <Gold.Rescore>
     Score         DG    S(hbond)    S(metal)    S(lipo)     H(rot)  DE(clash)    DE(int)     intcor
     20.13     -26.00       2.86        0.00     115.51       1.00       1.37       4.50       ----

> <Gold.Chemscore.Fitness>
20.1329

> <Gold.Chemscore.DG>
-25.9983

> <Gold.Chemscore.ZeroCoef>
-5.4800

> <Gold.Chemscore.Hbond>
2.8633

> <Gold.Chemscore.Metal>
0.0000

> <Gold.Chemscore.Lipo>
115.5129

> <Gold.Chemscore.Internal_Hbond>
0.0000

> <Gold.Chemscore.DEClash>
1.3658

> <Gold.Chemscore.DEInternal>
4.4996

> <Gold.Chemscore.Rot>
1.0000

> <Gold.Chemscore.Internal.Correction>
   9.000000E+99

> <Gold.Chemscore.Hbonds>
donor molecule, donor type, donor heavy atom, donor atom, acceptor molecule, acceptor atom, score
      L1  H     8    31       P1  8028  0.88
      L1  H    11    32       P1  8028  0.88
      L1  H    22    47       P1 10175  0.09

> <Gold.Chemscore.Hbond.Weighted>
-9.5633

> <Gold.Chemscore.Metal.Weighted>
-0.0000

> <Gold.Chemscore.Lipo.Weighted>
-13.5150

> <Gold.Chemscore.Internal_Hbond.Weighted>
0.0000

> <Gold.Chemscore.DEClash.Weighted>
1.3658

> <Gold.Chemscore.DEInternal.Weighted>
4.4996

> <Gold.Chemscore.Rot.Weighted>
2.5600

> <Gold.Chemscore.Internal.Correction.Weighted>
   9.000000E+99

> <Gold.Protein.RotatedTorsions>
[ 6907 6896 6895 6894 ] final  -90.83 input  -60.11 | X-H torsion
[ 7974 7965 7964 7962 ] final -147.34 input  175.53 | X-H torsion
[ 8008 7997 7996 7995 ] final   93.83 input   59.86 | X-H torsion
[ 10167 10162 10161 10158 ] final -156.42 input  -65.29 | X-H torsion
[ 10718 10713 10712 10709 ] final   92.85 input   66.30 | X-H torsion
[ 10763 10752 10751 10750 ] final  -91.35 input  -60.55 | X-H torsion
[ 11005 11000 10999 10996 ] final  151.21 input  -57.11 | X-H torsion

> <Gold.Protein.ActiveResidues>
 VAL166  LYS551  ARG553  GLY616  TRP617  ASP618  TYR619  PRO620  LYS621  CYS622 
 ASP623  PHE694  ASN695  SER759  ASP760  ASP761  ALA762  ILE779  LEU786  VAL792 
 PHE793  MET794  SER795  GLU796  ALA797  LYS798  CYS799  TRP800  GLU811  SER814 

> <Gold.Protein.RotatedAtoms>
  150.6886  134.2371  159.4457 H   0  0  0  0  0  0  0  0  0  0  0  0  # atno 6907 bound_to 6896
  152.0318  134.9761  160.0582 H   0  0  0  0  0  0  0  0  0  0  0  0  # atno 6908 bound_to 6896
  152.1297  133.4366  159.4752 H   0  0  0  0  0  0  0  0  0  0  0  0  # atno 6909 bound_to 6896
  144.8100  140.5339  143.5649 H   0  0  0  0  0  0  0  0  0  0  0  0  # atno 7974 bound_to 7965
  156.0511  140.3308  155.7352 H   0  0  0  0  0  0  0  0  0  0  0  0  # atno 8008 bound_to 7997
  155.5599  140.0618  157.2848 H   0  0  0  0  0  0  0  0  0  0  0  0  # atno 8009 bound_to 7997
  154.4436  140.1879  156.0760 H   0  0  0  0  0  0  0  0  0  0  0  0  # atno 8010 bound_to 7997
  139.6852  143.9514  152.2357 H   0  0  0  0  0  0  0  0  0  0  0  0  # atno 10167 bound_to 10162
  157.6957  131.0458  150.3945 H   0  0  0  0  0  0  0  0  0  0  0  0  # atno 10718 bound_to 10713
  154.6751  135.5271  153.8189 H   0  0  0  0  0  0  0  0  0  0  0  0  # atno 10763 bound_to 10752
  153.0527  135.6538  154.0664 H   0  0  0  0  0  0  0  0  0  0  0  0  # atno 10764 bound_to 10752
  154.0558  135.2965  155.3313 H   0  0  0  0  0  0  0  0  0  0  0  0  # atno 10765 bound_to 10752
  140.1199  134.8870  157.2057 H   0  0  0  0  0  0  0  0  0  0  0  0  # atno 11005 bound_to 11000
  145.5347  139.1475  143.3480 LP  0  0  0  0  0  0  0  0  0  0  0  0  # atno 17320 bound_to 7965
  146.2397  140.5487  142.8939 LP  0  0  0  0  0  0  0  0  0  0  0  0  # atno 17321 bound_to 7965
  139.9314  144.6739  150.8358 LP  0  0  0  0  0  0  0  0  0  0  0  0  # atno 17342 bound_to 10162
  140.7665  143.3306  151.2419 LP  0  0  0  0  0  0  0  0  0  0  0  0  # atno 17343 bound_to 10162
  156.4344  130.3979  149.6738 LP  0  0  0  0  0  0  0  0  0  0  0  0  # atno 17370 bound_to 10713
  156.3944  130.7643  151.2647 LP  0  0  0  0  0  0  0  0  0  0  0  0  # atno 17371 bound_to 10713
  140.2979  134.3165  155.7297 LP  0  0  0  0  0  0  0  0  0  0  0  0  # atno 17394 bound_to 11000
  141.2149  133.7574  156.9598 LP  0  0  0  0  0  0  0  0  0  0  0  0  # atno 17395 bound_to 11000

$$$$
