AV-unprocessed.smi:1603|AV-procd|sdf|6446|dock10
  -GOLD-   22720 7 93D 1   1.00000     0.00000
 Structure written by MMmdl.
 44 46  0  0  0  0  0  0  0  0  1 V2000
  153.3821  138.7031  158.9240 O   0  0  0  0  0  0  0  0  0  0  0  0
  152.9926  139.8543  159.1237 C   0  0  0  0  0  0  0  0  0  0  0  0
  153.4792  140.6967  160.2269 C   0  0  0  0  0  0  0  0  0  0  0  0
  154.5336  140.1119  161.1630 C   0  0  0  0  0  0  0  0  0  0  0  0
  155.7541  140.1660  160.6274 F   0  0  0  0  0  0  0  0  0  0  0  0
  154.5624  140.7851  162.3138 F   0  0  0  0  0  0  0  0  0  0  0  0
  154.2638  138.8342  161.4338 F   0  0  0  0  0  0  0  0  0  0  0  0
  152.9950  141.9524  160.3871 C   0  0  0  0  0  0  0  0  0  0  0  0
  151.9972  142.4740  159.4749 C   0  0  0  0  0  0  0  0  0  0  0  0
  151.4119  143.8512  159.6014 C   0  0  0  0  0  0  0  0  0  0  0  0
  152.1892  145.0915  159.2228 C   0  0  0  0  0  0  0  0  0  0  0  0
  151.8683  144.8134  160.6731 C   0  0  0  0  0  0  0  0  0  0  0  0
  151.5780  141.7361  158.5029 N   0  0  0  0  0  0  0  0  0  0  0  0
  152.0579  140.4534  158.3278 N   0  0  0  0  0  0  0  0  0  0  0  0
  151.4578  139.7461  157.1892 C   0  0  0  0  0  0  0  0  0  0  0  0
  151.3892  140.6323  155.9244 C   0  0  1  0  0  0  0  0  0  0  0  0
  151.0622  139.7913  154.8340 O   0  0  0  0  0  0  0  0  0  0  0  0
  150.2910  141.7137  156.0358 C   0  0  0  0  0  0  0  0  0  0  0  0
  148.9511  141.2879  155.6286 N   0  0  0  0  0  0  0  0  0  0  0  0
  147.9026  141.8029  156.5067 C   0  0  0  0  0  0  0  0  0  0  0  0
  146.5002  141.3686  156.0452 C   0  0  0  0  0  0  0  0  0  0  0  0
  146.2876  141.7818  154.6991 O   0  0  0  0  0  0  0  0  0  0  0  0
  147.2631  141.2574  153.8046 C   0  0  0  0  0  0  0  0  0  0  0  0
  148.6654  141.6987  154.2578 C   0  0  0  0  0  0  0  0  0  0  0  0
  153.3406  142.5866  161.1898 H   0  0  0  0  0  0  0  0  0  0  0  0
  150.3503  143.8425  159.3617 H   0  0  0  0  0  0  0  0  0  0  0  0
  153.2266  144.9770  158.9135 H   0  0  0  0  0  0  0  0  0  0  0  0
  151.6436  145.8949  158.7322 H   0  0  0  0  0  0  0  0  0  0  0  0
  151.1092  145.4320  161.1479 H   0  0  0  0  0  0  0  0  0  0  0  0
  152.6906  144.5077  161.3176 H   0  0  0  0  0  0  0  0  0  0  0  0
  151.9951  138.8190  156.9781 H   0  0  0  0  0  0  0  0  0  0  0  0
  150.4547  139.4255  157.4761 H   0  0  0  0  0  0  0  0  0  0  0  0
  152.3546  141.1081  155.7457 H   0  0  0  0  0  0  0  0  0  0  0  0
  150.1306  139.8423  154.6837 H   0  0  0  0  0  0  0  0  0  0  0  0
  150.2697  142.1386  157.0408 H   0  0  0  0  0  0  0  0  0  0  0  0
  150.5766  142.5398  155.3835 H   0  0  0  0  0  0  0  0  0  0  0  0
  148.0570  141.4496  157.5259 H   0  0  0  0  0  0  0  0  0  0  0  0
  147.9508  142.8925  156.5412 H   0  0  0  0  0  0  0  0  0  0  0  0
  146.3868  140.2861  156.1226 H   0  0  0  0  0  0  0  0  0  0  0  0
  145.7363  141.8170  156.6806 H   0  0  0  0  0  0  0  0  0  0  0  0
  147.1912  140.1690  153.7731 H   0  0  0  0  0  0  0  0  0  0  0  0
  147.0569  141.6221  152.7982 H   0  0  0  0  0  0  0  0  0  0  0  0
  148.7463  142.7836  154.1724 H   0  0  0  0  0  0  0  0  0  0  0  0
  149.4095  141.2765  153.5812 H   0  0  0  0  0  0  0  0  0  0  0  0
  1  2  2  0  0  0  0
  2 14  1  0  0  0  0
  2  3  1  0  0  0  0
  3  4  1  0  0  0  0
  3  8  2  0  0  0  0
  4  5  1  0  0  0  0
  4  6  1  0  0  0  0
  4  7  1  0  0  0  0
  8  9  1  0  0  0  0
  8 25  1  0  0  0  0
  9 10  1  0  0  0  0
  9 13  2  0  0  0  0
 10 12  1  0  0  0  0
 10 11  1  0  0  0  0
 10 26  1  0  0  0  0
 11 12  1  0  0  0  0
 11 27  1  0  0  0  0
 11 28  1  0  0  0  0
 12 29  1  0  0  0  0
 12 30  1  0  0  0  0
 13 14  1  0  0  0  0
 14 15  1  0  0  0  0
 15 16  1  0  0  0  0
 15 31  1  0  0  0  0
 15 32  1  0  0  0  0
 16 17  1  0  0  0  0
 16 18  1  0  0  0  0
 16 33  1  0  0  0  0
 17 34  1  0  0  0  0
 18 19  1  0  0  0  0
 18 35  1  0  0  0  0
 18 36  1  0  0  0  0
 19 24  1  0  0  0  0
 19 20  1  0  0  0  0
 20 21  1  0  0  0  0
 20 37  1  0  0  0  0
 20 38  1  0  0  0  0
 21 22  1  0  0  0  0
 21 39  1  0  0  0  0
 21 40  1  0  0  0  0
 22 23  1  0  0  0  0
 23 24  1  0  0  0  0
 23 41  1  0  0  0  0
 23 42  1  0  0  0  0
 24 43  1  0  0  0  0
 24 44  1  0  0  0  0
M  END
> <s_m_source_file>
AV-unprocessed.smi

> <i_m_source_file_index>
1603

> <i_lp_mmshare_version>
43012

> <i_f3d_flags>
0

> <s_epik_input>
Tz1jMWMoQyhGKShGKUYpW2NIXWMoW0NIXTJbQ0gyXVtDSDJdMilubjFbQ0gyXVtDQEhdKFtPSF0pW0NIMl1OM1tDSDJdW0NIMl1PW0NIMl1bQ0gyXTM=

> <s_epik_cmdline>
J2VwaWtfcHl0aG9uJywgJy1waCcsICc3LjAnLCAnLXRuJywgJzgnLCAnLW1hJywgJzIwMCcsICctbWV0YWxfYmluZGluZycsICctaW1hZScsICc8aW5maWxlLm1hZT4nLCAnLW9tYWUnLCAnPG91dGZpbGUubWFlPic=

> <r_lp_tautomer_probability>
1

> <r_epik_Ionization_Penalty>
0.450313

> <r_epik_Ionization_Penalty_Charging>
7.22079e-10

> <r_epik_Ionization_Penalty_Neutral>
0.450313

> <r_epik_State_Penalty>
0.45306

> <r_epik_Charging_Adjusted_Penalty>
0.45306

> <i_epik_Tot_Q>
0

> <i_epik_Tot_abs_Q>
0

> <r_epik_Metal_State_Penalty>
0.45306

> <b_epik_Metal_Only>
0

> <s_lp_Force_Field>
OPLS_2005

> <r_lp_Energy>
51.835

> <b_lp_Chiralities_Consistent>
1

> <s_lp_Variant>
AV-unprocessed.smi:1603-4

> <Gold.Version>
5.8.1

> <Gold.Id.Protein>
6NUR|6NUR_protein|mol2

> <Gold.PLP.Fitness>
48.2547

> <Gold.PLP.PLP>
-49.4174

> <Gold.PLP.part.hbond>
-1.0000

> <Gold.PLP.part.metal>
0.0000

> <Gold.PLP.part.buried>
-4.3264

> <Gold.PLP.part.nonpolar>
-44.0226

> <Gold.PLP.part.repulsive>
0.2450

> <Gold.PLP.ligand.clash>
0.2063

> <Gold.PLP.ligand.torsion>
2.1335

> <Gold.PLP.Chemscore.Hbond>
0.9000

> <Gold.PLP.Chemscore.CHOScore>
0.0000

> <Gold.PLP.Chemscore.Metal>
0.0000

> <Gold.Chemscore.Hbonds>
donor molecule, donor type, donor heavy atom, donor atom, acceptor molecule, acceptor atom, score
      P1  H  7989  7998       L1    17  0.90

> <Gold.PLP.Chemscore.Internal.Correction>
0.6106

> <Gold.Rescore>
     Score         DG    S(hbond)    S(metal)    S(lipo)     H(rot)  DE(clash)    DE(int)     intcor
      8.95     -13.01       0.52        0.00     102.62       2.43       0.00       4.06       ----

> <Gold.Chemscore.Fitness>
8.9495

> <Gold.Chemscore.DG>
-13.0101

> <Gold.Chemscore.ZeroCoef>
-5.4800

> <Gold.Chemscore.Hbond>
0.5200

> <Gold.Chemscore.Metal>
0.0000

> <Gold.Chemscore.Lipo>
102.6216

> <Gold.Chemscore.Internal_Hbond>
0.0000

> <Gold.Chemscore.DEClash>
0.0000

> <Gold.Chemscore.DEInternal>
4.0606

> <Gold.Chemscore.Rot>
2.4272

> <Gold.Chemscore.Internal.Correction>
   9.000000E+99

> <Gold.Chemscore.Hbonds>
donor molecule, donor type, donor heavy atom, donor atom, acceptor molecule, acceptor atom, score
      P1  H  7989  7998       L1    17  0.05

> <Gold.Chemscore.Hbond.Weighted>
-1.7369

> <Gold.Chemscore.Metal.Weighted>
-0.0000

> <Gold.Chemscore.Lipo.Weighted>
-12.0067

> <Gold.Chemscore.Internal_Hbond.Weighted>
0.0000

> <Gold.Chemscore.DEClash.Weighted>
0.0000

> <Gold.Chemscore.DEInternal.Weighted>
4.0606

> <Gold.Chemscore.Rot.Weighted>
6.2135

> <Gold.Chemscore.Internal.Correction.Weighted>
   9.000000E+99

> <Gold.Protein.RotatedTorsions>
[ 6907 6896 6895 6894 ] final  -46.08 input  -60.11 | X-H torsion
[ 7974 7965 7964 7962 ] final -134.44 input  175.53 | X-H torsion
[ 8008 7997 7996 7995 ] final  -77.12 input   59.86 | X-H torsion
[ 10167 10162 10161 10158 ] final   85.08 input  -65.29 | X-H torsion
[ 10718 10713 10712 10709 ] final -133.00 input   66.30 | X-H torsion
[ 10763 10752 10751 10750 ] final    4.03 input  -60.55 | X-H torsion
[ 11005 11000 10999 10996 ] final -104.92 input  -57.11 | X-H torsion

> <Gold.Protein.ActiveResidues>
 VAL166  LYS551  ARG553  GLY616  TRP617  ASP618  TYR619  PRO620  LYS621  CYS622 
 ASP623  PHE694  ASN695  SER759  ASP760  ASP761  ALA762  ILE779  LEU786  VAL792 
 PHE793  MET794  SER795  GLU796  ALA797  LYS798  CYS799  TRP800  GLU811  SER814 

> <Gold.Protein.RotatedAtoms>
  150.9150  134.8567  159.7450 H   0  0  0  0  0  0  0  0  0  0  0  0  # atno 6907 bound_to 6896
  152.4964  134.4303  159.9520 H   0  0  0  0  0  0  0  0  0  0  0  0  # atno 6908 bound_to 6896
  151.4341  133.3622  159.2808 H   0  0  0  0  0  0  0  0  0  0  0  0  # atno 6909 bound_to 6896
  144.9103  140.6886  143.5029 H   0  0  0  0  0  0  0  0  0  0  0  0  # atno 7974 bound_to 7965
  154.5567  140.0716  156.8754 H   0  0  0  0  0  0  0  0  0  0  0  0  # atno 8008 bound_to 7997
  155.2889  140.3376  155.4235 H   0  0  0  0  0  0  0  0  0  0  0  0  # atno 8009 bound_to 7997
  156.2008  140.1721  156.7889 H   0  0  0  0  0  0  0  0  0  0  0  0  # atno 8010 bound_to 7997
  139.9014  144.6327  150.8633 H   0  0  0  0  0  0  0  0  0  0  0  0  # atno 10167 bound_to 10162
  156.2404  130.7092  151.0951 H   0  0  0  0  0  0  0  0  0  0  0  0  # atno 10718 bound_to 10713
  153.2761  135.6936  153.7432 H   0  0  0  0  0  0  0  0  0  0  0  0  # atno 10763 bound_to 10752
  153.6436  135.3389  155.3080 H   0  0  0  0  0  0  0  0  0  0  0  0  # atno 10764 bound_to 10752
  154.8480  135.4437  154.1800 H   0  0  0  0  0  0  0  0  0  0  0  0  # atno 10765 bound_to 10752
  141.1078  133.8764  157.1670 H   0  0  0  0  0  0  0  0  0  0  0  0  # atno 11005 bound_to 11000
  145.3466  139.1717  143.4457 LP  0  0  0  0  0  0  0  0  0  0  0  0  # atno 17320 bound_to 7965
  146.3155  140.3513  142.8656 LP  0  0  0  0  0  0  0  0  0  0  0  0  # atno 17321 bound_to 7965
  140.7706  143.3434  151.2161 LP  0  0  0  0  0  0  0  0  0  0  0  0  # atno 17342 bound_to 10162
  139.7022  143.9515  152.2910 LP  0  0  0  0  0  0  0  0  0  0  0  0  # atno 17343 bound_to 10162
  157.7173  131.0702  150.6278 LP  0  0  0  0  0  0  0  0  0  0  0  0  # atno 17370 bound_to 10713
  156.6351  130.4442  149.5772 LP  0  0  0  0  0  0  0  0  0  0  0  0  # atno 17371 bound_to 10713
  139.9956  135.0048  157.0075 LP  0  0  0  0  0  0  0  0  0  0  0  0  # atno 17394 bound_to 11000
  140.4856  134.1245  155.7224 LP  0  0  0  0  0  0  0  0  0  0  0  0  # atno 17395 bound_to 11000

$$$$
