AV-unprocessed.smi:1196|AV-procd|sdf|5002|dock8
  -GOLD-   22720 4 13D 1   1.00000     0.00000
 Structure written by MMmdl.
 36 37  0  0  0  0  0  0  0  0  2 V2000
  149.7290  145.1732  160.4035 C   0  0  0  0  0  0  0  0  0  0  0  0
  149.2215  143.9209  159.6716 C   0  0  2  0  0  0  0  0  0  0  0  0
  150.1880  143.4942  158.5496 C   0  0  0  0  0  0  0  0  0  0  0  0
  151.4723  143.0524  159.0640 N   0  0  0  0  0  0  0  0  0  0  0  0
  152.7198  143.5931  158.8340 C   0  0  0  0  0  0  0  0  0  0  0  0
  153.6243  142.8344  159.5197 C   0  0  0  0  0  0  0  0  0  0  0  0
  152.8236  141.8394  160.1470 C   0  0  0  0  0  0  0  0  0  0  0  0
  151.5358  141.9732  159.8735 N   0  0  0  0  0  0  0  0  0  0  0  0
  147.8918  144.1685  159.1178 N   0  0  0  0  0  0  0  0  0  0  0  0
  146.7460  143.6428  159.5765 C   0  0  0  0  0  0  0  0  0  0  0  0
  146.6902  142.9029  160.5597 O   0  0  0  0  0  0  0  0  0  0  0  0
  145.4838  144.0209  158.7952 C   0  0  0  0  0  0  0  0  0  0  0  0
  145.4427  143.4452  157.3657 C   0  0  0  0  0  0  0  0  0  0  0  0
  144.1646  143.8364  156.5944 C   0  0  1  0  0  0  0  0  0  0  0  0
  144.2574  145.1839  156.0594 N   0  5  0  0  0  0  0  0  0  0  0  0
  144.1213  145.1221  154.7137 C   0  0  0  0  0  0  0  0  0  0  0  0
  144.1385  146.0541  153.9130 O   0  0  0  0  0  0  0  0  0  0  0  0
  143.9579  143.8572  154.3122 N   0  0  0  0  0  0  0  0  0  0  0  0
  143.9792  143.0101  155.3360 C   0  0  0  0  0  0  0  0  0  0  0  0
  143.8703  141.7854  155.2956 O   0  0  0  0  0  0  0  0  0  0  0  0
  150.7156  145.0009  160.8339 H   0  0  0  0  0  0  0  0  0  0  0  0
  149.0619  145.4531  161.2195 H   0  0  0  0  0  0  0  0  0  0  0  0
  149.8044  146.0256  159.7274 H   0  0  0  0  0  0  0  0  0  0  0  0
  149.1619  143.1056  160.3954 H   0  0  0  0  0  0  0  0  0  0  0  0
  149.7547  142.6902  157.9528 H   0  0  0  0  0  0  0  0  0  0  0  0
  150.3630  144.3270  157.8668 H   0  0  0  0  0  0  0  0  0  0  0  0
  152.8583  144.4600  158.2050 H   0  0  0  0  0  0  0  0  0  0  0  0
  154.6949  142.9683  159.5643 H   0  0  0  0  0  0  0  0  0  0  0  0
  153.1379  141.0294  160.7885 H   0  0  0  0  0  0  0  0  0  0  0  0
  147.8411  144.7678  158.3068 H   0  0  0  0  0  0  0  0  0  0  0  0
  144.6134  143.6786  159.3558 H   0  0  0  0  0  0  0  0  0  0  0  0
  145.4225  145.1093  158.7558 H   0  0  0  0  0  0  0  0  0  0  0  0
  146.3261  143.7658  156.8099 H   0  0  0  0  0  0  0  0  0  0  0  0
  145.5018  142.3569  157.4254 H   0  0  0  0  0  0  0  0  0  0  0  0
  143.2873  143.6977  157.2276 H   0  0  0  0  0  0  0  0  0  0  0  0
  143.8445  143.5798  153.3488 H   0  0  0  0  0  0  0  0  0  0  0  0
  1  2  1  0  0  0  0
  1 21  1  0  0  0  0
  1 22  1  0  0  0  0
  1 23  1  0  0  0  0
  2  3  1  0  0  0  0
  2  9  1  0  0  0  0
  2 24  1  0  0  0  0
  3  4  1  0  0  0  0
  3 25  1  0  0  0  0
  3 26  1  0  0  0  0
  4  8  1  0  0  0  0
  4  5  1  0  0  0  0
  5  6  2  0  0  0  0
  5 27  1  0  0  0  0
  6  7  1  0  0  0  0
  6 28  1  0  0  0  0
  7  8  2  0  0  0  0
  7 29  1  0  0  0  0
  9 10  1  0  0  0  0
  9 30  1  0  0  0  0
 10 11  2  0  0  0  0
 10 12  1  0  0  0  0
 12 13  1  0  0  0  0
 12 31  1  0  0  0  0
 12 32  1  0  0  0  0
 13 14  1  0  0  0  0
 13 33  1  0  0  0  0
 13 34  1  0  0  0  0
 14 19  1  0  0  0  0
 14 15  1  0  0  0  0
 14 35  1  0  0  0  0
 15 16  1  0  0  0  0
 16 17  2  0  0  0  0
 16 18  1  0  0  0  0
 18 19  1  0  0  0  0
 18 36  1  0  0  0  0
 19 20  2  0  0  0  0
M  CHG  1  15  -1
M  END
> <s_m_source_file>
AV-unprocessed.smi

> <i_m_source_file_index>
1196

> <i_lp_mmshare_version>
43012

> <i_f3d_flags>
0

> <s_epik_input>
bjFbY0hdW2NIXVtjSF1uMVtDSDJdW0NAQEhdKFtDSDNdKVtOSF1DKD1PKVtDSDJdW0NIMl1bQ0BASF0yW05IXUMoPU8pW05IXUMyPU8=

> <s_epik_cmdline>
J2VwaWtfcHl0aG9uJywgJy1waCcsICc3LjAnLCAnLXRuJywgJzgnLCAnLW1hJywgJzIwMCcsICctbWV0YWxfYmluZGluZycsICctaW1hZScsICc8aW5maWxlLm1hZT4nLCAnLW9tYWUnLCAnPG91dGZpbGUubWFlPic=

> <r_lp_tautomer_probability>
1

> <r_epik_Ionization_Penalty>
5.79547

> <r_epik_Ionization_Penalty_Charging>
5.79516

> <r_epik_Ionization_Penalty_Neutral>
0.000313087

> <r_epik_State_Penalty>
5.80096

> <r_epik_Charging_Adjusted_Penalty>
11.5961

> <i_epik_Tot_Q>
-1

> <i_epik_Tot_abs_Q>
1

> <r_epik_Metal_State_Penalty>
2.14443

> <b_epik_Metal_Only>
1

> <s_lp_Force_Field>
OPLS_2005

> <r_lp_Energy>
10.7967

> <b_lp_Chiralities_Consistent>
1

> <s_lp_Variant>
AV-unprocessed.smi:1196-7

> <Gold.Version>
5.8.1

> <Gold.Id.Protein>
6NUR|6NUR_protein|mol2

> <Gold.PLP.Fitness>
40.4534

> <Gold.PLP.PLP>
-29.7514

> <Gold.PLP.part.hbond>
-5.7718

> <Gold.PLP.part.metal>
0.0000

> <Gold.PLP.part.buried>
-4.2082

> <Gold.PLP.part.nonpolar>
-21.4512

> <Gold.PLP.part.repulsive>
0.7104

> <Gold.PLP.ligand.clash>
0.0000

> <Gold.PLP.ligand.torsion>
0.3121

> <Gold.PLP.Chemscore.Hbond>
3.7599

> <Gold.PLP.Chemscore.CHOScore>
0.0000

> <Gold.PLP.Chemscore.Metal>
0.0000

> <Gold.Chemscore.Hbonds>
donor molecule, donor type, donor heavy atom, donor atom, acceptor molecule, acceptor atom, score
      L1  H     9    30       P1  8029  1.00
      L1  H    18    36       P1 10174  0.86
      P1  H  6933  6944       L1    11  0.83
      P1  H  6934  6946       L1    11  0.90

> <Gold.PLP.Chemscore.Internal.Correction>
0.0466

> <Gold.Rescore>
     Score         DG    S(hbond)    S(metal)    S(lipo)     H(rot)  DE(clash)    DE(int)     intcor
     16.75     -17.17       3.57        0.00      61.28       2.89       0.05       0.37       ----

> <Gold.Chemscore.Fitness>
16.7511

> <Gold.Chemscore.DG>
-17.1719

> <Gold.Chemscore.ZeroCoef>
-5.4800

> <Gold.Chemscore.Hbond>
3.5725

> <Gold.Chemscore.Metal>
0.0000

> <Gold.Chemscore.Lipo>
61.2823

> <Gold.Chemscore.Internal_Hbond>
0.0000

> <Gold.Chemscore.DEClash>
0.0509

> <Gold.Chemscore.DEInternal>
0.3699

> <Gold.Chemscore.Rot>
2.8946

> <Gold.Chemscore.Internal.Correction>
   9.000000E+99

> <Gold.Chemscore.Hbonds>
donor molecule, donor type, donor heavy atom, donor atom, acceptor molecule, acceptor atom, score
      L1  H     9    30       P1  8029  0.89
      L1  H    18    36       P1 10174  0.49
      P1  H  6933  6944       L1    11  0.73
      P1  H  6934  6946       L1    11  0.83

> <Gold.Chemscore.Hbond.Weighted>
-11.9320

> <Gold.Chemscore.Metal.Weighted>
-0.0000

> <Gold.Chemscore.Lipo.Weighted>
-7.1700

> <Gold.Chemscore.Internal_Hbond.Weighted>
0.0000

> <Gold.Chemscore.DEClash.Weighted>
0.0509

> <Gold.Chemscore.DEInternal.Weighted>
0.3699

> <Gold.Chemscore.Rot.Weighted>
7.4101

> <Gold.Chemscore.Internal.Correction.Weighted>
   9.000000E+99

> <Gold.Protein.RotatedTorsions>
[ 6907 6896 6895 6894 ] final  -99.39 input  -60.11 | X-H torsion
[ 7974 7965 7964 7962 ] final    8.68 input  175.53 | X-H torsion
[ 8008 7997 7996 7995 ] final  176.09 input   59.86 | X-H torsion
[ 10167 10162 10161 10158 ] final  164.37 input  -65.29 | X-H torsion
[ 10718 10713 10712 10709 ] final  -12.77 input   66.30 | X-H torsion
[ 10763 10752 10751 10750 ] final  -87.65 input  -60.55 | X-H torsion
[ 11005 11000 10999 10996 ] final -122.75 input  -57.11 | X-H torsion

> <Gold.Protein.ActiveResidues>
 VAL166  LYS551  ARG553  GLY616  TRP617  ASP618  TYR619  PRO620  LYS621  CYS622 
 ASP623  PHE694  ASN695  SER759  ASP760  ASP761  ALA762  ILE779  LEU786  VAL792 
 PHE793  MET794  SER795  GLU796  ALA797  LYS798  CYS799  TRP800  GLU811  SER814 

> <Gold.Protein.RotatedAtoms>
  150.7078  134.1048  159.3978 H   0  0  0  0  0  0  0  0  0  0  0  0  # atno 6907 bound_to 6896
  151.9034  135.0366  160.0517 H   0  0  0  0  0  0  0  0  0  0  0  0  # atno 6908 bound_to 6896
  152.2395  133.5088  159.5299 H   0  0  0  0  0  0  0  0  0  0  0  0  # atno 6909 bound_to 6896
  146.2413  139.9896  142.8427 H   0  0  0  0  0  0  0  0  0  0  0  0  # atno 7974 bound_to 7965
  156.0801  140.1392  156.9723 H   0  0  0  0  0  0  0  0  0  0  0  0  # atno 8008 bound_to 7997
  154.4580  140.0954  156.6862 H   0  0  0  0  0  0  0  0  0  0  0  0  # atno 8009 bound_to 7997
  155.5089  140.3453  155.4387 H   0  0  0  0  0  0  0  0  0  0  0  0  # atno 8010 bound_to 7997
  139.4888  144.4242  151.9150 H   0  0  0  0  0  0  0  0  0  0  0  0  # atno 10167 bound_to 10162
  156.6398  130.4925  149.6099 H   0  0  0  0  0  0  0  0  0  0  0  0  # atno 10718 bound_to 10713
  154.6360  135.5405  153.7734 H   0  0  0  0  0  0  0  0  0  0  0  0  # atno 10763 bound_to 10752
  153.0309  135.6447  154.1231 H   0  0  0  0  0  0  0  0  0  0  0  0  # atno 10764 bound_to 10752
  154.1158  135.2923  155.3200 H   0  0  0  0  0  0  0  0  0  0  0  0  # atno 10765 bound_to 10752
  140.9971  134.0456  157.3584 H   0  0  0  0  0  0  0  0  0  0  0  0  # atno 11005 bound_to 11000
  145.1515  140.9625  143.4430 LP  0  0  0  0  0  0  0  0  0  0  0  0  # atno 17320 bound_to 7965
  145.0200  139.3432  143.6077 LP  0  0  0  0  0  0  0  0  0  0  0  0  # atno 17321 bound_to 7965
  140.3687  144.2882  150.5923 LP  0  0  0  0  0  0  0  0  0  0  0  0  # atno 17342 bound_to 10162
  140.5338  143.2237  151.8195 LP  0  0  0  0  0  0  0  0  0  0  0  0  # atno 17343 bound_to 10162
  156.2168  130.6712  151.1327 LP  0  0  0  0  0  0  0  0  0  0  0  0  # atno 17370 bound_to 10713
  157.7174  131.0701  150.6272 LP  0  0  0  0  0  0  0  0  0  0  0  0  # atno 17371 bound_to 10713
  139.9020  135.0168  156.7313 LP  0  0  0  0  0  0  0  0  0  0  0  0  # atno 17394 bound_to 11000
  140.6948  133.9358  155.7988 LP  0  0  0  0  0  0  0  0  0  0  0  0  # atno 17395 bound_to 11000

$$$$
