AV-unprocessed.smi:2971|AV-procd|sdf|11333|dock8
  -GOLD-   2272016243D 1   1.00000     0.00000
 Structure written by MMmdl.
 36 38  0  0  0  0  0  0  0  0  1 V2000
  149.5869  140.6380  153.7337 O   0  0  0  0  0  0  0  0  0  0  0  0
  148.5865  140.8094  154.7189 C   0  0  1  0  0  0  0  0  0  0  0  0
  149.1082  141.7954  155.7760 C   0  0  0  0  0  0  0  0  0  0  0  0
  150.1659  141.1789  156.4987 O   0  0  0  0  0  0  0  0  0  0  0  0
  150.9041  141.9540  157.3684 C   0  0  0  0  0  0  0  0  0  0  0  0
  150.8428  143.3703  157.4190 C   0  0  0  0  0  0  0  0  0  0  0  0
  151.6325  144.0865  158.3396 C   0  0  0  0  0  0  0  0  0  0  0  0
  152.4898  143.4010  159.2195 C   0  0  0  0  0  0  0  0  0  0  0  0
  152.5567  141.9963  159.1778 C   0  0  0  0  0  0  0  0  0  0  0  0
  151.7687  141.2789  158.2567 C   0  0  0  0  0  0  0  0  0  0  0  0
  151.8442  139.9267  158.2259 F   0  0  0  0  0  0  0  0  0  0  0  0
  147.3002  141.3220  154.0421 C   0  0  0  0  0  0  0  0  0  0  0  0
  146.3301  141.8283  154.9971 N   0  0  0  0  0  0  0  0  0  0  0  0
  146.1495  141.4104  156.2646 C   0  0  0  0  0  0  0  0  0  0  0  0
  145.2034  142.0149  156.9776 N   0  0  0  0  0  0  0  0  0  0  0  0
  144.7109  142.9328  156.0655 C   0  0  0  0  0  0  0  0  0  0  0  0
  143.6833  143.8944  156.1964 C   0  0  0  0  0  0  0  0  0  0  0  0
  143.3490  144.7347  155.1139 C   0  0  0  0  0  0  0  0  0  0  0  0
  144.0340  144.6259  153.8861 C   0  0  0  0  0  0  0  0  0  0  0  0
  145.0615  143.6756  153.7320 C   0  0  0  0  0  0  0  0  0  0  0  0
  145.3939  142.8408  154.8151 C   0  0  0  0  0  0  0  0  0  0  0  0
  149.7014  139.7119  153.5826 H   0  0  0  0  0  0  0  0  0  0  0  0
  148.3809  139.8456  155.1870 H   0  0  0  0  0  0  0  0  0  0  0  0
  149.4268  142.7300  155.3102 H   0  0  0  0  0  0  0  0  0  0  0  0
  148.3053  142.0291  156.4772 H   0  0  0  0  0  0  0  0  0  0  0  0
  150.1974  143.9327  156.7620 H   0  0  0  0  0  0  0  0  0  0  0  0
  151.5794  145.1650  158.3699 H   0  0  0  0  0  0  0  0  0  0  0  0
  153.0948  143.9513  159.9251 H   0  0  0  0  0  0  0  0  0  0  0  0
  153.2133  141.4674  159.8527 H   0  0  0  0  0  0  0  0  0  0  0  0
  147.5370  142.1265  153.3447 H   0  0  0  0  0  0  0  0  0  0  0  0
  146.8344  140.5299  153.4540 H   0  0  0  0  0  0  0  0  0  0  0  0
  146.7483  140.6173  156.6882 H   0  0  0  0  0  0  0  0  0  0  0  0
  143.1511  143.9854  157.1316 H   0  0  0  0  0  0  0  0  0  0  0  0
  142.5623  145.4661  155.2259 H   0  0  0  0  0  0  0  0  0  0  0  0
  143.7691  145.2722  153.0620 H   0  0  0  0  0  0  0  0  0  0  0  0
  145.5861  143.5866  152.7923 H   0  0  0  0  0  0  0  0  0  0  0  0
  1  2  1  0  0  0  0
  1 22  1  0  0  0  0
  2  3  1  0  0  0  0
  2 12  1  0  0  0  0
  2 23  1  0  0  0  0
  3  4  1  0  0  0  0
  3 24  1  0  0  0  0
  3 25  1  0  0  0  0
  4  5  1  0  0  0  0
  5 10  1  0  0  0  0
  5  6  2  0  0  0  0
  6  7  1  0  0  0  0
  6 26  1  0  0  0  0
  7  8  2  0  0  0  0
  7 27  1  0  0  0  0
  8  9  1  0  0  0  0
  8 28  1  0  0  0  0
  9 10  2  0  0  0  0
  9 29  1  0  0  0  0
 10 11  1  0  0  0  0
 12 13  1  0  0  0  0
 12 30  1  0  0  0  0
 12 31  1  0  0  0  0
 13 21  1  0  0  0  0
 13 14  1  0  0  0  0
 14 15  2  0  0  0  0
 14 32  1  0  0  0  0
 15 16  1  0  0  0  0
 16 21  2  0  0  0  0
 16 17  1  0  0  0  0
 17 18  2  0  0  0  0
 17 33  1  0  0  0  0
 18 19  1  0  0  0  0
 18 34  1  0  0  0  0
 19 20  2  0  0  0  0
 19 35  1  0  0  0  0
 20 21  1  0  0  0  0
 20 36  1  0  0  0  0
M  END
> <s_m_source_file>
AV-unprocessed.smi

> <i_m_source_file_index>
2971

> <i_lp_mmshare_version>
43012

> <i_f3d_flags>
0

> <s_epik_input>
W2NIXTFbY0hdW2NIXVtjSF1jKGMxMiluKFtjSF1uMilbQ0gyXVtDQEhdKFtPSF0pW0NIMl1PYzNbY0hdW2NIXVtjSF1bY0hdYzNG

> <s_epik_cmdline>
J2VwaWtfcHl0aG9uJywgJy1waCcsICc3LjAnLCAnLXRuJywgJzgnLCAnLW1hJywgJzIwMCcsICctbWV0YWxfYmluZGluZycsICctaW1hZScsICc8aW5maWxlLm1hZT4nLCAnLW9tYWUnLCAnPG91dGZpbGUubWFlPic=

> <r_lp_tautomer_probability>
1

> <r_epik_Ionization_Penalty>
0.0600913

> <r_epik_Ionization_Penalty_Charging>
0

> <r_epik_Ionization_Penalty_Neutral>
0.0600913

> <r_epik_State_Penalty>
0.0520726

> <r_epik_Charging_Adjusted_Penalty>
0.0520726

> <i_epik_Tot_Q>
0

> <i_epik_Tot_abs_Q>
0

> <r_epik_Metal_State_Penalty>
5.44269e-05

> <b_epik_Metal_Only>
0

> <s_lp_Force_Field>
OPLS_2005

> <r_lp_Energy>
16.3694

> <b_lp_Chiralities_Consistent>
1

> <s_lp_Variant>
AV-unprocessed.smi:2971-2

> <Gold.Version>
5.8.1

> <Gold.Id.Protein>
6NUR|6NUR_protein|mol2

> <Gold.PLP.Fitness>
51.6696

> <Gold.PLP.PLP>
-49.4825

> <Gold.PLP.part.hbond>
-2.3605

> <Gold.PLP.part.metal>
0.0000

> <Gold.PLP.part.buried>
-1.7424

> <Gold.PLP.part.nonpolar>
-44.5727

> <Gold.PLP.part.repulsive>
0.1636

> <Gold.PLP.ligand.clash>
0.0000

> <Gold.PLP.ligand.torsion>
0.6550

> <Gold.PLP.Chemscore.Hbond>
1.1453

> <Gold.PLP.Chemscore.CHOScore>
0.0000

> <Gold.PLP.Chemscore.Metal>
0.0000

> <Gold.Chemscore.Hbonds>
donor molecule, donor type, donor heavy atom, donor atom, acceptor molecule, acceptor atom, score
      P1  H  7989  7998       L1     1  0.21
      P1  H  8011  8017       L1     1  0.41

> <Gold.PLP.Chemscore.Internal.Correction>
0.0612

> <Gold.Rescore>
     Score         DG    S(hbond)    S(metal)    S(lipo)     H(rot)  DE(clash)    DE(int)     intcor
     14.66     -15.23       0.55        0.00     119.67       2.37       0.07       0.50       ----

> <Gold.Chemscore.Fitness>
14.6596

> <Gold.Chemscore.DG>
-15.2283

> <Gold.Chemscore.ZeroCoef>
-5.4800

> <Gold.Chemscore.Hbond>
0.5458

> <Gold.Chemscore.Metal>
0.0000

> <Gold.Chemscore.Lipo>
119.6728

> <Gold.Chemscore.Internal_Hbond>
0.0000

> <Gold.Chemscore.DEClash>
0.0692

> <Gold.Chemscore.DEInternal>
0.4995

> <Gold.Chemscore.Rot>
2.3735

> <Gold.Chemscore.Internal.Correction>
   9.000000E+99

> <Gold.Chemscore.Hbonds>
donor molecule, donor type, donor heavy atom, donor atom, acceptor molecule, acceptor atom, score
      P1  H  7989  7998       L1     1  0.01
      P1  H  8011  8017       L1     1  0.34

> <Gold.Chemscore.Hbond.Weighted>
-1.8228

> <Gold.Chemscore.Metal.Weighted>
-0.0000

> <Gold.Chemscore.Lipo.Weighted>
-14.0017

> <Gold.Chemscore.Internal_Hbond.Weighted>
0.0000

> <Gold.Chemscore.DEClash.Weighted>
0.0692

> <Gold.Chemscore.DEInternal.Weighted>
0.4995

> <Gold.Chemscore.Rot.Weighted>
6.0762

> <Gold.Chemscore.Internal.Correction.Weighted>
   9.000000E+99

> <Gold.Protein.RotatedTorsions>
[ 6907 6896 6895 6894 ] final  -93.26 input  -60.11 | X-H torsion
[ 7974 7965 7964 7962 ] final   84.85 input  175.53 | X-H torsion
[ 8008 7997 7996 7995 ] final   81.03 input   59.86 | X-H torsion
[ 10167 10162 10161 10158 ] final  -70.02 input  -65.29 | X-H torsion
[ 10718 10713 10712 10709 ] final -169.39 input   66.30 | X-H torsion
[ 10763 10752 10751 10750 ] final -111.64 input  -60.55 | X-H torsion
[ 11005 11000 10999 10996 ] final -143.69 input  -57.11 | X-H torsion

> <Gold.Protein.ActiveResidues>
 VAL166  LYS551  ARG553  GLY616  TRP617  ASP618  TYR619  PRO620  LYS621  CYS622 
 ASP623  PHE694  ASN695  SER759  ASP760  ASP761  ALA762  ILE779  LEU786  VAL792 
 PHE793  MET794  SER795  GLU796  ALA797  LYS798  CYS799  TRP800  GLU811  SER814 

> <Gold.Protein.RotatedAtoms>
  150.6919  134.1994  159.4316 H   0  0  0  0  0  0  0  0  0  0  0  0  # atno 6907 bound_to 6896
  151.9962  134.9951  160.0572 H   0  0  0  0  0  0  0  0  0  0  0  0  # atno 6908 bound_to 6896
  152.1622  133.4554  159.4903 H   0  0  0  0  0  0  0  0  0  0  0  0  # atno 6909 bound_to 6896
  145.5933  139.2341  143.2287 H   0  0  0  0  0  0  0  0  0  0  0  0  # atno 7974 bound_to 7965
  155.8916  140.3438  155.5960 H   0  0  0  0  0  0  0  0  0  0  0  0  # atno 8008 bound_to 7997
  155.7604  140.0832  157.2177 H   0  0  0  0  0  0  0  0  0  0  0  0  # atno 8009 bound_to 7997
  154.4034  140.1537  156.2813 H   0  0  0  0  0  0  0  0  0  0  0  0  # atno 8010 bound_to 7997
  140.5385  143.2316  151.7133 H   0  0  0  0  0  0  0  0  0  0  0  0  # atno 10167 bound_to 10162
  156.7108  130.9232  151.3089 H   0  0  0  0  0  0  0  0  0  0  0  0  # atno 10718 bound_to 10713
  154.8310  135.4520  154.1071 H   0  0  0  0  0  0  0  0  0  0  0  0  # atno 10763 bound_to 10752
  153.2343  135.6909  153.7860 H   0  0  0  0  0  0  0  0  0  0  0  0  # atno 10764 bound_to 10752
  153.7231  135.3338  155.3247 H   0  0  0  0  0  0  0  0  0  0  0  0  # atno 10765 bound_to 10752
  140.8100  134.2755  157.4944 H   0  0  0  0  0  0  0  0  0  0  0  0  # atno 11005 bound_to 11000
  146.1631  140.6759  142.9268 LP  0  0  0  0  0  0  0  0  0  0  0  0  # atno 17320 bound_to 7965
  144.7342  140.4759  143.6916 LP  0  0  0  0  0  0  0  0  0  0  0  0  # atno 17321 bound_to 7965
  139.4980  144.4006  152.0185 LP  0  0  0  0  0  0  0  0  0  0  0  0  # atno 17342 bound_to 10162
  140.3113  144.3535  150.6033 LP  0  0  0  0  0  0  0  0  0  0  0  0  # atno 17343 bound_to 10162
  157.6937  130.9259  150.0584 LP  0  0  0  0  0  0  0  0  0  0  0  0  # atno 17370 bound_to 10713
  156.1662  130.3645  149.9228 LP  0  0  0  0  0  0  0  0  0  0  0  0  # atno 17371 bound_to 10713
  139.8715  134.9478  156.3977 LP  0  0  0  0  0  0  0  0  0  0  0  0  # atno 17394 bound_to 11000
  140.9207  133.7647  155.9903 LP  0  0  0  0  0  0  0  0  0  0  0  0  # atno 17395 bound_to 11000

$$$$
