AV-unprocessed.smi:2587|AV-procd|sdf|10146|dock5
  -GOLD-   2272014153D 1   1.00000     0.00000
 Structure written by MMmdl.
 39 40  0  0  0  0  0  0  0  0  1 V2000
  146.1956  142.9526  153.8012 C   0  0  0  0  0  0  0  0  0  0  0  0
  146.9440  141.8593  154.0094 C   0  0  0  0  0  0  0  0  0  0  0  0
  148.2112  141.8365  154.8402 C   0  0  0  0  0  0  0  0  0  0  0  0
  148.9131  140.5555  154.7662 N   0  0  0  0  0  0  0  0  0  0  0  0
  148.4111  139.5445  153.8394 C   0  0  0  0  0  0  0  0  0  0  0  0
  147.3278  138.6586  154.4728 C   0  0  0  0  0  0  0  0  0  0  0  0
  147.1375  137.5086  153.6788 O   0  0  0  0  0  0  0  0  0  0  0  0
  150.1550  140.3831  155.4254 C   0  0  0  0  0  0  0  0  0  0  0  0
  150.4549  141.0196  156.6569 C   0  0  0  0  0  0  0  0  0  0  0  0
  151.7264  140.7817  157.2317 C   0  0  0  0  0  0  0  0  0  0  0  0
  152.0905  141.3832  158.4559 N   0  0  0  0  0  0  0  0  0  0  0  0
  153.2180  140.8121  159.1903 C   0  0  0  0  0  0  0  0  0  0  0  0
  153.2819  141.3950  160.6121 C   0  0  0  0  0  0  0  0  0  0  0  0
  153.3305  142.8162  160.5466 O   0  0  0  0  0  0  0  0  0  0  0  0
  152.1688  143.3574  159.9266 C   0  0  0  0  0  0  0  0  0  0  0  0
  152.0623  142.8438  158.4803 C   0  0  0  0  0  0  0  0  0  0  0  0
  152.6131  139.9626  156.6179 N   0  0  0  0  0  0  0  0  0  0  0  0
  152.2416  139.4102  155.4639 C   0  0  0  0  0  0  0  0  0  0  0  0
  151.0745  139.5766  154.8426 N   0  0  0  0  0  0  0  0  0  0  0  0
  146.4668  143.9080  154.2263 H   0  0  0  0  0  0  0  0  0  0  0  0
  145.2995  142.9046  153.2004 H   0  0  0  0  0  0  0  0  0  0  0  0
  146.6385  140.9206  153.5702 H   0  0  0  0  0  0  0  0  0  0  0  0
  148.8741  142.6330  154.4995 H   0  0  0  0  0  0  0  0  0  0  0  0
  147.9651  142.0777  155.8747 H   0  0  0  0  0  0  0  0  0  0  0  0
  148.0536  140.0079  152.9201 H   0  0  0  0  0  0  0  0  0  0  0  0
  149.2505  138.9181  153.5343 H   0  0  0  0  0  0  0  0  0  0  0  0
  147.6165  138.3519  155.4785 H   0  0  0  0  0  0  0  0  0  0  0  0
  146.3805  139.1923  154.5541 H   0  0  0  0  0  0  0  0  0  0  0  0
  147.9064  137.3812  153.1444 H   0  0  0  0  0  0  0  0  0  0  0  0
  149.7398  141.6479  157.1629 H   0  0  0  0  0  0  0  0  0  0  0  0
  153.1204  139.7273  159.2501 H   0  0  0  0  0  0  0  0  0  0  0  0
  154.1443  141.0280  158.6559 H   0  0  0  0  0  0  0  0  0  0  0  0
  152.4205  141.0765  161.2017 H   0  0  0  0  0  0  0  0  0  0  0  0
  154.1714  141.0319  161.1270 H   0  0  0  0  0  0  0  0  0  0  0  0
  151.2795  143.0903  160.4999 H   0  0  0  0  0  0  0  0  0  0  0  0
  152.2367  144.4452  159.9343 H   0  0  0  0  0  0  0  0  0  0  0  0
  152.8978  143.2205  157.8889 H   0  0  0  0  0  0  0  0  0  0  0  0
  151.1528  143.2402  158.0314 H   0  0  0  0  0  0  0  0  0  0  0  0
  152.9586  138.7613  154.9831 H   0  0  0  0  0  0  0  0  0  0  0  0
  1  2  2  0  0  0  0
  1 20  1  0  0  0  0
  1 21  1  0  0  0  0
  2  3  1  0  0  0  0
  2 22  1  0  0  0  0
  3  4  1  0  0  0  0
  3 23  1  0  0  0  0
  3 24  1  0  0  0  0
  4  5  1  0  0  0  0
  4  8  1  0  0  0  0
  5  6  1  0  0  0  0
  5 25  1  0  0  0  0
  5 26  1  0  0  0  0
  6  7  1  0  0  0  0
  6 27  1  0  0  0  0
  6 28  1  0  0  0  0
  7 29  1  0  0  0  0
  8 19  1  0  0  0  0
  8  9  2  0  0  0  0
  9 10  1  0  0  0  0
  9 30  1  0  0  0  0
 10 11  1  0  0  0  0
 10 17  2  0  0  0  0
 11 16  1  0  0  0  0
 11 12  1  0  0  0  0
 12 13  1  0  0  0  0
 12 31  1  0  0  0  0
 12 32  1  0  0  0  0
 13 14  1  0  0  0  0
 13 33  1  0  0  0  0
 13 34  1  0  0  0  0
 14 15  1  0  0  0  0
 15 16  1  0  0  0  0
 15 35  1  0  0  0  0
 15 36  1  0  0  0  0
 16 37  1  0  0  0  0
 16 38  1  0  0  0  0
 17 18  1  0  0  0  0
 18 19  2  0  0  0  0
 18 39  1  0  0  0  0
M  END
> <s_m_source_file>
AV-unprocessed.smi

> <i_m_source_file_index>
2587

> <i_lp_mmshare_version>
43012

> <i_f3d_flags>
0

> <s_epik_input>
W0NIMl09W0NIXVtDSDJdTihbQ0gyXVtDSDJdW09IXSljMVtjSF1jKG5bY0hdbjEpTjJbQ0gyXVtDSDJdT1tDSDJdW0NIMl0y

> <s_epik_cmdline>
J2VwaWtfcHl0aG9uJywgJy1waCcsICc3LjAnLCAnLXRuJywgJzgnLCAnLW1hJywgJzIwMCcsICctbWV0YWxfYmluZGluZycsICctaW1hZScsICc8aW5maWxlLm1hZT4nLCAnLW9tYWUnLCAnPG91dGZpbGUubWFlPic=

> <r_lp_tautomer_probability>
1

> <r_epik_Ionization_Penalty>
0.00218234

> <r_epik_Ionization_Penalty_Charging>
0

> <r_epik_Ionization_Penalty_Neutral>
0.00218234

> <r_epik_State_Penalty>
0.00992355

> <r_epik_Charging_Adjusted_Penalty>
0.00992355

> <i_epik_Tot_Q>
0

> <i_epik_Tot_abs_Q>
0

> <r_epik_Metal_State_Penalty>
0.00985368

> <b_epik_Metal_Only>
0

> <s_lp_Force_Field>
OPLS_2005

> <r_lp_Energy>
11.4622

> <b_lp_Chiralities_Consistent>
1

> <s_lp_Variant>
AV-unprocessed.smi:2587-1

> <Gold.Version>
5.8.1

> <Gold.Id.Protein>
6NUR|6NUR_protein|mol2

> <Gold.PLP.Fitness>
44.3036

> <Gold.PLP.PLP>
-37.5421

> <Gold.PLP.part.hbond>
-3.0000

> <Gold.PLP.part.metal>
0.0000

> <Gold.PLP.part.buried>
-2.4605

> <Gold.PLP.part.nonpolar>
-32.7222

> <Gold.PLP.part.repulsive>
0.0542

> <Gold.PLP.ligand.clash>
0.1513

> <Gold.PLP.ligand.torsion>
1.0181

> <Gold.PLP.Chemscore.Hbond>
2.7995

> <Gold.PLP.Chemscore.CHOScore>
0.0000

> <Gold.PLP.Chemscore.Metal>
0.0000

> <Gold.Chemscore.Hbonds>
donor molecule, donor type, donor heavy atom, donor atom, acceptor molecule, acceptor atom, score
      L1  H     7    29       P1  7948  0.99
      P1  H  7989  7998       L1    19  0.76
      P1  H  7997  8008       L1    17  1.00

> <Gold.PLP.Chemscore.Internal.Correction>
0.5505

> <Gold.Rescore>
     Score         DG    S(hbond)    S(metal)    S(lipo)     H(rot)  DE(clash)    DE(int)     intcor
     12.99     -14.02       1.86        0.00      74.77       2.51       0.01       1.01       ----

> <Gold.Chemscore.Fitness>
12.9898

> <Gold.Chemscore.DG>
-14.0167

> <Gold.Chemscore.ZeroCoef>
-5.4800

> <Gold.Chemscore.Hbond>
1.8623

> <Gold.Chemscore.Metal>
0.0000

> <Gold.Chemscore.Lipo>
74.7693

> <Gold.Chemscore.Internal_Hbond>
0.0000

> <Gold.Chemscore.DEClash>
0.0140

> <Gold.Chemscore.DEInternal>
1.0128

> <Gold.Chemscore.Rot>
2.5123

> <Gold.Chemscore.Internal.Correction>
   9.000000E+99

> <Gold.Chemscore.Hbonds>
donor molecule, donor type, donor heavy atom, donor atom, acceptor molecule, acceptor atom, score
      L1  H     7    29       P1  7948  0.90
      P1  H  7989  7998       L1    19  0.03
      P1  H  7997  8008       L1    17  0.60

> <Gold.Chemscore.Hbond.Weighted>
-6.2202

> <Gold.Chemscore.Metal.Weighted>
-0.0000

> <Gold.Chemscore.Lipo.Weighted>
-8.7480

> <Gold.Chemscore.Internal_Hbond.Weighted>
0.0000

> <Gold.Chemscore.DEClash.Weighted>
0.0140

> <Gold.Chemscore.DEInternal.Weighted>
1.0128

> <Gold.Chemscore.Rot.Weighted>
6.4315

> <Gold.Chemscore.Internal.Correction.Weighted>
   9.000000E+99

> <Gold.Protein.RotatedTorsions>
[ 6907 6896 6895 6894 ] final   39.72 input  -60.11 | X-H torsion
[ 7974 7965 7964 7962 ] final   16.59 input  175.53 | X-H torsion
[ 8008 7997 7996 7995 ] final  -56.63 input   59.86 | X-H torsion
[ 10167 10162 10161 10158 ] final -127.77 input  -65.29 | X-H torsion
[ 10718 10713 10712 10709 ] final  102.10 input   66.30 | X-H torsion
[ 10763 10752 10751 10750 ] final   93.13 input  -60.55 | X-H torsion
[ 11005 11000 10999 10996 ] final   98.94 input  -57.11 | X-H torsion

> <Gold.Protein.ActiveResidues>
 VAL166  LYS551  ARG553  GLY616  TRP617  ASP618  TYR619  PRO620  LYS621  CYS622 
 ASP623  PHE694  ASN695  SER759  ASP760  ASP761  ALA762  ILE779  LEU786  VAL792 
 PHE793  MET794  SER795  GLU796  ALA797  LYS798  CYS799  TRP800  GLU811  SER814 

> <Gold.Protein.RotatedAtoms>
  152.1732  134.8816  160.0532 H   0  0  0  0  0  0  0  0  0  0  0  0  # atno 6907 bound_to 6896
  151.9768  133.3739  159.4100 H   0  0  0  0  0  0  0  0  0  0  0  0  # atno 6908 bound_to 6896
  150.6905  134.4004  159.5160 H   0  0  0  0  0  0  0  0  0  0  0  0  # atno 6909 bound_to 6896
  146.2245  139.8725  142.8585 H   0  0  0  0  0  0  0  0  0  0  0  0  # atno 7974 bound_to 7965
  154.4237  140.1125  156.5668 H   0  0  0  0  0  0  0  0  0  0  0  0  # atno 8008 bound_to 7997
  155.6254  140.3495  155.4646 H   0  0  0  0  0  0  0  0  0  0  0  0  # atno 8009 bound_to 7997
  155.9991  140.1195  157.0554 H   0  0  0  0  0  0  0  0  0  0  0  0  # atno 8010 bound_to 7997
  139.9573  143.5988  152.2456 H   0  0  0  0  0  0  0  0  0  0  0  0  # atno 10167 bound_to 10162
  157.6811  131.0744  150.5352 H   0  0  0  0  0  0  0  0  0  0  0  0  # atno 10718 bound_to 10713
  153.2269  135.4336  155.0552 H   0  0  0  0  0  0  0  0  0  0  0  0  # atno 10763 bound_to 10752
  154.8278  135.3370  154.6844 H   0  0  0  0  0  0  0  0  0  0  0  0  # atno 10764 bound_to 10752
  153.7273  135.7013  153.5054 H   0  0  0  0  0  0  0  0  0  0  0  0  # atno 10765 bound_to 10752
  139.8771  134.9072  156.4531 H   0  0  0  0  0  0  0  0  0  0  0  0  # atno 11005 bound_to 11000
  145.2593  141.0071  143.3835 LP  0  0  0  0  0  0  0  0  0  0  0  0  # atno 17320 bound_to 7965
  144.9311  139.4297  143.6494 LP  0  0  0  0  0  0  0  0  0  0  0  0  # atno 17321 bound_to 7965
  139.6581  144.7662  151.2016 LP  0  0  0  0  0  0  0  0  0  0  0  0  # atno 17342 bound_to 10162
  140.7564  143.6053  150.8658 LP  0  0  0  0  0  0  0  0  0  0  0  0  # atno 17343 bound_to 10162
  156.5661  130.4268  149.6040 LP  0  0  0  0  0  0  0  0  0  0  0  0  # atno 17370 bound_to 10713
  156.2780  130.7054  151.1871 LP  0  0  0  0  0  0  0  0  0  0  0  0  # atno 17371 bound_to 10713
  140.8918  133.7843  155.9580 LP  0  0  0  0  0  0  0  0  0  0  0  0  # atno 17394 bound_to 11000
  140.8745  134.2686  157.5174 LP  0  0  0  0  0  0  0  0  0  0  0  0  # atno 17395 bound_to 11000

$$$$
