#       Name:                AV-unprocessed.smi:2485
#       Creating user name   scv26
#       Creation time:       Fri Mar 27 13:42:46 2020


#       File generated by GOLD software.
#

@<TRIPOS>MOLECULE
AV-unprocessed.smi:2485
    45    46     1
SMALL
NO_CHARGES


@<TRIPOS>ATOM
      1 ****        -3.3496  -2.3154   1.9256 C.3            1 S1                 0.0000
      2 ****        -2.9680  -0.9978   1.2342 C.3            1 S1                 0.0000
      3 ****        -4.0601   0.0664   1.4368 C.3            1 S1                 0.0000
      4 ****        -1.5859  -0.4943   1.6676 C.3            1 S1                 0.0000
      5 ****        -1.0348   0.1326   0.4026 C.3            1 S1                 0.0000
      6 ****         0.4259   0.1765   0.4182 N.am           1 S1                 0.0000
      7 ****         1.1794   1.0578  -0.2537 C.2            1 S1                 0.0000
      8 ****         0.7138   1.9601  -0.9498 O.2            1 S1                 0.0000
      9 ****         2.4882   0.8180  -0.0650 N.am           1 S1                 0.0000
     10 ****         3.5941   1.5108  -0.6233 C.ar           1 S1                 0.0000
     11 ****         4.8637   1.0349  -0.2328 C.ar           1 S1                 0.0000
     12 ****         6.0033   1.6742  -0.7499 C.ar           1 S1                 0.0000
     13 ****         5.7940   2.7511  -1.6282 C.ar           1 S1                 0.0000
     14 ****         4.5591   3.1731  -1.9758 N.ar           1 S1                 0.0000
     15 ****         3.4789   2.5603  -1.4788 N.ar           1 S1                 0.0000
     16 ****        -1.6221  -0.7742  -0.7014 C.3            1 S1                 0.0000
     17 ****        -1.9239   0.0005  -1.9940 C.3            1 S1                 0.0000
     18 ****        -0.7824  -2.0333  -1.0039 C.3            1 S1                 0.0000
     19 ****        -2.8629  -1.2358  -0.1687 O.3            1 S1                 0.0000
     20 ****        -3.4256  -2.1860   3.0056 H              1 S1                 0.0000
     21 ****        -2.6084  -3.0920   1.7341 H              1 S1                 0.0000
     22 ****        -4.3103  -2.6848   1.5656 H              1 S1                 0.0000
     23 ****        -4.1818   0.3115   2.4922 H              1 S1                 0.0000
     24 ****        -5.0234  -0.2849   1.0657 H              1 S1                 0.0000
     25 ****        -3.8238   0.9895   0.9072 H              1 S1                 0.0000
     26 ****        -1.6256   0.2038   2.5046 H              1 S1                 0.0000
     27 ****        -0.9566  -1.3322   1.9722 H              1 S1                 0.0000
     28 ****        -1.4447   1.1410   0.3194 H              1 S1                 0.0000
     29 ****         0.8942  -0.5306   0.9656 H              1 S1                 0.0000
     30 ****         2.7202   0.0449   0.5407 H              1 S1                 0.0000
     31 ****         4.9649   0.2014   0.4467 H              1 S1                 0.0000
     32 ****         6.9989   1.3517  -0.4834 H              1 S1                 0.0000
     33 ****         6.6291   3.2830  -2.0592 H              1 S1                 0.0000
     34 ****        -1.0102   0.3794  -2.4519 H              1 S1                 0.0000
     35 ****        -2.5775   0.8518  -1.8015 H              1 S1                 0.0000
     36 ****        -2.4214  -0.6352  -2.7268 H              1 S1                 0.0000
     37 ****         0.1736  -1.7788  -1.4623 H              1 S1                 0.0000
     38 ****        -1.3071  -2.6933  -1.6953 H              1 S1                 0.0000
     39 ****        -0.5771  -2.6068  -0.0999 H              1 S1                 0.0000
     40 ****        -0.2769   2.0643  -1.0363 LP             1 S1                 0.0000
     41 ****         1.3264   2.5889  -1.4287 LP             1 S1                 0.0000
     42 ****         4.4523   3.9434  -2.6045 LP             1 S1                 0.0000
     43 ****         2.5690   2.8808  -1.7419 LP             1 S1                 0.0000
     44 ****        -3.6098  -0.7599  -0.6331 LP             1 S1                 0.0000
     45 ****        -2.9392  -2.2188  -0.3353 LP             1 S1                 0.0000
@<TRIPOS>BOND
    1    1    2 1     
    2    1   20 1     
    3    1   21 1     
    4    1   22 1     
    5    2   19 1     
    6    2    3 1     
    7    2    4 1     
    8    3   23 1     
    9    3   24 1     
   10    3   25 1     
   11    4    5 1     
   12    4   26 1     
   13    4   27 1     
   14    5    6 1     
   15    5   16 1     
   16    5   28 1     
   17    6    7 am    
   18    6   29 1     
   19    7    8 2     
   20    7    9 am    
   21    9   10 1     
   22    9   30 1     
   23   10   15 ar    
   24   10   11 ar    
   25   11   12 ar    
   26   11   31 1     
   27   12   13 ar    
   28   12   32 1     
   29   13   14 ar    
   30   13   33 1     
   31   14   15 ar    
   32   16   17 1     
   33   16   18 1     
   34   16   19 1     
   35   17   34 1     
   36   17   35 1     
   37   17   36 1     
   38   18   37 1     
   39   18   38 1     
   40   18   39 1     
   41    8   40 1     
   42    8   41 1     
   43   14   42 1     
   44   15   43 1     
   45   19   44 1     
   46   19   45 1     
@<TRIPOS>SUBSTRUCTURE
      1 S1             1
@<TRIPOS>SET
LONE_PAIRS      STATIC     ATOMS    <user>   **** ""
6 40 41 42 43 44 45
DONOR_HYDROGENS      STATIC     ATOMS    <user>   **** ""
2 29 30
ATOM$BLUE        STATIC     ATOMS    COLORGROUP SYSTEM
6 40 41 42 43 44 45
ATOM$RED        STATIC     ATOMS    COLORGROUP SYSTEM
2 29 30
