AV-unprocessed.smi:2795|AV-procd|sdf|10779|dock1
  -GOLD-   2272015213D 1   1.00000     0.00000
 Structure written by MMmdl.
 37 38  0  0  0  0  0  0  0  0  2 V2000
  146.7727  141.8901  154.3321 C   0  0  0  0  0  0  0  0  0  0  0  0
  147.5561  140.6848  154.0458 N   0  0  0  0  0  0  0  0  0  0  0  0
  147.0924  139.7239  153.2371 C   0  0  0  0  0  0  0  0  0  0  0  0
  148.0286  138.7742  153.1853 N   0  3  0  0  0  0  0  0  0  0  0  0
  149.0958  139.1252  153.9649 C   0  0  0  0  0  0  0  0  0  0  0  0
  148.8070  140.3486  154.5181 C   0  0  0  0  0  0  0  0  0  0  0  0
  149.6255  141.2160  155.4271 C   0  0  0  0  0  0  0  0  0  0  0  0
  150.0760  140.4866  156.7095 C   0  0  0  0  0  0  0  0  0  0  0  0
  150.7269  141.3820  157.6631 N   0  0  0  0  0  0  0  0  0  0  0  0
  151.9900  141.2705  158.1073 C   0  0  0  0  0  0  0  0  0  0  0  0
  152.7283  140.3351  157.7958 O   0  0  0  0  0  0  0  0  0  0  0  0
  152.4966  142.3932  159.0247 C   0  0  1  0  0  0  0  0  0  0  0  0
  151.5558  143.6204  159.0306 C   0  0  0  0  0  0  0  0  0  0  0  0
  152.0457  144.6764  160.0274 C   0  0  0  0  0  0  0  0  0  0  0  0
  152.2538  144.0352  161.4026 C   0  0  0  0  0  0  0  0  0  0  0  0
  153.1631  142.8033  161.2814 C   0  0  0  0  0  0  0  0  0  0  0  0
  152.6035  141.8797  160.3538 O   0  0  0  0  0  0  0  0  0  0  0  0
  146.0038  142.0258  153.5700 H   0  0  0  0  0  0  0  0  0  0  0  0
  147.4260  142.7620  154.3332 H   0  0  0  0  0  0  0  0  0  0  0  0
  146.3033  141.7845  155.3103 H   0  0  0  0  0  0  0  0  0  0  0  0
  146.1471  139.7158  152.7245 H   0  0  0  0  0  0  0  0  0  0  0  0
  149.9699  138.4977  154.0598 H   0  0  0  0  0  0  0  0  0  0  0  0
  150.4929  141.5990  154.8894 H   0  0  0  0  0  0  0  0  0  0  0  0
  149.0308  142.0890  155.6970 H   0  0  0  0  0  0  0  0  0  0  0  0
  149.2083  140.0445  157.1994 H   0  0  0  0  0  0  0  0  0  0  0  0
  150.7344  139.6544  156.4552 H   0  0  0  0  0  0  0  0  0  0  0  0
  150.1901  142.1769  157.9797 H   0  0  0  0  0  0  0  0  0  0  0  0
  153.4874  142.6854  158.6722 H   0  0  0  0  0  0  0  0  0  0  0  0
  151.4949  144.0626  158.0353 H   0  0  0  0  0  0  0  0  0  0  0  0
  150.5438  143.3121  159.2989 H   0  0  0  0  0  0  0  0  0  0  0  0
  152.9854  145.1045  159.6761 H   0  0  0  0  0  0  0  0  0  0  0  0
  151.3317  145.4980  160.0937 H   0  0  0  0  0  0  0  0  0  0  0  0
  152.6866  144.7585  162.0944 H   0  0  0  0  0  0  0  0  0  0  0  0
  151.2909  143.7380  161.8200 H   0  0  0  0  0  0  0  0  0  0  0  0
  154.1675  143.0890  160.9653 H   0  0  0  0  0  0  0  0  0  0  0  0
  153.2613  142.3127  162.2499 H   0  0  0  0  0  0  0  0  0  0  0  0
  147.9577  137.9217  152.6441 H   0  0  0  0  0  0  0  0  0  0  0  0
  1  2  1  0  0  0  0
  1 18  1  0  0  0  0
  1 19  1  0  0  0  0
  1 20  1  0  0  0  0
  2  6  1  0  0  0  0
  2  3  1  0  0  0  0
  3  4  2  0  0  0  0
  3 21  1  0  0  0  0
  4  5  1  0  0  0  0
  4 37  1  0  0  0  0
  5  6  2  0  0  0  0
  5 22  1  0  0  0  0
  6  7  1  0  0  0  0
  7  8  1  0  0  0  0
  7 23  1  0  0  0  0
  7 24  1  0  0  0  0
  8  9  1  0  0  0  0
  8 25  1  0  0  0  0
  8 26  1  0  0  0  0
  9 10  1  0  0  0  0
  9 27  1  0  0  0  0
 10 11  2  0  0  0  0
 10 12  1  0  0  0  0
 12 17  1  0  0  0  0
 12 13  1  0  0  0  0
 12 28  1  0  0  0  0
 13 14  1  0  0  0  0
 13 29  1  0  0  0  0
 13 30  1  0  0  0  0
 14 15  1  0  0  0  0
 14 31  1  0  0  0  0
 14 32  1  0  0  0  0
 15 16  1  0  0  0  0
 15 33  1  0  0  0  0
 15 34  1  0  0  0  0
 16 17  1  0  0  0  0
 16 35  1  0  0  0  0
 16 36  1  0  0  0  0
M  CHG  1   4   1
M  END
> <s_m_source_file>
AV-unprocessed.smi

> <i_m_source_file_index>
2795

> <i_lp_mmshare_version>
43012

> <i_f3d_flags>
0

> <s_epik_input>
W0NIM11uMVtjSF1uW2NIXWMxW0NIMl1bQ0gyXVtOSF1DKD1PKVtDQEBIXTJbQ0gyXVtDSDJdW0NIMl1bQ0gyXU8y

> <s_epik_cmdline>
J2VwaWtfcHl0aG9uJywgJy1waCcsICc3LjAnLCAnLXRuJywgJzgnLCAnLW1hJywgJzIwMCcsICctbWV0YWxfYmluZGluZycsICctaW1hZScsICc8aW5maWxlLm1hZT4nLCAnLW9tYWUnLCAnPG91dGZpbGUubWFlPic=

> <r_lp_tautomer_probability>
1

> <r_epik_Ionization_Penalty>
0.154825

> <r_epik_Ionization_Penalty_Charging>
0

> <r_epik_Ionization_Penalty_Neutral>
0.154825

> <r_epik_State_Penalty>
0.144119

> <r_epik_Charging_Adjusted_Penalty>
0.144119

> <i_epik_Tot_Q>
1

> <i_epik_Tot_abs_Q>
1

> <r_epik_Metal_State_Penalty>
0.465431

> <b_epik_Metal_Only>
0

> <s_lp_Force_Field>
OPLS_2005

> <r_lp_Energy>
10.0187

> <b_lp_Chiralities_Consistent>
1

> <s_lp_Variant>
AV-unprocessed.smi:2795-2

> <Gold.Version>
5.8.1

> <Gold.Id.Protein>
6NUR|6NUR_protein|mol2

> <Gold.PLP.Fitness>
48.9485

> <Gold.PLP.PLP>
-39.3638

> <Gold.PLP.part.hbond>
-3.0000

> <Gold.PLP.part.metal>
0.0000

> <Gold.PLP.part.buried>
-2.3757

> <Gold.PLP.part.nonpolar>
-34.0292

> <Gold.PLP.part.repulsive>
0.1004

> <Gold.PLP.ligand.clash>
0.0000

> <Gold.PLP.ligand.torsion>
0.3238

> <Gold.PLP.Chemscore.Hbond>
2.8707

> <Gold.PLP.Chemscore.CHOScore>
0.5319

> <Gold.PLP.Chemscore.Metal>
0.0000

> <Gold.Chemscore.Hbonds>
donor molecule, donor type, donor heavy atom, donor atom, acceptor molecule, acceptor atom, score
      L1  H     4    37       P1  7948  1.57
      P1  H  7997  8008       L1    11  0.93
      L1  C     3    21       P1 10175  0.86

> <Gold.PLP.Chemscore.Internal.Correction>
0.0247

> <Gold.Rescore>
     Score         DG    S(hbond)    S(metal)    S(lipo)     H(rot)  DE(clash)    DE(int)     intcor
     16.08     -17.02       1.74        0.00      88.95       1.82       0.67       0.28       ----

> <Gold.Chemscore.Fitness>
16.0770

> <Gold.Chemscore.DG>
-17.0202

> <Gold.Chemscore.ZeroCoef>
-5.4800

> <Gold.Chemscore.Hbond>
1.7362

> <Gold.Chemscore.Metal>
0.0000

> <Gold.Chemscore.Lipo>
88.9547

> <Gold.Chemscore.Internal_Hbond>
0.0000

> <Gold.Chemscore.DEClash>
0.6651

> <Gold.Chemscore.DEInternal>
0.2781

> <Gold.Chemscore.Rot>
1.8227

> <Gold.Chemscore.Internal.Correction>
   9.000000E+99

> <Gold.Chemscore.Hbonds>
donor molecule, donor type, donor heavy atom, donor atom, acceptor molecule, acceptor atom, score
      L1  H     4    37       P1  7948  0.75
      P1  H  7997  8008       L1    11  0.87

> <Gold.Chemscore.Hbond.Weighted>
-5.7988

> <Gold.Chemscore.Metal.Weighted>
-0.0000

> <Gold.Chemscore.Lipo.Weighted>
-10.4077

> <Gold.Chemscore.Internal_Hbond.Weighted>
0.0000

> <Gold.Chemscore.DEClash.Weighted>
0.6651

> <Gold.Chemscore.DEInternal.Weighted>
0.2781

> <Gold.Chemscore.Rot.Weighted>
4.6662

> <Gold.Chemscore.Internal.Correction.Weighted>
   9.000000E+99

> <Gold.Protein.RotatedTorsions>
[ 6907 6896 6895 6894 ] final  117.72 input  -60.11 | X-H torsion
[ 7974 7965 7964 7962 ] final   41.55 input  175.53 | X-H torsion
[ 8008 7997 7996 7995 ] final  -71.00 input   59.86 | X-H torsion
[ 10167 10162 10161 10158 ] final   30.60 input  -65.29 | X-H torsion
[ 10718 10713 10712 10709 ] final  -32.44 input   66.30 | X-H torsion
[ 10763 10752 10751 10750 ] final -153.77 input  -60.55 | X-H torsion
[ 11005 11000 10999 10996 ] final -177.05 input  -57.11 | X-H torsion

> <Gold.Protein.ActiveResidues>
 VAL166  LYS551  ARG553  GLY616  TRP617  ASP618  TYR619  PRO620  LYS621  CYS622 
 ASP623  PHE694  ASN695  SER759  ASP760  ASP761  ALA762  ILE779  LEU786  VAL792 
 PHE793  MET794  SER795  GLU796  ALA797  LYS798  CYS799  TRP800  GLU811  SER814 

> <Gold.Protein.RotatedAtoms>
  152.4592  133.7787  159.6838 H   0  0  0  0  0  0  0  0  0  0  0  0  # atno 6907 bound_to 6896
  150.8530  133.7748  159.3025 H   0  0  0  0  0  0  0  0  0  0  0  0  # atno 6908 bound_to 6896
  151.5338  135.1071  159.9961 H   0  0  0  0  0  0  0  0  0  0  0  0  # atno 6909 bound_to 6896
  146.0814  139.5403  142.9534 H   0  0  0  0  0  0  0  0  0  0  0  0  # atno 7974 bound_to 7965
  154.5054  140.0824  156.7884 H   0  0  0  0  0  0  0  0  0  0  0  0  # atno 8008 bound_to 7997
  155.3905  140.3432  155.4233 H   0  0  0  0  0  0  0  0  0  0  0  0  # atno 8009 bound_to 7997
  156.1509  140.1558  156.8758 H   0  0  0  0  0  0  0  0  0  0  0  0  # atno 8010 bound_to 7997
  140.4663  144.0830  150.6225 H   0  0  0  0  0  0  0  0  0  0  0  0  # atno 10167 bound_to 10162
  156.3748  130.4346  149.7516 H   0  0  0  0  0  0  0  0  0  0  0  0  # atno 10718 bound_to 10713
  154.7905  135.3205  154.7788 H   0  0  0  0  0  0  0  0  0  0  0  0  # atno 10763 bound_to 10752
  153.8478  135.6865  153.4800 H   0  0  0  0  0  0  0  0  0  0  0  0  # atno 10764 bound_to 10752
  153.1573  135.4675  154.9663 H   0  0  0  0  0  0  0  0  0  0  0  0  # atno 10765 bound_to 10752
  140.4453  134.6394  157.4776 H   0  0  0  0  0  0  0  0  0  0  0  0  # atno 11005 bound_to 11000
  145.6210  141.0322  143.1915 LP  0  0  0  0  0  0  0  0  0  0  0  0  # atno 17320 bound_to 7965
  144.7296  139.7767  143.7352 LP  0  0  0  0  0  0  0  0  0  0  0  0  # atno 17321 bound_to 7965
  140.4032  143.2693  151.9923 LP  0  0  0  0  0  0  0  0  0  0  0  0  # atno 17342 bound_to 10162
  139.4812  144.5980  151.7656 LP  0  0  0  0  0  0  0  0  0  0  0  0  # atno 17343 bound_to 10162
  156.4629  130.7960  151.2980 LP  0  0  0  0  0  0  0  0  0  0  0  0  # atno 17370 bound_to 10713
  157.7487  131.0060  150.3135 LP  0  0  0  0  0  0  0  0  0  0  0  0  # atno 17371 bound_to 10713
  140.0043  134.6788  155.9480 LP  0  0  0  0  0  0  0  0  0  0  0  0  # atno 17394 bound_to 11000
  141.1688  133.6537  156.4576 LP  0  0  0  0  0  0  0  0  0  0  0  0  # atno 17395 bound_to 11000

$$$$
