AV-unprocessed.smi:1301|AV-procd|sdf|5421|dock9
  -GOLD-   22720 4583D 1   1.00000     0.00000
 Structure written by MMmdl.
 45 46  0  0  0  0  0  0  0  0  2 V2000
  148.6775  130.5027  154.8682 C   0  0  0  0  0  0  0  0  0  0  0  0
  148.9709  131.9538  155.0370 C   0  0  0  0  0  0  0  0  0  0  0  0
  148.9942  133.0060  154.1652 C   0  0  0  0  0  0  0  0  0  0  0  0
  149.3521  134.1011  154.9957 C   0  0  0  0  0  0  0  0  0  0  0  0
  149.4869  135.4078  154.4608 N   0  0  0  0  0  0  0  0  0  0  0  0
  149.8989  136.5151  155.1017 C   0  0  0  0  0  0  0  0  0  0  0  0
  150.2376  136.5633  156.2846 O   0  0  0  0  0  0  0  0  0  0  0  0
  149.8989  137.5793  154.2849 N   0  0  0  0  0  0  0  0  0  0  0  0
  150.2936  138.9361  154.6563 C   0  0  2  0  0  0  0  0  0  0  0  0
  151.5609  138.9000  155.5243 C   0  0  0  0  0  0  0  0  0  0  0  0
  151.9415  140.3096  156.0073 C   0  0  0  0  0  0  0  0  0  0  0  0
  150.8203  140.9493  156.7434 N   0  3  1  0  0  0  0  0  0  0  0  0
  151.2085  142.2573  157.3319 C   0  0  0  0  0  0  0  0  0  0  0  0
  151.5703  142.1610  158.8297 C   0  0  0  0  0  0  0  0  0  0  0  0
  152.1431  143.4943  159.3327 C   0  0  0  0  0  0  0  0  0  0  0  0
  152.5569  141.0142  159.1076 C   0  0  0  0  0  0  0  0  0  0  0  0
  149.5900  141.0224  155.9102 C   0  0  0  0  0  0  0  0  0  0  0  0
  149.1593  139.6263  155.4299 C   0  0  0  0  0  0  0  0  0  0  0  0
  149.5292  133.7495  156.2600 N   0  0  0  0  0  0  0  0  0  0  0  0
  149.2857  132.3714  156.2931 O   0  0  0  0  0  0  0  0  0  0  0  0
  148.5307  130.2550  153.8168 H   0  0  0  0  0  0  0  0  0  0  0  0
  147.7733  130.2259  155.4108 H   0  0  0  0  0  0  0  0  0  0  0  0
  149.4996  129.8954  155.2469 H   0  0  0  0  0  0  0  0  0  0  0  0
  148.7889  132.9899  153.1051 H   0  0  0  0  0  0  0  0  0  0  0  0
  149.2438  135.5085  153.4865 H   0  0  0  0  0  0  0  0  0  0  0  0
  149.6018  137.4392  153.3301 H   0  0  0  0  0  0  0  0  0  0  0  0
  150.5092  139.5291  153.7655 H   0  0  0  0  0  0  0  0  0  0  0  0
  151.4037  138.2518  156.3879 H   0  0  0  0  0  0  0  0  0  0  0  0
  152.3886  138.4682  154.9603 H   0  0  0  0  0  0  0  0  0  0  0  0
  152.8148  140.2375  156.6567 H   0  0  0  0  0  0  0  0  0  0  0  0
  152.2262  140.9352  155.1597 H   0  0  0  0  0  0  0  0  0  0  0  0
  152.0735  142.6568  156.8002 H   0  0  0  0  0  0  0  0  0  0  0  0
  150.4014  142.9744  157.1744 H   0  0  0  0  0  0  0  0  0  0  0  0
  150.6658  141.9710  159.4069 H   0  0  0  0  0  0  0  0  0  0  0  0
  153.0620  143.7562  158.8068 H   0  0  0  0  0  0  0  0  0  0  0  0
  152.3719  143.4480  160.3978 H   0  0  0  0  0  0  0  0  0  0  0  0
  151.4327  144.3085  159.1865 H   0  0  0  0  0  0  0  0  0  0  0  0
  153.4852  141.1448  158.5505 H   0  0  0  0  0  0  0  0  0  0  0  0
  152.1352  140.0476  158.8305 H   0  0  0  0  0  0  0  0  0  0  0  0
  152.8109  140.9643  160.1669 H   0  0  0  0  0  0  0  0  0  0  0  0
  148.7727  141.4677  156.4760 H   0  0  0  0  0  0  0  0  0  0  0  0
  149.7681  141.6725  155.0519 H   0  0  0  0  0  0  0  0  0  0  0  0
  148.2736  139.7109  154.7988 H   0  0  0  0  0  0  0  0  0  0  0  0
  148.8701  139.0197  156.2897 H   0  0  0  0  0  0  0  0  0  0  0  0
  150.6149  140.3395  157.5220 H   0  0  0  0  0  0  0  0  0  0  0  0
  1  2  1  0  0  0  0
  1 21  1  0  0  0  0
  1 22  1  0  0  0  0
  1 23  1  0  0  0  0
  2 20  1  0  0  0  0
  2  3  2  0  0  0  0
  3  4  1  0  0  0  0
  3 24  1  0  0  0  0
  4  5  1  0  0  0  0
  4 19  2  0  0  0  0
  5  6  1  0  0  0  0
  5 25  1  0  0  0  0
  6  7  2  0  0  0  0
  6  8  1  0  0  0  0
  8  9  1  0  0  0  0
  8 26  1  0  0  0  0
  9 18  1  0  0  0  0
  9 10  1  0  0  0  0
  9 27  1  0  0  0  0
 10 11  1  0  0  0  0
 10 28  1  0  0  0  0
 10 29  1  0  0  0  0
 11 12  1  0  0  0  0
 11 30  1  0  0  0  0
 11 31  1  0  0  0  0
 12 13  1  0  0  0  0
 12 17  1  0  0  0  0
 12 45  1  0  0  0  0
 13 14  1  0  0  0  0
 13 32  1  0  0  0  0
 13 33  1  0  0  0  0
 14 15  1  0  0  0  0
 14 16  1  0  0  0  0
 14 34  1  0  0  0  0
 15 35  1  0  0  0  0
 15 36  1  0  0  0  0
 15 37  1  0  0  0  0
 16 38  1  0  0  0  0
 16 39  1  0  0  0  0
 16 40  1  0  0  0  0
 17 18  1  0  0  0  0
 17 41  1  0  0  0  0
 17 42  1  0  0  0  0
 18 43  1  0  0  0  0
 18 44  1  0  0  0  0
 19 20  1  0  0  0  0
M  CHG  1  12   1
M  END
> <s_m_source_file>
AV-unprocessed.smi

> <i_m_source_file_index>
1301

> <i_lp_mmshare_version>
43012

> <i_f3d_flags>
0

> <s_epik_input>
W0NIM11jMVtjSF1jKG5vMSlbTkhdQyg9TylbTkhdW0NIXTJbQ0gyXVtDSDJdTihbQ0gyXVtDSDJdMilbQ0gyXVtDSF0oW0NIM10pW0NIM10=

> <s_epik_cmdline>
J2VwaWtfcHl0aG9uJywgJy1waCcsICc3LjAnLCAnLXRuJywgJzgnLCAnLW1hJywgJzIwMCcsICctbWV0YWxfYmluZGluZycsICctaW1hZScsICc8aW5maWxlLm1hZT4nLCAnLW9tYWUnLCAnPG91dGZpbGUubWFlPic=

> <r_epik_Ionization_Penalty>
0.0020743

> <r_epik_Ionization_Penalty_Charging>
0.0020412

> <r_epik_Ionization_Penalty_Neutral>
3.31029e-05

> <r_epik_State_Penalty>
0.00139626

> <r_epik_Charging_Adjusted_Penalty>
0.00343746

> <i_epik_Tot_Q>
1

> <i_epik_Tot_abs_Q>
1

> <r_epik_Metal_State_Penalty>
0.0141509

> <b_epik_Metal_Only>
0

> <s_lp_Force_Field>
OPLS_2005

> <r_lp_Energy>
17.3221

> <b_lp_Chiralities_Consistent>
1

> <s_lp_Variant>
AV-unprocessed.smi:1301-1

> <Gold.Version>
5.8.1

> <Gold.Id.Protein>
6NUR|6NUR_protein|mol2

> <Gold.PLP.Fitness>
38.0226

> <Gold.PLP.PLP>
-33.8159

> <Gold.PLP.part.hbond>
-2.2227

> <Gold.PLP.part.metal>
0.0000

> <Gold.PLP.part.buried>
-4.7529

> <Gold.PLP.part.nonpolar>
-26.8651

> <Gold.PLP.part.repulsive>
0.1731

> <Gold.PLP.ligand.clash>
0.0000

> <Gold.PLP.ligand.torsion>
0.8950

> <Gold.PLP.Chemscore.Hbond>
1.9920

> <Gold.PLP.Chemscore.CHOScore>
0.0000

> <Gold.PLP.Chemscore.Metal>
0.0000

> <Gold.Chemscore.Hbonds>
donor molecule, donor type, donor heavy atom, donor atom, acceptor molecule, acceptor atom, score
      L1  H     5    25       P1  7948  1.00
      L1  H     8    26       P1  7948  1.00

> <Gold.PLP.Chemscore.Internal.Correction>
0.0208

> <Gold.Rescore>
     Score         DG    S(hbond)    S(metal)    S(lipo)     H(rot)  DE(clash)    DE(int)     intcor
     13.37     -16.91       1.63        0.00      82.41       1.43       0.05       3.49       ----

> <Gold.Chemscore.Fitness>
13.3669

> <Gold.Chemscore.DG>
-16.9064

> <Gold.Chemscore.ZeroCoef>
-5.4800

> <Gold.Chemscore.Hbond>
1.6302

> <Gold.Chemscore.Metal>
0.0000

> <Gold.Chemscore.Lipo>
82.4081

> <Gold.Chemscore.Internal_Hbond>
0.0000

> <Gold.Chemscore.DEClash>
0.0480

> <Gold.Chemscore.DEInternal>
3.4914

> <Gold.Chemscore.Rot>
1.4298

> <Gold.Chemscore.Internal.Correction>
   9.000000E+99

> <Gold.Chemscore.Hbonds>
donor molecule, donor type, donor heavy atom, donor atom, acceptor molecule, acceptor atom, score
      L1  H     5    25       P1  7948  0.40
      L1  H     8    26       P1  7948  0.77

> <Gold.Chemscore.Hbond.Weighted>
-5.4450

> <Gold.Chemscore.Metal.Weighted>
-0.0000

> <Gold.Chemscore.Lipo.Weighted>
-9.6418

> <Gold.Chemscore.Internal_Hbond.Weighted>
0.0000

> <Gold.Chemscore.DEClash.Weighted>
0.0480

> <Gold.Chemscore.DEInternal.Weighted>
3.4914

> <Gold.Chemscore.Rot.Weighted>
3.6604

> <Gold.Chemscore.Internal.Correction.Weighted>
   9.000000E+99

> <Gold.Protein.RotatedTorsions>
[ 6907 6896 6895 6894 ] final  105.09 input  -60.11 | X-H torsion
[ 7974 7965 7964 7962 ] final  169.55 input  175.53 | X-H torsion
[ 8008 7997 7996 7995 ] final -139.74 input   59.86 | X-H torsion
[ 10167 10162 10161 10158 ] final -130.17 input  -65.29 | X-H torsion
[ 10718 10713 10712 10709 ] final   28.28 input   66.30 | X-H torsion
[ 10763 10752 10751 10750 ] final   75.66 input  -60.55 | X-H torsion
[ 11005 11000 10999 10996 ] final  -92.68 input  -57.11 | X-H torsion

> <Gold.Protein.ActiveResidues>
 VAL166  LYS551  ARG553  GLY616  TRP617  ASP618  TYR619  PRO620  LYS621  CYS622 
 ASP623  PHE694  ASN695  SER759  ASP760  ASP761  ALA762  ILE779  LEU786  VAL792 
 PHE793  MET794  SER795  GLU796  ALA797  LYS798  CYS799  TRP800  GLU811  SER814 

> <Gold.Protein.RotatedAtoms>
  152.5242  133.9580  159.7703 H   0  0  0  0  0  0  0  0  0  0  0  0  # atno 6907 bound_to 6896
  150.9877  133.6173  159.2720 H   0  0  0  0  0  0  0  0  0  0  0  0  # atno 6908 bound_to 6896
  151.3328  135.0851  159.9397 H   0  0  0  0  0  0  0  0  0  0  0  0  # atno 6909 bound_to 6896
  144.7351  139.9070  143.6413 H   0  0  0  0  0  0  0  0  0  0  0  0  # atno 7974 bound_to 7965
  155.4499  140.0538  157.3002 H   0  0  0  0  0  0  0  0  0  0  0  0  # atno 8008 bound_to 7997
  154.4782  140.2070  155.9784 H   0  0  0  0  0  0  0  0  0  0  0  0  # atno 8009 bound_to 7997
  156.1164  140.3195  155.8150 H   0  0  0  0  0  0  0  0  0  0  0  0  # atno 8010 bound_to 7997
  139.9321  143.6260  152.2527 H   0  0  0  0  0  0  0  0  0  0  0  0  # atno 10167 bound_to 10162
  157.2314  130.7025  149.6315 H   0  0  0  0  0  0  0  0  0  0  0  0  # atno 10718 bound_to 10713
  153.0670  135.4980  154.8222 H   0  0  0  0  0  0  0  0  0  0  0  0  # atno 10763 bound_to 10752
  154.6968  135.2994  154.9402 H   0  0  0  0  0  0  0  0  0  0  0  0  # atno 10764 bound_to 10752
  154.0139  135.6751  153.4820 H   0  0  0  0  0  0  0  0  0  0  0  0  # atno 10765 bound_to 10752
  141.1516  133.7837  157.0054 H   0  0  0  0  0  0  0  0  0  0  0  0  # atno 11005 bound_to 11000
  146.1029  139.4026  143.0335 LP  0  0  0  0  0  0  0  0  0  0  0  0  # atno 17320 bound_to 7965
  145.7553  140.9957  143.1229 LP  0  0  0  0  0  0  0  0  0  0  0  0  # atno 17321 bound_to 7965
  139.6774  144.7658  151.1671 LP  0  0  0  0  0  0  0  0  0  0  0  0  # atno 17342 bound_to 10162
  140.7634  143.5775  150.8930 LP  0  0  0  0  0  0  0  0  0  0  0  0  # atno 17343 bound_to 10162
  155.9675  130.4487  150.5632 LP  0  0  0  0  0  0  0  0  0  0  0  0  # atno 17370 bound_to 10713
  157.3474  131.0727  151.1740 LP  0  0  0  0  0  0  0  0  0  0  0  0  # atno 17371 bound_to 10713
  140.0913  134.9591  157.1780 LP  0  0  0  0  0  0  0  0  0  0  0  0  # atno 17394 bound_to 11000
  140.3443  134.2669  155.7207 LP  0  0  0  0  0  0  0  0  0  0  0  0  # atno 17395 bound_to 11000

$$$$
