AV-unprocessed.smi:703|AV-procd|sdf|3434|dock2
  -GOLD-   22720 0423D 1   1.00000     0.00000
 Structure written by MMmdl.
 37 38  0  0  0  0  0  0  0  0  3 V2000
  146.8638  139.0557  152.9025 C   0  0  0  0  0  0  0  0  0  0  0  0
  148.0403  139.3259  153.8500 C   0  0  0  0  0  0  0  0  0  0  0  0
  148.9721  138.1746  153.9318 N   0  3  1  0  0  0  0  0  0  0  0  0
  150.3658  138.5268  154.2951 C   0  0  0  0  0  0  0  0  0  0  0  0
  150.8928  137.3326  155.0971 C   0  0  1  0  0  0  0  0  0  0  0  0
  152.1650  137.6180  155.9230 C   0  0  0  0  0  0  0  0  0  0  0  0
  149.6465  136.8363  155.8532 C   0  0  1  0  0  0  0  0  0  0  0  0
  149.4013  137.6358  157.0484 N   0  5  0  0  0  0  0  0  0  0  0  0
  149.4580  136.9284  158.5049 S   0  0  0  0  0  0  0  0  0  0  0  0
  149.7085  135.4808  158.4148 O   0  0  0  0  0  0  0  0  0  0  0  0
  150.2692  137.6887  159.4695 O   0  0  0  0  0  0  0  0  0  0  0  0
  147.7050  137.1190  159.0424 C   0  0  0  0  0  0  0  0  0  0  0  0
  147.4994  136.4650  160.3800 C   0  0  0  0  0  0  0  0  0  0  0  0
  147.5413  135.0807  160.7054 C   0  0  0  0  0  0  0  0  0  0  0  0
  147.2925  135.0603  162.0472 C   0  0  0  0  0  0  0  0  0  0  0  0
  147.1210  136.3212  162.5180 O   0  0  0  0  0  0  0  0  0  0  0  0
  147.2586  137.2114  161.4469 N   0  0  0  0  0  0  0  0  0  0  0  0
  148.5188  137.0888  154.8396 C   0  0  0  0  0  0  0  0  0  0  0  0
  146.1624  139.8902  152.9128 H   0  0  0  0  0  0  0  0  0  0  0  0
  146.3171  138.1597  153.1976 H   0  0  0  0  0  0  0  0  0  0  0  0
  147.1977  138.9228  151.8732 H   0  0  0  0  0  0  0  0  0  0  0  0
  148.5825  140.2208  153.5403 H   0  0  0  0  0  0  0  0  0  0  0  0
  147.6462  139.5267  154.8470 H   0  0  0  0  0  0  0  0  0  0  0  0
  150.9647  138.7179  153.4040 H   0  0  0  0  0  0  0  0  0  0  0  0
  150.3857  139.4371  154.9006 H   0  0  0  0  0  0  0  0  0  0  0  0
  151.1514  136.5533  154.3779 H   0  0  0  0  0  0  0  0  0  0  0  0
  152.0261  138.4328  156.6359 H   0  0  0  0  0  0  0  0  0  0  0  0
  152.9868  137.9055  155.2670 H   0  0  0  0  0  0  0  0  0  0  0  0
  152.4911  136.7388  156.4814 H   0  0  0  0  0  0  0  0  0  0  0  0
  149.7292  135.7714  156.0736 H   0  0  0  0  0  0  0  0  0  0  0  0
  147.4754  138.1833  159.0889 H   0  0  0  0  0  0  0  0  0  0  0  0
  147.0655  136.6736  158.2800 H   0  0  0  0  0  0  0  0  0  0  0  0
  147.7182  134.2377  160.0540 H   0  0  0  0  0  0  0  0  0  0  0  0
  147.2113  134.2664  162.7747 H   0  0  0  0  0  0  0  0  0  0  0  0
  147.5623  137.3051  155.3198 H   0  0  0  0  0  0  0  0  0  0  0  0
  148.3674  136.1967  154.2310 H   0  0  0  0  0  0  0  0  0  0  0  0
  149.0090  137.7601  153.0118 H   0  0  0  0  0  0  0  0  0  0  0  0
  1  2  1  0  0  0  0
  1 19  1  0  0  0  0
  1 20  1  0  0  0  0
  1 21  1  0  0  0  0
  2  3  1  0  0  0  0
  2 22  1  0  0  0  0
  2 23  1  0  0  0  0
  3 18  1  0  0  0  0
  3  4  1  0  0  0  0
  3 37  1  0  0  0  0
  4  5  1  0  0  0  0
  4 24  1  0  0  0  0
  4 25  1  0  0  0  0
  5  6  1  0  0  0  0
  5  7  1  0  0  0  0
  5 26  1  0  0  0  0
  6 27  1  0  0  0  0
  6 28  1  0  0  0  0
  6 29  1  0  0  0  0
  7  8  1  0  0  0  0
  7 18  1  0  0  0  0
  7 30  1  0  0  0  0
  8  9  1  0  0  0  0
  9 10  2  0  0  0  0
  9 11  2  0  0  0  0
  9 12  1  0  0  0  0
 12 13  1  0  0  0  0
 12 31  1  0  0  0  0
 12 32  1  0  0  0  0
 13 17  2  0  0  0  0
 13 14  1  0  0  0  0
 14 15  2  0  0  0  0
 14 33  1  0  0  0  0
 15 16  1  0  0  0  0
 15 34  1  0  0  0  0
 16 17  1  0  0  0  0
 18 35  1  0  0  0  0
 18 36  1  0  0  0  0
M  CHG  1   3   1
M  CHG  1   8  -1
M  END
> <s_m_source_file>
AV-unprocessed.smi

> <i_m_source_file_index>
703

> <i_lp_mmshare_version>
43012

> <i_f3d_flags>
0

> <s_epik_input>
W0NIM11bQ0gyXU4xW0NIMl1bQ0BASF0oW0NIM10pW0NASF0oW0NIMl0xKVtOSF1TKD1PKSg9TylbQ0gyXWMyW2NIXVtjSF1vbjI=

> <s_epik_cmdline>
J2VwaWtfcHl0aG9uJywgJy1waCcsICc3LjAnLCAnLXRuJywgJzgnLCAnLW1hJywgJzIwMCcsICctbWV0YWxfYmluZGluZycsICctaW1hZScsICc8aW5maWxlLm1hZT4nLCAnLW9tYWUnLCAnPG91dGZpbGUubWFlPic=

> <r_epik_Ionization_Penalty>
3.62494

> <r_epik_Ionization_Penalty_Charging>
3.62494

> <r_epik_Ionization_Penalty_Neutral>
2.0321e-10

> <r_epik_State_Penalty>
3.62558

> <r_epik_Charging_Adjusted_Penalty>
7.25052

> <i_epik_Tot_Q>
0

> <i_epik_Tot_abs_Q>
2

> <r_epik_Metal_State_Penalty>
0.530836

> <b_epik_Metal_Only>
1

> <s_lp_Force_Field>
OPLS_2005

> <r_lp_Energy>
18.2255

> <b_lp_Chiralities_Consistent>
1

> <s_lp_Variant>
AV-unprocessed.smi:703-9

> <Gold.Version>
5.8.1

> <Gold.Id.Protein>
6NUR|6NUR_protein|mol2

> <Gold.PLP.Fitness>
41.0650

> <Gold.PLP.PLP>
-27.3510

> <Gold.PLP.part.hbond>
-5.0000

> <Gold.PLP.part.metal>
0.0000

> <Gold.PLP.part.buried>
-4.4476

> <Gold.PLP.part.nonpolar>
-18.2989

> <Gold.PLP.part.repulsive>
0.0195

> <Gold.PLP.ligand.clash>
0.0000

> <Gold.PLP.ligand.torsion>
0.8947

> <Gold.PLP.Chemscore.Hbond>
4.8080

> <Gold.PLP.Chemscore.CHOScore>
0.0000

> <Gold.PLP.Chemscore.Metal>
0.0000

> <Gold.Chemscore.Hbonds>
donor molecule, donor type, donor heavy atom, donor atom, acceptor molecule, acceptor atom, score
      L1  H     3    37       P1  7948  2.00
      P1  H  6896  6907       L1    10  1.00
      P1  H  6931  6943       L1    17  0.72
      P1  H  6934  6947       L1    17  0.98

> <Gold.PLP.Chemscore.Internal.Correction>
1.0795

> <Gold.Rescore>
     Score         DG    S(hbond)    S(metal)    S(lipo)     H(rot)  DE(clash)    DE(int)     intcor
     17.51     -18.75       3.08        0.00      61.35       1.63       0.19       1.06       ----

> <Gold.Chemscore.Fitness>
17.5105

> <Gold.Chemscore.DG>
-18.7543

> <Gold.Chemscore.ZeroCoef>
-5.4800

> <Gold.Chemscore.Hbond>
3.0776

> <Gold.Chemscore.Metal>
0.0000

> <Gold.Chemscore.Lipo>
61.3475

> <Gold.Chemscore.Internal_Hbond>
0.0000

> <Gold.Chemscore.DEClash>
0.1864

> <Gold.Chemscore.DEInternal>
1.0575

> <Gold.Chemscore.Rot>
1.6338

> <Gold.Chemscore.Internal.Correction>
   9.000000E+99

> <Gold.Chemscore.Hbonds>
donor molecule, donor type, donor heavy atom, donor atom, acceptor molecule, acceptor atom, score
      L1  H     3    37       P1  7948  0.96
      P1  H  6896  6907       L1    10  0.99
      P1  H  6931  6943       L1    17  0.18
      P1  H  6934  6947       L1    17  0.69

> <Gold.Chemscore.Hbond.Weighted>
-10.2792

> <Gold.Chemscore.Metal.Weighted>
-0.0000

> <Gold.Chemscore.Lipo.Weighted>
-7.1777

> <Gold.Chemscore.Internal_Hbond.Weighted>
0.0000

> <Gold.Chemscore.DEClash.Weighted>
0.1864

> <Gold.Chemscore.DEInternal.Weighted>
1.0575

> <Gold.Chemscore.Rot.Weighted>
4.1825

> <Gold.Chemscore.Internal.Correction.Weighted>
   9.000000E+99

> <Gold.Protein.RotatedTorsions>
[ 6907 6896 6895 6894 ] final  -67.70 input  -60.11 | X-H torsion
[ 7974 7965 7964 7962 ] final  178.54 input  175.53 | X-H torsion
[ 8008 7997 7996 7995 ] final  138.31 input   59.86 | X-H torsion
[ 10167 10162 10161 10158 ] final   13.64 input  -65.29 | X-H torsion
[ 10718 10713 10712 10709 ] final   36.56 input   66.30 | X-H torsion
[ 10763 10752 10751 10750 ] final  129.49 input  -60.55 | X-H torsion
[ 11005 11000 10999 10996 ] final  136.08 input  -57.11 | X-H torsion

> <Gold.Protein.ActiveResidues>
 VAL166  LYS551  ARG553  GLY616  TRP617  ASP618  TYR619  PRO620  LYS621  CYS622 
 ASP623  PHE694  ASN695  SER759  ASP760  ASP761  ALA762  ILE779  LEU786  VAL792 
 PHE793  MET794  SER795  GLU796  ALA797  LYS798  CYS799  TRP800  GLU811  SER814 

> <Gold.Protein.RotatedAtoms>
  150.7395  134.5844  159.5955 H   0  0  0  0  0  0  0  0  0  0  0  0  # atno 6907 bound_to 6896
  152.3249  134.7330  160.0313 H   0  0  0  0  0  0  0  0  0  0  0  0  # atno 6908 bound_to 6896
  151.7833  133.3316  159.3514 H   0  0  0  0  0  0  0  0  0  0  0  0  # atno 6909 bound_to 6896
  144.7155  140.0413  143.6437 H   0  0  0  0  0  0  0  0  0  0  0  0  # atno 7974 bound_to 7965
  156.2998  140.2397  156.4052 H   0  0  0  0  0  0  0  0  0  0  0  0  # atno 8008 bound_to 7997
  154.8491  140.0425  157.1612 H   0  0  0  0  0  0  0  0  0  0  0  0  # atno 8009 bound_to 7997
  154.9019  140.2978  155.5317 H   0  0  0  0  0  0  0  0  0  0  0  0  # atno 8010 bound_to 7997
  140.5989  143.8645  150.6945 H   0  0  0  0  0  0  0  0  0  0  0  0  # atno 10167 bound_to 10162
  157.3363  130.7524  149.6881 H   0  0  0  0  0  0  0  0  0  0  0  0  # atno 10718 bound_to 10713
  153.7425  135.3222  155.3307 H   0  0  0  0  0  0  0  0  0  0  0  0  # atno 10763 bound_to 10752
  154.8290  135.4548  154.1012 H   0  0  0  0  0  0  0  0  0  0  0  0  # atno 10764 bound_to 10752
  153.2191  135.6946  153.8103 H   0  0  0  0  0  0  0  0  0  0  0  0  # atno 10765 bound_to 10752
  140.0022  134.9474  157.0098 H   0  0  0  0  0  0  0  0  0  0  0  0  # atno 11005 bound_to 11000
  146.0021  139.3100  143.0921 LP  0  0  0  0  0  0  0  0  0  0  0  0  # atno 17320 bound_to 7965
  145.8781  140.9379  143.0615 LP  0  0  0  0  0  0  0  0  0  0  0  0  # atno 17321 bound_to 7965
  140.2186  143.3827  152.1661 LP  0  0  0  0  0  0  0  0  0  0  0  0  # atno 17342 bound_to 10162
  139.5277  144.7122  151.5168 LP  0  0  0  0  0  0  0  0  0  0  0  0  # atno 17343 bound_to 10162
  155.9702  130.4180  150.4308 LP  0  0  0  0  0  0  0  0  0  0  0  0  # atno 17370 bound_to 10713
  157.2349  131.0512  151.2471 LP  0  0  0  0  0  0  0  0  0  0  0  0  # atno 17371 bound_to 10713
  140.4706  134.1390  155.7202 LP  0  0  0  0  0  0  0  0  0  0  0  0  # atno 17394 bound_to 11000
  141.1651  133.8719  157.1739 LP  0  0  0  0  0  0  0  0  0  0  0  0  # atno 17395 bound_to 11000

$$$$
