#       Name:                AV-unprocessed.smi:1791
#       Creating user name   scv26
#       Creation time:       Fri Mar 27 08:46:12 2020


#       File generated by GOLD software.
#

@<TRIPOS>MOLECULE
AV-unprocessed.smi:1791
    45    46     1
SMALL
NO_CHARGES


@<TRIPOS>ATOM
      1 ****        -6.9138   2.7379  -0.1393 C.3            1 S1                 0.0000
      2 ****        -6.3922   1.4133  -0.1352 O.3            1 S1                 0.0000
      3 ****        -5.0225   1.2490  -0.1722 C.ar           1 S1                 0.0000
      4 ****        -4.4991  -0.0593  -0.1809 C.ar           1 S1                 0.0000
      5 ****        -3.1025  -0.2354  -0.2217 C.ar           1 S1                 0.0000
      6 ****        -2.2698   0.9088  -0.2599 C.ar           1 S1                 0.0000
      7 ****        -0.8490   0.8728  -0.2893 N.am           1 S1                 0.0000
      8 ****        -0.0371  -0.1414  -0.6344 C.2            1 S1                 0.0000
      9 ****        -0.4063  -1.2598  -0.9909 O.2            1 S1                 0.0000
     10 ****         1.2496   0.2283  -0.5575 N.am           1 S1                 0.0000
     11 ****         2.4039  -0.6146  -0.8629 C.3            1 S1                 0.0000
     12 ****         3.2377   0.0692  -1.9576 C.3            1 S1                 0.0000
     13 ****         3.2146  -0.8600   0.4247 C.3            1 S1                 0.0000
     14 ****         4.4123  -1.7976   0.2581 C.3            1 S1                 0.0000
     15 ****         4.6030  -2.3958   1.6438 C.3            1 S1                 0.0000
     16 ****         3.3206  -2.0238   2.3916 C.3            1 S1                 0.0000
     17 ****         2.4342  -1.5520   1.3877 O.3            1 S1                 0.0000
     18 ****        -2.8931   2.1734  -0.2336 C.ar           1 S1                 0.0000
     19 ****        -4.2306   2.3492  -0.1953 N.ar           1 S1                 0.0000
     20 ****        -8.0024   2.6978  -0.1079 H              1 S1                 0.0000
     21 ****        -6.6292   3.2754  -1.0450 H              1 S1                 0.0000
     22 ****        -6.5789   3.3020   0.7322 H              1 S1                 0.0000
     23 ****        -5.1582  -0.9146  -0.1537 H              1 S1                 0.0000
     24 ****        -2.7059  -1.2383  -0.2111 H              1 S1                 0.0000
     25 ****        -0.3934   1.7486  -0.0786 H              1 S1                 0.0000
     26 ****         1.4506   1.1698  -0.2545 H              1 S1                 0.0000
     27 ****         2.0747  -1.5798  -1.2514 H              1 S1                 0.0000
     28 ****         4.0864  -0.5474  -2.2543 H              1 S1                 0.0000
     29 ****         3.6266   1.0304  -1.6200 H              1 S1                 0.0000
     30 ****         2.6389   0.2475  -2.8513 H              1 S1                 0.0000
     31 ****         3.5438   0.0879   0.8558 H              1 S1                 0.0000
     32 ****         4.1744  -2.5924  -0.4502 H              1 S1                 0.0000
     33 ****         5.3017  -1.2809  -0.1041 H              1 S1                 0.0000
     34 ****         4.7328  -3.4769   1.5827 H              1 S1                 0.0000
     35 ****         5.4773  -1.9807   2.1458 H              1 S1                 0.0000
     36 ****         2.8903  -2.8665   2.9331 H              1 S1                 0.0000
     37 ****         3.5124  -1.2219   3.1059 H              1 S1                 0.0000
     38 ****        -2.3006   3.0765  -0.2492 H              1 S1                 0.0000
     39 ****        -6.7683   0.9447  -0.9345 LP             1 S1                 0.0000
     40 ****        -6.7213   0.9682   0.6976 LP             1 S1                 0.0000
     41 ****        -1.3823  -1.4717  -1.0412 LP             1 S1                 0.0000
     42 ****         0.2696  -1.9567  -1.2303 LP             1 S1                 0.0000
     43 ****         1.9640  -2.3224   0.9572 LP             1 S1                 0.0000
     44 ****         1.7599  -0.9328   1.7903 LP             1 S1                 0.0000
     45 ****        -4.6273   3.2671  -0.1842 LP             1 S1                 0.0000
@<TRIPOS>BOND
    1    1    2 1     
    2    1   20 1     
    3    1   21 1     
    4    1   22 1     
    5    2    3 1     
    6    3   19 ar    
    7    3    4 ar    
    8    4    5 ar    
    9    4   23 1     
   10    5    6 ar    
   11    5   24 1     
   12    6    7 1     
   13    6   18 ar    
   14    7    8 am    
   15    7   25 1     
   16    8    9 2     
   17    8   10 am    
   18   10   11 1     
   19   10   26 1     
   20   11   12 1     
   21   11   13 1     
   22   11   27 1     
   23   12   28 1     
   24   12   29 1     
   25   12   30 1     
   26   13   17 1     
   27   13   14 1     
   28   13   31 1     
   29   14   15 1     
   30   14   32 1     
   31   14   33 1     
   32   15   16 1     
   33   15   34 1     
   34   15   35 1     
   35   16   17 1     
   36   16   36 1     
   37   16   37 1     
   38   18   19 ar    
   39   18   38 1     
   40    2   39 1     
   41    2   40 1     
   42    9   41 1     
   43    9   42 1     
   44   17   43 1     
   45   17   44 1     
   46   19   45 1     
@<TRIPOS>SUBSTRUCTURE
      1 S1             1
@<TRIPOS>SET
LONE_PAIRS      STATIC     ATOMS    <user>   **** ""
7 39 40 41 42 43 44 45
DONOR_HYDROGENS      STATIC     ATOMS    <user>   **** ""
2 25 26
ATOM$BLUE        STATIC     ATOMS    COLORGROUP SYSTEM
7 39 40 41 42 43 44 45
ATOM$RED        STATIC     ATOMS    COLORGROUP SYSTEM
2 25 26
