AV-unprocessed.smi:2902|AV-procd|sdf|11152|dock7
  -GOLD-   2272016 33D 1   1.00000     0.00000
 Structure written by MMmdl.
 47 48  0  0  0  0  0  0  0  0  1 V2000
  155.4753  137.7416  159.2624 C   0  0  0  0  0  0  0  0  0  0  0  0
  155.4476  139.2663  159.4291 C   0  0  0  0  0  0  0  0  0  0  0  0
  154.1134  139.7777  160.0040 C   0  0  1  0  0  0  0  0  0  0  0  0
  154.1923  141.2002  160.0930 O   0  0  0  0  0  0  0  0  0  0  0  0
  153.1268  141.8574  160.7750 C   0  0  0  0  0  0  0  0  0  0  0  0
  152.8409  143.2097  160.1266 C   0  0  0  0  0  0  0  0  0  0  0  0
  152.1133  144.0107  161.2105 C   0  0  0  0  0  0  0  0  0  0  0  0
  152.5643  143.4175  162.5547 C   0  0  0  0  0  0  0  0  0  0  0  0
  153.4753  142.2305  162.2187 C   0  0  0  0  0  0  0  0  0  0  0  0
  152.9263  139.3726  159.1160 C   0  0  0  0  0  0  0  0  0  0  0  0
  152.1787  138.4567  159.4594 O   0  0  0  0  0  0  0  0  0  0  0  0
  152.7844  140.0579  157.9702 N   0  0  0  0  0  0  0  0  0  0  0  0
  151.7650  139.8274  156.9481 C   0  0  2  0  0  0  0  0  0  0  0  0
  152.3759  138.9571  155.8351 C   0  0  0  0  0  0  0  0  0  0  0  0
  151.2018  141.1801  156.4385 C   0  0  2  0  0  0  0  0  0  0  0  0
  150.8365  142.1470  157.5818 C   0  0  0  0  0  0  0  0  0  0  0  0
  150.0635  140.9953  155.5484 N   0  0  0  0  0  0  0  0  0  0  0  0
  148.8356  141.5158  155.5979 C   0  0  0  0  0  0  0  0  0  0  0  0
  148.0474  141.1283  154.6048 N   0  0  0  0  0  0  0  0  0  0  0  0
  148.9118  140.3111  153.9330 C   0  0  0  0  0  0  0  0  0  0  0  0
  150.1324  140.1959  154.4557 N   0  0  0  0  0  0  0  0  0  0  0  0
  156.4280  137.4142  158.8459 H   0  0  0  0  0  0  0  0  0  0  0  0
  154.6853  137.4041  158.5911 H   0  0  0  0  0  0  0  0  0  0  0  0
  155.3407  137.2367  160.2193 H   0  0  0  0  0  0  0  0  0  0  0  0
  156.2741  139.5725  160.0719 H   0  0  0  0  0  0  0  0  0  0  0  0
  155.6295  139.7254  158.4562 H   0  0  0  0  0  0  0  0  0  0  0  0
  153.9830  139.3458  160.9976 H   0  0  0  0  0  0  0  0  0  0  0  0
  152.2084  141.2692  160.7550 H   0  0  0  0  0  0  0  0  0  0  0  0
  153.7805  143.7058  159.8789 H   0  0  0  0  0  0  0  0  0  0  0  0
  152.2610  143.1202  159.2076 H   0  0  0  0  0  0  0  0  0  0  0  0
  152.3312  145.0764  161.1370 H   0  0  0  0  0  0  0  0  0  0  0  0
  151.0351  143.8893  161.1004 H   0  0  0  0  0  0  0  0  0  0  0  0
  153.0879  144.1531  163.1662 H   0  0  0  0  0  0  0  0  0  0  0  0
  151.6956  143.0815  163.1219 H   0  0  0  0  0  0  0  0  0  0  0  0
  153.3469  141.3988  162.9119 H   0  0  0  0  0  0  0  0  0  0  0  0
  154.5178  142.5481  162.2723 H   0  0  0  0  0  0  0  0  0  0  0  0
  153.4537  140.7895  157.7801 H   0  0  0  0  0  0  0  0  0  0  0  0
  150.9358  139.2613  157.3760 H   0  0  0  0  0  0  0  0  0  0  0  0
  151.6324  138.6722  155.0905 H   0  0  0  0  0  0  0  0  0  0  0  0
  152.7889  138.0344  156.2443 H   0  0  0  0  0  0  0  0  0  0  0  0
  153.1811  139.4814  155.3193 H   0  0  0  0  0  0  0  0  0  0  0  0
  151.9816  141.6616  155.8458 H   0  0  0  0  0  0  0  0  0  0  0  0
  151.7103  142.4149  158.1758 H   0  0  0  0  0  0  0  0  0  0  0  0
  150.1013  141.7070  158.2563 H   0  0  0  0  0  0  0  0  0  0  0  0
  150.4161  143.0740  157.1909 H   0  0  0  0  0  0  0  0  0  0  0  0
  148.5122  142.1941  156.3737 H   0  0  0  0  0  0  0  0  0  0  0  0
  148.6333  139.7857  153.0313 H   0  0  0  0  0  0  0  0  0  0  0  0
  1  2  1  0  0  0  0
  1 22  1  0  0  0  0
  1 23  1  0  0  0  0
  1 24  1  0  0  0  0
  2  3  1  0  0  0  0
  2 25  1  0  0  0  0
  2 26  1  0  0  0  0
  3  4  1  0  0  0  0
  3 10  1  0  0  0  0
  3 27  1  0  0  0  0
  4  5  1  0  0  0  0
  5  9  1  0  0  0  0
  5  6  1  0  0  0  0
  5 28  1  0  0  0  0
  6  7  1  0  0  0  0
  6 29  1  0  0  0  0
  6 30  1  0  0  0  0
  7  8  1  0  0  0  0
  7 31  1  0  0  0  0
  7 32  1  0  0  0  0
  8  9  1  0  0  0  0
  8 33  1  0  0  0  0
  8 34  1  0  0  0  0
  9 35  1  0  0  0  0
  9 36  1  0  0  0  0
 10 11  2  0  0  0  0
 10 12  1  0  0  0  0
 12 13  1  0  0  0  0
 12 37  1  0  0  0  0
 13 14  1  0  0  0  0
 13 15  1  0  0  0  0
 13 38  1  0  0  0  0
 14 39  1  0  0  0  0
 14 40  1  0  0  0  0
 14 41  1  0  0  0  0
 15 16  1  0  0  0  0
 15 17  1  0  0  0  0
 15 42  1  0  0  0  0
 16 43  1  0  0  0  0
 16 44  1  0  0  0  0
 16 45  1  0  0  0  0
 17 21  1  0  0  0  0
 17 18  1  0  0  0  0
 18 19  2  0  0  0  0
 18 46  1  0  0  0  0
 19 20  1  0  0  0  0
 20 21  2  0  0  0  0
 20 47  1  0  0  0  0
M  END
> <s_m_source_file>
AV-unprocessed.smi

> <i_m_source_file_index>
2902

> <i_lp_mmshare_version>
43012

> <i_f3d_flags>
0

> <s_epik_input>
W0NIMl0xW0NIMl1bQ0gyXVtDSDJdW0NIXTFPW0NAQEhdKFtDSDJdW0NIM10pQyg9TylbTkhdW0NASF0oW0NIM10pW0NASF0oW0NIM10pbjJbY0hdbltjSF1uMg==

> <s_epik_cmdline>
J2VwaWtfcHl0aG9uJywgJy1waCcsICc3LjAnLCAnLXRuJywgJzgnLCAnLW1hJywgJzIwMCcsICctbWV0YWxfYmluZGluZycsICctaW1hZScsICc8aW5maWxlLm1hZT4nLCAnLW9tYWUnLCAnPG91dGZpbGUubWFlPic=

> <r_lp_tautomer_probability>
1

> <r_epik_Ionization_Penalty>
6.95617e-05

> <r_epik_Ionization_Penalty_Charging>
0

> <r_epik_Ionization_Penalty_Neutral>
6.95617e-05

> <r_epik_State_Penalty>
-0

> <r_epik_Charging_Adjusted_Penalty>
0

> <i_epik_Tot_Q>
0

> <i_epik_Tot_abs_Q>
0

> <r_epik_Metal_State_Penalty>
-0

> <b_epik_Metal_Only>
0

> <s_lp_Force_Field>
OPLS_2005

> <r_lp_Energy>
28.6706

> <b_lp_Chiralities_Consistent>
1

> <s_lp_Variant>
AV-unprocessed.smi:2902-2

> <Gold.Version>
5.8.1

> <Gold.Id.Protein>
6NUR|6NUR_protein|mol2

> <Gold.PLP.Fitness>
45.7110

> <Gold.PLP.PLP>
-40.3525

> <Gold.PLP.part.hbond>
-1.0000

> <Gold.PLP.part.metal>
0.0000

> <Gold.PLP.part.buried>
-1.4039

> <Gold.PLP.part.nonpolar>
-38.8986

> <Gold.PLP.part.repulsive>
1.2395

> <Gold.PLP.ligand.clash>
0.0000

> <Gold.PLP.ligand.torsion>
1.3408

> <Gold.PLP.Chemscore.Hbond>
1.0000

> <Gold.PLP.Chemscore.CHOScore>
1.5996

> <Gold.PLP.Chemscore.Metal>
0.0000

> <Gold.Chemscore.Hbonds>
donor molecule, donor type, donor heavy atom, donor atom, acceptor molecule, acceptor atom, score
      P1  H  7989  7998       L1    21  1.00
      L1  C    18    46       P1  8028  0.45
      L1  C    20    47       P1  7957  0.89

> <Gold.PLP.Chemscore.Internal.Correction>
0.2413

> <Gold.Rescore>
     Score         DG    S(hbond)    S(metal)    S(lipo)     H(rot)  DE(clash)    DE(int)     intcor
     10.35     -12.74       0.80        0.00      98.17       2.69       0.02       2.37       ----

> <Gold.Chemscore.Fitness>
10.3464

> <Gold.Chemscore.DG>
-12.7395

> <Gold.Chemscore.ZeroCoef>
-5.4800

> <Gold.Chemscore.Hbond>
0.7991

> <Gold.Chemscore.Metal>
0.0000

> <Gold.Chemscore.Lipo>
98.1705

> <Gold.Chemscore.Internal_Hbond>
0.0000

> <Gold.Chemscore.DEClash>
0.0199

> <Gold.Chemscore.DEInternal>
2.3731

> <Gold.Chemscore.Rot>
2.6935

> <Gold.Chemscore.Internal.Correction>
   9.000000E+99

> <Gold.Chemscore.Hbonds>
donor molecule, donor type, donor heavy atom, donor atom, acceptor molecule, acceptor atom, score
      P1  H  7989  7998       L1    21  0.42

> <Gold.Chemscore.Hbond.Weighted>
-2.6689

> <Gold.Chemscore.Metal.Weighted>
-0.0000

> <Gold.Chemscore.Lipo.Weighted>
-11.4860

> <Gold.Chemscore.Internal_Hbond.Weighted>
0.0000

> <Gold.Chemscore.DEClash.Weighted>
0.0199

> <Gold.Chemscore.DEInternal.Weighted>
2.3731

> <Gold.Chemscore.Rot.Weighted>
6.8954

> <Gold.Chemscore.Internal.Correction.Weighted>
   9.000000E+99

> <Gold.Protein.RotatedTorsions>
[ 6907 6896 6895 6894 ] final -124.90 input  -60.11 | X-H torsion
[ 7974 7965 7964 7962 ] final   11.62 input  175.53 | X-H torsion
[ 8008 7997 7996 7995 ] final  -94.75 input   59.86 | X-H torsion
[ 10167 10162 10161 10158 ] final   19.09 input  -65.29 | X-H torsion
[ 10718 10713 10712 10709 ] final  158.43 input   66.30 | X-H torsion
[ 10763 10752 10751 10750 ] final  -19.49 input  -60.55 | X-H torsion
[ 11005 11000 10999 10996 ] final   -4.28 input  -57.11 | X-H torsion

> <Gold.Protein.ActiveResidues>
 VAL166  LYS551  ARG553  GLY616  TRP617  ASP618  TYR619  PRO620  LYS621  CYS622 
 ASP623  PHE694  ASN695  SER759  ASP760  ASP761  ALA762  ILE779  LEU786  VAL792 
 PHE793  MET794  SER795  GLU796  ALA797  LYS798  CYS799  TRP800  GLU811  SER814 

> <Gold.Protein.RotatedAtoms>
  150.8814  133.7367  159.2930 H   0  0  0  0  0  0  0  0  0  0  0  0  # atno 6907 bound_to 6896
  151.4947  135.1057  159.9822 H   0  0  0  0  0  0  0  0  0  0  0  0  # atno 6908 bound_to 6896
  152.4762  133.8098  159.7053 H   0  0  0  0  0  0  0  0  0  0  0  0  # atno 6909 bound_to 6896
  146.2367  139.9458  142.8477 H   0  0  0  0  0  0  0  0  0  0  0  0  # atno 7974 bound_to 7965
  154.7524  140.0486  157.0904 H   0  0  0  0  0  0  0  0  0  0  0  0  # atno 8008 bound_to 7997
  155.0040  140.3128  155.4836 H   0  0  0  0  0  0  0  0  0  0  0  0  # atno 8009 bound_to 7997
  156.2888  140.2196  156.5152 H   0  0  0  0  0  0  0  0  0  0  0  0  # atno 8010 bound_to 7997
  140.5605  143.9346  150.6639 H   0  0  0  0  0  0  0  0  0  0  0  0  # atno 10167 bound_to 10162
  157.1780  131.0626  151.2147 H   0  0  0  0  0  0  0  0  0  0  0  0  # atno 10718 bound_to 10713
  153.6057  135.6998  153.5367 H   0  0  0  0  0  0  0  0  0  0  0  0  # atno 10763 bound_to 10752
  153.3059  135.4115  155.1293 H   0  0  0  0  0  0  0  0  0  0  0  0  # atno 10764 bound_to 10752
  154.8574  135.3660  154.5593 H   0  0  0  0  0  0  0  0  0  0  0  0  # atno 10765 bound_to 10752
  140.6785  133.9174  155.8540 H   0  0  0  0  0  0  0  0  0  0  0  0  # atno 11005 bound_to 11000
  145.1908  140.9811  143.4212 LP  0  0  0  0  0  0  0  0  0  0  0  0  # atno 17320 bound_to 7965
  144.9859  139.3737  143.6239 LP  0  0  0  0  0  0  0  0  0  0  0  0  # atno 17321 bound_to 7965
  140.2795  143.3399  152.1164 LP  0  0  0  0  0  0  0  0  0  0  0  0  # atno 17342 bound_to 10162
  139.5068  144.6820  151.5984 LP  0  0  0  0  0  0  0  0  0  0  0  0  # atno 17343 bound_to 10162
  157.3980  130.7318  149.6746 LP  0  0  0  0  0  0  0  0  0  0  0  0  # atno 17370 bound_to 10713
  155.9728  130.4128  150.4052 LP  0  0  0  0  0  0  0  0  0  0  0  0  # atno 17371 bound_to 10713
  141.0336  134.0721  157.3985 LP  0  0  0  0  0  0  0  0  0  0  0  0  # atno 17394 bound_to 11000
  139.8959  135.0143  156.7024 LP  0  0  0  0  0  0  0  0  0  0  0  0  # atno 17395 bound_to 11000

$$$$
