AV-unprocessed.smi:244|AV-procd|sdf|1869|dock6
  -GOLD-   2262020503D 1   1.00000     0.00000
 Structure written by MMmdl.
 57 61  0  0  0  0  0  0  0  0  2 V2000
  150.7038  136.4868  157.3085 C   0  0  0  0  0  0  0  0  0  0  0  0
  151.6002  136.6350  156.1387 N   0  3  2  0  0  0  0  0  0  0  0  0
  152.5572  137.7636  156.2559 C   0  0  0  0  0  0  0  0  0  0  0  0
  151.8836  139.1166  155.9770 C   0  0  0  0  0  0  0  0  0  0  0  0
  151.2080  139.1146  154.5914 C   0  0  2  0  0  0  0  0  0  0  0  0
  150.5825  140.3618  154.2873 O   0  0  0  0  0  0  0  0  0  0  0  0
  149.3990  140.6292  155.0337 C   0  0  0  0  0  0  0  0  0  0  0  0
  148.3812  139.5030  154.8145 C   0  0  0  0  0  0  0  0  0  0  0  0
  148.9656  138.2092  155.1472 N   0  0  0  0  0  0  0  0  0  0  0  0
  148.0117  137.2483  155.1334 C   0  0  0  0  0  0  0  0  0  0  0  0
  148.0205  136.2548  156.0612 N   0  0  0  0  0  0  0  0  0  0  0  0
  147.0783  135.3069  156.0339 C   0  0  0  0  0  0  0  0  0  0  0  0
  146.0581  135.1684  155.1843 N   0  0  0  0  0  0  0  0  0  0  0  0
  146.0538  136.1605  154.2482 C   0  0  0  0  0  0  0  0  0  0  0  0
  146.9914  137.2251  154.1470 C   0  0  0  0  0  0  0  0  0  0  0  0
  146.6771  138.0394  153.0669 N   0  0  0  0  0  0  0  0  0  0  0  0
  145.6093  137.4878  152.5575 C   0  0  0  0  0  0  0  0  0  0  0  0
  145.1580  136.3640  153.2135 N   0  0  0  0  0  0  0  0  0  0  0  0
  143.9903  135.5666  152.8728 C   0  0  0  0  0  0  0  0  0  0  0  0
  144.3302  134.1512  152.3421 C   0  0  0  0  0  0  0  0  0  0  0  0
  144.7323  133.3576  153.4452 O   0  0  0  0  0  0  0  0  0  0  0  0
  143.1230  133.4629  151.6672 C   0  0  0  0  0  0  0  0  0  0  0  0
  143.5226  132.1565  150.9582 C   0  0  0  0  0  0  0  0  0  0  0  0
  144.5685  132.4047  150.0271 O   0  0  0  0  0  0  0  0  0  0  0  0
  145.7590  132.8690  150.6517 C   0  0  0  0  0  0  0  0  0  0  0  0
  145.4986  134.2216  151.3383 C   0  0  0  0  0  0  0  0  0  0  0  0
  150.2171  137.9368  154.4286 C   0  0  2  0  0  0  0  0  0  0  0  0
  150.9067  136.5985  154.8229 C   0  0  0  0  0  0  0  0  0  0  0  0
  150.0837  137.3685  157.4635 H   0  0  0  0  0  0  0  0  0  0  0  0
  151.2884  136.3285  158.2150 H   0  0  0  0  0  0  0  0  0  0  0  0
  150.0464  135.6255  157.1854 H   0  0  0  0  0  0  0  0  0  0  0  0
  153.0172  137.7619  157.2449 H   0  0  0  0  0  0  0  0  0  0  0  0
  153.3661  137.6052  155.5417 H   0  0  0  0  0  0  0  0  0  0  0  0
  151.1642  139.3258  156.7672 H   0  0  0  0  0  0  0  0  0  0  0  0
  152.6265  139.9134  156.0226 H   0  0  0  0  0  0  0  0  0  0  0  0
  151.9976  138.9891  153.8494 H   0  0  0  0  0  0  0  0  0  0  0  0
  149.6218  140.7548  156.0929 H   0  0  0  0  0  0  0  0  0  0  0  0
  148.9810  141.5770  154.6941 H   0  0  0  0  0  0  0  0  0  0  0  0
  147.4948  139.6883  155.4234 H   0  0  0  0  0  0  0  0  0  0  0  0
  148.0578  139.4949  153.7723 H   0  0  0  0  0  0  0  0  0  0  0  0
  147.1512  134.5528  156.8036 H   0  0  0  0  0  0  0  0  0  0  0  0
  145.1098  137.8945  151.6902 H   0  0  0  0  0  0  0  0  0  0  0  0
  143.3665  135.4901  153.7646 H   0  0  0  0  0  0  0  0  0  0  0  0
  143.4010  136.1175  152.1383 H   0  0  0  0  0  0  0  0  0  0  0  0
  143.9595  133.0733  153.9094 H   0  0  0  0  0  0  0  0  0  0  0  0
  142.3367  133.2552  152.3938 H   0  0  0  0  0  0  0  0  0  0  0  0
  142.6901  134.1398  150.9294 H   0  0  0  0  0  0  0  0  0  0  0  0
  143.8333  131.3980  151.6784 H   0  0  0  0  0  0  0  0  0  0  0  0
  142.6661  131.7478  150.4218 H   0  0  0  0  0  0  0  0  0  0  0  0
  146.1238  132.1279  151.3645 H   0  0  0  0  0  0  0  0  0  0  0  0
  146.5318  132.9813  149.8909 H   0  0  0  0  0  0  0  0  0  0  0  0
  145.2664  134.9575  150.5672 H   0  0  0  0  0  0  0  0  0  0  0  0
  146.4068  134.5726  151.8300 H   0  0  0  0  0  0  0  0  0  0  0  0
  149.9590  137.8766  153.3699 H   0  0  0  0  0  0  0  0  0  0  0  0
  151.6693  136.3817  154.0740 H   0  0  0  0  0  0  0  0  0  0  0  0
  150.2242  135.7497  154.7847 H   0  0  0  0  0  0  0  0  0  0  0  0
  152.1689  135.8003  156.1568 H   0  0  0  0  0  0  0  0  0  0  0  0
  1  2  1  0  0  0  0
  1 29  1  0  0  0  0
  1 30  1  0  0  0  0
  1 31  1  0  0  0  0
  2 28  1  0  0  0  0
  2  3  1  0  0  0  0
  2 57  1  0  0  0  0
  3  4  1  0  0  0  0
  3 32  1  0  0  0  0
  3 33  1  0  0  0  0
  4  5  1  0  0  0  0
  4 34  1  0  0  0  0
  4 35  1  0  0  0  0
  5 27  1  0  0  0  0
  5  6  1  0  0  0  0
  5 36  1  0  0  0  0
  6  7  1  0  0  0  0
  7  8  1  0  0  0  0
  7 37  1  0  0  0  0
  7 38  1  0  0  0  0
  8  9  1  0  0  0  0
  8 39  1  0  0  0  0
  8 40  1  0  0  0  0
  9 10  1  0  0  0  0
  9 27  1  0  0  0  0
 10 15  1  0  0  0  0
 10 11  2  0  0  0  0
 11 12  1  0  0  0  0
 12 13  2  0  0  0  0
 12 41  1  0  0  0  0
 13 14  1  0  0  0  0
 14 18  1  0  0  0  0
 14 15  2  0  0  0  0
 15 16  1  0  0  0  0
 16 17  2  0  0  0  0
 17 18  1  0  0  0  0
 17 42  1  0  0  0  0
 18 19  1  0  0  0  0
 19 20  1  0  0  0  0
 19 43  1  0  0  0  0
 19 44  1  0  0  0  0
 20 26  1  0  0  0  0
 20 21  1  0  0  0  0
 20 22  1  0  0  0  0
 21 45  1  0  0  0  0
 22 23  1  0  0  0  0
 22 46  1  0  0  0  0
 22 47  1  0  0  0  0
 23 24  1  0  0  0  0
 23 48  1  0  0  0  0
 23 49  1  0  0  0  0
 24 25  1  0  0  0  0
 25 26  1  0  0  0  0
 25 50  1  0  0  0  0
 25 51  1  0  0  0  0
 26 52  1  0  0  0  0
 26 53  1  0  0  0  0
 27 28  1  0  0  0  0
 27 54  1  0  0  0  0
 28 55  1  0  0  0  0
 28 56  1  0  0  0  0
M  CHG  1   2   1
M  END
> <s_m_source_file>
AV-unprocessed.smi

> <i_m_source_file_index>
244

> <i_lp_mmshare_version>
43012

> <i_f3d_flags>
0

> <s_epik_input>
W0NIMl0xW0NIMl1OKFtDSDNdKVtDSDJdW0NAQEhdKFtDQEhdMTIpTihbQ0gyXVtDSDJdTzIpYyhuW2NIXW4zKWMoYzM0KW5bY0hdbjRbQ0gyXUM1KFtPSF0pW0NIMl1bQ0gyXU9bQ0gyXVtDSDJdNQ==

> <s_epik_cmdline>
J2VwaWtfcHl0aG9uJywgJy1waCcsICc3LjAnLCAnLXRuJywgJzgnLCAnLW1hJywgJzIwMCcsICctbWV0YWxfYmluZGluZycsICctaW1hZScsICc8aW5maWxlLm1hZT4nLCAnLW9tYWUnLCAnPG91dGZpbGUubWFlPic=

> <r_lp_tautomer_probability>
1

> <r_epik_Ionization_Penalty>
0.0136215

> <r_epik_Ionization_Penalty_Charging>
0.0131385

> <r_epik_Ionization_Penalty_Neutral>
0.000483022

> <r_epik_State_Penalty>
0.0104001

> <r_epik_Charging_Adjusted_Penalty>
0.0235387

> <i_epik_Tot_Q>
1

> <i_epik_Tot_abs_Q>
1

> <r_epik_Metal_State_Penalty>
0.0104469

> <b_epik_Metal_Only>
0

> <s_lp_Force_Field>
OPLS_2005

> <r_lp_Energy>
50.9375

> <b_lp_Chiralities_Consistent>
1

> <s_lp_Variant>
AV-unprocessed.smi:244-6

> <Gold.Version>
5.8.1

> <Gold.Id.Protein>
6NUR|6NUR_protein|mol2

> <Gold.PLP.Fitness>
37.7276

> <Gold.PLP.PLP>
-30.3739

> <Gold.PLP.part.hbond>
-1.8576

> <Gold.PLP.part.metal>
0.0000

> <Gold.PLP.part.buried>
-5.0493

> <Gold.PLP.part.nonpolar>
-26.0465

> <Gold.PLP.part.repulsive>
0.9760

> <Gold.PLP.ligand.clash>
0.0000

> <Gold.PLP.ligand.torsion>
0.8961

> <Gold.PLP.Chemscore.Hbond>
2.0000

> <Gold.PLP.Chemscore.CHOScore>
1.0000

> <Gold.PLP.Chemscore.Metal>
0.0000

> <Gold.Chemscore.Hbonds>
donor molecule, donor type, donor heavy atom, donor atom, acceptor molecule, acceptor atom, score
      L1  H    21    45       P1 10957  0.99
      P1  H  7989  7998       L1     6  0.58
      L1  C    17    42       P1 10171  1.00

> <Gold.PLP.Chemscore.Internal.Correction>
0.1458

> <Gold.Rescore>
     Score         DG    S(hbond)    S(metal)    S(lipo)     H(rot)  DE(clash)    DE(int)     intcor
     11.84     -15.51       1.72        0.00      82.31       2.09       0.37       3.30       ----

> <Gold.Chemscore.Fitness>
11.8414

> <Gold.Chemscore.DG>
-15.5052

> <Gold.Chemscore.ZeroCoef>
-5.4800

> <Gold.Chemscore.Hbond>
1.7210

> <Gold.Chemscore.Metal>
0.0000

> <Gold.Chemscore.Lipo>
82.3101

> <Gold.Chemscore.Internal_Hbond>
0.0000

> <Gold.Chemscore.DEClash>
0.3658

> <Gold.Chemscore.DEInternal>
3.2980

> <Gold.Chemscore.Rot>
2.0911

> <Gold.Chemscore.Internal.Correction>
   9.000000E+99

> <Gold.Chemscore.Hbonds>
donor molecule, donor type, donor heavy atom, donor atom, acceptor molecule, acceptor atom, score
      L1  H    21    45       P1 10957  0.89
      P1  H  7989  7998       L1     6  0.10

> <Gold.Chemscore.Hbond.Weighted>
-5.7481

> <Gold.Chemscore.Metal.Weighted>
-0.0000

> <Gold.Chemscore.Lipo.Weighted>
-9.6303

> <Gold.Chemscore.Internal_Hbond.Weighted>
0.0000

> <Gold.Chemscore.DEClash.Weighted>
0.3658

> <Gold.Chemscore.DEInternal.Weighted>
3.2980

> <Gold.Chemscore.Rot.Weighted>
5.3531

> <Gold.Chemscore.Internal.Correction.Weighted>
   9.000000E+99

> <Gold.Protein.RotatedTorsions>
[ 6907 6896 6895 6894 ] final  118.93 input  -60.11 | X-H torsion
[ 7974 7965 7964 7962 ] final -139.43 input  175.53 | X-H torsion
[ 8008 7997 7996 7995 ] final -138.64 input   59.86 | X-H torsion
[ 10167 10162 10161 10158 ] final  132.51 input  -65.29 | X-H torsion
[ 10718 10713 10712 10709 ] final  -42.76 input   66.30 | X-H torsion
[ 10763 10752 10751 10750 ] final  153.97 input  -60.55 | X-H torsion
[ 11005 11000 10999 10996 ] final -159.20 input  -57.11 | X-H torsion

> <Gold.Protein.ActiveResidues>
 VAL166  LYS551  ARG553  GLY616  TRP617  ASP618  TYR619  PRO620  LYS621  CYS622 
 ASP623  PHE694  ASN695  SER759  ASP760  ASP761  ALA762  ILE779  LEU786  VAL792 
 PHE793  MET794  SER795  GLU796  ALA797  LYS798  CYS799  TRP800  GLU811  SER814 

> <Gold.Protein.RotatedAtoms>
  152.4508  133.7626  159.6754 H   0  0  0  0  0  0  0  0  0  0  0  0  # atno 6907 bound_to 6896
  150.8420  133.7911  159.3063 H   0  0  0  0  0  0  0  0  0  0  0  0  # atno 6908 bound_to 6896
  151.5533  135.1070  160.0007 H   0  0  0  0  0  0  0  0  0  0  0  0  # atno 6909 bound_to 6896
  144.8677  140.6319  143.5287 H   0  0  0  0  0  0  0  0  0  0  0  0  # atno 7974 bound_to 7965
  155.4317  140.0525  157.3018 H   0  0  0  0  0  0  0  0  0  0  0  0  # atno 8008 bound_to 7997
  154.4857  140.2099  155.9620 H   0  0  0  0  0  0  0  0  0  0  0  0  # atno 8009 bound_to 7997
  156.1271  140.3178  155.8298 H   0  0  0  0  0  0  0  0  0  0  0  0  # atno 8010 bound_to 7997
  139.5337  144.6659  151.4861 H   0  0  0  0  0  0  0  0  0  0  0  0  # atno 10167 bound_to 10162
  156.2561  130.4192  149.8594 H   0  0  0  0  0  0  0  0  0  0  0  0  # atno 10718 bound_to 10713
  154.1448  135.2818  155.3151 H   0  0  0  0  0  0  0  0  0  0  0  0  # atno 10763 bound_to 10752
  154.6261  135.5451  153.7631 H   0  0  0  0  0  0  0  0  0  0  0  0  # atno 10764 bound_to 10752
  153.0239  135.6451  154.1593 H   0  0  0  0  0  0  0  0  0  0  0  0  # atno 10765 bound_to 10752
  140.6452  134.4509  157.5234 H   0  0  0  0  0  0  0  0  0  0  0  0  # atno 11005 bound_to 11000
  145.4189  139.1567  143.4085 LP  0  0  0  0  0  0  0  0  0  0  0  0  # atno 17320 bound_to 7965
  146.2908  140.4298  142.8740 LP  0  0  0  0  0  0  0  0  0  0  0  0  # atno 17321 bound_to 7965
  140.6530  143.8657  150.6806 LP  0  0  0  0  0  0  0  0  0  0  0  0  # atno 17342 bound_to 10162
  140.2027  143.3946  152.1779 LP  0  0  0  0  0  0  0  0  0  0  0  0  # atno 17343 bound_to 10162
  156.6126  130.8593  151.3457 LP  0  0  0  0  0  0  0  0  0  0  0  0  # atno 17370 bound_to 10713
  157.7233  130.9588  150.1528 LP  0  0  0  0  0  0  0  0  0  0  0  0  # atno 17371 bound_to 10713
  139.9065  134.8437  156.1685 LP  0  0  0  0  0  0  0  0  0  0  0  0  # atno 17394 bound_to 11000
  141.0577  133.6857  156.1893 LP  0  0  0  0  0  0  0  0  0  0  0  0  # atno 17395 bound_to 11000

$$$$
