#       Name:                AV-unprocessed.smi:949
#       Creating user name   scv26
#       Creation time:       Fri Mar 27 02:15:14 2020


#       File generated by GOLD software.
#

@<TRIPOS>MOLECULE
AV-unprocessed.smi:949
    35    36     1
SMALL
NO_CHARGES


@<TRIPOS>ATOM
      1 ****        -1.4223  -1.0624   1.6199 C.3            1 S1                 0.0000
      2 ****        -0.9152  -0.4165   0.3180 C.3            1 S1                 0.0000
      3 ****         0.5423  -0.3455   0.3168 N.pl3          1 S1                 0.0000
      4 ****         1.2664   0.6451   1.0041 C.ar           1 S1                 0.0000
      5 ****         0.6350   1.6674   1.7574 C.ar           1 S1                 0.0000
      6 ****         1.4195   2.6315   2.4212 C.ar           1 S1                 0.0000
      7 ****         2.7648   2.5787   2.3370 N.pl3          1 S1                 1.0000
      8 ****         3.4138   1.6279   1.6333 C.ar           1 S1                 0.0000
      9 ****         2.6851   0.6342   0.9461 C.ar           1 S1                 0.0000
     10 ****         3.3815  -0.3379   0.2236 N.pl3          1 S1                 0.0000
     11 ****        -1.4105  -1.1962  -0.9159 C.3            1 S1                 0.0000
     12 ****        -0.9867  -0.5934  -2.2580 C.3            1 S1                 0.0000
     13 ****        -2.0640  -1.1098  -3.1829 C.3            1 S1                 0.0000
     14 ****        -3.2994  -1.0097  -2.2958 C.3            1 S1                 0.0000
     15 ****        -2.8368  -1.2013  -0.9614 O.3            1 S1                 0.0000
     16 ****        -2.5118  -1.0916   1.6475 H              1 S1                 0.0000
     17 ****        -1.0929  -0.5124   2.5012 H              1 S1                 0.0000
     18 ****        -1.0626  -2.0873   1.7181 H              1 S1                 0.0000
     19 ****        -1.3179   0.5935   0.2427 H              1 S1                 0.0000
     20 ****         1.0482  -1.0388  -0.2153 H              1 S1                 0.0000
     21 ****        -0.4389   1.7307   1.8423 H              1 S1                 0.0000
     22 ****         1.0123   3.4375   3.0142 H              1 S1                 0.0000
     23 ****         4.4923   1.6921   1.6423 H              1 S1                 0.0000
     24 ****         2.9003  -1.0674  -0.2831 H              1 S1                 0.0000
     25 ****         4.3869  -0.3092   0.1334 H              1 S1                 0.0000
     26 ****        -1.0773  -2.2346  -0.8698 H              1 S1                 0.0000
     27 ****        -1.0203   0.4966  -2.2203 H              1 S1                 0.0000
     28 ****         0.0161  -0.8945  -2.5625 H              1 S1                 0.0000
     29 ****        -2.1524  -0.5362  -4.1058 H              1 S1                 0.0000
     30 ****        -1.8681  -2.1514  -3.4419 H              1 S1                 0.0000
     31 ****        -3.7402  -0.0147  -2.3685 H              1 S1                 0.0000
     32 ****        -4.0642  -1.7395  -2.5625 H              1 S1                 0.0000
     33 ****         3.3142   3.2865   2.8250 H              1 S1                 0.0000
     34 ****        -3.1863  -0.4635  -0.3838 LP             1 S1                 0.0000
     35 ****        -3.1729  -2.0792  -0.6204 LP             1 S1                 0.0000
@<TRIPOS>BOND
    1    1    2 1     
    2    1   16 1     
    3    1   17 1     
    4    1   18 1     
    5    2    3 1     
    6    2   11 1     
    7    2   19 1     
    8    3    4 1     
    9    3   20 1     
   10    4    9 ar    
   11    4    5 ar    
   12    5    6 ar    
   13    5   21 1     
   14    6    7 ar    
   15    6   22 1     
   16    7    8 ar    
   17    7   33 1     
   18    8    9 ar    
   19    8   23 1     
   20    9   10 1     
   21   10   24 1     
   22   10   25 1     
   23   11   15 1     
   24   11   12 1     
   25   11   26 1     
   26   12   13 1     
   27   12   27 1     
   28   12   28 1     
   29   13   14 1     
   30   13   29 1     
   31   13   30 1     
   32   14   15 1     
   33   14   31 1     
   34   14   32 1     
   35   15   34 1     
   36   15   35 1     
@<TRIPOS>SUBSTRUCTURE
      1 S1             1
@<TRIPOS>SET
LONE_PAIRS      STATIC     ATOMS    <user>   **** ""
2 34 35
DONOR_HYDROGENS      STATIC     ATOMS    <user>   **** ""
4 20 33 24 25
ATOM$BLUE        STATIC     ATOMS    COLORGROUP SYSTEM
2 34 35
ATOM$RED        STATIC     ATOMS    COLORGROUP SYSTEM
4 20 33 24 25
