AV-unprocessed.smi:1610|AV-procd|sdf|6473|dock8
  -GOLD-   22720 7133D 1   1.00000     0.00000
 Structure written by MMmdl.
 44 45  0  0  0  0  0  0  0  0  3 V2000
  147.9586  136.1694  160.7722 C   0  0  0  0  0  0  0  0  0  0  0  0
  147.9308  134.9986  159.3581 S   0  0  0  0  0  0  0  0  0  0  0  0
  147.9150  133.6530  159.9545 O   0  0  0  0  0  0  0  0  0  0  0  0
  146.7735  135.3886  158.5373 O   0  0  0  0  0  0  0  0  0  0  0  0
  149.3545  135.3436  158.6603 N   0  5  0  0  0  0  0  0  0  0  0  0
  149.5370  136.5529  157.8619 C   0  0  0  0  0  0  0  0  0  0  0  0
  150.8416  136.4971  157.0085 C   0  0  0  0  0  0  0  0  0  0  0  0
  151.2887  137.8710  156.4389 C   0  0  0  0  0  0  0  0  0  0  0  0
  151.4401  138.8430  157.5389 N   0  0  0  0  0  0  0  0  0  0  0  0
  152.5890  139.1460  158.1928 C   0  0  0  0  0  0  0  0  0  0  0  0
  153.6424  138.5313  158.0194 O   0  0  0  0  0  0  0  0  0  0  0  0
  152.5058  140.2170  159.0023 N   0  0  0  0  0  0  0  0  0  0  0  0
  153.6376  140.9026  159.6237 C   0  0  0  0  0  0  0  0  0  0  0  0
  153.2028  141.7449  160.8420 C   0  0  0  0  0  0  0  0  0  0  0  0
  152.6882  143.1331  160.4896 C   0  0  0  0  0  0  0  0  0  0  0  0
  152.6501  143.5712  159.1469 C   0  0  0  0  0  0  0  0  0  0  0  0
  152.1164  144.8422  158.8475 C   0  0  0  0  0  0  0  0  0  0  0  0
  151.6373  145.6508  159.8982 C   0  0  0  0  0  0  0  0  0  0  0  0
  151.7062  145.2063  161.1712 N   0  3  0  0  0  0  0  0  0  0  0  0
  152.2124  143.9980  161.4993 C   0  0  0  0  0  0  0  0  0  0  0  0
  150.1184  139.0853  158.1393 C   0  0  0  0  0  0  0  0  0  0  0  0
  149.6077  137.7815  158.8161 C   0  0  0  0  0  0  0  0  0  0  0  0
  147.0511  136.0438  161.3619 H   0  0  0  0  0  0  0  0  0  0  0  0
  148.0072  137.1911  160.3965 H   0  0  0  0  0  0  0  0  0  0  0  0
  148.8283  135.9683  161.3966 H   0  0  0  0  0  0  0  0  0  0  0  0
  148.7010  136.7088  157.1796 H   0  0  0  0  0  0  0  0  0  0  0  0
  151.6571  136.1058  157.6122 H   0  0  0  0  0  0  0  0  0  0  0  0
  150.7140  135.7951  156.1838 H   0  0  0  0  0  0  0  0  0  0  0  0
  152.2005  137.7523  155.8534 H   0  0  0  0  0  0  0  0  0  0  0  0
  150.5530  138.2463  155.7242 H   0  0  0  0  0  0  0  0  0  0  0  0
  151.6018  140.6559  159.1014 H   0  0  0  0  0  0  0  0  0  0  0  0
  154.3707  140.1574  159.9331 H   0  0  0  0  0  0  0  0  0  0  0  0
  154.1475  141.5409  158.9006 H   0  0  0  0  0  0  0  0  0  0  0  0
  152.4219  141.2096  161.3836 H   0  0  0  0  0  0  0  0  0  0  0  0
  154.0369  141.8459  161.5370 H   0  0  0  0  0  0  0  0  0  0  0  0
  153.0048  142.9317  158.3518 H   0  0  0  0  0  0  0  0  0  0  0  0
  152.0648  145.1866  157.8252 H   0  0  0  0  0  0  0  0  0  0  0  0
  151.1990  146.6286  159.7615 H   0  0  0  0  0  0  0  0  0  0  0  0
  152.1898  143.7527  162.5512 H   0  0  0  0  0  0  0  0  0  0  0  0
  150.1470  139.8929  158.8721 H   0  0  0  0  0  0  0  0  0  0  0  0
  149.4202  139.4252  157.3713 H   0  0  0  0  0  0  0  0  0  0  0  0
  148.6259  137.9598  159.2559 H   0  0  0  0  0  0  0  0  0  0  0  0
  150.2730  137.5548  159.6513 H   0  0  0  0  0  0  0  0  0  0  0  0
  151.3418  145.8000  161.9178 H   0  0  0  0  0  0  0  0  0  0  0  0
  1  2  1  0  0  0  0
  1 23  1  0  0  0  0
  1 24  1  0  0  0  0
  1 25  1  0  0  0  0
  2  3  2  0  0  0  0
  2  4  2  0  0  0  0
  2  5  1  0  0  0  0
  5  6  1  0  0  0  0
  6 22  1  0  0  0  0
  6  7  1  0  0  0  0
  6 26  1  0  0  0  0
  7  8  1  0  0  0  0
  7 27  1  0  0  0  0
  7 28  1  0  0  0  0
  8  9  1  0  0  0  0
  8 29  1  0  0  0  0
  8 30  1  0  0  0  0
  9 10  1  0  0  0  0
  9 21  1  0  0  0  0
 10 11  2  0  0  0  0
 10 12  1  0  0  0  0
 12 13  1  0  0  0  0
 12 31  1  0  0  0  0
 13 14  1  0  0  0  0
 13 32  1  0  0  0  0
 13 33  1  0  0  0  0
 14 15  1  0  0  0  0
 14 34  1  0  0  0  0
 14 35  1  0  0  0  0
 15 20  1  0  0  0  0
 15 16  2  0  0  0  0
 16 17  1  0  0  0  0
 16 36  1  0  0  0  0
 17 18  2  0  0  0  0
 17 37  1  0  0  0  0
 18 19  1  0  0  0  0
 18 38  1  0  0  0  0
 19 20  2  0  0  0  0
 19 44  1  0  0  0  0
 20 39  1  0  0  0  0
 21 22  1  0  0  0  0
 21 40  1  0  0  0  0
 21 41  1  0  0  0  0
 22 42  1  0  0  0  0
 22 43  1  0  0  0  0
M  CHG  1   5  -1
M  CHG  1  19   1
M  END
> <s_m_source_file>
AV-unprocessed.smi

> <i_m_source_file_index>
1610

> <i_lp_mmshare_version>
43012

> <i_f3d_flags>
0

> <s_epik_input>
W0NIM11TKD1PKSg9TylbTkhdW0NIXTFbQ0gyXVtDSDJdTihbQ0gyXVtDSDJdMSlDKD1PKVtOSF1bQ0gyXVtDSDJdYzJbY0hdW2NIXVtjSF1uW2NIXTI=

> <s_epik_cmdline>
J2VwaWtfcHl0aG9uJywgJy1waCcsICc3LjAnLCAnLXRuJywgJzgnLCAnLW1hJywgJzIwMCcsICctbWV0YWxfYmluZGluZycsICctaW1hZScsICc8aW5maWxlLm1hZT4nLCAnLW9tYWUnLCAnPG91dGZpbGUubWFlPic=

> <r_epik_Ionization_Penalty>
8.91489

> <r_epik_Ionization_Penalty_Charging>
8.91482

> <r_epik_Ionization_Penalty_Neutral>
6.17235e-05

> <r_epik_State_Penalty>
9.05939

> <r_epik_Charging_Adjusted_Penalty>
17.9742

> <i_epik_Tot_Q>
0

> <i_epik_Tot_abs_Q>
2

> <r_epik_Metal_State_Penalty>
4.99481

> <b_epik_Metal_Only>
1

> <s_lp_Force_Field>
OPLS_2005

> <r_lp_Energy>
23.4301

> <b_lp_Chiralities_Consistent>
1

> <s_lp_Variant>
AV-unprocessed.smi:1610-4

> <Gold.Version>
5.8.1

> <Gold.Id.Protein>
6NUR|6NUR_protein|mol2

> <Gold.PLP.Fitness>
50.4634

> <Gold.PLP.PLP>
-42.6868

> <Gold.PLP.part.hbond>
-3.0000

> <Gold.PLP.part.metal>
0.0000

> <Gold.PLP.part.buried>
-6.8111

> <Gold.PLP.part.nonpolar>
-33.9890

> <Gold.PLP.part.repulsive>
0.2203

> <Gold.PLP.ligand.clash>
0.0000

> <Gold.PLP.ligand.torsion>
1.1558

> <Gold.PLP.Chemscore.Hbond>
2.9840

> <Gold.PLP.Chemscore.CHOScore>
0.0000

> <Gold.PLP.Chemscore.Metal>
0.0000

> <Gold.Chemscore.Hbonds>
donor molecule, donor type, donor heavy atom, donor atom, acceptor molecule, acceptor atom, score
      P1  H  6896  6909       L1     5  1.92
      P1  H  7997  8010       L1    11  0.90

> <Gold.PLP.Chemscore.Internal.Correction>
1.1362

> <Gold.Rescore>
     Score         DG    S(hbond)    S(metal)    S(lipo)     H(rot)  DE(clash)    DE(int)     intcor
     15.42     -16.61       0.88        0.00     108.70       1.77       0.07       1.13       ----

> <Gold.Chemscore.Fitness>
15.4197

> <Gold.Chemscore.DG>
-16.6137

> <Gold.Chemscore.ZeroCoef>
-5.4800

> <Gold.Chemscore.Hbond>
0.8795

> <Gold.Chemscore.Metal>
0.0000

> <Gold.Chemscore.Lipo>
108.6954

> <Gold.Chemscore.Internal_Hbond>
0.0000

> <Gold.Chemscore.DEClash>
0.0650

> <Gold.Chemscore.DEInternal>
1.1290

> <Gold.Chemscore.Rot>
1.7661

> <Gold.Chemscore.Internal.Correction>
   9.000000E+99

> <Gold.Chemscore.Hbonds>
donor molecule, donor type, donor heavy atom, donor atom, acceptor molecule, acceptor atom, score
      P1  H  6896  6909       L1     5  0.60
      P1  H  7997  8010       L1    11  0.17

> <Gold.Chemscore.Hbond.Weighted>
-2.9375

> <Gold.Chemscore.Metal.Weighted>
-0.0000

> <Gold.Chemscore.Lipo.Weighted>
-12.7174

> <Gold.Chemscore.Internal_Hbond.Weighted>
0.0000

> <Gold.Chemscore.DEClash.Weighted>
0.0650

> <Gold.Chemscore.DEInternal.Weighted>
1.1290

> <Gold.Chemscore.Rot.Weighted>
4.5211

> <Gold.Chemscore.Internal.Correction.Weighted>
   9.000000E+99

> <Gold.Protein.RotatedTorsions>
[ 6907 6896 6895 6894 ] final   25.45 input  -60.11 | X-H torsion
[ 7974 7965 7964 7962 ] final -105.92 input  175.53 | X-H torsion
[ 8008 7997 7996 7995 ] final   28.99 input   59.86 | X-H torsion
[ 10167 10162 10161 10158 ] final   41.32 input  -65.29 | X-H torsion
[ 10718 10713 10712 10709 ] final  118.47 input   66.30 | X-H torsion
[ 10763 10752 10751 10750 ] final  104.88 input  -60.55 | X-H torsion
[ 11005 11000 10999 10996 ] final   54.24 input  -57.11 | X-H torsion

> <Gold.Protein.ActiveResidues>
 VAL166  LYS551  ARG553  GLY616  TRP617  ASP618  TYR619  PRO620  LYS621  CYS622 
 ASP623  PHE694  ASN695  SER759  ASP760  ASP761  ALA762  ILE779  LEU786  VAL792 
 PHE793  MET794  SER795  GLU796  ALA797  LYS798  CYS799  TRP800  GLU811  SER814 

> <Gold.Protein.RotatedAtoms>
  151.9727  135.0068  160.0553 H   0  0  0  0  0  0  0  0  0  0  0  0  # atno 6907 bound_to 6896
  152.1768  133.4676  159.4946 H   0  0  0  0  0  0  0  0  0  0  0  0  # atno 6908 bound_to 6896
  150.6910  134.1801  159.4288 H   0  0  0  0  0  0  0  0  0  0  0  0  # atno 6909 bound_to 6896
  145.2244  140.9146  143.3241 H   0  0  0  0  0  0  0  0  0  0  0  0  # atno 7974 bound_to 7965
  155.0675  140.3196  155.4641 H   0  0  0  0  0  0  0  0  0  0  0  0  # atno 8008 bound_to 7997
  156.2798  140.2118  156.5747 H   0  0  0  0  0  0  0  0  0  0  0  0  # atno 8009 bound_to 7997
  154.7082  140.0500  157.0512 H   0  0  0  0  0  0  0  0  0  0  0  0  # atno 8010 bound_to 7997
  140.3655  144.2173  150.6135 H   0  0  0  0  0  0  0  0  0  0  0  0  # atno 10167 bound_to 10162
  157.6027  131.1048  150.7761 H   0  0  0  0  0  0  0  0  0  0  0  0  # atno 10718 bound_to 10713
  153.3719  135.3928  155.1795 H   0  0  0  0  0  0  0  0  0  0  0  0  # atno 10763 bound_to 10752
  154.8695  135.3704  154.4967 H   0  0  0  0  0  0  0  0  0  0  0  0  # atno 10764 bound_to 10752
  153.5435  135.7084  153.5686 H   0  0  0  0  0  0  0  0  0  0  0  0  # atno 10765 bound_to 10752
  140.0702  134.5480  155.9054 H   0  0  0  0  0  0  0  0  0  0  0  0  # atno 11005 bound_to 11000
  144.9735  139.3855  143.6297 LP  0  0  0  0  0  0  0  0  0  0  0  0  # atno 17320 bound_to 7965
  146.3368  139.8844  142.8819 LP  0  0  0  0  0  0  0  0  0  0  0  0  # atno 17321 bound_to 7965
  140.5085  143.2297  151.8572 LP  0  0  0  0  0  0  0  0  0  0  0  0  # atno 17342 bound_to 10162
  139.4809  144.4978  151.9101 LP  0  0  0  0  0  0  0  0  0  0  0  0  # atno 17343 bound_to 10162
  156.8156  130.4967  149.5350 LP  0  0  0  0  0  0  0  0  0  0  0  0  # atno 17370 bound_to 10713
  156.1105  130.6037  151.0040 LP  0  0  0  0  0  0  0  0  0  0  0  0  # atno 17371 bound_to 10713
  141.2009  133.6615  156.5921 LP  0  0  0  0  0  0  0  0  0  0  0  0  # atno 17394 bound_to 11000
  140.3638  134.7665  157.4552 LP  0  0  0  0  0  0  0  0  0  0  0  0  # atno 17395 bound_to 11000

$$$$
