AV-unprocessed.smi:1978|AV-procd|sdf|8007|dock5
  -GOLD-   2272010193D 1   1.00000     0.00000
 Structure written by MMmdl.
 44 45  0  0  0  0  0  0  0  0  3 V2000
  153.7666  141.6295  160.1200 C   0  0  0  0  0  0  0  0  0  0  0  0
  152.8499  141.1178  159.0619 C   0  0  0  0  0  0  0  0  0  0  0  0
  151.5976  141.4886  158.6616 C   0  0  0  0  0  0  0  0  0  0  0  0
  151.3105  140.5788  157.6074 C   0  0  0  0  0  0  0  0  0  0  0  0
  150.1871  140.5469  156.8740 N   0  5  0  0  0  0  0  0  0  0  0  0
  150.1459  139.8417  155.7207 C   0  0  0  0  0  0  0  0  0  0  0  0
  150.5560  140.2122  154.6185 O   0  0  0  0  0  0  0  0  0  0  0  0
  149.5930  138.6289  155.8524 N   0  0  0  0  0  0  0  0  0  0  0  0
  149.4030  137.6675  154.7722 C   0  0  0  0  0  0  0  0  0  0  0  0
  148.1302  136.8000  154.9708 C   0  0  1  0  0  0  0  0  0  0  0  0
  146.8845  137.5804  154.4791 C   0  0  0  0  0  0  0  0  0  0  0  0
  148.2342  135.4572  154.2988 N   0  3  2  0  0  0  0  0  0  0  0  0
  146.9545  134.6832  154.2933 C   0  0  0  0  0  0  0  0  0  0  0  0
  147.0446  133.4246  153.4142 C   0  0  0  0  0  0  0  0  0  0  0  0
  148.2040  132.5239  153.8416 C   0  0  0  0  0  0  0  0  0  0  0  0
  149.5018  133.3369  153.8473 C   0  0  0  0  0  0  0  0  0  0  0  0
  149.3944  134.6029  154.7234 C   0  0  2  0  0  0  0  0  0  0  0  0
  149.3883  134.2654  156.2312 C   0  0  0  0  0  0  0  0  0  0  0  0
  152.3073  139.7407  157.3777 N   0  0  0  0  0  0  0  0  0  0  0  0
  153.2962  140.0756  158.3104 O   0  0  0  0  0  0  0  0  0  0  0  0
  153.9759  142.6885  159.9689 H   0  0  0  0  0  0  0  0  0  0  0  0
  154.7160  141.0935  160.1124 H   0  0  0  0  0  0  0  0  0  0  0  0
  153.3198  141.5101  161.1069 H   0  0  0  0  0  0  0  0  0  0  0  0
  150.9826  142.2808  159.0612 H   0  0  0  0  0  0  0  0  0  0  0  0
  149.2720  138.3618  156.7714 H   0  0  0  0  0  0  0  0  0  0  0  0
  149.3479  138.1897  153.8153 H   0  0  0  0  0  0  0  0  0  0  0  0
  150.3084  137.0622  154.7615 H   0  0  0  0  0  0  0  0  0  0  0  0
  148.0088  136.6292  156.0414 H   0  0  0  0  0  0  0  0  0  0  0  0
  146.8493  138.5964  154.8708 H   0  0  0  0  0  0  0  0  0  0  0  0
  145.9507  137.1250  154.8040 H   0  0  0  0  0  0  0  0  0  0  0  0
  146.8685  137.6533  153.3912 H   0  0  0  0  0  0  0  0  0  0  0  0
  146.6726  134.4185  155.3127 H   0  0  0  0  0  0  0  0  0  0  0  0
  146.1355  135.2754  153.8931 H   0  0  0  0  0  0  0  0  0  0  0  0
  146.1072  132.8695  153.4620 H   0  0  0  0  0  0  0  0  0  0  0  0
  147.1758  133.7177  152.3717 H   0  0  0  0  0  0  0  0  0  0  0  0
  148.0113  132.1068  154.8303 H   0  0  0  0  0  0  0  0  0  0  0  0
  148.2935  131.6773  153.1602 H   0  0  0  0  0  0  0  0  0  0  0  0
  150.3309  132.7132  154.1835 H   0  0  0  0  0  0  0  0  0  0  0  0
  149.7419  133.6293  152.8239 H   0  0  0  0  0  0  0  0  0  0  0  0
  150.3150  135.1450  154.5143 H   0  0  0  0  0  0  0  0  0  0  0  0
  150.2523  133.6535  156.4912 H   0  0  0  0  0  0  0  0  0  0  0  0
  148.4994  133.7106  156.5295 H   0  0  0  0  0  0  0  0  0  0  0  0
  149.4393  135.1600  156.8509 H   0  0  0  0  0  0  0  0  0  0  0  0
  148.4169  135.6716  153.3289 H   0  0  0  0  0  0  0  0  0  0  0  0
  1  2  1  0  0  0  0
  1 21  1  0  0  0  0
  1 22  1  0  0  0  0
  1 23  1  0  0  0  0
  2 20  1  0  0  0  0
  2  3  2  0  0  0  0
  3  4  1  0  0  0  0
  3 24  1  0  0  0  0
  4  5  1  0  0  0  0
  4 19  2  0  0  0  0
  5  6  1  0  0  0  0
  6  7  2  0  0  0  0
  6  8  1  0  0  0  0
  8  9  1  0  0  0  0
  8 25  1  0  0  0  0
  9 10  1  0  0  0  0
  9 26  1  0  0  0  0
  9 27  1  0  0  0  0
 10 11  1  0  0  0  0
 10 12  1  0  0  0  0
 10 28  1  0  0  0  0
 11 29  1  0  0  0  0
 11 30  1  0  0  0  0
 11 31  1  0  0  0  0
 12 17  1  0  0  0  0
 12 13  1  0  0  0  0
 12 44  1  0  0  0  0
 13 14  1  0  0  0  0
 13 32  1  0  0  0  0
 13 33  1  0  0  0  0
 14 15  1  0  0  0  0
 14 34  1  0  0  0  0
 14 35  1  0  0  0  0
 15 16  1  0  0  0  0
 15 36  1  0  0  0  0
 15 37  1  0  0  0  0
 16 17  1  0  0  0  0
 16 38  1  0  0  0  0
 16 39  1  0  0  0  0
 17 18  1  0  0  0  0
 17 40  1  0  0  0  0
 18 41  1  0  0  0  0
 18 42  1  0  0  0  0
 18 43  1  0  0  0  0
 19 20  1  0  0  0  0
M  CHG  1   5  -1
M  CHG  1  12   1
M  END
> <s_m_source_file>
AV-unprocessed.smi

> <i_m_source_file_index>
1978

> <i_lp_mmshare_version>
43012

> <i_f3d_flags>
0

> <s_epik_input>
W0NIM11jMVtjSF1jKG5vMSlbTkhdQyg9TylbTkhdW0NIMl1bQ0BIXShbQ0gzXSlOMltDSDJdW0NIMl1bQ0gyXVtDSDJdW0NASF0yW0NIM10=

> <s_epik_cmdline>
J2VwaWtfcHl0aG9uJywgJy1waCcsICc3LjAnLCAnLXRuJywgJzgnLCAnLW1hJywgJzIwMCcsICctbWV0YWxfYmluZGluZycsICctaW1hZScsICc8aW5maWxlLm1hZT4nLCAnLW9tYWUnLCAnPG91dGZpbGUubWFlPic=

> <r_epik_Ionization_Penalty>
6.22372

> <r_epik_Ionization_Penalty_Charging>
6.22362

> <r_epik_Ionization_Penalty_Neutral>
9.65074e-05

> <r_epik_State_Penalty>
6.22363

> <r_epik_Charging_Adjusted_Penalty>
12.4472

> <i_epik_Tot_Q>
0

> <i_epik_Tot_abs_Q>
2

> <r_epik_Metal_State_Penalty>
2.16675

> <b_epik_Metal_Only>
1

> <s_lp_Force_Field>
OPLS_2005

> <r_lp_Energy>
15.9266

> <b_lp_Chiralities_Consistent>
1

> <s_lp_Variant>
AV-unprocessed.smi:1978-16

> <Gold.Version>
5.8.1

> <Gold.Id.Protein>
6NUR|6NUR_protein|mol2

> <Gold.PLP.Fitness>
36.3137

> <Gold.PLP.PLP>
-26.8968

> <Gold.PLP.part.hbond>
-3.5852

> <Gold.PLP.part.metal>
0.0000

> <Gold.PLP.part.buried>
-3.2118

> <Gold.PLP.part.nonpolar>
-20.2215

> <Gold.PLP.part.repulsive>
0.0969

> <Gold.PLP.ligand.clash>
0.0000

> <Gold.PLP.ligand.torsion>
1.2880

> <Gold.PLP.Chemscore.Hbond>
3.9500

> <Gold.PLP.Chemscore.CHOScore>
0.0000

> <Gold.PLP.Chemscore.Metal>
0.0000

> <Gold.Chemscore.Hbonds>
donor molecule, donor type, donor heavy atom, donor atom, acceptor molecule, acceptor atom, score
      L1  H    12    44       P1  7948  2.00
      P1  H  7989  7998       L1     7  1.00
      P1  H  7997  8008       L1    20  0.87

> <Gold.PLP.Chemscore.Internal.Correction>
0.1429

> <Gold.Rescore>
     Score         DG    S(hbond)    S(metal)    S(lipo)     H(rot)  DE(clash)    DE(int)     intcor
     16.13     -17.56       2.68        0.00      60.10       1.52       0.16       1.27       ----

> <Gold.Chemscore.Fitness>
16.1343

> <Gold.Chemscore.DG>
-17.5649

> <Gold.Chemscore.ZeroCoef>
-5.4800

> <Gold.Chemscore.Hbond>
2.6771

> <Gold.Chemscore.Metal>
0.0000

> <Gold.Chemscore.Lipo>
60.1025

> <Gold.Chemscore.Internal_Hbond>
0.0000

> <Gold.Chemscore.DEClash>
0.1596

> <Gold.Chemscore.DEInternal>
1.2710

> <Gold.Chemscore.Rot>
1.5190

> <Gold.Chemscore.Internal.Correction>
   9.000000E+99

> <Gold.Chemscore.Hbonds>
donor molecule, donor type, donor heavy atom, donor atom, acceptor molecule, acceptor atom, score
      L1  H    12    44       P1  7948  1.00
      P1  H  7989  7998       L1     7  1.00
      P1  H  7997  8008       L1    20  0.19

> <Gold.Chemscore.Hbond.Weighted>
-8.9416

> <Gold.Chemscore.Metal.Weighted>
-0.0000

> <Gold.Chemscore.Lipo.Weighted>
-7.0320

> <Gold.Chemscore.Internal_Hbond.Weighted>
0.0000

> <Gold.Chemscore.DEClash.Weighted>
0.1596

> <Gold.Chemscore.DEInternal.Weighted>
1.2710

> <Gold.Chemscore.Rot.Weighted>
3.8886

> <Gold.Chemscore.Internal.Correction.Weighted>
   9.000000E+99

> <Gold.Protein.RotatedTorsions>
[ 6907 6896 6895 6894 ] final -168.54 input  -60.11 | X-H torsion
[ 7974 7965 7964 7962 ] final   11.76 input  175.53 | X-H torsion
[ 8008 7997 7996 7995 ] final -100.66 input   59.86 | X-H torsion
[ 10167 10162 10161 10158 ] final   11.30 input  -65.29 | X-H torsion
[ 10718 10713 10712 10709 ] final  151.73 input   66.30 | X-H torsion
[ 10763 10752 10751 10750 ] final  151.92 input  -60.55 | X-H torsion
[ 11005 11000 10999 10996 ] final -173.53 input  -57.11 | X-H torsion

> <Gold.Protein.ActiveResidues>
 VAL166  LYS551  ARG553  GLY616  TRP617  ASP618  TYR619  PRO620  LYS621  CYS622 
 ASP623  PHE694  ASN695  SER759  ASP760  ASP761  ALA762  ILE779  LEU786  VAL792 
 PHE793  MET794  SER795  GLU796  ALA797  LYS798  CYS799  TRP800  GLU811  SER814 

> <Gold.Protein.RotatedAtoms>
  151.4773  133.3555  159.2832 H   0  0  0  0  0  0  0  0  0  0  0  0  # atno 6907 bound_to 6896
  150.8921  134.8327  159.7311 H   0  0  0  0  0  0  0  0  0  0  0  0  # atno 6908 bound_to 6896
  152.4829  134.4683  159.9679 H   0  0  0  0  0  0  0  0  0  0  0  0  # atno 6909 bound_to 6896
  146.2365  139.9438  142.8479 H   0  0  0  0  0  0  0  0  0  0  0  0  # atno 7974 bound_to 7965
  154.8318  140.0439  157.1482 H   0  0  0  0  0  0  0  0  0  0  0  0  # atno 8008 bound_to 7997
  154.9144  140.3018  155.5229 H   0  0  0  0  0  0  0  0  0  0  0  0  # atno 8009 bound_to 7997
  156.2987  140.2352  156.4187 H   0  0  0  0  0  0  0  0  0  0  0  0  # atno 8010 bound_to 7997
  140.6140  143.8346  150.7098 H   0  0  0  0  0  0  0  0  0  0  0  0  # atno 10167 bound_to 10162
  157.2669  131.0809  151.1627 H   0  0  0  0  0  0  0  0  0  0  0  0  # atno 10718 bound_to 10713
  154.1116  135.2839  155.3229 H   0  0  0  0  0  0  0  0  0  0  0  0  # atno 10763 bound_to 10752
  154.6486  135.5377  153.7877 H   0  0  0  0  0  0  0  0  0  0  0  0  # atno 10764 bound_to 10752
  153.0343  135.6504  154.1274 H   0  0  0  0  0  0  0  0  0  0  0  0  # atno 10765 bound_to 10752
  140.4847  134.6042  157.4932 H   0  0  0  0  0  0  0  0  0  0  0  0  # atno 11005 bound_to 11000
  145.1927  140.9819  143.4201 LP  0  0  0  0  0  0  0  0  0  0  0  0  # atno 17320 bound_to 7965
  144.9843  139.3752  143.6246 LP  0  0  0  0  0  0  0  0  0  0  0  0  # atno 17321 bound_to 7965
  140.1921  143.4027  152.1855 LP  0  0  0  0  0  0  0  0  0  0  0  0  # atno 17342 bound_to 10162
  139.5384  144.7232  151.4816 LP  0  0  0  0  0  0  0  0  0  0  0  0  # atno 17343 bound_to 10162
  157.3114  130.6892  149.6218 LP  0  0  0  0  0  0  0  0  0  0  0  0  # atno 17370 bound_to 10713
  155.9663  130.4362  150.5125 LP  0  0  0  0  0  0  0  0  0  0  0  0  # atno 17371 bound_to 10713
  139.9805  134.7145  155.9869 LP  0  0  0  0  0  0  0  0  0  0  0  0  # atno 17394 bound_to 11000
  141.1514  133.6548  156.4024 LP  0  0  0  0  0  0  0  0  0  0  0  0  # atno 17395 bound_to 11000

$$$$
