AV-unprocessed.smi:1859|AV-procd|sdf|7546|dock8
  -GOLD-   22720 9263D 1   1.00000     0.00000
 Structure written by MMmdl.
 46 48  0  0  0  0  0  0  0  0  2 V2000
  148.2383  138.8017  153.7469 O   0  0  0  0  0  0  0  0  0  0  0  0
  147.2030  139.4247  153.5088 C   0  0  0  0  0  0  0  0  0  0  0  0
  146.0701  138.8252  153.1121 N   0  0  0  0  0  0  0  0  0  0  0  0
  145.9296  137.3962  152.8626 C   0  0  0  0  0  0  0  0  0  0  0  0
  145.6683  137.1096  151.3738 C   0  0  0  0  0  0  0  0  0  0  0  0
  145.5599  135.6251  151.0887 C   0  0  0  0  0  0  0  0  0  0  0  0
  144.4270  135.0585  150.4654 C   0  0  0  0  0  0  0  0  0  0  0  0
  144.3888  133.6662  150.2414 C   0  0  0  0  0  0  0  0  0  0  0  0
  145.4820  132.8718  150.6452 C   0  0  0  0  0  0  0  0  0  0  0  0
  146.5879  133.4905  151.2635 C   0  0  0  0  0  0  0  0  0  0  0  0
  146.5867  134.8271  151.4610 N   0  3  0  0  0  0  0  0  0  0  0  0
  147.1506  140.9583  153.6426 C   0  0  1  0  0  0  0  0  0  0  0  0
  146.2313  141.4356  154.7975 C   0  0  0  0  0  0  0  0  0  0  0  0
  146.8915  141.3544  156.1921 C   0  0  0  0  0  0  0  0  0  0  0  0
  148.3061  141.9602  156.1784 C   0  0  0  0  0  0  0  0  0  0  0  0
  149.0995  141.2881  155.1392 N   0  0  0  0  0  0  0  0  0  0  0  0
  150.0981  140.3943  155.3522 C   0  0  0  0  0  0  0  0  0  0  0  0
  150.6566  139.7994  154.4287 O   0  0  0  0  0  0  0  0  0  0  0  0
  150.5074  140.1564  156.7713 C   0  0  0  0  0  0  0  0  0  0  0  0
  150.9359  141.3531  157.6008 C   0  0  0  0  0  0  0  0  0  0  0  0
  151.9682  140.3739  157.1077 C   0  0  0  0  0  0  0  0  0  0  0  0
  148.5640  141.5713  153.7995 C   0  0  0  0  0  0  0  0  0  0  0  0
  145.2597  139.4034  152.9419 H   0  0  0  0  0  0  0  0  0  0  0  0
  146.8220  136.8703  153.2064 H   0  0  0  0  0  0  0  0  0  0  0  0
  145.0992  137.0251  153.4639 H   0  0  0  0  0  0  0  0  0  0  0  0
  144.7506  137.6047  151.0536 H   0  0  0  0  0  0  0  0  0  0  0  0
  146.4694  137.5234  150.7592 H   0  0  0  0  0  0  0  0  0  0  0  0
  143.5961  135.6802  150.1646 H   0  0  0  0  0  0  0  0  0  0  0  0
  143.5302  133.2132  149.7674 H   0  0  0  0  0  0  0  0  0  0  0  0
  145.4720  131.8038  150.4839 H   0  0  0  0  0  0  0  0  0  0  0  0
  147.4659  132.9615  151.6046 H   0  0  0  0  0  0  0  0  0  0  0  0
  146.7230  141.3385  152.7134 H   0  0  0  0  0  0  0  0  0  0  0  0
  145.9568  142.4739  154.6077 H   0  0  0  0  0  0  0  0  0  0  0  0
  145.2934  140.8785  154.7980 H   0  0  0  0  0  0  0  0  0  0  0  0
  146.2717  141.8738  156.9232 H   0  0  0  0  0  0  0  0  0  0  0  0
  146.9437  140.3178  156.5253 H   0  0  0  0  0  0  0  0  0  0  0  0
  148.2508  143.0262  155.9530 H   0  0  0  0  0  0  0  0  0  0  0  0
  148.7401  141.9000  157.1750 H   0  0  0  0  0  0  0  0  0  0  0  0
  149.9660  139.3789  157.3072 H   0  0  0  0  0  0  0  0  0  0  0  0
  150.9349  142.3414  157.1450 H   0  0  0  0  0  0  0  0  0  0  0  0
  150.6819  141.3362  158.6586 H   0  0  0  0  0  0  0  0  0  0  0  0
  152.4145  139.6901  157.8266 H   0  0  0  0  0  0  0  0  0  0  0  0
  152.6333  140.7049  156.3116 H   0  0  0  0  0  0  0  0  0  0  0  0
  149.2204  141.2178  153.0025 H   0  0  0  0  0  0  0  0  0  0  0  0
  148.5112  142.6523  153.6610 H   0  0  0  0  0  0  0  0  0  0  0  0
  147.3965  135.2546  151.9112 H   0  0  0  0  0  0  0  0  0  0  0  0
  1  2  2  0  0  0  0
  2  3  1  0  0  0  0
  2 12  1  0  0  0  0
  3  4  1  0  0  0  0
  3 23  1  0  0  0  0
  4  5  1  0  0  0  0
  4 24  1  0  0  0  0
  4 25  1  0  0  0  0
  5  6  1  0  0  0  0
  5 26  1  0  0  0  0
  5 27  1  0  0  0  0
  6 11  1  0  0  0  0
  6  7  2  0  0  0  0
  7  8  1  0  0  0  0
  7 28  1  0  0  0  0
  8  9  2  0  0  0  0
  8 29  1  0  0  0  0
  9 10  1  0  0  0  0
  9 30  1  0  0  0  0
 10 11  2  0  0  0  0
 10 31  1  0  0  0  0
 11 46  1  0  0  0  0
 12 22  1  0  0  0  0
 12 13  1  0  0  0  0
 12 32  1  0  0  0  0
 13 14  1  0  0  0  0
 13 33  1  0  0  0  0
 13 34  1  0  0  0  0
 14 15  1  0  0  0  0
 14 35  1  0  0  0  0
 14 36  1  0  0  0  0
 15 16  1  0  0  0  0
 15 37  1  0  0  0  0
 15 38  1  0  0  0  0
 16 17  1  0  0  0  0
 16 22  1  0  0  0  0
 17 18  2  0  0  0  0
 17 19  1  0  0  0  0
 19 21  1  0  0  0  0
 19 20  1  0  0  0  0
 19 39  1  0  0  0  0
 20 21  1  0  0  0  0
 20 40  1  0  0  0  0
 20 41  1  0  0  0  0
 21 42  1  0  0  0  0
 21 43  1  0  0  0  0
 22 44  1  0  0  0  0
 22 45  1  0  0  0  0
M  CHG  1  11   1
M  END
> <s_m_source_file>
AV-unprocessed.smi

> <i_m_source_file_index>
1859

> <i_lp_mmshare_version>
43012

> <i_f3d_flags>
0

> <s_epik_input>
W0NIMl0xW0NIMl1bQ0hdMUMoPU8pTihbQ0gyXTIpW0NIMl1bQ0gyXVtDSDJdW0NASF0yQyg9TylbTkhdW0NIMl1bQ0gyXWMzW2NIXVtjSF1bY0hdW2NIXW4z

> <s_epik_cmdline>
J2VwaWtfcHl0aG9uJywgJy1waCcsICc3LjAnLCAnLXRuJywgJzgnLCAnLW1hJywgJzIwMCcsICctbWV0YWxfYmluZGluZycsICctaW1hZScsICc8aW5maWxlLm1hZT4nLCAnLW9tYWUnLCAnPG91dGZpbGUubWFlPic=

> <r_epik_Ionization_Penalty>
1.84754

> <r_epik_Ionization_Penalty_Charging>
1.84754

> <r_epik_Ionization_Penalty_Neutral>
7.35743e-08

> <r_epik_State_Penalty>
1.96477

> <r_epik_Charging_Adjusted_Penalty>
3.81231

> <i_epik_Tot_Q>
1

> <i_epik_Tot_abs_Q>
1

> <r_epik_Metal_State_Penalty>
1.99062

> <b_epik_Metal_Only>
0

> <s_lp_Force_Field>
OPLS_2005

> <r_lp_Energy>
29.7098

> <b_lp_Chiralities_Consistent>
1

> <s_lp_Variant>
AV-unprocessed.smi:1859-4

> <Gold.Version>
5.8.1

> <Gold.Id.Protein>
6NUR|6NUR_protein|mol2

> <Gold.PLP.Fitness>
47.8643

> <Gold.PLP.PLP>
-36.2720

> <Gold.PLP.part.hbond>
-3.0000

> <Gold.PLP.part.metal>
0.0000

> <Gold.PLP.part.buried>
0.6284

> <Gold.PLP.part.nonpolar>
-35.1271

> <Gold.PLP.part.repulsive>
0.3998

> <Gold.PLP.ligand.clash>
0.0000

> <Gold.PLP.ligand.torsion>
0.2652

> <Gold.PLP.Chemscore.Hbond>
4.0000

> <Gold.PLP.Chemscore.CHOScore>
0.0000

> <Gold.PLP.Chemscore.Metal>
0.0000

> <Gold.Chemscore.Hbonds>
donor molecule, donor type, donor heavy atom, donor atom, acceptor molecule, acceptor atom, score
      L1  H     3    23       P1 10175  1.00
      L1  H    11    46       P1  7948  2.00
      P1  H  7989  7998       L1    18  1.00

> <Gold.PLP.Chemscore.Internal.Correction>
0.1226

> <Gold.Rescore>
     Score         DG    S(hbond)    S(metal)    S(lipo)     H(rot)  DE(clash)    DE(int)     intcor
     15.72     -21.08       2.88        0.00      88.31       1.70       1.40       3.97       ----

> <Gold.Chemscore.Fitness>
15.7213

> <Gold.Chemscore.DG>
-21.0831

> <Gold.Chemscore.ZeroCoef>
-5.4800

> <Gold.Chemscore.Hbond>
2.8796

> <Gold.Chemscore.Metal>
0.0000

> <Gold.Chemscore.Lipo>
88.3080

> <Gold.Chemscore.Internal_Hbond>
0.0000

> <Gold.Chemscore.DEClash>
1.3960

> <Gold.Chemscore.DEInternal>
3.9659

> <Gold.Chemscore.Rot>
1.6980

> <Gold.Chemscore.Internal.Correction>
   9.000000E+99

> <Gold.Chemscore.Hbonds>
donor molecule, donor type, donor heavy atom, donor atom, acceptor molecule, acceptor atom, score
      L1  H     3    23       P1 10175  0.99
      L1  H    11    46       P1  7948  0.93
      P1  H  7989  7998       L1    18  0.82

> <Gold.Chemscore.Hbond.Weighted>
-9.6180

> <Gold.Chemscore.Metal.Weighted>
-0.0000

> <Gold.Chemscore.Lipo.Weighted>
-10.3320

> <Gold.Chemscore.Internal_Hbond.Weighted>
0.0000

> <Gold.Chemscore.DEClash.Weighted>
1.3960

> <Gold.Chemscore.DEInternal.Weighted>
3.9659

> <Gold.Chemscore.Rot.Weighted>
4.3469

> <Gold.Chemscore.Internal.Correction.Weighted>
   9.000000E+99

> <Gold.Protein.RotatedTorsions>
[ 6907 6896 6895 6894 ] final  125.81 input  -60.11 | X-H torsion
[ 7974 7965 7964 7962 ] final   79.10 input  175.53 | X-H torsion
[ 8008 7997 7996 7995 ] final  124.88 input   59.86 | X-H torsion
[ 10167 10162 10161 10158 ] final  142.40 input  -65.29 | X-H torsion
[ 10718 10713 10712 10709 ] final  -17.42 input   66.30 | X-H torsion
[ 10763 10752 10751 10750 ] final -160.05 input  -60.55 | X-H torsion
[ 11005 11000 10999 10996 ] final   39.88 input  -57.11 | X-H torsion

> <Gold.Protein.ActiveResidues>
 VAL166  LYS551  ARG553  GLY616  TRP617  ASP618  TYR619  PRO620  LYS621  CYS622 
 ASP623  PHE694  ASN695  SER759  ASP760  ASP761  ALA762  ILE779  LEU786  VAL792 
 PHE793  MET794  SER795  GLU796  ALA797  LYS798  CYS799  TRP800  GLU811  SER814 

> <Gold.Protein.RotatedAtoms>
  152.3959  133.6746  159.6275 H   0  0  0  0  0  0  0  0  0  0  0  0  # atno 6907 bound_to 6896
  150.7858  133.8875  159.3312 H   0  0  0  0  0  0  0  0  0  0  0  0  # atno 6908 bound_to 6896
  151.6652  135.0985  160.0238 H   0  0  0  0  0  0  0  0  0  0  0  0  # atno 6909 bound_to 6896
  145.6686  139.2490  143.1881 H   0  0  0  0  0  0  0  0  0  0  0  0  # atno 7974 bound_to 7965
  156.2816  140.2729  156.1859 H   0  0  0  0  0  0  0  0  0  0  0  0  # atno 8008 bound_to 7997
  155.0508  140.0386  157.2561 H   0  0  0  0  0  0  0  0  0  0  0  0  # atno 8009 bound_to 7997
  154.7196  140.2685  155.6559 H   0  0  0  0  0  0  0  0  0  0  0  0  # atno 8010 bound_to 7997
  139.4995  144.6109  151.6273 H   0  0  0  0  0  0  0  0  0  0  0  0  # atno 10167 bound_to 10162
  156.5738  130.4756  149.6351 H   0  0  0  0  0  0  0  0  0  0  0  0  # atno 10718 bound_to 10713
  154.7423  135.3071  154.8706 H   0  0  0  0  0  0  0  0  0  0  0  0  # atno 10763 bound_to 10752
  153.9517  135.6763  153.4748 H   0  0  0  0  0  0  0  0  0  0  0  0  # atno 10764 bound_to 10752
  153.1021  135.4907  154.8811 H   0  0  0  0  0  0  0  0  0  0  0  0  # atno 10765 bound_to 10752
  140.1985  134.3899  155.8108 H   0  0  0  0  0  0  0  0  0  0  0  0  # atno 11005 bound_to 11000
  146.1065  140.7481  142.9524 LP  0  0  0  0  0  0  0  0  0  0  0  0  # atno 17320 bound_to 7965
  144.7064  140.3870  143.7114 LP  0  0  0  0  0  0  0  0  0  0  0  0  # atno 17321 bound_to 7965
  140.5784  143.9989  150.6254 LP  0  0  0  0  0  0  0  0  0  0  0  0  # atno 17342 bound_to 10162
  140.3129  143.3186  152.0860 LP  0  0  0  0  0  0  0  0  0  0  0  0  # atno 17343 bound_to 10162
  156.2691  130.7006  151.1798 LP  0  0  0  0  0  0  0  0  0  0  0  0  # atno 17370 bound_to 10713
  157.7342  131.0584  150.5536 LP  0  0  0  0  0  0  0  0  0  0  0  0  # atno 17371 bound_to 10713
  141.2227  133.7082  156.8217 LP  0  0  0  0  0  0  0  0  0  0  0  0  # atno 17394 bound_to 11000
  140.2080  134.8848  157.3243 LP  0  0  0  0  0  0  0  0  0  0  0  0  # atno 17395 bound_to 11000

$$$$
