AV-unprocessed.smi:1683|AV-procd|sdf|6747|dock5
  -GOLD-   22720 7503D 1   1.00000     0.00000
 Structure written by MMmdl.
 36 37  0  0  0  0  0  0  0  0  1 V2000
  145.7795  133.3228  153.8289 O   0  0  0  0  0  0  0  0  0  0  0  0
  146.5918  134.0617  153.2716 C   0  0  0  0  0  0  0  0  0  0  0  0
  147.7986  134.3550  153.7771 N   0  0  0  0  0  0  0  0  0  0  0  0
  148.3357  133.8489  155.0367 C   0  0  0  0  0  0  0  0  0  0  0  0
  149.7594  134.3714  155.3055 C   0  0  2  0  0  0  0  0  0  0  0  0
  150.2165  134.1927  156.7541 C   0  0  0  0  0  0  0  0  0  0  0  0
  150.8400  135.5370  157.1416 C   0  0  0  0  0  0  0  0  0  0  0  0
  151.1142  136.1922  155.8681 N   0  0  0  0  0  0  0  0  0  0  0  0
  151.2926  137.6385  155.9822 C   0  0  0  0  0  0  0  0  0  0  0  0
  152.0370  138.2543  154.7811 C   0  0  0  0  0  0  0  0  0  0  0  0
  152.3013  139.5314  155.0545 F   0  0  0  0  0  0  0  0  0  0  0  0
  153.1926  137.6320  154.5487 F   0  0  0  0  0  0  0  0  0  0  0  0
  151.2794  138.2040  153.6850 F   0  0  0  0  0  0  0  0  0  0  0  0
  149.9474  135.8706  155.0595 C   0  0  0  0  0  0  0  0  0  0  0  0
  146.3926  134.6793  152.0956 N   0  0  0  0  0  0  0  0  0  0  0  0
  145.2522  134.5885  151.2575 C   0  0  0  0  0  0  0  0  0  0  0  0
  144.5259  133.3928  151.0060 C   0  0  0  0  0  0  0  0  0  0  0  0
  143.5054  133.6093  150.1884 N   0  0  0  0  0  0  0  0  0  0  0  0
  143.5730  134.9321  149.9162 N   0  0  0  0  0  0  0  0  0  0  0  0
  144.6200  135.5689  150.5453 C   0  0  0  0  0  0  0  0  0  0  0  0
  142.9039  135.3811  149.3069 H   0  0  0  0  0  0  0  0  0  0  0  0
  148.3950  134.9749  153.2485 H   0  0  0  0  0  0  0  0  0  0  0  0
  147.6749  134.0924  155.8706 H   0  0  0  0  0  0  0  0  0  0  0  0
  148.3544  132.7606  154.9733 H   0  0  0  0  0  0  0  0  0  0  0  0
  150.4590  133.8331  154.6633 H   0  0  0  0  0  0  0  0  0  0  0  0
  149.3926  133.9492  157.4258 H   0  0  0  0  0  0  0  0  0  0  0  0
  150.9474  133.3863  156.8249 H   0  0  0  0  0  0  0  0  0  0  0  0
  150.1220  136.1237  157.7174 H   0  0  0  0  0  0  0  0  0  0  0  0
  151.7415  135.4128  157.7418 H   0  0  0  0  0  0  0  0  0  0  0  0
  150.3018  138.0919  156.0360 H   0  0  0  0  0  0  0  0  0  0  0  0
  151.7996  137.8884  156.9154 H   0  0  0  0  0  0  0  0  0  0  0  0
  150.1045  136.1055  154.0062 H   0  0  0  0  0  0  0  0  0  0  0  0
  149.0785  136.4294  155.4124 H   0  0  0  0  0  0  0  0  0  0  0  0
  147.1385  135.2708  151.7594 H   0  0  0  0  0  0  0  0  0  0  0  0
  144.7010  132.3956  151.3821 H   0  0  0  0  0  0  0  0  0  0  0  0
  144.8072  136.6264  150.4301 H   0  0  0  0  0  0  0  0  0  0  0  0
  1  2  2  0  0  0  0
  2  3  1  0  0  0  0
  2 15  1  0  0  0  0
  3  4  1  0  0  0  0
  3 22  1  0  0  0  0
  4  5  1  0  0  0  0
  4 23  1  0  0  0  0
  4 24  1  0  0  0  0
  5 14  1  0  0  0  0
  5  6  1  0  0  0  0
  5 25  1  0  0  0  0
  6  7  1  0  0  0  0
  6 26  1  0  0  0  0
  6 27  1  0  0  0  0
  7  8  1  0  0  0  0
  7 28  1  0  0  0  0
  7 29  1  0  0  0  0
  8  9  1  0  0  0  0
  8 14  1  0  0  0  0
  9 10  1  0  0  0  0
  9 30  1  0  0  0  0
  9 31  1  0  0  0  0
 10 11  1  0  0  0  0
 10 12  1  0  0  0  0
 10 13  1  0  0  0  0
 14 32  1  0  0  0  0
 14 33  1  0  0  0  0
 15 16  1  0  0  0  0
 15 34  1  0  0  0  0
 16 20  2  0  0  0  0
 16 17  1  0  0  0  0
 17 18  2  0  0  0  0
 17 35  1  0  0  0  0
 18 19  1  0  0  0  0
 19 21  1  0  0  0  0
 19 20  1  0  0  0  0
 20 36  1  0  0  0  0
M  END
> <s_m_source_file>
AV-unprocessed.smi

> <i_m_source_file_index>
1683

> <i_lp_mmshare_version>
43012

> <i_f3d_flags>
0

> <s_epik_input>
W2NIXTFbbkhdbltjSF1jMVtOSF1DKD1PKVtOSF1bQ0gyXVtDQEBIXTJbQ0gyXVtDSDJdTihbQ0gyXTIpW0NIMl1DKEYpKEYpRg==

> <s_epik_cmdline>
J2VwaWtfcHl0aG9uJywgJy1waCcsICc3LjAnLCAnLXRuJywgJzgnLCAnLW1hJywgJzIwMCcsICctbWV0YWxfYmluZGluZycsICctaW1hZScsICc8aW5maWxlLm1hZT4nLCAnLW9tYWUnLCAnPG91dGZpbGUubWFlPic=

> <r_lp_tautomer_probability>
0.5

> <r_epik_Ionization_Penalty>
0.244885

> <r_epik_Ionization_Penalty_Charging>
0

> <r_epik_Ionization_Penalty_Neutral>
0.244885

> <r_epik_State_Penalty>
0.235951

> <r_epik_Charging_Adjusted_Penalty>
0.235951

> <i_epik_Tot_Q>
0

> <i_epik_Tot_abs_Q>
0

> <r_epik_Metal_State_Penalty>
0.23595

> <b_epik_Metal_Only>
0

> <s_lp_Force_Field>
OPLS_2005

> <r_lp_Energy>
32.4259

> <b_lp_Chiralities_Consistent>
1

> <s_lp_Variant>
AV-unprocessed.smi:1683-1

> <Gold.Version>
5.8.1

> <Gold.Id.Protein>
6NUR|6NUR_protein|mol2

> <Gold.PLP.Fitness>
46.2199

> <Gold.PLP.PLP>
-33.8594

> <Gold.PLP.part.hbond>
-4.5089

> <Gold.PLP.part.metal>
0.0000

> <Gold.PLP.part.buried>
-3.0853

> <Gold.PLP.part.nonpolar>
-25.1519

> <Gold.PLP.part.repulsive>
0.5249

> <Gold.PLP.ligand.clash>
0.0000

> <Gold.PLP.ligand.torsion>
0.6846

> <Gold.PLP.Chemscore.Hbond>
3.5593

> <Gold.PLP.Chemscore.CHOScore>
0.8640

> <Gold.PLP.Chemscore.Metal>
0.0000

> <Gold.Chemscore.Hbonds>
donor molecule, donor type, donor heavy atom, donor atom, acceptor molecule, acceptor atom, score
      L1  H     3    22       P1  7948  1.00
      L1  H    15    34       P1  7948  1.00
      L1  H    19    21       P1 10186  0.15
      P1  H 10752 10763       L1     8  0.32
      L1  C    20    36       P1 10171  1.00

> <Gold.PLP.Chemscore.Internal.Correction>
0.4598

> <Gold.Rescore>
     Score         DG    S(hbond)    S(metal)    S(lipo)     H(rot)  DE(clash)    DE(int)     intcor
     13.29     -14.21       2.18        0.00      51.23       1.78       0.02       0.91       ----

> <Gold.Chemscore.Fitness>
13.2865

> <Gold.Chemscore.DG>
-14.2122

> <Gold.Chemscore.ZeroCoef>
-5.4800

> <Gold.Chemscore.Hbond>
2.1837

> <Gold.Chemscore.Metal>
0.0000

> <Gold.Chemscore.Lipo>
51.2274

> <Gold.Chemscore.Internal_Hbond>
0.0000

> <Gold.Chemscore.DEClash>
0.0170

> <Gold.Chemscore.DEInternal>
0.9086

> <Gold.Chemscore.Rot>
1.7793

> <Gold.Chemscore.Internal.Correction>
   9.000000E+99

> <Gold.Chemscore.Hbonds>
donor molecule, donor type, donor heavy atom, donor atom, acceptor molecule, acceptor atom, score
      L1  H     3    22       P1  7948  0.81
      L1  H    15    34       P1  7948  0.92
      L1  H    19    21       P1 10186  0.06
      P1  H 10752 10763       L1     8  0.06

> <Gold.Chemscore.Hbond.Weighted>
-7.2937

> <Gold.Chemscore.Metal.Weighted>
-0.0000

> <Gold.Chemscore.Lipo.Weighted>
-5.9936

> <Gold.Chemscore.Internal_Hbond.Weighted>
0.0000

> <Gold.Chemscore.DEClash.Weighted>
0.0170

> <Gold.Chemscore.DEInternal.Weighted>
0.9086

> <Gold.Chemscore.Rot.Weighted>
4.5551

> <Gold.Chemscore.Internal.Correction.Weighted>
   9.000000E+99

> <Gold.Protein.RotatedTorsions>
[ 6907 6896 6895 6894 ] final   61.19 input  -60.11 | X-H torsion
[ 7974 7965 7964 7962 ] final  -90.94 input  175.53 | X-H torsion
[ 8008 7997 7996 7995 ] final  -10.21 input   59.86 | X-H torsion
[ 10167 10162 10161 10158 ] final -150.19 input  -65.29 | X-H torsion
[ 10718 10713 10712 10709 ] final   67.51 input   66.30 | X-H torsion
[ 10763 10752 10751 10750 ] final   59.22 input  -60.55 | X-H torsion
[ 11005 11000 10999 10996 ] final   88.32 input  -57.11 | X-H torsion

> <Gold.Protein.ActiveResidues>
 VAL166  LYS551  ARG553  GLY616  TRP617  ASP618  TYR619  PRO620  LYS621  CYS622 
 ASP623  PHE694  ASN695  SER759  ASP760  ASP761  ALA762  ILE779  LEU786  VAL792 
 PHE793  MET794  SER795  GLU796  ALA797  LYS798  CYS799  TRP800  GLU811  SER814 

> <Gold.Protein.RotatedAtoms>
  152.4068  134.6193  160.0046 H   0  0  0  0  0  0  0  0  0  0  0  0  # atno 6907 bound_to 6896
  151.6382  133.3322  159.3132 H   0  0  0  0  0  0  0  0  0  0  0  0  # atno 6908 bound_to 6896
  150.7962  134.7065  159.6624 H   0  0  0  0  0  0  0  0  0  0  0  0  # atno 6909 bound_to 6896
  145.4198  140.9550  143.2187 H   0  0  0  0  0  0  0  0  0  0  0  0  # atno 7974 bound_to 7965
  154.5576  140.2335  155.8386 H   0  0  0  0  0  0  0  0  0  0  0  0  # atno 8008 bound_to 7997
  156.2001  140.3054  155.9469 H   0  0  0  0  0  0  0  0  0  0  0  0  # atno 8009 bound_to 7997
  155.2951  140.0428  157.3016 H   0  0  0  0  0  0  0  0  0  0  0  0  # atno 8010 bound_to 7997
  139.7376  143.8711  152.2553 H   0  0  0  0  0  0  0  0  0  0  0  0  # atno 10167 bound_to 10162
  157.6234  130.9325  150.0252 H   0  0  0  0  0  0  0  0  0  0  0  0  # atno 10718 bound_to 10713
  152.9889  135.5579  154.5678 H   0  0  0  0  0  0  0  0  0  0  0  0  # atno 10763 bound_to 10752
  154.5084  135.2801  155.1365 H   0  0  0  0  0  0  0  0  0  0  0  0  # atno 10764 bound_to 10752
  154.2766  135.6353  153.5384 H   0  0  0  0  0  0  0  0  0  0  0  0  # atno 10765 bound_to 10752
  139.8899  134.8480  156.2984 H   0  0  0  0  0  0  0  0  0  0  0  0  # atno 11005 bound_to 11000
  144.8253  139.5721  143.6968 LP  0  0  0  0  0  0  0  0  0  0  0  0  # atno 17320 bound_to 7965
  146.2662  139.6526  142.9327 LP  0  0  0  0  0  0  0  0  0  0  0  0  # atno 17321 bound_to 7965
  139.8652  144.7096  150.9052 LP  0  0  0  0  0  0  0  0  0  0  0  0  # atno 17342 bound_to 10162
  140.7781  143.3784  151.1522 LP  0  0  0  0  0  0  0  0  0  0  0  0  # atno 17343 bound_to 10162
  156.1393  130.3642  149.9608 LP  0  0  0  0  0  0  0  0  0  0  0  0  # atno 17370 bound_to 10713
  156.7652  130.9166  151.3643 LP  0  0  0  0  0  0  0  0  0  0  0  0  # atno 17371 bound_to 10713
  140.9929  133.7197  156.0842 LP  0  0  0  0  0  0  0  0  0  0  0  0  # atno 17394 bound_to 11000
  140.7600  134.3949  157.5527 LP  0  0  0  0  0  0  0  0  0  0  0  0  # atno 17395 bound_to 11000

$$$$
