AV-unprocessed.smi:819|AV-procd|sdf|3834|dock2
  -GOLD-   22720 1273D 1   1.00000     0.00000
 Structure written by MMmdl.
 40 41  0  0  0  0  0  0  0  0  1 V2000
  146.6932  138.6623  151.0144 C   0  0  0  0  0  0  0  0  0  0  0  0
  146.1084  137.7754  152.1267 C   0  0  2  0  0  0  0  0  0  0  0  0
  144.7272  138.1914  152.3651 N   0  0  0  0  0  0  0  0  0  0  0  0
  143.7355  137.3776  152.7584 C   0  0  0  0  0  0  0  0  0  0  0  0
  143.8823  136.1681  152.9348 O   0  0  0  0  0  0  0  0  0  0  0  0
  142.5937  138.0594  152.9521 N   0  0  0  0  0  0  0  0  0  0  0  0
  141.3330  137.5643  153.3829 C   0  0  0  0  0  0  0  0  0  0  0  0
  140.2159  138.4178  153.2760 C   0  0  0  0  0  0  0  0  0  0  0  0
  138.9520  137.9483  153.6814 C   0  0  0  0  0  0  0  0  0  0  0  0
  138.8526  136.6322  154.1723 C   0  0  0  0  0  0  0  0  0  0  0  0
  139.9078  135.7962  154.2668 N   0  0  0  0  0  0  0  0  0  0  0  0
  141.1176  136.2537  153.8776 C   0  0  0  0  0  0  0  0  0  0  0  0
  146.9438  137.9703  153.4016 C   0  0  0  0  0  0  0  0  0  0  0  0
  146.3936  138.1818  154.4836 O   0  0  0  0  0  0  0  0  0  0  0  0
  148.2747  137.8898  153.2555 N   0  0  0  0  0  0  0  0  0  0  0  0
  149.2472  138.0034  154.3385 C   0  0  0  0  0  0  0  0  0  0  0  0
  150.0446  139.3169  154.2218 C   0  0  0  0  0  0  0  0  0  0  0  0
  151.5168  138.9347  154.3835 C   0  0  0  0  0  0  0  0  0  0  0  0
  151.5989  137.5124  153.8392 C   0  0  0  0  0  0  0  0  0  0  0  0
  150.2881  136.8655  154.2865 C   0  0  0  0  0  0  0  0  0  0  0  0
  147.7307  138.3994  150.8037 H   0  0  0  0  0  0  0  0  0  0  0  0
  146.6650  139.7208  151.2782 H   0  0  0  0  0  0  0  0  0  0  0  0
  146.1341  138.5403  150.0862 H   0  0  0  0  0  0  0  0  0  0  0  0
  146.1332  136.7309  151.8093 H   0  0  0  0  0  0  0  0  0  0  0  0
  144.5230  139.1735  152.2533 H   0  0  0  0  0  0  0  0  0  0  0  0
  142.6518  139.0614  152.8444 H   0  0  0  0  0  0  0  0  0  0  0  0
  140.3237  139.4223  152.8931 H   0  0  0  0  0  0  0  0  0  0  0  0
  138.0794  138.5813  153.6171 H   0  0  0  0  0  0  0  0  0  0  0  0
  137.8991  136.2383  154.4918 H   0  0  0  0  0  0  0  0  0  0  0  0
  141.9155  135.5318  153.9528 H   0  0  0  0  0  0  0  0  0  0  0  0
  148.6395  137.7102  152.3313 H   0  0  0  0  0  0  0  0  0  0  0  0
  148.7266  137.9780  155.2978 H   0  0  0  0  0  0  0  0  0  0  0  0
  149.9038  139.7666  153.2375 H   0  0  0  0  0  0  0  0  0  0  0  0
  149.7319  140.0561  154.9601 H   0  0  0  0  0  0  0  0  0  0  0  0
  152.1884  139.6217  153.8678 H   0  0  0  0  0  0  0  0  0  0  0  0
  151.7837  138.9375  155.4410 H   0  0  0  0  0  0  0  0  0  0  0  0
  151.6438  137.5374  152.7496 H   0  0  0  0  0  0  0  0  0  0  0  0
  152.4767  136.9737  154.1973 H   0  0  0  0  0  0  0  0  0  0  0  0
  150.4152  136.4508  155.2872 H   0  0  0  0  0  0  0  0  0  0  0  0
  150.0011  136.0393  153.6344 H   0  0  0  0  0  0  0  0  0  0  0  0
  1  2  1  0  0  0  0
  1 21  1  0  0  0  0
  1 22  1  0  0  0  0
  1 23  1  0  0  0  0
  2  3  1  0  0  0  0
  2 13  1  0  0  0  0
  2 24  1  0  0  0  0
  3  4  1  0  0  0  0
  3 25  1  0  0  0  0
  4  5  2  0  0  0  0
  4  6  1  0  0  0  0
  6  7  1  0  0  0  0
  6 26  1  0  0  0  0
  7 12  1  0  0  0  0
  7  8  2  0  0  0  0
  8  9  1  0  0  0  0
  8 27  1  0  0  0  0
  9 10  2  0  0  0  0
  9 28  1  0  0  0  0
 10 11  1  0  0  0  0
 10 29  1  0  0  0  0
 11 12  2  0  0  0  0
 12 30  1  0  0  0  0
 13 14  2  0  0  0  0
 13 15  1  0  0  0  0
 15 16  1  0  0  0  0
 15 31  1  0  0  0  0
 16 20  1  0  0  0  0
 16 17  1  0  0  0  0
 16 32  1  0  0  0  0
 17 18  1  0  0  0  0
 17 33  1  0  0  0  0
 17 34  1  0  0  0  0
 18 19  1  0  0  0  0
 18 35  1  0  0  0  0
 18 36  1  0  0  0  0
 19 20  1  0  0  0  0
 19 37  1  0  0  0  0
 19 38  1  0  0  0  0
 20 39  1  0  0  0  0
 20 40  1  0  0  0  0
M  END
> <s_m_source_file>
AV-unprocessed.smi

> <i_m_source_file_index>
819

> <i_lp_mmshare_version>
43012

> <i_f3d_flags>
0

> <s_epik_input>
W0NIMl0xW0NIMl1bQ0gyXVtDSDJdW0NIXTFbTkhdQyg9TylbQ0BIXShbQ0gzXSlbTkhdQyg9TylbTkhdYzJbY0hdW2NIXVtjSF1uW2NIXTI=

> <s_epik_cmdline>
J2VwaWtfcHl0aG9uJywgJy1waCcsICc3LjAnLCAnLXRuJywgJzgnLCAnLW1hJywgJzIwMCcsICctbWV0YWxfYmluZGluZycsICctaW1hZScsICc8aW5maWxlLm1hZT4nLCAnLW9tYWUnLCAnPG91dGZpbGUubWFlPic=

> <r_epik_Ionization_Penalty>
0.00416979

> <r_epik_Ionization_Penalty_Charging>
0

> <r_epik_Ionization_Penalty_Neutral>
0.00416979

> <r_epik_State_Penalty>
0.00297037

> <r_epik_Charging_Adjusted_Penalty>
0.00297037

> <i_epik_Tot_Q>
0

> <i_epik_Tot_abs_Q>
0

> <r_epik_Metal_State_Penalty>
-0

> <b_epik_Metal_Only>
0

> <s_lp_Force_Field>
OPLS_2005

> <r_lp_Energy>
20.2836

> <b_lp_Chiralities_Consistent>
1

> <s_lp_Variant>
AV-unprocessed.smi:819-1

> <Gold.Version>
5.8.1

> <Gold.Id.Protein>
6NUR|6NUR_protein|mol2

> <Gold.PLP.Fitness>
46.8421

> <Gold.PLP.PLP>
-37.3337

> <Gold.PLP.part.hbond>
-5.2232

> <Gold.PLP.part.metal>
0.0000

> <Gold.PLP.part.buried>
-0.1211

> <Gold.PLP.part.nonpolar>
-33.0000

> <Gold.PLP.part.repulsive>
0.3218

> <Gold.PLP.ligand.clash>
0.0000

> <Gold.PLP.ligand.torsion>
0.7725

> <Gold.PLP.Chemscore.Hbond>
3.6800

> <Gold.PLP.Chemscore.CHOScore>
0.0000

> <Gold.PLP.Chemscore.Metal>
0.0000

> <Gold.Chemscore.Hbonds>
donor molecule, donor type, donor heavy atom, donor atom, acceptor molecule, acceptor atom, score
      L1  H     3    25       P1 10175  1.00
      L1  H     6    26       P1 10175  0.98
      L1  H    15    31       P1  7948  0.45
      P1  H 11000 11005       L1    11  1.00

> <Gold.PLP.Chemscore.Internal.Correction>
0.0134

> <Gold.Rescore>
     Score         DG    S(hbond)    S(metal)    S(lipo)     H(rot)  DE(clash)    DE(int)     intcor
     21.44     -23.35       3.64        0.00      82.11       1.52       0.07       1.83       ----

> <Gold.Chemscore.Fitness>
21.4399

> <Gold.Chemscore.DG>
-23.3452

> <Gold.Chemscore.ZeroCoef>
-5.4800

> <Gold.Chemscore.Hbond>
3.6397

> <Gold.Chemscore.Metal>
0.0000

> <Gold.Chemscore.Lipo>
82.1059

> <Gold.Chemscore.Internal_Hbond>
0.0000

> <Gold.Chemscore.DEClash>
0.0725

> <Gold.Chemscore.DEInternal>
1.8328

> <Gold.Chemscore.Rot>
1.5225

> <Gold.Chemscore.Internal.Correction>
   9.000000E+99

> <Gold.Chemscore.Hbonds>
donor molecule, donor type, donor heavy atom, donor atom, acceptor molecule, acceptor atom, score
      L1  H     3    25       P1 10175  0.92
      L1  H     6    26       P1 10175  0.93
      L1  H    15    31       P1  7948  0.44
      P1  H 11000 11005       L1    11  0.70

> <Gold.Chemscore.Hbond.Weighted>
-12.1565

> <Gold.Chemscore.Metal.Weighted>
-0.0000

> <Gold.Chemscore.Lipo.Weighted>
-9.6064

> <Gold.Chemscore.Internal_Hbond.Weighted>
0.0000

> <Gold.Chemscore.DEClash.Weighted>
0.0725

> <Gold.Chemscore.DEInternal.Weighted>
1.8328

> <Gold.Chemscore.Rot.Weighted>
3.8977

> <Gold.Chemscore.Internal.Correction.Weighted>
   9.000000E+99

> <Gold.Protein.RotatedTorsions>
[ 6907 6896 6895 6894 ] final  100.94 input  -60.11 | X-H torsion
[ 7974 7965 7964 7962 ] final  149.25 input  175.53 | X-H torsion
[ 8008 7997 7996 7995 ] final   91.89 input   59.86 | X-H torsion
[ 10167 10162 10161 10158 ] final  127.65 input  -65.29 | X-H torsion
[ 10718 10713 10712 10709 ] final  -24.73 input   66.30 | X-H torsion
[ 10763 10752 10751 10750 ] final   89.09 input  -60.55 | X-H torsion
[ 11005 11000 10999 10996 ] final   47.19 input  -57.11 | X-H torsion

> <Gold.Protein.ActiveResidues>
 VAL166  LYS551  ARG553  GLY616  TRP617  ASP618  TYR619  PRO620  LYS621  CYS622 
 ASP623  PHE694  ASN695  SER759  ASP760  ASP761  ALA762  ILE779  LEU786  VAL792 
 PHE793  MET794  SER795  GLU796  ALA797  LYS798  CYS799  TRP800  GLU811  SER814 

> <Gold.Protein.RotatedAtoms>
  152.5361  134.0202  159.7977 H   0  0  0  0  0  0  0  0  0  0  0  0  # atno 6907 bound_to 6896
  151.0389  133.5716  159.2660 H   0  0  0  0  0  0  0  0  0  0  0  0  # atno 6908 bound_to 6896
  151.2692  135.0686  159.9181 H   0  0  0  0  0  0  0  0  0  0  0  0  # atno 6909 bound_to 6896
  144.8452  139.6257  143.5999 H   0  0  0  0  0  0  0  0  0  0  0  0  # atno 7974 bound_to 7965
  156.0290  140.3332  155.7120 H   0  0  0  0  0  0  0  0  0  0  0  0  # atno 8008 bound_to 7997
  155.5912  140.0646  157.2776 H   0  0  0  0  0  0  0  0  0  0  0  0  # atno 8009 bound_to 7997
  154.4346  140.1827  156.1064 H   0  0  0  0  0  0  0  0  0  0  0  0  # atno 8010 bound_to 7997
  139.5567  144.6854  151.4161 H   0  0  0  0  0  0  0  0  0  0  0  0  # atno 10167 bound_to 10162
  156.4737  130.4530  149.6853 H   0  0  0  0  0  0  0  0  0  0  0  0  # atno 10718 bound_to 10713
  153.1835  135.4483  155.0058 H   0  0  0  0  0  0  0  0  0  0  0  0  # atno 10763 bound_to 10752
  154.8045  135.3269  154.7468 H   0  0  0  0  0  0  0  0  0  0  0  0  # atno 10764 bound_to 10752
  153.7930  135.6968  153.4923 H   0  0  0  0  0  0  0  0  0  0  0  0  # atno 10765 bound_to 10752
  140.1301  134.4716  155.8528 H   0  0  0  0  0  0  0  0  0  0  0  0  # atno 11005 bound_to 11000
  146.2737  139.6700  142.9278 LP  0  0  0  0  0  0  0  0  0  0  0  0  # atno 17320 bound_to 7965
  145.4612  141.0433  143.2750 LP  0  0  0  0  0  0  0  0  0  0  0  0  # atno 17321 bound_to 7965
  140.6841  143.8014  150.7162 LP  0  0  0  0  0  0  0  0  0  0  0  0  # atno 17342 bound_to 10162
  140.1476  143.4385  152.2152 LP  0  0  0  0  0  0  0  0  0  0  0  0  # atno 17343 bound_to 10162
  156.3592  130.7472  151.2442 LP  0  0  0  0  0  0  0  0  0  0  0  0  # atno 17370 bound_to 10713
  157.7489  131.0355  150.4366 LP  0  0  0  0  0  0  0  0  0  0  0  0  # atno 17371 bound_to 10713
  141.2168  133.6793  156.7054 LP  0  0  0  0  0  0  0  0  0  0  0  0  # atno 17394 bound_to 11000
  140.2853  134.8284  157.3969 LP  0  0  0  0  0  0  0  0  0  0  0  0  # atno 17395 bound_to 11000

$$$$
