AV-unprocessed.smi:729|AV-procd|sdf|3520|dock3
  -GOLD-   22720 0513D 1   1.00000     0.00000
 Structure written by MMmdl.
 21 21  0  0  0  0  0  0  0  0  2 V2000
  151.4720  140.0974  158.0606 C   0  0  0  0  0  0  0  0  0  0  0  0
  151.0642  139.6164  156.6722 C   0  0  0  0  0  0  0  0  0  0  0  0
  150.5412  140.4744  155.7771 C   0  0  0  0  0  0  0  0  0  0  0  0
  150.1927  140.0116  154.4576 C   0  0  0  0  0  0  0  0  0  0  0  0
  149.6592  140.8578  153.5678 O   0  0  0  0  0  0  0  0  0  0  0  0
  150.4150  138.7278  154.1245 C   0  0  0  0  0  0  0  0  0  0  0  0
  150.9926  137.7691  155.0691 C   0  0  0  0  0  0  0  0  0  0  0  0
  151.2007  136.6023  154.7335 O   0  0  0  0  0  0  0  0  0  0  0  0
  151.2653  138.2433  156.3290 N   0  0  0  0  0  0  0  0  0  0  0  0
  151.8379  137.3052  157.3255 C   0  0  0  0  0  0  0  0  0  0  0  0
  153.3590  137.4356  157.4699 C   0  0  0  0  0  0  0  0  0  0  0  0
  153.8032  138.5399  157.8537 O   0  0  0  0  0  0  0  0  0  0  0  0
  154.0513  136.4339  157.1844 O   0  5  0  0  0  0  0  0  0  0  0  0
  151.4507  141.1865  158.1082 H   0  0  0  0  0  0  0  0  0  0  0  0
  152.4851  139.7976  158.3244 H   0  0  0  0  0  0  0  0  0  0  0  0
  150.7790  139.7317  158.8179 H   0  0  0  0  0  0  0  0  0  0  0  0
  150.3956  141.5128  156.0374 H   0  0  0  0  0  0  0  0  0  0  0  0
  149.8339  140.5105  152.7066 H   0  0  0  0  0  0  0  0  0  0  0  0
  150.1568  138.3849  153.1328 H   0  0  0  0  0  0  0  0  0  0  0  0
  151.4173  137.4233  158.3244 H   0  0  0  0  0  0  0  0  0  0  0  0
  151.5761  136.2802  157.0664 H   0  0  0  0  0  0  0  0  0  0  0  0
  1  2  1  0  0  0  0
  1 14  1  0  0  0  0
  1 15  1  0  0  0  0
  1 16  1  0  0  0  0
  2  9  1  0  0  0  0
  2  3  2  0  0  0  0
  3  4  1  0  0  0  0
  3 17  1  0  0  0  0
  4  5  1  0  0  0  0
  4  6  2  0  0  0  0
  5 18  1  0  0  0  0
  6  7  1  0  0  0  0
  6 19  1  0  0  0  0
  7  8  2  0  0  0  0
  7  9  1  0  0  0  0
  9 10  1  0  0  0  0
 10 11  1  0  0  0  0
 10 20  1  0  0  0  0
 10 21  1  0  0  0  0
 11 12  2  0  0  0  0
 11 13  1  0  0  0  0
M  CHG  1  13  -1
M  END
> <s_m_source_file>
AV-unprocessed.smi

> <i_m_source_file_index>
729

> <i_lp_mmshare_version>
43012

> <i_f3d_flags>
0

> <s_epik_input>
W0NIM11jMVtjSF1jKFtPSF0pW2NIXWMoPU8pbjFbQ0gyXUMoPU8pW09IXQ==

> <s_epik_cmdline>
J2VwaWtfcHl0aG9uJywgJy1waCcsICc3LjAnLCAnLXRuJywgJzgnLCAnLW1hJywgJzIwMCcsICctbWV0YWxfYmluZGluZycsICctaW1hZScsICc8aW5maWxlLm1hZT4nLCAnLW9tYWUnLCAnPG91dGZpbGUubWFlPic=

> <r_lp_tautomer_probability>
0.999984

> <r_epik_Ionization_Penalty>
0.418052

> <r_epik_Ionization_Penalty_Charging>
0.00125892

> <r_epik_Ionization_Penalty_Neutral>
0.416793

> <r_epik_State_Penalty>
0.458518

> <r_epik_Charging_Adjusted_Penalty>
0.459777

> <i_epik_Tot_Q>
-1

> <i_epik_Tot_abs_Q>
1

> <r_epik_Metal_State_Penalty>
0.458518

> <b_epik_Metal_Only>
0

> <s_lp_Force_Field>
OPLS_2005

> <r_lp_Energy>
10.5639

> <b_lp_Chiralities_Consistent>
1

> <s_lp_Variant>
AV-unprocessed.smi:729-2

> <Gold.Version>
5.8.1

> <Gold.Id.Protein>
6NUR|6NUR_protein|mol2

> <Gold.PLP.Fitness>
38.4575

> <Gold.PLP.PLP>
-21.0091

> <Gold.PLP.part.hbond>
-6.0000

> <Gold.PLP.part.metal>
0.0000

> <Gold.PLP.part.buried>
-1.2076

> <Gold.PLP.part.nonpolar>
-14.1926

> <Gold.PLP.part.repulsive>
0.1636

> <Gold.PLP.ligand.clash>
0.0000

> <Gold.PLP.ligand.torsion>
0.2779

> <Gold.PLP.Chemscore.Hbond>
6.0000

> <Gold.PLP.Chemscore.CHOScore>
0.0000

> <Gold.PLP.Chemscore.Metal>
0.0000

> <Gold.Chemscore.Hbonds>
donor molecule, donor type, donor heavy atom, donor atom, acceptor molecule, acceptor atom, score
      L1  H     5    18       P1  7957  1.00
      P1  H  7997  8009       L1    12  2.00
      P1  H 10752 10763       L1     8  0.89
      P1  H 10752 10764       L1    13  1.56

> <Gold.PLP.Chemscore.Internal.Correction>
0.0041

> <Gold.Rescore>
     Score         DG    S(hbond)    S(metal)    S(lipo)     H(rot)  DE(clash)    DE(int)     intcor
     16.23     -16.65       3.76        0.00      34.98       2.14       0.01       0.41       ----

> <Gold.Chemscore.Fitness>
16.2296

> <Gold.Chemscore.DG>
-16.6473

> <Gold.Chemscore.ZeroCoef>
-5.4800

> <Gold.Chemscore.Hbond>
3.7600

> <Gold.Chemscore.Metal>
0.0000

> <Gold.Chemscore.Lipo>
34.9841

> <Gold.Chemscore.Internal_Hbond>
0.0000

> <Gold.Chemscore.DEClash>
0.0089

> <Gold.Chemscore.DEInternal>
0.4088

> <Gold.Chemscore.Rot>
2.1423

> <Gold.Chemscore.Internal.Correction>
   9.000000E+99

> <Gold.Chemscore.Hbonds>
donor molecule, donor type, donor heavy atom, donor atom, acceptor molecule, acceptor atom, score
      L1  H     5    18       P1  7957  0.99
      P1  H  7997  8009       L1    12  0.98
      P1  H 10752 10763       L1     8  0.84
      P1  H 10752 10764       L1    13  0.73

> <Gold.Chemscore.Hbond.Weighted>
-12.5584

> <Gold.Chemscore.Metal.Weighted>
-0.0000

> <Gold.Chemscore.Lipo.Weighted>
-4.0931

> <Gold.Chemscore.Internal_Hbond.Weighted>
0.0000

> <Gold.Chemscore.DEClash.Weighted>
0.0089

> <Gold.Chemscore.DEInternal.Weighted>
0.4088

> <Gold.Chemscore.Rot.Weighted>
5.4843

> <Gold.Chemscore.Internal.Correction.Weighted>
   9.000000E+99

> <Gold.Protein.RotatedTorsions>
[ 6907 6896 6895 6894 ] final  -41.88 input  -60.11 | X-H torsion
[ 7974 7965 7964 7962 ] final   58.28 input  175.53 | X-H torsion
[ 8008 7997 7996 7995 ] final  146.27 input   59.86 | X-H torsion
[ 10167 10162 10161 10158 ] final -157.04 input  -65.29 | X-H torsion
[ 10718 10713 10712 10709 ] final   92.56 input   66.30 | X-H torsion
[ 10763 10752 10751 10750 ] final   33.19 input  -60.55 | X-H torsion
[ 11005 11000 10999 10996 ] final -104.53 input  -57.11 | X-H torsion

> <Gold.Protein.ActiveResidues>
 VAL166  LYS551  ARG553  GLY616  TRP617  ASP618  TYR619  PRO620  LYS621  CYS622 
 ASP623  PHE694  ASN695  SER759  ASP760  ASP761  ALA762  ILE779  LEU786  VAL792 
 PHE793  MET794  SER795  GLU796  ALA797  LYS798  CYS799  TRP800  GLU811  SER814 

> <Gold.Protein.RotatedAtoms>
  150.9616  134.9003  159.7733 H   0  0  0  0  0  0  0  0  0  0  0  0  # atno 6907 bound_to 6896
  152.5158  134.3664  159.9313 H   0  0  0  0  0  0  0  0  0  0  0  0  # atno 6908 bound_to 6896
  151.3676  133.3826  159.2731 H   0  0  0  0  0  0  0  0  0  0  0  0  # atno 6909 bound_to 6896
  145.9199  139.3721  143.0485 H   0  0  0  0  0  0  0  0  0  0  0  0  # atno 7974 bound_to 7965
  156.2860  140.2187  156.5349 H   0  0  0  0  0  0  0  0  0  0  0  0  # atno 8008 bound_to 7997
  154.7418  140.0487  157.0839 H   0  0  0  0  0  0  0  0  0  0  0  0  # atno 8009 bound_to 7997
  155.0221  140.3125  155.4792 H   0  0  0  0  0  0  0  0  0  0  0  0  # atno 8010 bound_to 7997
  139.6802  143.9594  152.2332 H   0  0  0  0  0  0  0  0  0  0  0  0  # atno 10167 bound_to 10162
  157.6958  131.0447  150.3900 H   0  0  0  0  0  0  0  0  0  0  0  0  # atno 10718 bound_to 10713
  153.0224  135.6393  154.1473 H   0  0  0  0  0  0  0  0  0  0  0  0  # atno 10763 bound_to 10752
  154.1206  135.2847  155.3211 H   0  0  0  0  0  0  0  0  0  0  0  0  # atno 10764 bound_to 10752
  154.6266  135.5507  153.7696 H   0  0  0  0  0  0  0  0  0  0  0  0  # atno 10765 bound_to 10752
  141.1096  133.8731  157.1622 H   0  0  0  0  0  0  0  0  0  0  0  0  # atno 11005 bound_to 11000
  145.8564  140.9500  143.0723 LP  0  0  0  0  0  0  0  0  0  0  0  0  # atno 17320 bound_to 7965
  144.6752  140.0473  143.7479 LP  0  0  0  0  0  0  0  0  0  0  0  0  # atno 17321 bound_to 7965
  139.9382  144.6698  150.8293 LP  0  0  0  0  0  0  0  0  0  0  0  0  # atno 17342 bound_to 10162
  140.7649  143.3262  151.2510 LP  0  0  0  0  0  0  0  0  0  0  0  0  # atno 17343 bound_to 10162
  156.4304  130.3971  149.6764 LP  0  0  0  0  0  0  0  0  0  0  0  0  # atno 17370 bound_to 10713
  156.3983  130.7662  151.2668 LP  0  0  0  0  0  0  0  0  0  0  0  0  # atno 17371 bound_to 10713
  139.9983  135.0038  157.0132 LP  0  0  0  0  0  0  0  0  0  0  0  0  # atno 17394 bound_to 11000
  140.4811  134.1289  155.7217 LP  0  0  0  0  0  0  0  0  0  0  0  0  # atno 17395 bound_to 11000

$$$$
