#       Name:                AV-unprocessed.smi:193
#       Creating user name   scv26
#       Creation time:       Thu Mar 26 19:34:00 2020


#       File generated by GOLD software.
#

@<TRIPOS>MOLECULE
AV-unprocessed.smi:193
    69    73     1
SMALL
NO_CHARGES


@<TRIPOS>ATOM
      1 ****        -3.6638  -4.0979   0.4269 C.3            1 S1                 0.0000
      2 ****        -3.2080  -2.6468   0.2042 C.3            1 S1                 0.0000
      3 ****        -1.7199  -2.6333  -0.2039 C.3            1 S1                 0.0000
      4 ****        -1.0336  -1.3657   0.0550 N.pl3          1 S1                 0.0000
      5 ****         0.3249  -1.3707   0.0872 C.ar           1 S1                 0.0000
      6 ****         0.9989  -2.2807  -0.6653 N.ar           1 S1                 0.0000
      7 ****         2.3349  -2.3009  -0.6680 C.ar           1 S1                 0.0000
      8 ****         3.1819  -1.5154  -0.0011 N.ar           1 S1                 0.0000
      9 ****         2.5142  -0.6080   0.7669 C.ar           1 S1                 0.0000
     10 ****         1.1010  -0.4690   0.8722 C.ar           1 S1                 0.0000
     11 ****         0.7945   0.5526   1.7645 N.2            1 S1                 0.0000
     12 ****         1.9577   1.0003   2.1514 C.2            1 S1                 0.0000
     13 ****         3.0446   0.3666   1.5938 N.pl3          1 S1                 0.0000
     14 ****         4.4475   0.6656   1.8391 C.3            1 S1                 0.0000
     15 ****         5.0009   1.8231   0.9717 C.3            1 S1                 0.0000
     16 ****         4.3130   3.0054   1.3442 O.3            1 S1                 0.0000
     17 ****         6.5047   2.0293   1.2433 C.3            1 S1                 0.0000
     18 ****         7.1328   3.0553   0.2834 C.3            1 S1                 0.0000
     19 ****         6.9008   2.6657  -1.0645 O.3            1 S1                 0.0000
     20 ****         5.5184   2.6360  -1.3982 C.3            1 S1                 0.0000
     21 ****         4.7877   1.5880  -0.5400 C.3            1 S1                 0.0000
     22 ****        -1.7055  -0.0722  -0.0667 C.3            1 S1                 0.0000
     23 ****        -2.6771   0.0026  -1.2520 C.3            1 S1                 0.0000
     24 ****        -4.0199  -0.5023  -0.8784 N.4            1 S1                 1.0000
     25 ****        -5.0882   0.0897  -1.7178 C.3            1 S1                 0.0000
     26 ****        -5.4666   1.5000  -1.3233 C.3            1 S1                 0.0000
     27 ****        -6.4016   0.3552  -1.0023 C.3            1 S1                 0.0000
     28 ****        -6.6648  -0.0298   0.4423 C.3            1 S1                 0.0000
     29 ****        -4.1049  -1.9833  -0.8639 C.3            1 S1                 0.0000
     30 ****        -3.5694  -4.6879  -0.4854 H              1 S1                 0.0000
     31 ****        -4.7056  -4.1419   0.7458 H              1 S1                 0.0000
     32 ****        -3.0686  -4.5838   1.2008 H              1 S1                 0.0000
     33 ****        -3.3309  -2.1293   1.1570 H              1 S1                 0.0000
     34 ****        -1.1983  -3.4047   0.3650 H              1 S1                 0.0000
     35 ****        -1.6117  -2.9043  -1.2550 H              1 S1                 0.0000
     36 ****         2.7904  -3.0528  -1.2959 H              1 S1                 0.0000
     37 ****         2.0569   1.8146   2.8545 H              1 S1                 0.0000
     38 ****         4.5676   0.8940   2.8991 H              1 S1                 0.0000
     39 ****         5.0235  -0.2431   1.6594 H              1 S1                 0.0000
     40 ****         4.6472   3.7225   0.8277 H              1 S1                 0.0000
     41 ****         6.6699   2.3337   2.2776 H              1 S1                 0.0000
     42 ****         7.0264   1.0796   1.1182 H              1 S1                 0.0000
     43 ****         6.7346   4.0558   0.4591 H              1 S1                 0.0000
     44 ****         8.2085   3.1110   0.4510 H              1 S1                 0.0000
     45 ****         5.0795   3.6262  -1.2673 H              1 S1                 0.0000
     46 ****         5.4191   2.3853  -2.4544 H              1 S1                 0.0000
     47 ****         5.1652   0.5998  -0.8053 H              1 S1                 0.0000
     48 ****         3.7259   1.5870  -0.7895 H              1 S1                 0.0000
     49 ****        -2.2093   0.1715   0.8694 H              1 S1                 0.0000
     50 ****        -0.9617   0.7098  -0.2216 H              1 S1                 0.0000
     51 ****        -2.7690   1.0551  -1.5227 H              1 S1                 0.0000
     52 ****        -2.2880  -0.5016  -2.1381 H              1 S1                 0.0000
     53 ****        -5.0770  -0.1926  -2.7694 H              1 S1                 0.0000
     54 ****        -4.9325   1.9642  -0.4959 H              1 S1                 0.0000
     55 ****        -5.7692   2.1798  -2.1172 H              1 S1                 0.0000
     56 ****        -7.2891   0.2816  -1.6278 H              1 S1                 0.0000
     57 ****        -5.7852   0.1336   1.0655 H              1 S1                 0.0000
     58 ****        -6.9504  -1.0798   0.5063 H              1 S1                 0.0000
     59 ****        -7.4809   0.5723   0.8421 H              1 S1                 0.0000
     60 ****        -3.8814  -2.3792  -1.8559 H              1 S1                 0.0000
     61 ****        -5.1422  -2.2519  -0.6615 H              1 S1                 0.0000
     62 ****        -4.1989  -0.1840   0.0633 H              1 S1                 0.0000
     63 ****         0.4912  -2.9394  -1.2206 LP             1 S1                 0.0000
     64 ****         4.1780  -1.5833  -0.0572 LP             1 S1                 0.0000
     65 ****        -0.1107   0.8714   2.0456 LP             1 S1                 0.0000
     66 ****         4.4627   3.1909   2.3154 LP             1 S1                 0.0000
     67 ****         3.3341   2.8941   1.1731 LP             1 S1                 0.0000
     68 ****         7.2830   1.7521  -1.2036 LP             1 S1                 0.0000
     69 ****         7.3618   3.3154  -1.6690 LP             1 S1                 0.0000
@<TRIPOS>BOND
    1    1    2 1     
    2    1   30 1     
    3    1   31 1     
    4    1   32 1     
    5    2   29 1     
    6    2    3 1     
    7    2   33 1     
    8    3    4 1     
    9    3   34 1     
   10    3   35 1     
   11    4    5 1     
   12    4   22 1     
   13    5   10 ar    
   14    5    6 ar    
   15    6    7 ar    
   16    7    8 ar    
   17    7   36 1     
   18    8    9 ar    
   19    9   13 1     
   20    9   10 ar    
   21   10   11 1     
   22   11   12 2     
   23   12   13 1     
   24   12   37 1     
   25   13   14 1     
   26   14   15 1     
   27   14   38 1     
   28   14   39 1     
   29   15   21 1     
   30   15   16 1     
   31   15   17 1     
   32   16   40 1     
   33   17   18 1     
   34   17   41 1     
   35   17   42 1     
   36   18   19 1     
   37   18   43 1     
   38   18   44 1     
   39   19   20 1     
   40   20   21 1     
   41   20   45 1     
   42   20   46 1     
   43   21   47 1     
   44   21   48 1     
   45   22   23 1     
   46   22   49 1     
   47   22   50 1     
   48   23   24 1     
   49   23   51 1     
   50   23   52 1     
   51   24   25 1     
   52   24   29 1     
   53   24   62 1     
   54   25   27 1     
   55   25   26 1     
   56   25   53 1     
   57   26   27 1     
   58   26   54 1     
   59   26   55 1     
   60   27   28 1     
   61   27   56 1     
   62   28   57 1     
   63   28   58 1     
   64   28   59 1     
   65   29   60 1     
   66   29   61 1     
   67    6   63 1     
   68    8   64 1     
   69   11   65 1     
   70   16   66 1     
   71   16   67 1     
   72   19   68 1     
   73   19   69 1     
@<TRIPOS>SUBSTRUCTURE
      1 S1             1
@<TRIPOS>SET
LONE_PAIRS      STATIC     ATOMS    <user>   **** ""
7 63 64 65 66 67 68 69
DONOR_HYDROGENS      STATIC     ATOMS    <user>   **** ""
2 40 62
ATOM$BLUE        STATIC     ATOMS    COLORGROUP SYSTEM
7 63 64 65 66 67 68 69
ATOM$RED        STATIC     ATOMS    COLORGROUP SYSTEM
2 40 62
