AV-unprocessed.smi:148|AV-procd|sdf|1204|dock1
  -GOLD-   2262018373D 1   1.00000     0.00000
 Structure written by MMmdl.
 63 67  0  0  0  0  0  0  0  0  1 V2000
  149.9867  134.2351  157.2146 O   0  0  0  0  0  0  0  0  0  0  0  0
  150.6483  134.9176  156.1694 C   0  0  0  0  0  0  0  0  0  0  0  0
  149.6563  135.3654  155.0676 C   0  0  2  0  0  0  0  0  0  0  0  0
  148.7561  136.5435  155.5170 C   0  0  0  0  0  0  0  0  0  0  0  0
  149.4776  137.5536  156.2707 N   0  0  0  0  0  0  0  0  0  0  0  0
  149.1019  138.0996  157.4774 C   0  0  0  0  0  0  0  0  0  0  0  0
  149.9075  139.0103  157.9519 N   0  0  0  0  0  0  0  0  0  0  0  0
  150.9161  139.0929  157.0008 C   0  0  0  0  0  0  0  0  0  0  0  0
  152.0819  139.8915  156.8665 C   0  0  0  0  0  0  0  0  0  0  0  0
  152.4148  140.8325  157.7786 N   0  0  0  0  0  0  0  0  0  0  0  0
  151.5811  142.0278  157.6300 C   0  0  0  0  0  0  0  0  0  0  0  0
  152.1623  143.2115  158.4093 C   0  0  0  0  0  0  0  0  0  0  0  0
  152.3418  142.8275  159.8790 C   0  0  0  0  0  0  0  0  0  0  0  0
  153.2120  141.5685  159.9875 C   0  0  0  0  0  0  0  0  0  0  0  0
  152.6495  140.3770  159.1665 C   0  0  2  0  0  0  0  0  0  0  0  0
  153.5713  139.1100  159.2716 C   0  0  2  0  0  0  0  0  0  0  0  0
  152.9367  137.9276  160.0495 C   0  0  0  0  0  0  0  0  0  0  0  0
  154.0191  137.3007  160.9363 C   0  0  0  0  0  0  0  0  0  0  0  0
  155.3290  137.9158  160.4659 C   0  0  0  0  0  0  0  0  0  0  0  0
  154.9221  139.3096  159.9954 C   0  0  1  0  0  0  0  0  0  0  0  0
  155.9283  139.8328  159.1509 O   0  0  0  0  0  0  0  0  0  0  0  0
  152.8653  139.6984  155.7723 N   0  0  0  0  0  0  0  0  0  0  0  0
  152.5189  138.7870  154.8581 C   0  0  0  0  0  0  0  0  0  0  0  0
  151.4526  137.9839  154.8418 N   0  0  0  0  0  0  0  0  0  0  0  0
  150.6704  138.1739  155.9433 C   0  0  0  0  0  0  0  0  0  0  0  0
  148.8167  134.1872  154.5121 C   0  0  2  0  0  0  0  0  0  0  0  0
  149.5412  133.2959  153.5187 C   0  0  0  0  0  0  0  0  0  0  0  0
  148.3852  132.5783  152.8328 C   0  0  0  0  0  0  0  0  0  0  0  0
  147.3254  133.5261  152.7887 O   0  0  0  0  0  0  0  0  0  0  0  0
  147.6006  134.6056  153.6769 C   0  0  0  0  0  0  0  0  0  0  0  0
  149.7965  133.3552  156.9268 H   0  0  0  0  0  0  0  0  0  0  0  0
  151.1794  135.7710  156.5910 H   0  0  0  0  0  0  0  0  0  0  0  0
  151.4167  134.2638  155.7579 H   0  0  0  0  0  0  0  0  0  0  0  0
  150.2680  135.7358  154.2436 H   0  0  0  0  0  0  0  0  0  0  0  0
  148.3082  137.0361  154.6538 H   0  0  0  0  0  0  0  0  0  0  0  0
  147.9283  136.1769  156.1252 H   0  0  0  0  0  0  0  0  0  0  0  0
  148.1985  137.8058  157.9921 H   0  0  0  0  0  0  0  0  0  0  0  0
  151.4962  142.2956  156.5754 H   0  0  0  0  0  0  0  0  0  0  0  0
  150.5722  141.8159  157.9875 H   0  0  0  0  0  0  0  0  0  0  0  0
  153.1230  143.4999  157.9807 H   0  0  0  0  0  0  0  0  0  0  0  0
  151.5068  144.0783  158.3225 H   0  0  0  0  0  0  0  0  0  0  0  0
  152.7986  143.6499  160.4302 H   0  0  0  0  0  0  0  0  0  0  0  0
  151.3688  142.6446  160.3369 H   0  0  0  0  0  0  0  0  0  0  0  0
  154.2216  141.8025  159.6470 H   0  0  0  0  0  0  0  0  0  0  0  0
  153.2885  141.3114  161.0432 H   0  0  0  0  0  0  0  0  0  0  0  0
  151.6782  140.1254  159.5951 H   0  0  0  0  0  0  0  0  0  0  0  0
  153.8025  138.7617  158.2633 H   0  0  0  0  0  0  0  0  0  0  0  0
  152.1046  138.2533  160.6740 H   0  0  0  0  0  0  0  0  0  0  0  0
  152.5473  137.1802  159.3589 H   0  0  0  0  0  0  0  0  0  0  0  0
  153.8414  137.5720  161.9778 H   0  0  0  0  0  0  0  0  0  0  0  0
  154.0287  136.2121  160.8765 H   0  0  0  0  0  0  0  0  0  0  0  0
  156.0890  137.9377  161.2476 H   0  0  0  0  0  0  0  0  0  0  0  0
  155.7231  137.3341  159.6308 H   0  0  0  0  0  0  0  0  0  0  0  0
  154.7952  139.9558  160.8650 H   0  0  0  0  0  0  0  0  0  0  0  0
  156.3179  140.5811  159.5768 H   0  0  0  0  0  0  0  0  0  0  0  0
  153.1886  138.6918  154.0162 H   0  0  0  0  0  0  0  0  0  0  0  0
  148.4671  133.5660  155.3384 H   0  0  0  0  0  0  0  0  0  0  0  0
  150.0913  133.8980  152.7942 H   0  0  0  0  0  0  0  0  0  0  0  0
  150.2389  132.6031  153.9896 H   0  0  0  0  0  0  0  0  0  0  0  0
  148.6456  132.2204  151.8365 H   0  0  0  0  0  0  0  0  0  0  0  0
  148.0627  131.7229  153.4278 H   0  0  0  0  0  0  0  0  0  0  0  0
  146.7314  134.8324  154.2945 H   0  0  0  0  0  0  0  0  0  0  0  0
  147.8258  135.4883  153.0765 H   0  0  0  0  0  0  0  0  0  0  0  0
  1  2  1  0  0  0  0
  1 31  1  0  0  0  0
  2  3  1  0  0  0  0
  2 32  1  0  0  0  0
  2 33  1  0  0  0  0
  3  4  1  0  0  0  0
  3 26  1  0  0  0  0
  3 34  1  0  0  0  0
  4  5  1  0  0  0  0
  4 35  1  0  0  0  0
  4 36  1  0  0  0  0
  5 25  1  0  0  0  0
  5  6  1  0  0  0  0
  6  7  2  0  0  0  0
  6 37  1  0  0  0  0
  7  8  1  0  0  0  0
  8 25  2  0  0  0  0
  8  9  1  0  0  0  0
  9 10  1  0  0  0  0
  9 22  2  0  0  0  0
 10 15  1  0  0  0  0
 10 11  1  0  0  0  0
 11 12  1  0  0  0  0
 11 38  1  0  0  0  0
 11 39  1  0  0  0  0
 12 13  1  0  0  0  0
 12 40  1  0  0  0  0
 12 41  1  0  0  0  0
 13 14  1  0  0  0  0
 13 42  1  0  0  0  0
 13 43  1  0  0  0  0
 14 15  1  0  0  0  0
 14 44  1  0  0  0  0
 14 45  1  0  0  0  0
 15 16  1  0  0  0  0
 15 46  1  0  0  0  0
 16 20  1  0  0  0  0
 16 17  1  0  0  0  0
 16 47  1  0  0  0  0
 17 18  1  0  0  0  0
 17 48  1  0  0  0  0
 17 49  1  0  0  0  0
 18 19  1  0  0  0  0
 18 50  1  0  0  0  0
 18 51  1  0  0  0  0
 19 20  1  0  0  0  0
 19 52  1  0  0  0  0
 19 53  1  0  0  0  0
 20 21  1  0  0  0  0
 20 54  1  0  0  0  0
 21 55  1  0  0  0  0
 22 23  1  0  0  0  0
 23 24  2  0  0  0  0
 23 56  1  0  0  0  0
 24 25  1  0  0  0  0
 26 30  1  0  0  0  0
 26 27  1  0  0  0  0
 26 57  1  0  0  0  0
 27 28  1  0  0  0  0
 27 58  1  0  0  0  0
 27 59  1  0  0  0  0
 28 29  1  0  0  0  0
 28 60  1  0  0  0  0
 28 61  1  0  0  0  0
 29 30  1  0  0  0  0
 30 62  1  0  0  0  0
 30 63  1  0  0  0  0
M  END
> <s_m_source_file>
AV-unprocessed.smi

> <i_m_source_file_index>
148

> <i_lp_mmshare_version>
43012

> <i_f3d_flags>
0

> <s_epik_input>
W0NIMl0xT1tDSDJdW0NIMl1bQ0BIXTFbQ0BIXShbQ0gyXVtPSF0pW0NIMl1uKFtjSF1uMiljKGMyMyluW2NIXW5jM040W0NIMl1bQ0gyXVtDSDJdW0NIMl1bQ0BIXTRbQ0BASF01W0NIMl1bQ0gyXVtDSDJdW0NASF01W09IXQ==

> <s_epik_cmdline>
J2VwaWtfcHl0aG9uJywgJy1waCcsICc3LjAnLCAnLXRuJywgJzgnLCAnLW1hJywgJzIwMCcsICctbWV0YWxfYmluZGluZycsICctaW1hZScsICc8aW5maWxlLm1hZT4nLCAnLW9tYWUnLCAnPG91dGZpbGUubWFlPic=

> <r_lp_tautomer_probability>
1

> <r_epik_Ionization_Penalty>
0.00556303

> <r_epik_Ionization_Penalty_Charging>
0

> <r_epik_Ionization_Penalty_Neutral>
0.00556303

> <r_epik_State_Penalty>
0.00401767

> <r_epik_Charging_Adjusted_Penalty>
0.00401767

> <i_epik_Tot_Q>
0

> <i_epik_Tot_abs_Q>
0

> <r_epik_Metal_State_Penalty>
-0

> <b_epik_Metal_Only>
0

> <s_lp_Force_Field>
OPLS_2005

> <r_lp_Energy>
68.5956

> <b_lp_Chiralities_Consistent>
1

> <s_lp_Variant>
AV-unprocessed.smi:148-3

> <Gold.Version>
5.8.1

> <Gold.Id.Protein>
6NUR|6NUR_protein|mol2

> <Gold.PLP.Fitness>
48.3398

> <Gold.PLP.PLP>
-43.5403

> <Gold.PLP.part.hbond>
-3.3370

> <Gold.PLP.part.metal>
0.0000

> <Gold.PLP.part.buried>
-5.2916

> <Gold.PLP.part.nonpolar>
-34.5282

> <Gold.PLP.part.repulsive>
0.2142

> <Gold.PLP.ligand.clash>
0.0000

> <Gold.PLP.ligand.torsion>
2.3226

> <Gold.PLP.Chemscore.Hbond>
2.9440

> <Gold.PLP.Chemscore.CHOScore>
0.0000

> <Gold.PLP.Chemscore.Metal>
0.0000

> <Gold.Chemscore.Hbonds>
donor molecule, donor type, donor heavy atom, donor atom, acceptor molecule, acceptor atom, score
      P1  H  6896  6909       L1     1  0.46
      P1  H  7997  8009       L1    21  1.00
      P1  H  7997  8010       L1    22  1.00

> <Gold.PLP.Chemscore.Internal.Correction>
0.6127

> <Gold.Rescore>
     Score         DG    S(hbond)    S(metal)    S(lipo)     H(rot)  DE(clash)    DE(int)     intcor
     16.45     -18.93       2.69        0.00     110.88       3.32       0.16       2.32       ----

> <Gold.Chemscore.Fitness>
16.4465

> <Gold.Chemscore.DG>
-18.9301

> <Gold.Chemscore.ZeroCoef>
-5.4800

> <Gold.Chemscore.Hbond>
2.6878

> <Gold.Chemscore.Metal>
0.0000

> <Gold.Chemscore.Lipo>
110.8785

> <Gold.Chemscore.Internal_Hbond>
0.0000

> <Gold.Chemscore.DEClash>
0.1596

> <Gold.Chemscore.DEInternal>
2.3240

> <Gold.Chemscore.Rot>
3.3203

> <Gold.Chemscore.Internal.Correction>
   9.000000E+99

> <Gold.Chemscore.Hbonds>
donor molecule, donor type, donor heavy atom, donor atom, acceptor molecule, acceptor atom, score
      P1  H  6896  6909       L1     1  0.20
      P1  H  7997  8009       L1    21  0.87
      P1  H  7997  8010       L1    22  0.77

> <Gold.Chemscore.Hbond.Weighted>
-8.9774

> <Gold.Chemscore.Metal.Weighted>
-0.0000

> <Gold.Chemscore.Lipo.Weighted>
-12.9728

> <Gold.Chemscore.Internal_Hbond.Weighted>
0.0000

> <Gold.Chemscore.DEClash.Weighted>
0.1596

> <Gold.Chemscore.DEInternal.Weighted>
2.3240

> <Gold.Chemscore.Rot.Weighted>
8.5000

> <Gold.Chemscore.Internal.Correction.Weighted>
   9.000000E+99

> <Gold.Protein.RotatedTorsions>
[ 6907 6896 6895 6894 ] final   11.97 input  -60.11 | X-H torsion
[ 7974 7965 7964 7962 ] final  109.98 input  175.53 | X-H torsion
[ 8008 7997 7996 7995 ] final   94.27 input   59.86 | X-H torsion
[ 10167 10162 10161 10158 ] final   35.25 input  -65.29 | X-H torsion
[ 10718 10713 10712 10709 ] final  -25.80 input   66.30 | X-H torsion
[ 10763 10752 10751 10750 ] final   67.12 input  -60.55 | X-H torsion
[ 11005 11000 10999 10996 ] final   85.41 input  -57.11 | X-H torsion

> <Gold.Protein.ActiveResidues>
 VAL166  LYS551  ARG553  GLY616  TRP617  ASP618  TYR619  PRO620  LYS621  CYS622 
 ASP623  PHE694  ASN695  SER759  ASP760  ASP761  ALA762  ILE779  LEU786  VAL792 
 PHE793  MET794  SER795  GLU796  ALA797  LYS798  CYS799  TRP800  GLU811  SER814 

> <Gold.Protein.RotatedAtoms>
  151.7628  135.0806  160.0347 H   0  0  0  0  0  0  0  0  0  0  0  0  # atno 6907 bound_to 6896
  152.3342  133.5988  159.5839 H   0  0  0  0  0  0  0  0  0  0  0  0  # atno 6908 bound_to 6896
  150.7440  133.9738  159.3596 H   0  0  0  0  0  0  0  0  0  0  0  0  # atno 6909 bound_to 6896
  145.2609  139.2703  143.4017 H   0  0  0  0  0  0  0  0  0  0  0  0  # atno 7974 bound_to 7965
  156.0561  140.3302  155.7407 H   0  0  0  0  0  0  0  0  0  0  0  0  # atno 8008 bound_to 7997
  155.5527  140.0611  157.2864 H   0  0  0  0  0  0  0  0  0  0  0  0  # atno 8009 bound_to 7997
  154.4458  140.1891  156.0691 H   0  0  0  0  0  0  0  0  0  0  0  0  # atno 8010 bound_to 7997
  140.4239  144.1421  150.6151 H   0  0  0  0  0  0  0  0  0  0  0  0  # atno 10167 bound_to 10162
  156.4595  130.4501  149.6938 H   0  0  0  0  0  0  0  0  0  0  0  0  # atno 10718 bound_to 10713
  153.0171  135.5295  154.6930 H   0  0  0  0  0  0  0  0  0  0  0  0  # atno 10763 bound_to 10752
  154.6060  135.2873  155.0487 H   0  0  0  0  0  0  0  0  0  0  0  0  # atno 10764 bound_to 10752
  154.1526  135.6560  153.5019 H   0  0  0  0  0  0  0  0  0  0  0  0  # atno 10765 bound_to 10752
  139.8972  134.8285  156.2579 H   0  0  0  0  0  0  0  0  0  0  0  0  # atno 11005 bound_to 11000
  146.3275  140.3025  142.8621 LP  0  0  0  0  0  0  0  0  0  0  0  0  # atno 17320 bound_to 7965
  144.9419  140.8088  143.5625 LP  0  0  0  0  0  0  0  0  0  0  0  0  # atno 17321 bound_to 7965
  140.4503  143.2489  151.9356 LP  0  0  0  0  0  0  0  0  0  0  0  0  # atno 17342 bound_to 10162
  139.4783  144.5569  151.8300 LP  0  0  0  0  0  0  0  0  0  0  0  0  # atno 17343 bound_to 10162
  156.3731  130.7541  151.2526 LP  0  0  0  0  0  0  0  0  0  0  0  0  # atno 17370 bound_to 10713
  157.7498  131.0317  150.4194 LP  0  0  0  0  0  0  0  0  0  0  0  0  # atno 17371 bound_to 10713
  141.0182  133.7056  156.1223 LP  0  0  0  0  0  0  0  0  0  0  0  0  # atno 17394 bound_to 11000
  140.7272  134.4294  157.5569 LP  0  0  0  0  0  0  0  0  0  0  0  0  # atno 17395 bound_to 11000

$$$$
