AV-unprocessed.smi:1570|AV-procd|sdf|6312|dock5
  -GOLD-   22720 6513D 1   1.00000     0.00000
 Structure written by MMmdl.
 51 53  0  0  0  0  0  0  0  0  1 V2000
  151.2765  140.4896  155.8798 C   0  0  0  0  0  0  0  0  0  0  0  0
  150.6484  140.6868  157.2651 C   0  0  0  0  0  0  0  0  0  0  0  0
  151.5686  141.3703  158.1708 N   0  0  0  0  0  0  0  0  0  0  0  0
  152.7213  140.8705  158.6752 C   0  0  0  0  0  0  0  0  0  0  0  0
  153.1861  139.7542  158.4448 O   0  0  0  0  0  0  0  0  0  0  0  0
  153.2600  141.8018  159.4977 N   0  0  0  0  0  0  0  0  0  0  0  0
  154.4827  141.6684  160.2898 C   0  0  0  0  0  0  0  0  0  0  0  0
  154.3940  140.5053  161.2982 C   0  0  2  0  0  0  0  0  0  0  0  0
  155.0530  140.9078  162.4802 O   0  0  0  0  0  0  0  0  0  0  0  0
  155.0603  139.2068  160.7915 C   0  0  0  0  0  0  0  0  0  0  0  0
  154.4760  137.9644  161.2967 N   0  0  0  0  0  0  0  0  0  0  0  0
  155.1711  136.7786  160.7974 C   0  0  0  0  0  0  0  0  0  0  0  0
  154.5707  135.4762  161.3596 C   0  0  1  0  0  0  0  0  0  0  0  0
  155.3497  134.2382  160.9039 C   0  0  0  0  0  0  0  0  0  0  0  0
  154.5993  135.5251  162.7833 O   0  0  0  0  0  0  0  0  0  0  0  0
  153.8938  136.6397  163.3216 C   0  0  1  0  0  0  0  0  0  0  0  0
  153.9851  136.5747  164.8497 C   0  0  0  0  0  0  0  0  0  0  0  0
  154.5009  137.9374  162.7550 C   0  0  0  0  0  0  0  0  0  0  0  0
  152.4223  142.9261  159.5263 C   0  0  0  0  0  0  0  0  0  0  0  0
  152.5298  144.1413  160.2249 C   0  0  0  0  0  0  0  0  0  0  0  0
  151.4914  145.0849  160.0451 C   0  0  0  0  0  0  0  0  0  0  0  0
  150.3929  144.8025  159.1924 C   0  0  0  0  0  0  0  0  0  0  0  0
  150.3098  143.5714  158.5006 C   0  0  0  0  0  0  0  0  0  0  0  0
  151.3564  142.6532  158.6950 C   0  0  0  0  0  0  0  0  0  0  0  0
  150.5832  139.9816  155.2093 H   0  0  0  0  0  0  0  0  0  0  0  0
  152.1833  139.8870  155.9397 H   0  0  0  0  0  0  0  0  0  0  0  0
  151.5377  141.4453  155.4243 H   0  0  0  0  0  0  0  0  0  0  0  0
  149.7251  141.2609  157.1748 H   0  0  0  0  0  0  0  0  0  0  0  0
  150.3636  139.7229  157.6872 H   0  0  0  0  0  0  0  0  0  0  0  0
  155.3493  141.5408  159.6390 H   0  0  0  0  0  0  0  0  0  0  0  0
  154.6424  142.6087  160.8195 H   0  0  0  0  0  0  0  0  0  0  0  0
  153.3470  140.3434  161.5480 H   0  0  0  0  0  0  0  0  0  0  0  0
  155.5542  141.6865  162.2895 H   0  0  0  0  0  0  0  0  0  0  0  0
  155.0305  139.1774  159.7026 H   0  0  0  0  0  0  0  0  0  0  0  0
  156.1200  139.2473  161.0490 H   0  0  0  0  0  0  0  0  0  0  0  0
  155.1269  136.7371  159.7104 H   0  0  0  0  0  0  0  0  0  0  0  0
  156.2284  136.8332  161.0629 H   0  0  0  0  0  0  0  0  0  0  0  0
  153.5347  135.3795  161.0304 H   0  0  0  0  0  0  0  0  0  0  0  0
  155.3407  134.1473  159.8174 H   0  0  0  0  0  0  0  0  0  0  0  0
  154.9124  133.3290  161.3171 H   0  0  0  0  0  0  0  0  0  0  0  0
  156.3898  134.2854  161.2277 H   0  0  0  0  0  0  0  0  0  0  0  0
  152.8445  136.5689  163.0298 H   0  0  0  0  0  0  0  0  0  0  0  0
  153.4445  137.4019  165.3102 H   0  0  0  0  0  0  0  0  0  0  0  0
  155.0211  136.6228  165.1858 H   0  0  0  0  0  0  0  0  0  0  0  0
  153.5553  135.6462  165.2263 H   0  0  0  0  0  0  0  0  0  0  0  0
  155.5286  138.0413  163.1074 H   0  0  0  0  0  0  0  0  0  0  0  0
  153.9501  138.7929  163.1480 H   0  0  0  0  0  0  0  0  0  0  0  0
  153.3675  144.3488  160.8743 H   0  0  0  0  0  0  0  0  0  0  0  0
  151.5349  146.0308  160.5641 H   0  0  0  0  0  0  0  0  0  0  0  0
  149.6102  145.5366  159.0703 H   0  0  0  0  0  0  0  0  0  0  0  0
  149.4745  143.3505  157.8529 H   0  0  0  0  0  0  0  0  0  0  0  0
  1  2  1  0  0  0  0
  1 25  1  0  0  0  0
  1 26  1  0  0  0  0
  1 27  1  0  0  0  0
  2  3  1  0  0  0  0
  2 28  1  0  0  0  0
  2 29  1  0  0  0  0
  3 24  1  0  0  0  0
  3  4  1  0  0  0  0
  4  5  2  0  0  0  0
  4  6  1  0  0  0  0
  6  7  1  0  0  0  0
  6 19  1  0  0  0  0
  7  8  1  0  0  0  0
  7 30  1  0  0  0  0
  7 31  1  0  0  0  0
  8  9  1  0  0  0  0
  8 10  1  0  0  0  0
  8 32  1  0  0  0  0
  9 33  1  0  0  0  0
 10 11  1  0  0  0  0
 10 34  1  0  0  0  0
 10 35  1  0  0  0  0
 11 18  1  0  0  0  0
 11 12  1  0  0  0  0
 12 13  1  0  0  0  0
 12 36  1  0  0  0  0
 12 37  1  0  0  0  0
 13 14  1  0  0  0  0
 13 15  1  0  0  0  0
 13 38  1  0  0  0  0
 14 39  1  0  0  0  0
 14 40  1  0  0  0  0
 14 41  1  0  0  0  0
 15 16  1  0  0  0  0
 16 17  1  0  0  0  0
 16 18  1  0  0  0  0
 16 42  1  0  0  0  0
 17 43  1  0  0  0  0
 17 44  1  0  0  0  0
 17 45  1  0  0  0  0
 18 46  1  0  0  0  0
 18 47  1  0  0  0  0
 19 24  2  0  0  0  0
 19 20  1  0  0  0  0
 20 21  2  0  0  0  0
 20 48  1  0  0  0  0
 21 22  1  0  0  0  0
 21 49  1  0  0  0  0
 22 23  2  0  0  0  0
 22 50  1  0  0  0  0
 23 24  1  0  0  0  0
 23 51  1  0  0  0  0
M  END
> <s_m_source_file>
AV-unprocessed.smi

> <i_m_source_file_index>
1570

> <i_lp_mmshare_version>
43012

> <i_f3d_flags>
0

> <s_epik_input>
W2NIXTFbY0hdW2NIXVtjSF1jKGMxMiluKFtDSDJdW0NIM10pYyg9TyluMltDSDJdW0NASF0oW09IXSlbQ0gyXU4zW0NIMl1bQ0BASF0oW0NIM10pT1tDQEBIXShbQ0gzXSlbQ0gyXTM=

> <s_epik_cmdline>
J2VwaWtfcHl0aG9uJywgJy1waCcsICc3LjAnLCAnLXRuJywgJzgnLCAnLW1hJywgJzIwMCcsICctbWV0YWxfYmluZGluZycsICctaW1hZScsICc8aW5maWxlLm1hZT4nLCAnLW9tYWUnLCAnPG91dGZpbGUubWFlPic=

> <r_epik_Ionization_Penalty>
0.214359

> <r_epik_Ionization_Penalty_Charging>
2.30976e-09

> <r_epik_Ionization_Penalty_Neutral>
0.214359

> <r_epik_State_Penalty>
0.204533

> <r_epik_Charging_Adjusted_Penalty>
0.204533

> <i_epik_Tot_Q>
0

> <i_epik_Tot_abs_Q>
0

> <r_epik_Metal_State_Penalty>
0.204533

> <b_epik_Metal_Only>
0

> <s_lp_Force_Field>
OPLS_2005

> <r_lp_Energy>
58.4553

> <b_lp_Chiralities_Consistent>
1

> <s_lp_Variant>
AV-unprocessed.smi:1570-1

> <Gold.Version>
5.8.1

> <Gold.Id.Protein>
6NUR|6NUR_protein|mol2

> <Gold.PLP.Fitness>
50.0602

> <Gold.PLP.PLP>
-49.0494

> <Gold.PLP.part.hbond>
-2.0000

> <Gold.PLP.part.metal>
0.0000

> <Gold.PLP.part.buried>
-4.2592

> <Gold.PLP.part.nonpolar>
-42.3451

> <Gold.PLP.part.repulsive>
0.0000

> <Gold.PLP.ligand.clash>
0.0000

> <Gold.PLP.ligand.torsion>
0.9524

> <Gold.PLP.Chemscore.Hbond>
0.9516

> <Gold.PLP.Chemscore.CHOScore>
0.0000

> <Gold.PLP.Chemscore.Metal>
0.0000

> <Gold.Chemscore.Hbonds>
donor molecule, donor type, donor heavy atom, donor atom, acceptor molecule, acceptor atom, score
      P1  H  7997  8010       L1     5  0.81

> <Gold.PLP.Chemscore.Internal.Correction>
0.0609

> <Gold.Rescore>
     Score         DG    S(hbond)    S(metal)    S(lipo)     H(rot)  DE(clash)    DE(int)     intcor
     17.40     -18.57       0.86        0.00     132.26       2.06       0.10       1.07       ----

> <Gold.Chemscore.Fitness>
17.3982

> <Gold.Chemscore.DG>
-18.5673

> <Gold.Chemscore.ZeroCoef>
-5.4800

> <Gold.Chemscore.Hbond>
0.8622

> <Gold.Chemscore.Metal>
0.0000

> <Gold.Chemscore.Lipo>
132.2605

> <Gold.Chemscore.Internal_Hbond>
0.0000

> <Gold.Chemscore.DEClash>
0.0977

> <Gold.Chemscore.DEInternal>
1.0714

> <Gold.Chemscore.Rot>
2.0574

> <Gold.Chemscore.Internal.Correction>
   9.000000E+99

> <Gold.Chemscore.Hbonds>
donor molecule, donor type, donor heavy atom, donor atom, acceptor molecule, acceptor atom, score
      P1  H  7997  8010       L1     5  0.46

> <Gold.Chemscore.Hbond.Weighted>
-2.8797

> <Gold.Chemscore.Metal.Weighted>
-0.0000

> <Gold.Chemscore.Lipo.Weighted>
-15.4745

> <Gold.Chemscore.Internal_Hbond.Weighted>
0.0000

> <Gold.Chemscore.DEClash.Weighted>
0.0977

> <Gold.Chemscore.DEInternal.Weighted>
1.0714

> <Gold.Chemscore.Rot.Weighted>
5.2669

> <Gold.Chemscore.Internal.Correction.Weighted>
   9.000000E+99

> <Gold.Protein.RotatedTorsions>
[ 6907 6896 6895 6894 ] final -129.56 input  -60.11 | X-H torsion
[ 7974 7965 7964 7962 ] final -102.46 input  175.53 | X-H torsion
[ 8008 7997 7996 7995 ] final   13.45 input   59.86 | X-H torsion
[ 10167 10162 10161 10158 ] final  -61.13 input  -65.29 | X-H torsion
[ 10718 10713 10712 10709 ] final  116.98 input   66.30 | X-H torsion
[ 10763 10752 10751 10750 ] final   62.80 input  -60.55 | X-H torsion
[ 11005 11000 10999 10996 ] final   46.99 input  -57.11 | X-H torsion

> <Gold.Protein.ActiveResidues>
 VAL166  LYS551  ARG553  GLY616  TRP617  ASP618  TYR619  PRO620  LYS621  CYS622 
 ASP623  PHE694  ASN695  SER759  ASP760  ASP761  ALA762  ILE779  LEU786  VAL792 
 PHE793  MET794  SER795  GLU796  ALA797  LYS798  CYS799  TRP800  GLU811  SER814 

> <Gold.Protein.RotatedAtoms>
  150.9300  133.6778  159.2812 H   0  0  0  0  0  0  0  0  0  0  0  0  # atno 6907 bound_to 6896
  151.4203  135.0995  159.9621 H   0  0  0  0  0  0  0  0  0  0  0  0  # atno 6908 bound_to 6896
  152.5021  133.8753  159.7374 H   0  0  0  0  0  0  0  0  0  0  0  0  # atno 6909 bound_to 6896
  145.2685  140.9291  143.3000 H   0  0  0  0  0  0  0  0  0  0  0  0  # atno 7974 bound_to 7965
  154.8346  140.2905  155.5699 H   0  0  0  0  0  0  0  0  0  0  0  0  # atno 8008 bound_to 7997
  156.3008  140.2525  156.3209 H   0  0  0  0  0  0  0  0  0  0  0  0  # atno 8009 bound_to 7997
  154.9192  140.0386  157.1978 H   0  0  0  0  0  0  0  0  0  0  0  0  # atno 8010 bound_to 7997
  140.6026  143.2365  151.5895 H   0  0  0  0  0  0  0  0  0  0  0  0  # atno 10167 bound_to 10162
  157.6126  131.1032  150.7550 H   0  0  0  0  0  0  0  0  0  0  0  0  # atno 10718 bound_to 10713
  152.9995  135.5452  154.6250 H   0  0  0  0  0  0  0  0  0  0  0  0  # atno 10763 bound_to 10752
  154.5541  135.2829  155.0983 H   0  0  0  0  0  0  0  0  0  0  0  0  # atno 10764 bound_to 10752
  154.2212  135.6450  153.5198 H   0  0  0  0  0  0  0  0  0  0  0  0  # atno 10765 bound_to 10752
  140.1319  134.4695  155.8515 H   0  0  0  0  0  0  0  0  0  0  0  0  # atno 11005 bound_to 11000
  144.9356  139.4248  143.6474 LP  0  0  0  0  0  0  0  0  0  0  0  0  # atno 17320 bound_to 7965
  146.3254  139.8289  142.8912 LP  0  0  0  0  0  0  0  0  0  0  0  0  # atno 17321 bound_to 7965
  139.5302  144.2940  152.1129 LP  0  0  0  0  0  0  0  0  0  0  0  0  # atno 17342 bound_to 10162
  140.2123  144.4550  150.6380 LP  0  0  0  0  0  0  0  0  0  0  0  0  # atno 17343 bound_to 10162
  156.7925  130.4894  149.5382 LP  0  0  0  0  0  0  0  0  0  0  0  0  # atno 17370 bound_to 10713
  156.1234  130.6126  151.0228 LP  0  0  0  0  0  0  0  0  0  0  0  0  # atno 17371 bound_to 10713
  141.2171  133.6799  156.7085 LP  0  0  0  0  0  0  0  0  0  0  0  0  # atno 17394 bound_to 11000
  140.2832  134.8300  157.3951 LP  0  0  0  0  0  0  0  0  0  0  0  0  # atno 17395 bound_to 11000

$$$$
