AV-unprocessed.smi:2317|AV-procd|sdf|9274|dock10
  -GOLD-   2272012493D 1   1.00000     0.00000
 Structure written by MMmdl.
 37 38  0  0  0  0  0  0  0  0  1 V2000
  144.3937  136.4961  152.2588 O   0  0  0  0  0  0  0  0  0  0  0  0
  145.6127  136.3593  152.1604 C   0  0  0  0  0  0  0  0  0  0  0  0
  146.4974  137.2300  152.6687 N   0  0  0  0  0  0  0  0  0  0  0  0
  146.1656  138.4322  153.4297 C   0  0  0  0  0  0  0  0  0  0  0  0
  147.3253  139.4569  153.4628 C   0  0  1  0  0  0  0  0  0  0  0  0
  146.8293  140.8742  153.8372 C   0  0  0  0  0  0  0  0  0  0  0  0
  147.9765  141.8926  153.9231 C   0  0  0  0  0  0  0  0  0  0  0  0
  149.0534  141.4315  154.9130 C   0  0  0  0  0  0  0  0  0  0  0  0
  149.5826  140.0439  154.5291 C   0  0  0  0  0  0  0  0  0  0  0  0
  148.4429  139.0118  154.4404 C   0  0  2  0  0  0  0  0  0  0  0  0
  149.0076  137.7855  154.0202 O   0  0  0  0  0  0  0  0  0  0  0  0
  146.2370  135.3519  151.5259 N   0  0  0  0  0  0  0  0  0  0  0  0
  145.6794  134.2228  150.8643 C   0  0  0  0  0  0  0  0  0  0  0  0
  144.4366  134.2249  150.1850 C   0  0  0  0  0  0  0  0  0  0  0  0
  143.9933  133.0297  149.5839 C   0  0  0  0  0  0  0  0  0  0  0  0
  144.6876  131.8732  149.6252 N   0  0  0  0  0  0  0  0  0  0  0  0
  145.8657  131.8712  150.2834 C   0  0  0  0  0  0  0  0  0  0  0  0
  146.3998  133.0106  150.9181 C   0  0  0  0  0  0  0  0  0  0  0  0
  147.5876  132.9375  151.5661 F   0  0  0  0  0  0  0  0  0  0  0  0
  147.4794  137.0412  152.5304 H   0  0  0  0  0  0  0  0  0  0  0  0
  145.2576  138.9019  153.0475 H   0  0  0  0  0  0  0  0  0  0  0  0
  145.9272  138.1032  154.4411 H   0  0  0  0  0  0  0  0  0  0  0  0
  147.7560  139.5114  152.4615 H   0  0  0  0  0  0  0  0  0  0  0  0
  146.1048  141.2304  153.1049 H   0  0  0  0  0  0  0  0  0  0  0  0
  146.3057  140.8378  154.7934 H   0  0  0  0  0  0  0  0  0  0  0  0
  148.4195  142.0296  152.9359 H   0  0  0  0  0  0  0  0  0  0  0  0
  147.5874  142.8653  154.2250 H   0  0  0  0  0  0  0  0  0  0  0  0
  149.8728  142.1504  154.9346 H   0  0  0  0  0  0  0  0  0  0  0  0
  148.6388  141.4017  155.9215 H   0  0  0  0  0  0  0  0  0  0  0  0
  150.0995  140.1096  153.5704 H   0  0  0  0  0  0  0  0  0  0  0  0
  150.3252  139.7200  155.2593 H   0  0  0  0  0  0  0  0  0  0  0  0
  148.0174  138.8640  155.4339 H   0  0  0  0  0  0  0  0  0  0  0  0
  148.7731  137.6412  153.1163 H   0  0  0  0  0  0  0  0  0  0  0  0
  147.2426  135.4208  151.4738 H   0  0  0  0  0  0  0  0  0  0  0  0
  143.8123  135.1019  150.1202 H   0  0  0  0  0  0  0  0  0  0  0  0
  143.0496  133.0015  149.0597 H   0  0  0  0  0  0  0  0  0  0  0  0
  146.3984  130.9322  150.3069 H   0  0  0  0  0  0  0  0  0  0  0  0
  1  2  2  0  0  0  0
  2  3  1  0  0  0  0
  2 12  1  0  0  0  0
  3  4  1  0  0  0  0
  3 20  1  0  0  0  0
  4  5  1  0  0  0  0
  4 21  1  0  0  0  0
  4 22  1  0  0  0  0
  5 10  1  0  0  0  0
  5  6  1  0  0  0  0
  5 23  1  0  0  0  0
  6  7  1  0  0  0  0
  6 24  1  0  0  0  0
  6 25  1  0  0  0  0
  7  8  1  0  0  0  0
  7 26  1  0  0  0  0
  7 27  1  0  0  0  0
  8  9  1  0  0  0  0
  8 28  1  0  0  0  0
  8 29  1  0  0  0  0
  9 10  1  0  0  0  0
  9 30  1  0  0  0  0
  9 31  1  0  0  0  0
 10 11  1  0  0  0  0
 10 32  1  0  0  0  0
 11 33  1  0  0  0  0
 12 13  1  0  0  0  0
 12 34  1  0  0  0  0
 13 18  1  0  0  0  0
 13 14  2  0  0  0  0
 14 15  1  0  0  0  0
 14 35  1  0  0  0  0
 15 16  2  0  0  0  0
 15 36  1  0  0  0  0
 16 17  1  0  0  0  0
 17 18  2  0  0  0  0
 17 37  1  0  0  0  0
 18 19  1  0  0  0  0
M  END
> <s_m_source_file>
AV-unprocessed.smi

> <i_m_source_file_index>
2317

> <i_lp_mmshare_version>
43012

> <i_f3d_flags>
0

> <s_epik_input>
RmMxW2NIXW5bY0hdW2NIXWMxW05IXUMoPU8pW05IXVtDSDJdW0NAQEhdMltDSDJdW0NIMl1bQ0gyXVtDSDJdW0NASF0yW09IXQ==

> <s_epik_cmdline>
J2VwaWtfcHl0aG9uJywgJy1waCcsICc3LjAnLCAnLXRuJywgJzgnLCAnLW1hJywgJzIwMCcsICctbWV0YWxfYmluZGluZycsICctaW1hZScsICc8aW5maWxlLm1hZT4nLCAnLW9tYWUnLCAnPG91dGZpbGUubWFlPic=

> <r_epik_Ionization_Penalty>
0.00317647

> <r_epik_Ionization_Penalty_Charging>
0

> <r_epik_Ionization_Penalty_Neutral>
0.00317647

> <r_epik_State_Penalty>
0.0022093

> <r_epik_Charging_Adjusted_Penalty>
0.0022093

> <i_epik_Tot_Q>
0

> <i_epik_Tot_abs_Q>
0

> <r_epik_Metal_State_Penalty>
-0

> <b_epik_Metal_Only>
0

> <s_lp_Force_Field>
OPLS_2005

> <r_lp_Energy>
17.8728

> <b_lp_Chiralities_Consistent>
1

> <s_lp_Variant>
AV-unprocessed.smi:2317-4

> <Gold.Version>
5.8.1

> <Gold.Id.Protein>
6NUR|6NUR_protein|mol2

> <Gold.PLP.Fitness>
46.3202

> <Gold.PLP.PLP>
-33.6968

> <Gold.PLP.part.hbond>
-3.7526

> <Gold.PLP.part.metal>
0.0000

> <Gold.PLP.part.buried>
-1.7338

> <Gold.PLP.part.nonpolar>
-28.9366

> <Gold.PLP.part.repulsive>
0.4177

> <Gold.PLP.ligand.clash>
0.0000

> <Gold.PLP.ligand.torsion>
0.5073

> <Gold.PLP.Chemscore.Hbond>
2.7200

> <Gold.PLP.Chemscore.CHOScore>
1.8247

> <Gold.PLP.Chemscore.Metal>
0.0000

> <Gold.Chemscore.Hbonds>
donor molecule, donor type, donor heavy atom, donor atom, acceptor molecule, acceptor atom, score
      L1  H     3    20       P1  7948  1.00
      L1  H    11    33       P1  7948  0.74
      L1  H    12    34       P1  7948  1.00
      L1  C    15    36       P1 10186  0.94
      L1  C    17    37       P1 10747  0.76

> <Gold.PLP.Chemscore.Internal.Correction>
0.0039

> <Gold.Rescore>
     Score         DG    S(hbond)    S(metal)    S(lipo)     H(rot)  DE(clash)    DE(int)     intcor
     18.52     -20.39       2.93        0.00      82.86       1.79       0.07       1.81       ----

> <Gold.Chemscore.Fitness>
18.5157

> <Gold.Chemscore.DG>
-20.3891

> <Gold.Chemscore.ZeroCoef>
-5.4800

> <Gold.Chemscore.Hbond>
2.9297

> <Gold.Chemscore.Metal>
0.0000

> <Gold.Chemscore.Lipo>
82.8572

> <Gold.Chemscore.Internal_Hbond>
0.0000

> <Gold.Chemscore.DEClash>
0.0664

> <Gold.Chemscore.DEInternal>
1.8070

> <Gold.Chemscore.Rot>
1.7853

> <Gold.Chemscore.Internal.Correction>
   9.000000E+99

> <Gold.Chemscore.Hbonds>
donor molecule, donor type, donor heavy atom, donor atom, acceptor molecule, acceptor atom, score
      L1  H     3    20       P1  7948  0.99
      L1  H    11    33       P1  7948  0.74
      L1  H    12    34       P1  7948  0.93
      P1  H 10785 10796       L1    16  0.02

> <Gold.Chemscore.Hbond.Weighted>
-9.7852

> <Gold.Chemscore.Metal.Weighted>
-0.0000

> <Gold.Chemscore.Lipo.Weighted>
-9.6943

> <Gold.Chemscore.Internal_Hbond.Weighted>
0.0000

> <Gold.Chemscore.DEClash.Weighted>
0.0664

> <Gold.Chemscore.DEInternal.Weighted>
1.8070

> <Gold.Chemscore.Rot.Weighted>
4.5704

> <Gold.Chemscore.Internal.Correction.Weighted>
   9.000000E+99

> <Gold.Protein.RotatedTorsions>
[ 6907 6896 6895 6894 ] final  133.49 input  -60.11 | X-H torsion
[ 7974 7965 7964 7962 ] final -168.14 input  175.53 | X-H torsion
[ 8008 7997 7996 7995 ] final   -3.69 input   59.86 | X-H torsion
[ 10167 10162 10161 10158 ] final   -8.11 input  -65.29 | X-H torsion
[ 10718 10713 10712 10709 ] final    8.23 input   66.30 | X-H torsion
[ 10763 10752 10751 10750 ] final -134.20 input  -60.55 | X-H torsion
[ 11005 11000 10999 10996 ] final  151.24 input  -57.11 | X-H torsion

> <Gold.Protein.ActiveResidues>
 VAL166  LYS551  ARG553  GLY616  TRP617  ASP618  TYR619  PRO620  LYS621  CYS622 
 ASP623  PHE694  ASN695  SER759  ASP760  ASP761  ALA762  ILE779  LEU786  VAL792 
 PHE793  MET794  SER795  GLU796  ALA797  LYS798  CYS799  TRP800  GLU811  SER814 

> <Gold.Protein.RotatedAtoms>
  152.3213  133.5857  159.5746 H   0  0  0  0  0  0  0  0  0  0  0  0  # atno 6907 bound_to 6896
  150.7373  134.0006  159.3646 H   0  0  0  0  0  0  0  0  0  0  0  0  # atno 6908 bound_to 6896
  151.7890  135.0741  160.0435 H   0  0  0  0  0  0  0  0  0  0  0  0  # atno 6909 bound_to 6896
  144.7209  140.2414  143.6291 H   0  0  0  0  0  0  0  0  0  0  0  0  # atno 7974 bound_to 7965
  154.6222  140.2503  155.7535 H   0  0  0  0  0  0  0  0  0  0  0  0  # atno 8008 bound_to 7997
  156.2433  140.2924  156.0454 H   0  0  0  0  0  0  0  0  0  0  0  0  # atno 8009 bound_to 7997
  155.1879  140.0391  157.2885 H   0  0  0  0  0  0  0  0  0  0  0  0  # atno 8010 bound_to 7997
  140.7049  143.6005  150.8802 H   0  0  0  0  0  0  0  0  0  0  0  0  # atno 10167 bound_to 10162
  156.9485  130.5888  149.5655 H   0  0  0  0  0  0  0  0  0  0  0  0  # atno 10718 bound_to 10713
  154.8722  135.3742  154.4697 H   0  0  0  0  0  0  0  0  0  0  0  0  # atno 10763 bound_to 10752
  153.5358  135.7027  153.5666 H   0  0  0  0  0  0  0  0  0  0  0  0  # atno 10764 bound_to 10752
  153.3850  135.3987  155.1848 H   0  0  0  0  0  0  0  0  0  0  0  0  # atno 10765 bound_to 10752
  140.1202  134.8869  157.2060 H   0  0  0  0  0  0  0  0  0  0  0  0  # atno 11005 bound_to 11000
  145.8316  139.2088  143.1879 LP  0  0  0  0  0  0  0  0  0  0  0  0  # atno 17320 bound_to 7965
  146.0426  140.8150  142.9821 LP  0  0  0  0  0  0  0  0  0  0  0  0  # atno 17321 bound_to 7965
  139.9730  143.6036  152.2967 LP  0  0  0  0  0  0  0  0  0  0  0  0  # atno 17342 bound_to 10162
  139.6629  144.7662  151.1928 LP  0  0  0  0  0  0  0  0  0  0  0  0  # atno 17343 bound_to 10162
  156.0373  130.5459  150.8685 LP  0  0  0  0  0  0  0  0  0  0  0  0  # atno 17370 bound_to 10713
  157.5738  131.0946  150.9378 LP  0  0  0  0  0  0  0  0  0  0  0  0  # atno 17371 bound_to 10713
  140.2976  134.3169  155.7298 LP  0  0  0  0  0  0  0  0  0  0  0  0  # atno 17394 bound_to 11000
  141.2150  133.7572  156.9593 LP  0  0  0  0  0  0  0  0  0  0  0  0  # atno 17395 bound_to 11000

$$$$
