AV-unprocessed.smi:2804|AV-procd|sdf|10809|dock2
  -GOLD-   2272015243D 1   1.00000     0.00000
 Structure written by MMmdl.
 35 36  0  0  0  0  0  0  0  0  1 V2000
  154.9893  140.3544  162.7465 C   0  0  0  0  0  0  0  0  0  0  0  0
  154.0617  140.2625  161.5309 C   0  0  0  0  0  0  0  0  0  0  0  0
  154.4240  141.2790  160.4370 C   0  0  0  0  0  0  0  0  0  0  0  0
  153.3292  141.4396  159.4839 N   0  0  0  0  0  0  0  0  0  0  0  0
  152.8064  140.4792  158.6860 C   0  0  0  0  0  0  0  0  0  0  0  0
  153.1595  139.3007  158.6448 O   0  0  0  0  0  0  0  0  0  0  0  0
  151.8388  141.0443  157.9260 N   0  0  0  0  0  0  0  0  0  0  0  0
  151.0301  140.3716  156.9102 C   0  0  0  0  0  0  0  0  0  0  0  0
  151.8643  139.3644  156.0908 C   0  0  2  0  0  0  0  0  0  0  0  0
  152.7481  140.0893  155.2573 O   0  0  0  0  0  0  0  0  0  0  0  0
  150.9941  138.4634  155.1928 C   0  0  0  0  0  0  0  0  0  0  0  0
  150.2361  137.6624  155.9423 F   0  0  0  0  0  0  0  0  0  0  0  0
  150.1838  139.2192  154.4520 F   0  0  0  0  0  0  0  0  0  0  0  0
  151.7530  137.7277  154.3796 F   0  0  0  0  0  0  0  0  0  0  0  0
  151.7519  142.4100  158.2340 C   0  0  0  0  0  0  0  0  0  0  0  0
  150.9309  143.4273  157.7161 C   0  0  0  0  0  0  0  0  0  0  0  0
  151.1039  144.7289  158.2424 C   0  0  0  0  0  0  0  0  0  0  0  0
  152.0710  144.9839  159.2492 C   0  0  0  0  0  0  0  0  0  0  0  0
  152.8853  143.9422  159.7519 C   0  0  0  0  0  0  0  0  0  0  0  0
  152.6912  142.6583  159.2133 C   0  0  0  0  0  0  0  0  0  0  0  0
  154.7119  139.6201  163.5029 H   0  0  0  0  0  0  0  0  0  0  0  0
  154.9384  141.3418  163.2061 H   0  0  0  0  0  0  0  0  0  0  0  0
  156.0260  140.1673  162.4649 H   0  0  0  0  0  0  0  0  0  0  0  0
  154.1061  139.2519  161.1230 H   0  0  0  0  0  0  0  0  0  0  0  0
  153.0318  140.4200  161.8535 H   0  0  0  0  0  0  0  0  0  0  0  0
  154.6661  142.2430  160.8874 H   0  0  0  0  0  0  0  0  0  0  0  0
  155.3218  140.9598  159.9067 H   0  0  0  0  0  0  0  0  0  0  0  0
  150.2244  139.8474  157.4261 H   0  0  0  0  0  0  0  0  0  0  0  0
  150.5367  141.0946  156.2599 H   0  0  0  0  0  0  0  0  0  0  0  0
  152.4536  138.7301  156.7545 H   0  0  0  0  0  0  0  0  0  0  0  0
  152.4445  140.9827  155.2052 H   0  0  0  0  0  0  0  0  0  0  0  0
  150.2000  143.2310  156.9459 H   0  0  0  0  0  0  0  0  0  0  0  0
  150.4942  145.5394  157.8712 H   0  0  0  0  0  0  0  0  0  0  0  0
  152.1886  145.9858  159.6350 H   0  0  0  0  0  0  0  0  0  0  0  0
  153.6258  144.1307  160.5150 H   0  0  0  0  0  0  0  0  0  0  0  0
  1  2  1  0  0  0  0
  1 21  1  0  0  0  0
  1 22  1  0  0  0  0
  1 23  1  0  0  0  0
  2  3  1  0  0  0  0
  2 24  1  0  0  0  0
  2 25  1  0  0  0  0
  3  4  1  0  0  0  0
  3 26  1  0  0  0  0
  3 27  1  0  0  0  0
  4 20  1  0  0  0  0
  4  5  1  0  0  0  0
  5  6  2  0  0  0  0
  5  7  1  0  0  0  0
  7  8  1  0  0  0  0
  7 15  1  0  0  0  0
  8  9  1  0  0  0  0
  8 28  1  0  0  0  0
  8 29  1  0  0  0  0
  9 10  1  0  0  0  0
  9 11  1  0  0  0  0
  9 30  1  0  0  0  0
 10 31  1  0  0  0  0
 11 12  1  0  0  0  0
 11 13  1  0  0  0  0
 11 14  1  0  0  0  0
 15 20  2  0  0  0  0
 15 16  1  0  0  0  0
 16 17  2  0  0  0  0
 16 32  1  0  0  0  0
 17 18  1  0  0  0  0
 17 33  1  0  0  0  0
 18 19  2  0  0  0  0
 18 34  1  0  0  0  0
 19 20  1  0  0  0  0
 19 35  1  0  0  0  0
M  END
> <s_m_source_file>
AV-unprocessed.smi

> <i_m_source_file_index>
2804

> <i_lp_mmshare_version>
43012

> <i_f3d_flags>
0

> <s_epik_input>
W2NIXTFbY0hdW2NIXVtjSF1jKGMxMiluKFtDSDJdW0NIMl1bQ0gzXSljKD1PKW4yW0NIMl1bQ0BIXShbT0hdKUMoRikoRilG

> <s_epik_cmdline>
J2VwaWtfcHl0aG9uJywgJy1waCcsICc3LjAnLCAnLXRuJywgJzgnLCAnLW1hJywgJzIwMCcsICctbWV0YWxfYmluZGluZycsICctaW1hZScsICc8aW5maWxlLm1hZT4nLCAnLW9tYWUnLCAnPG91dGZpbGUubWFlPic=

> <r_epik_Ionization_Penalty>
0.0117937

> <r_epik_Ionization_Penalty_Charging>
3.30828e-09

> <r_epik_Ionization_Penalty_Neutral>
0.0117937

> <r_epik_State_Penalty>
0.00909547

> <r_epik_Charging_Adjusted_Penalty>
0.00909547

> <i_epik_Tot_Q>
0

> <i_epik_Tot_abs_Q>
0

> <r_epik_Metal_State_Penalty>
0.00909547

> <b_epik_Metal_Only>
0

> <s_lp_Force_Field>
OPLS_2005

> <r_lp_Energy>
41.5992

> <b_lp_Chiralities_Consistent>
1

> <s_lp_Variant>
AV-unprocessed.smi:2804-1

> <Gold.Version>
5.8.1

> <Gold.Id.Protein>
6NUR|6NUR_protein|mol2

> <Gold.PLP.Fitness>
47.8570

> <Gold.PLP.PLP>
-45.6644

> <Gold.PLP.part.hbond>
-2.5139

> <Gold.PLP.part.metal>
0.0000

> <Gold.PLP.part.buried>
-1.5491

> <Gold.PLP.part.nonpolar>
-41.0085

> <Gold.PLP.part.repulsive>
0.0000

> <Gold.PLP.ligand.clash>
0.0000

> <Gold.PLP.ligand.torsion>
0.4806

> <Gold.PLP.Chemscore.Hbond>
1.0323

> <Gold.PLP.Chemscore.CHOScore>
0.0000

> <Gold.PLP.Chemscore.Metal>
0.0000

> <Gold.Chemscore.Hbonds>
donor molecule, donor type, donor heavy atom, donor atom, acceptor molecule, acceptor atom, score
      P1  H  7997  8008       L1    10  0.94

> <Gold.PLP.Chemscore.Internal.Correction>
0.0568

> <Gold.Rescore>
     Score         DG    S(hbond)    S(metal)    S(lipo)     H(rot)  DE(clash)    DE(int)     intcor
     11.56     -13.65       0.35        0.00     110.40       2.32       0.09       2.00       ----

> <Gold.Chemscore.Fitness>
11.5627

> <Gold.Chemscore.DG>
-13.6541

> <Gold.Chemscore.ZeroCoef>
-5.4800

> <Gold.Chemscore.Hbond>
0.3545

> <Gold.Chemscore.Metal>
0.0000

> <Gold.Chemscore.Lipo>
110.4022

> <Gold.Chemscore.Internal_Hbond>
0.0000

> <Gold.Chemscore.DEClash>
0.0880

> <Gold.Chemscore.DEInternal>
2.0034

> <Gold.Chemscore.Rot>
2.3152

> <Gold.Chemscore.Internal.Correction>
   9.000000E+99

> <Gold.Chemscore.Hbonds>
donor molecule, donor type, donor heavy atom, donor atom, acceptor molecule, acceptor atom, score
      P1  H  7997  8008       L1    10  0.40

> <Gold.Chemscore.Hbond.Weighted>
-1.1839

> <Gold.Chemscore.Metal.Weighted>
-0.0000

> <Gold.Chemscore.Lipo.Weighted>
-12.9171

> <Gold.Chemscore.Internal_Hbond.Weighted>
0.0000

> <Gold.Chemscore.DEClash.Weighted>
0.0880

> <Gold.Chemscore.DEInternal.Weighted>
2.0034

> <Gold.Chemscore.Rot.Weighted>
5.9268

> <Gold.Chemscore.Internal.Correction.Weighted>
   9.000000E+99

> <Gold.Protein.RotatedTorsions>
[ 6907 6896 6895 6894 ] final  -21.84 input  -60.11 | X-H torsion
[ 7974 7965 7964 7962 ] final  162.08 input  175.53 | X-H torsion
[ 8008 7997 7996 7995 ] final   -1.23 input   59.86 | X-H torsion
[ 10167 10162 10161 10158 ] final -118.19 input  -65.29 | X-H torsion
[ 10718 10713 10712 10709 ] final -114.38 input   66.30 | X-H torsion
[ 10763 10752 10751 10750 ] final   -2.61 input  -60.55 | X-H torsion
[ 11005 11000 10999 10996 ] final   27.94 input  -57.11 | X-H torsion

> <Gold.Protein.ActiveResidues>
 VAL166  LYS551  ARG553  GLY616  TRP617  ASP618  TYR619  PRO620  LYS621  CYS622 
 ASP623  PHE694  ASN695  SER759  ASP760  ASP761  ALA762  ILE779  LEU786  VAL792 
 PHE793  MET794  SER795  GLU796  ALA797  LYS798  CYS799  TRP800  GLU811  SER814 

> <Gold.Protein.RotatedAtoms>
  151.2274  135.0542  159.8973 H   0  0  0  0  0  0  0  0  0  0  0  0  # atno 6907 bound_to 6896
  152.5408  134.0574  159.8147 H   0  0  0  0  0  0  0  0  0  0  0  0  # atno 6908 bound_to 6896
  151.0749  133.5388  159.2656 H   0  0  0  0  0  0  0  0  0  0  0  0  # atno 6909 bound_to 6896
  144.7654  139.7989  143.6317 H   0  0  0  0  0  0  0  0  0  0  0  0  # atno 7974 bound_to 7965
  154.6491  140.2564  155.7234 H   0  0  0  0  0  0  0  0  0  0  0  0  # atno 8008 bound_to 7997
  156.2566  140.2871  156.0839 H   0  0  0  0  0  0  0  0  0  0  0  0  # atno 8009 bound_to 7997
  155.1478  140.0381  157.2804 H   0  0  0  0  0  0  0  0  0  0  0  0  # atno 8010 bound_to 7997
  140.0601  143.4976  152.2036 H   0  0  0  0  0  0  0  0  0  0  0  0  # atno 10167 bound_to 10162
  156.0826  130.6024  150.8767 H   0  0  0  0  0  0  0  0  0  0  0  0  # atno 10718 bound_to 10713
  153.3603  135.6990  153.6718 H   0  0  0  0  0  0  0  0  0  0  0  0  # atno 10763 bound_to 10752
  153.5409  135.3573  155.2718 H   0  0  0  0  0  0  0  0  0  0  0  0  # atno 10764 bound_to 10752
  154.8667  135.4203  154.2858 H   0  0  0  0  0  0  0  0  0  0  0  0  # atno 10765 bound_to 10752
  140.3209  134.2544  155.7717 H   0  0  0  0  0  0  0  0  0  0  0  0  # atno 11005 bound_to 11000
  146.1757  139.4926  142.9899 LP  0  0  0  0  0  0  0  0  0  0  0  0  # atno 17320 bound_to 7965
  145.6486  141.0268  143.1772 LP  0  0  0  0  0  0  0  0  0  0  0  0  # atno 17321 bound_to 7965
  139.5899  144.7546  151.3427 LP  0  0  0  0  0  0  0  0  0  0  0  0  # atno 17342 bound_to 10162
  140.7176  143.7225  150.7685 LP  0  0  0  0  0  0  0  0  0  0  0  0  # atno 17343 bound_to 10162
  157.5949  131.0943  150.9057 LP  0  0  0  0  0  0  0  0  0  0  0  0  # atno 17370 bound_to 10713
  156.9226  130.5320  149.5279 LP  0  0  0  0  0  0  0  0  0  0  0  0  # atno 17371 bound_to 10713
  141.2087  133.7771  157.0044 LP  0  0  0  0  0  0  0  0  0  0  0  0  # atno 17394 bound_to 11000
  140.0943  134.9574  157.1824 LP  0  0  0  0  0  0  0  0  0  0  0  0  # atno 17395 bound_to 11000

$$$$
