#       Name:                AV-unprocessed.smi:3287
#       Creating user name   scv26
#       Creation time:       Fri Mar 27 18:52:24 2020


#       File generated by GOLD software.
#

@<TRIPOS>MOLECULE
AV-unprocessed.smi:3287
    46    47     1
SMALL
NO_CHARGES


@<TRIPOS>ATOM
      1 ****        -3.8140   3.5980   0.5978 C.3            1 S1                 0.0000
      2 ****        -3.1001   2.2515   0.3947 C.3            1 S1                 0.0000
      3 ****        -1.8620   2.1161   1.3025 C.3            1 S1                 0.0000
      4 ****        -1.2037   0.7346   1.1588 C.3            1 S1                 0.0000
      5 ****        -0.8412   0.4243  -0.3082 C.3            1 S1                 0.0000
      6 ****        -0.2805  -0.9373  -0.4533 N.4            1 S1                 1.0000
      7 ****         1.1071  -1.1085   0.0294 C.3            1 S1                 0.0000
      8 ****         1.6154  -2.5388  -0.2229 C.3            1 S1                 0.0000
      9 ****         0.8117  -3.4428   0.5103 O.3            1 S1                 0.0000
     10 ****         3.0859  -2.6730   0.1400 C.ar           1 S1                 0.0000
     11 ****         4.0698  -2.7318  -0.8691 C.ar           1 S1                 0.0000
     12 ****         5.4211  -2.8515  -0.4871 C.ar           1 S1                 0.0000
     13 ****         5.8255  -2.9094   0.7996 N.ar           1 S1                 0.0000
     14 ****         4.8806  -2.8505   1.7620 C.ar           1 S1                 0.0000
     15 ****         3.5034  -2.7323   1.4875 C.ar           1 S1                 0.0000
     16 ****        -2.0853   0.5693  -1.2076 C.3            1 S1                 0.0000
     17 ****        -2.7541   1.9552  -1.0869 C.3            1 S1                 0.0000
     18 ****        -1.9187   3.0545  -1.7740 C.3            1 S1                 0.0000
     19 ****        -3.1551   4.4416   0.3916 H              1 S1                 0.0000
     20 ****        -4.1622   3.7017   1.6259 H              1 S1                 0.0000
     21 ****        -4.6850   3.6842  -0.0525 H              1 S1                 0.0000
     22 ****        -3.8083   1.4835   0.7103 H              1 S1                 0.0000
     23 ****        -1.1364   2.8959   1.0696 H              1 S1                 0.0000
     24 ****        -2.1486   2.2713   2.3434 H              1 S1                 0.0000
     25 ****        -0.3166   0.7007   1.7909 H              1 S1                 0.0000
     26 ****        -1.8827  -0.0296   1.5399 H              1 S1                 0.0000
     27 ****        -0.0863   1.1343  -0.6483 H              1 S1                 0.0000
     28 ****        -0.8785  -1.5916   0.0315 H              1 S1                 0.0000
     29 ****         1.7469  -0.3969  -0.4944 H              1 S1                 0.0000
     30 ****         1.1691  -0.8727   1.0920 H              1 S1                 0.0000
     31 ****         1.4969  -2.7819  -1.2800 H              1 S1                 0.0000
     32 ****         1.0994  -4.3230   0.3183 H              1 S1                 0.0000
     33 ****         3.8020  -2.6869  -1.9144 H              1 S1                 0.0000
     34 ****         6.1978  -2.9012  -1.2358 H              1 S1                 0.0000
     35 ****         5.2321  -2.8975   2.7821 H              1 S1                 0.0000
     36 ****         2.7888  -2.6876   2.2965 H              1 S1                 0.0000
     37 ****        -1.8201   0.3759  -2.2479 H              1 S1                 0.0000
     38 ****        -2.8140  -0.1969  -0.9379 H              1 S1                 0.0000
     39 ****        -3.6951   1.9005  -1.6362 H              1 S1                 0.0000
     40 ****        -0.9756   3.2389  -1.2605 H              1 S1                 0.0000
     41 ****        -2.4607   3.9990  -1.8173 H              1 S1                 0.0000
     42 ****        -1.6837   2.7785  -2.8023 H              1 S1                 0.0000
     43 ****        -0.2868  -1.1689  -1.4362 H              1 S1                 0.0000
     44 ****        -0.1461  -3.3352   0.2440 LP             1 S1                 0.0000
     45 ****         0.9078  -3.2623   1.4891 LP             1 S1                 0.0000
     46 ****         6.7944  -2.9932   1.0324 LP             1 S1                 0.0000
@<TRIPOS>BOND
    1    1    2 1     
    2    1   19 1     
    3    1   20 1     
    4    1   21 1     
    5    2   17 1     
    6    2    3 1     
    7    2   22 1     
    8    3    4 1     
    9    3   23 1     
   10    3   24 1     
   11    4    5 1     
   12    4   25 1     
   13    4   26 1     
   14    5    6 1     
   15    5   16 1     
   16    5   27 1     
   17    6    7 1     
   18    6   28 1     
   19    6   43 1     
   20    7    8 1     
   21    7   29 1     
   22    7   30 1     
   23    8    9 1     
   24    8   10 1     
   25    8   31 1     
   26    9   32 1     
   27   10   15 ar    
   28   10   11 ar    
   29   11   12 ar    
   30   11   33 1     
   31   12   13 ar    
   32   12   34 1     
   33   13   14 ar    
   34   14   15 ar    
   35   14   35 1     
   36   15   36 1     
   37   16   17 1     
   38   16   37 1     
   39   16   38 1     
   40   17   18 1     
   41   17   39 1     
   42   18   40 1     
   43   18   41 1     
   44   18   42 1     
   45    9   44 1     
   46    9   45 1     
   47   13   46 1     
@<TRIPOS>SUBSTRUCTURE
      1 S1             1
@<TRIPOS>SET
LONE_PAIRS      STATIC     ATOMS    <user>   **** ""
3 44 45 46
DONOR_HYDROGENS      STATIC     ATOMS    <user>   **** ""
3 28 43 32
ATOM$BLUE        STATIC     ATOMS    COLORGROUP SYSTEM
3 44 45 46
ATOM$RED        STATIC     ATOMS    COLORGROUP SYSTEM
3 28 43 32
