AV-unprocessed.smi:1406|AV-procd|sdf|5712|dock6
  -GOLD-   22720 5343D 1   1.00000     0.00000
 Structure written by MMmdl.
 41 43  0  0  0  0  0  0  0  0  2 V2000
  153.4789  137.7541  161.2112 C   0  0  0  0  0  0  0  0  0  0  0  0
  152.8505  137.8830  159.8085 C   0  0  1  0  0  0  0  0  0  0  0  0
  153.0818  139.2679  159.1714 C   0  0  0  0  0  0  0  0  0  0  0  0
  154.2209  139.7173  159.0394 O   0  0  0  0  0  0  0  0  0  0  0  0
  151.9891  139.9543  158.7977 N   0  0  0  0  0  0  0  0  0  0  0  0
  152.0026  141.2738  158.1735 C   0  0  1  0  0  0  0  0  0  0  0  0
  150.5985  141.8167  157.8779 C   0  0  0  0  0  0  0  0  0  0  0  0
  150.7233  143.3444  158.0162 C   0  0  0  0  0  0  0  0  0  0  0  0
  152.1247  143.6105  158.4116 N   0  3  1  0  0  0  0  0  0  0  0  0
  152.3733  144.8705  159.1580 C   0  0  0  0  0  0  0  0  0  0  0  0
  151.9946  144.7650  160.6448 C   0  0  0  0  0  0  0  0  0  0  0  0
  152.6835  143.5606  161.2945 C   0  0  0  0  0  0  0  0  0  0  0  0
  152.2966  142.2828  160.5431 C   0  0  0  0  0  0  0  0  0  0  0  0
  152.6460  142.3732  159.0351 C   0  0  1  0  0  0  0  0  0  0  0  0
  153.2946  136.8070  158.9277 N   0  0  0  0  0  0  0  0  0  0  0  0
  153.3657  136.7614  157.5954 C   0  0  0  0  0  0  0  0  0  0  0  0
  153.8601  135.6266  157.1213 N   0  0  0  0  0  0  0  0  0  0  0  0
  154.0899  134.9689  158.2965 C   0  0  0  0  0  0  0  0  0  0  0  0
  153.7766  135.6337  159.4085 N   0  0  0  0  0  0  0  0  0  0  0  0
  153.0709  138.4953  161.8992 H   0  0  0  0  0  0  0  0  0  0  0  0
  154.5614  137.8869  161.1847 H   0  0  0  0  0  0  0  0  0  0  0  0
  153.2767  136.7718  161.6391 H   0  0  0  0  0  0  0  0  0  0  0  0
  151.7711  137.7756  159.9235 H   0  0  0  0  0  0  0  0  0  0  0  0
  151.0870  139.5229  158.9390 H   0  0  0  0  0  0  0  0  0  0  0  0
  152.5419  141.2145  157.2255 H   0  0  0  0  0  0  0  0  0  0  0  0
  150.2529  141.5190  156.8873 H   0  0  0  0  0  0  0  0  0  0  0  0
  149.8743  141.4420  158.6031 H   0  0  0  0  0  0  0  0  0  0  0  0
  150.4958  143.8583  157.0816 H   0  0  0  0  0  0  0  0  0  0  0  0
  150.0274  143.7074  158.7732 H   0  0  0  0  0  0  0  0  0  0  0  0
  153.4357  145.1029  159.0759 H   0  0  0  0  0  0  0  0  0  0  0  0
  151.8395  145.6935  158.6816 H   0  0  0  0  0  0  0  0  0  0  0  0
  152.2780  145.6805  161.1650 H   0  0  0  0  0  0  0  0  0  0  0  0
  150.9133  144.6740  160.7527 H   0  0  0  0  0  0  0  0  0  0  0  0
  153.7661  143.6921  161.2755 H   0  0  0  0  0  0  0  0  0  0  0  0
  152.3945  143.4823  162.3431 H   0  0  0  0  0  0  0  0  0  0  0  0
  152.8022  141.4290  160.9953 H   0  0  0  0  0  0  0  0  0  0  0  0
  151.2279  142.1082  160.6734 H   0  0  0  0  0  0  0  0  0  0  0  0
  153.7313  142.3549  158.9251 H   0  0  0  0  0  0  0  0  0  0  0  0
  153.0563  137.5777  156.9592 H   0  0  0  0  0  0  0  0  0  0  0  0
  154.5072  133.9733  158.3340 H   0  0  0  0  0  0  0  0  0  0  0  0
  152.6241  143.6988  157.5379 H   0  0  0  0  0  0  0  0  0  0  0  0
  1  2  1  0  0  0  0
  1 20  1  0  0  0  0
  1 21  1  0  0  0  0
  1 22  1  0  0  0  0
  2  3  1  0  0  0  0
  2 15  1  0  0  0  0
  2 23  1  0  0  0  0
  3  4  2  0  0  0  0
  3  5  1  0  0  0  0
  5  6  1  0  0  0  0
  5 24  1  0  0  0  0
  6 14  1  0  0  0  0
  6  7  1  0  0  0  0
  6 25  1  0  0  0  0
  7  8  1  0  0  0  0
  7 26  1  0  0  0  0
  7 27  1  0  0  0  0
  8  9  1  0  0  0  0
  8 28  1  0  0  0  0
  8 29  1  0  0  0  0
  9 14  1  0  0  0  0
  9 10  1  0  0  0  0
  9 41  1  0  0  0  0
 10 11  1  0  0  0  0
 10 30  1  0  0  0  0
 10 31  1  0  0  0  0
 11 12  1  0  0  0  0
 11 32  1  0  0  0  0
 11 33  1  0  0  0  0
 12 13  1  0  0  0  0
 12 34  1  0  0  0  0
 12 35  1  0  0  0  0
 13 14  1  0  0  0  0
 13 36  1  0  0  0  0
 13 37  1  0  0  0  0
 14 38  1  0  0  0  0
 15 19  1  0  0  0  0
 15 16  1  0  0  0  0
 16 17  2  0  0  0  0
 16 39  1  0  0  0  0
 17 18  1  0  0  0  0
 18 19  2  0  0  0  0
 18 40  1  0  0  0  0
M  CHG  1   9   1
M  END
> <s_m_source_file>
AV-unprocessed.smi

> <i_m_source_file_index>
1406

> <i_lp_mmshare_version>
43012

> <i_f3d_flags>
0

> <s_epik_input>
bjFbY0hdbltjSF1uMVtDQEhdKFtDSDNdKUMoPU8pW05IXVtDQEhdKFtDSDJdW0NIMl0yKVtDQEBIXShOMjMpW0NIMl1bQ0gyXVtDSDJdW0NIMl0z

> <s_epik_cmdline>
J2VwaWtfcHl0aG9uJywgJy1waCcsICc3LjAnLCAnLXRuJywgJzgnLCAnLW1hJywgJzIwMCcsICctbWV0YWxfYmluZGluZycsICctaW1hZScsICc8aW5maWxlLm1hZT4nLCAnLW9tYWUnLCAnPG91dGZpbGUubWFlPic=

> <r_lp_tautomer_probability>
1

> <r_epik_Ionization_Penalty>
0.00197066

> <r_epik_Ionization_Penalty_Charging>
0.00196223

> <r_epik_Ionization_Penalty_Neutral>
8.43107e-06

> <r_epik_State_Penalty>
0.00133866

> <r_epik_Charging_Adjusted_Penalty>
0.00330089

> <i_epik_Tot_Q>
1

> <i_epik_Tot_abs_Q>
1

> <r_epik_Metal_State_Penalty>
-0

> <b_epik_Metal_Only>
0

> <s_lp_Force_Field>
OPLS_2005

> <r_lp_Energy>
42.4798

> <b_lp_Chiralities_Consistent>
1

> <s_lp_Variant>
AV-unprocessed.smi:1406-4

> <Gold.Version>
5.8.1

> <Gold.Id.Protein>
6NUR|6NUR_protein|mol2

> <Gold.PLP.Fitness>
42.7320

> <Gold.PLP.PLP>
-35.2500

> <Gold.PLP.part.hbond>
-3.0000

> <Gold.PLP.part.metal>
0.0000

> <Gold.PLP.part.buried>
-5.6537

> <Gold.PLP.part.nonpolar>
-27.8430

> <Gold.PLP.part.repulsive>
0.1289

> <Gold.PLP.ligand.clash>
0.0000

> <Gold.PLP.ligand.torsion>
0.8093

> <Gold.PLP.Chemscore.Hbond>
3.0000

> <Gold.PLP.Chemscore.CHOScore>
0.0000

> <Gold.PLP.Chemscore.Metal>
0.0000

> <Gold.Chemscore.Hbonds>
donor molecule, donor type, donor heavy atom, donor atom, acceptor molecule, acceptor atom, score
      P1  H  6896  6908       L1    19  1.00
      P1  H  7997  8009       L1     4  1.00
      P1  H 10752 10764       L1    17  1.00

> <Gold.PLP.Chemscore.Internal.Correction>
0.1006

> <Gold.Rescore>
     Score         DG    S(hbond)    S(metal)    S(lipo)     H(rot)  DE(clash)    DE(int)     intcor
     17.91     -18.11       1.98        0.00      92.84       1.89       0.11       0.09       ----

> <Gold.Chemscore.Fitness>
17.9066

> <Gold.Chemscore.DG>
-18.1095

> <Gold.Chemscore.ZeroCoef>
-5.4800

> <Gold.Chemscore.Hbond>
1.9750

> <Gold.Chemscore.Metal>
0.0000

> <Gold.Chemscore.Lipo>
92.8419

> <Gold.Chemscore.Internal_Hbond>
0.0000

> <Gold.Chemscore.DEClash>
0.1103

> <Gold.Chemscore.DEInternal>
0.0926

> <Gold.Chemscore.Rot>
1.8865

> <Gold.Chemscore.Internal.Correction>
   9.000000E+99

> <Gold.Chemscore.Hbonds>
donor molecule, donor type, donor heavy atom, donor atom, acceptor molecule, acceptor atom, score
      P1  H  6896  6908       L1    19  0.21
      P1  H  7997  8009       L1     4  0.96
      P1  H 10752 10764       L1    17  0.92

> <Gold.Chemscore.Hbond.Weighted>
-6.5966

> <Gold.Chemscore.Metal.Weighted>
-0.0000

> <Gold.Chemscore.Lipo.Weighted>
-10.8625

> <Gold.Chemscore.Internal_Hbond.Weighted>
0.0000

> <Gold.Chemscore.DEClash.Weighted>
0.1103

> <Gold.Chemscore.DEInternal.Weighted>
0.0926

> <Gold.Chemscore.Rot.Weighted>
4.8295

> <Gold.Chemscore.Internal.Correction.Weighted>
   9.000000E+99

> <Gold.Protein.RotatedTorsions>
[ 6907 6896 6895 6894 ] final  -64.70 input  -60.11 | X-H torsion
[ 7974 7965 7964 7962 ] final   45.05 input  175.53 | X-H torsion
[ 8008 7997 7996 7995 ] final  133.83 input   59.86 | X-H torsion
[ 10167 10162 10161 10158 ] final -134.14 input  -65.29 | X-H torsion
[ 10718 10713 10712 10709 ] final  -88.59 input   66.30 | X-H torsion
[ 10763 10752 10751 10750 ] final    4.84 input  -60.55 | X-H torsion
[ 11005 11000 10999 10996 ] final  -37.02 input  -57.11 | X-H torsion

> <Gold.Protein.ActiveResidues>
 VAL166  LYS551  ARG553  GLY616  TRP617  ASP618  TYR619  PRO620  LYS621  CYS622 
 ASP623  PHE694  ASN695  SER759  ASP760  ASP761  ALA762  ILE779  LEU786  VAL792 
 PHE793  MET794  SER795  GLU796  ALA797  LYS798  CYS799  TRP800  GLU811  SER814 

> <Gold.Protein.RotatedAtoms>
  150.7569  134.6261  159.6161 H   0  0  0  0  0  0  0  0  0  0  0  0  # atno 6907 bound_to 6896
  152.3553  134.6945  160.0233 H   0  0  0  0  0  0  0  0  0  0  0  0  # atno 6908 bound_to 6896
  151.7353  133.3283  159.3387 H   0  0  0  0  0  0  0  0  0  0  0  0  # atno 6909 bound_to 6896
  146.0514  139.5007  142.9716 H   0  0  0  0  0  0  0  0  0  0  0  0  # atno 7974 bound_to 7965
  156.2995  140.2511  156.3318 H   0  0  0  0  0  0  0  0  0  0  0  0  # atno 8008 bound_to 7997
  154.9138  140.0402  157.1980 H   0  0  0  0  0  0  0  0  0  0  0  0  # atno 8009 bound_to 7997
  154.8379  140.2886  155.5683 H   0  0  0  0  0  0  0  0  0  0  0  0  # atno 8010 bound_to 7997
  139.8911  143.6722  152.2612 H   0  0  0  0  0  0  0  0  0  0  0  0  # atno 10167 bound_to 10162
  155.9983  130.4841  150.5043 H   0  0  0  0  0  0  0  0  0  0  0  0  # atno 10718 bound_to 10713
  153.2665  135.6928  153.7524 H   0  0  0  0  0  0  0  0  0  0  0  0  # atno 10763 bound_to 10752
  153.6564  135.3368  155.3115 H   0  0  0  0  0  0  0  0  0  0  0  0  # atno 10764 bound_to 10752
  154.8449  135.4466  154.1673 H   0  0  0  0  0  0  0  0  0  0  0  0  # atno 10765 bound_to 10752
  140.9920  133.7000  156.1866 H   0  0  0  0  0  0  0  0  0  0  0  0  # atno 11005 bound_to 11000
  145.6717  141.0214  143.1654 LP  0  0  0  0  0  0  0  0  0  0  0  0  # atno 17320 bound_to 7965
  144.7125  139.8318  143.7410 LP  0  0  0  0  0  0  0  0  0  0  0  0  # atno 17321 bound_to 7965
  139.7109  144.7620  151.1114 LP  0  0  0  0  0  0  0  0  0  0  0  0  # atno 17342 bound_to 10162
  140.7726  143.5332  150.9399 LP  0  0  0  0  0  0  0  0  0  0  0  0  # atno 17343 bound_to 10162
  157.3024  131.0648  151.2059 LP  0  0  0  0  0  0  0  0  0  0  0  0  # atno 17370 bound_to 10713
  157.3034  130.6854  149.6176 LP  0  0  0  0  0  0  0  0  0  0  0  0  # atno 17371 bound_to 10713
  140.7025  134.4548  157.5585 LP  0  0  0  0  0  0  0  0  0  0  0  0  # atno 17394 bound_to 11000
  139.8996  134.8586  156.1951 LP  0  0  0  0  0  0  0  0  0  0  0  0  # atno 17395 bound_to 11000

$$$$
