AV-unprocessed.smi:2007|AV-procd|sdf|8134|dock3
  -GOLD-   2272010363D 1   1.00000     0.00000
 Structure written by MMmdl.
 36 37  0  0  0  0  0  0  0  0  1 V2000
  152.6188  144.4644  157.2275 C   0  0  0  0  0  0  0  0  0  0  0  0
  151.8858  143.2009  157.6974 C   0  0  1  0  0  0  0  0  0  0  0  0
  151.5426  143.2841  159.2010 C   0  0  0  0  0  0  0  0  0  0  0  0
  152.6391  142.9766  160.1205 N   0  0  0  0  0  0  0  0  0  0  0  0
  152.2319  143.0311  161.5232 C   0  0  0  0  0  0  0  0  0  0  0  0
  153.3974  142.6952  162.4694 C   0  0  0  0  0  0  0  0  0  0  0  0
  153.9236  141.4126  162.1439 O   0  0  0  0  0  0  0  0  0  0  0  0
  154.3702  141.3291  160.7945 C   0  0  0  0  0  0  0  0  0  0  0  0
  153.2058  141.6613  159.8452 C   0  0  0  0  0  0  0  0  0  0  0  0
  150.6663  143.0386  156.9069 N   0  0  0  0  0  0  0  0  0  0  0  0
  150.4073  142.0306  156.0603 C   0  0  0  0  0  0  0  0  0  0  0  0
  151.1964  141.1146  155.8267 O   0  0  0  0  0  0  0  0  0  0  0  0
  149.1846  142.1584  155.5158 N   0  0  0  0  0  0  0  0  0  0  0  0
  148.5384  141.2917  154.5960 C   0  0  0  0  0  0  0  0  0  0  0  0
  149.0414  140.1246  154.1765 N   0  0  0  0  0  0  0  0  0  0  0  0
  148.1900  139.4801  153.2755 C   0  0  0  0  0  0  0  0  0  0  0  0
  147.0349  140.1758  153.0181 C   0  0  0  0  0  0  0  0  0  0  0  0
  146.9702  141.6771  153.9023 S   0  0  0  0  0  0  0  0  0  0  0  0
  153.5471  144.6071  157.7812 H   0  0  0  0  0  0  0  0  0  0  0  0
  152.0072  145.3562  157.3688 H   0  0  0  0  0  0  0  0  0  0  0  0
  152.8747  144.3993  156.1694 H   0  0  0  0  0  0  0  0  0  0  0  0
  152.5631  142.3650  157.5203 H   0  0  0  0  0  0  0  0  0  0  0  0
  151.1519  144.2773  159.4275 H   0  0  0  0  0  0  0  0  0  0  0  0
  150.7194  142.5938  159.3909 H   0  0  0  0  0  0  0  0  0  0  0  0
  151.8570  144.0219  161.7746 H   0  0  0  0  0  0  0  0  0  0  0  0
  151.4116  142.3336  161.6982 H   0  0  0  0  0  0  0  0  0  0  0  0
  154.1828  143.4490  162.3947 H   0  0  0  0  0  0  0  0  0  0  0  0
  153.0562  142.6891  163.5046 H   0  0  0  0  0  0  0  0  0  0  0  0
  155.2046  142.0143  160.6367 H   0  0  0  0  0  0  0  0  0  0  0  0
  154.7407  140.3221  160.6029 H   0  0  0  0  0  0  0  0  0  0  0  0
  152.4325  140.8975  159.9411 H   0  0  0  0  0  0  0  0  0  0  0  0
  153.5602  141.6187  158.8148 H   0  0  0  0  0  0  0  0  0  0  0  0
  149.9543  143.7429  157.0315 H   0  0  0  0  0  0  0  0  0  0  0  0
  148.6492  142.9653  155.8001 H   0  0  0  0  0  0  0  0  0  0  0  0
  148.4855  138.5261  152.8649 H   0  0  0  0  0  0  0  0  0  0  0  0
  146.2215  139.8967  152.3649 H   0  0  0  0  0  0  0  0  0  0  0  0
  1  2  1  0  0  0  0
  1 19  1  0  0  0  0
  1 20  1  0  0  0  0
  1 21  1  0  0  0  0
  2  3  1  0  0  0  0
  2 10  1  0  0  0  0
  2 22  1  0  0  0  0
  3  4  1  0  0  0  0
  3 23  1  0  0  0  0
  3 24  1  0  0  0  0
  4  9  1  0  0  0  0
  4  5  1  0  0  0  0
  5  6  1  0  0  0  0
  5 25  1  0  0  0  0
  5 26  1  0  0  0  0
  6  7  1  0  0  0  0
  6 27  1  0  0  0  0
  6 28  1  0  0  0  0
  7  8  1  0  0  0  0
  8  9  1  0  0  0  0
  8 29  1  0  0  0  0
  8 30  1  0  0  0  0
  9 31  1  0  0  0  0
  9 32  1  0  0  0  0
 10 11  1  0  0  0  0
 10 33  1  0  0  0  0
 11 12  2  0  0  0  0
 11 13  1  0  0  0  0
 13 14  1  0  0  0  0
 13 34  1  0  0  0  0
 14 18  1  0  0  0  0
 14 15  2  0  0  0  0
 15 16  1  0  0  0  0
 16 17  2  0  0  0  0
 16 35  1  0  0  0  0
 17 18  1  0  0  0  0
 17 36  1  0  0  0  0
M  END
> <s_m_source_file>
AV-unprocessed.smi

> <i_m_source_file_index>
2007

> <i_lp_mmshare_version>
43012

> <i_f3d_flags>
0

> <s_epik_input>
W0NIMl0xW0NIMl1PW0NIMl1bQ0gyXU4xW0NIMl1bQ0BASF0oW0NIM10pW05IXUMoPU8pW05IXWMybltjSF1bY0hdczI=

> <s_epik_cmdline>
J2VwaWtfcHl0aG9uJywgJy1waCcsICc3LjAnLCAnLXRuJywgJzgnLCAnLW1hJywgJzIwMCcsICctbWV0YWxfYmluZGluZycsICctaW1hZScsICc8aW5maWxlLm1hZT4nLCAnLW9tYWUnLCAnPG91dGZpbGUubWFlPic=

> <r_lp_tautomer_probability>
0.999

> <r_epik_Ionization_Penalty>
0.219197

> <r_epik_Ionization_Penalty_Charging>
0

> <r_epik_Ionization_Penalty_Neutral>
0.219197

> <r_epik_State_Penalty>
0.209349

> <r_epik_Charging_Adjusted_Penalty>
0.209349

> <i_epik_Tot_Q>
0

> <i_epik_Tot_abs_Q>
0

> <r_epik_Metal_State_Penalty>
0.254604

> <b_epik_Metal_Only>
0

> <s_lp_Force_Field>
OPLS_2005

> <r_lp_Energy>
23.7512

> <b_lp_Chiralities_Consistent>
1

> <s_lp_Variant>
AV-unprocessed.smi:2007-2

> <Gold.Version>
5.8.1

> <Gold.Id.Protein>
6NUR|6NUR_protein|mol2

> <Gold.PLP.Fitness>
45.4394

> <Gold.PLP.PLP>
-35.7224

> <Gold.PLP.part.hbond>
-2.4001

> <Gold.PLP.part.metal>
0.0000

> <Gold.PLP.part.buried>
-4.0379

> <Gold.PLP.part.nonpolar>
-28.7165

> <Gold.PLP.part.repulsive>
0.3525

> <Gold.PLP.ligand.clash>
0.0000

> <Gold.PLP.ligand.torsion>
0.2172

> <Gold.PLP.Chemscore.Hbond>
1.4400

> <Gold.PLP.Chemscore.CHOScore>
1.9392

> <Gold.PLP.Chemscore.Metal>
0.0000

> <Gold.Chemscore.Hbonds>
donor molecule, donor type, donor heavy atom, donor atom, acceptor molecule, acceptor atom, score
      L1  H    10    33       P1  8028  0.61
      L1  H    13    34       P1  8028  0.70
      P1  H  7989  7998       L1    12  0.10
      L1  C    16    35       P1  7948  1.00
      L1  C    16    35       P1  7957  0.04
      L1  C    17    36       P1 10175  0.83

> <Gold.PLP.Chemscore.Internal.Correction>
0.0137

> <Gold.Rescore>
     Score         DG    S(hbond)    S(metal)    S(lipo)     H(rot)  DE(clash)    DE(int)     intcor
     15.35     -19.08       1.65        0.00     103.84       1.58       2.28       1.45       ----

> <Gold.Chemscore.Fitness>
15.3462

> <Gold.Chemscore.DG>
-19.0801

> <Gold.Chemscore.ZeroCoef>
-5.4800

> <Gold.Chemscore.Hbond>
1.6473

> <Gold.Chemscore.Metal>
0.0000

> <Gold.Chemscore.Lipo>
103.8408

> <Gold.Chemscore.Internal_Hbond>
0.0000

> <Gold.Chemscore.DEClash>
2.2837

> <Gold.Chemscore.DEInternal>
1.4502

> <Gold.Chemscore.Rot>
1.5825

> <Gold.Chemscore.Internal.Correction>
   9.000000E+99

> <Gold.Chemscore.Hbonds>
donor molecule, donor type, donor heavy atom, donor atom, acceptor molecule, acceptor atom, score
      L1  H    10    33       P1  8028  0.57
      L1  H    13    34       P1  8028  0.70
      P1  H  7989  7998       L1    12  0.09

> <Gold.Chemscore.Hbond.Weighted>
-5.5020

> <Gold.Chemscore.Metal.Weighted>
-0.0000

> <Gold.Chemscore.Lipo.Weighted>
-12.1494

> <Gold.Chemscore.Internal_Hbond.Weighted>
0.0000

> <Gold.Chemscore.DEClash.Weighted>
2.2837

> <Gold.Chemscore.DEInternal.Weighted>
1.4502

> <Gold.Chemscore.Rot.Weighted>
4.0512

> <Gold.Chemscore.Internal.Correction.Weighted>
   9.000000E+99

> <Gold.Protein.RotatedTorsions>
[ 6907 6896 6895 6894 ] final -129.79 input  -60.11 | X-H torsion
[ 7974 7965 7964 7962 ] final -107.89 input  175.53 | X-H torsion
[ 8008 7997 7996 7995 ] final  -90.21 input   59.86 | X-H torsion
[ 10167 10162 10161 10158 ] final   28.67 input  -65.29 | X-H torsion
[ 10718 10713 10712 10709 ] final  -46.88 input   66.30 | X-H torsion
[ 10763 10752 10751 10750 ] final   74.68 input  -60.55 | X-H torsion
[ 11005 11000 10999 10996 ] final -176.17 input  -57.11 | X-H torsion

> <Gold.Protein.ActiveResidues>
 VAL166  LYS551  ARG553  GLY616  TRP617  ASP618  TYR619  PRO620  LYS621  CYS622 
 ASP623  PHE694  ASN695  SER759  ASP760  ASP761  ALA762  ILE779  LEU786  VAL792 
 PHE793  MET794  SER795  GLU796  ALA797  LYS798  CYS799  TRP800  GLU811  SER814 

> <Gold.Protein.RotatedAtoms>
  150.9325  133.6750  159.2807 H   0  0  0  0  0  0  0  0  0  0  0  0  # atno 6907 bound_to 6896
  151.4166  135.0991  159.9611 H   0  0  0  0  0  0  0  0  0  0  0  0  # atno 6908 bound_to 6896
  152.5033  133.8786  159.7390 H   0  0  0  0  0  0  0  0  0  0  0  0  # atno 6909 bound_to 6896
  145.1996  140.9051  143.3377 H   0  0  0  0  0  0  0  0  0  0  0  0  # atno 7974 bound_to 7965
  154.6958  140.0533  157.0409 H   0  0  0  0  0  0  0  0  0  0  0  0  # atno 8008 bound_to 7997
  155.0753  140.3204  155.4599 H   0  0  0  0  0  0  0  0  0  0  0  0  # atno 8009 bound_to 7997
  156.2744  140.2074  156.5880 H   0  0  0  0  0  0  0  0  0  0  0  0  # atno 8010 bound_to 7997
  140.4832  144.0583  150.6272 H   0  0  0  0  0  0  0  0  0  0  0  0  # atno 10167 bound_to 10162
  156.2139  130.4162  149.9079 H   0  0  0  0  0  0  0  0  0  0  0  0  # atno 10718 bound_to 10713
  153.0603  135.5017  154.8078 H   0  0  0  0  0  0  0  0  0  0  0  0  # atno 10763 bound_to 10752
  154.6872  135.2978  154.9533 H   0  0  0  0  0  0  0  0  0  0  0  0  # atno 10764 bound_to 10752
  154.0300  135.6731  153.4832 H   0  0  0  0  0  0  0  0  0  0  0  0  # atno 10765 bound_to 10752
  140.4551  134.6307  157.4818 H   0  0  0  0  0  0  0  0  0  0  0  0  # atno 11005 bound_to 11000
  144.9960  139.3643  143.6191 LP  0  0  0  0  0  0  0  0  0  0  0  0  # atno 17320 bound_to 7965
  146.3420  139.9163  142.8773 LP  0  0  0  0  0  0  0  0  0  0  0  0  # atno 17321 bound_to 7965
  140.3831  143.2792  152.0147 LP  0  0  0  0  0  0  0  0  0  0  0  0  # atno 17342 bound_to 10162
  139.4837  144.6139  151.7383 LP  0  0  0  0  0  0  0  0  0  0  0  0  # atno 17343 bound_to 10162
  156.6748  130.8834  151.3567 LP  0  0  0  0  0  0  0  0  0  0  0  0  # atno 17370 bound_to 10713
  157.7053  130.9378  150.0911 LP  0  0  0  0  0  0  0  0  0  0  0  0  # atno 17371 bound_to 10713
  139.9981  134.6879  155.9575 LP  0  0  0  0  0  0  0  0  0  0  0  0  # atno 17394 bound_to 11000
  141.1647  133.6537  156.4437 LP  0  0  0  0  0  0  0  0  0  0  0  0  # atno 17395 bound_to 11000

$$$$
