AV-unprocessed.smi:2459|AV-procd|sdf|9713|dock2
  -GOLD-   2272013353D 1   1.00000     0.00000
 Structure written by MMmdl.
 46 47  0  0  0  0  0  0  0  0  1 V2000
  155.2116  133.4689  160.5897 C   0  0  0  0  0  0  0  0  0  0  0  0
  154.6144  134.7147  160.2339 O   0  0  0  0  0  0  0  0  0  0  0  0
  155.2099  135.4706  159.1687 C   0  0  0  0  0  0  0  0  0  0  0  0
  156.7070  135.7324  159.4575 C   0  0  0  0  0  0  0  0  0  0  0  0
  155.0821  134.5884  157.9143 C   0  0  0  0  0  0  0  0  0  0  0  0
  154.4341  136.7879  158.9327 C   0  0  0  0  0  0  0  0  0  0  0  0
  153.8449  136.9656  157.8666 O   0  0  0  0  0  0  0  0  0  0  0  0
  154.4594  137.6815  159.9406 N   0  0  0  0  0  0  0  0  0  0  0  0
  153.8696  138.9725  160.0102 C   0  0  0  0  0  0  0  0  0  0  0  0
  153.0608  139.3826  158.9318 C   0  0  0  0  0  0  0  0  0  0  0  0
  152.4501  140.5834  158.8695 N   0  0  0  0  0  0  0  0  0  0  0  0
  152.6268  141.4517  159.8931 C   0  0  0  0  0  0  0  0  0  0  0  0
  151.9753  142.6921  159.8104 N   0  0  0  0  0  0  0  0  0  0  0  0
  150.9183  142.7234  158.8028 C   0  0  0  0  0  0  0  0  0  0  0  0
  150.0961  144.0184  158.9157 C   0  0  0  0  0  0  0  0  0  0  0  0
  151.0079  145.2547  158.8508 C   0  0  0  0  0  0  0  0  0  0  0  0
  152.1177  145.1540  159.9101 C   0  0  0  0  0  0  0  0  0  0  0  0
  152.8897  143.8306  159.7728 C   0  0  0  0  0  0  0  0  0  0  0  0
  153.4323  141.1477  161.0168 C   0  0  0  0  0  0  0  0  0  0  0  0
  153.6230  142.1438  162.1474 C   0  0  0  0  0  0  0  0  0  0  0  0
  154.0664  139.8887  161.0704 C   0  0  0  0  0  0  0  0  0  0  0  0
  154.7211  133.0829  161.4829 H   0  0  0  0  0  0  0  0  0  0  0  0
  156.2748  133.5575  160.8133 H   0  0  0  0  0  0  0  0  0  0  0  0
  155.0823  132.7241  159.8045 H   0  0  0  0  0  0  0  0  0  0  0  0
  157.2162  136.1387  158.5824 H   0  0  0  0  0  0  0  0  0  0  0  0
  157.2202  134.8098  159.7305 H   0  0  0  0  0  0  0  0  0  0  0  0
  156.8511  136.4448  160.2706 H   0  0  0  0  0  0  0  0  0  0  0  0
  155.5169  135.0712  157.0379 H   0  0  0  0  0  0  0  0  0  0  0  0
  154.0391  134.3653  157.6858 H   0  0  0  0  0  0  0  0  0  0  0  0
  155.5949  133.6360  158.0526 H   0  0  0  0  0  0  0  0  0  0  0  0
  155.0366  137.4274  160.7296 H   0  0  0  0  0  0  0  0  0  0  0  0
  152.8914  138.7244  158.0921 H   0  0  0  0  0  0  0  0  0  0  0  0
  151.3613  142.6516  157.8083 H   0  0  0  0  0  0  0  0  0  0  0  0
  150.2665  141.8575  158.9264 H   0  0  0  0  0  0  0  0  0  0  0  0
  149.3512  144.0588  158.1207 H   0  0  0  0  0  0  0  0  0  0  0  0
  149.5457  144.0192  159.8575 H   0  0  0  0  0  0  0  0  0  0  0  0
  151.4544  145.3283  157.8585 H   0  0  0  0  0  0  0  0  0  0  0  0
  150.4240  146.1633  159.0000 H   0  0  0  0  0  0  0  0  0  0  0  0
  152.8025  145.9973  159.8180 H   0  0  0  0  0  0  0  0  0  0  0  0
  151.6787  145.2174  160.9066 H   0  0  0  0  0  0  0  0  0  0  0  0
  153.6205  143.7415  160.5778 H   0  0  0  0  0  0  0  0  0  0  0  0
  153.4449  143.8218  158.8337 H   0  0  0  0  0  0  0  0  0  0  0  0
  154.2736  141.7437  162.9254 H   0  0  0  0  0  0  0  0  0  0  0  0
  152.6631  142.3888  162.6028 H   0  0  0  0  0  0  0  0  0  0  0  0
  154.0709  143.0641  161.7715 H   0  0  0  0  0  0  0  0  0  0  0  0
  154.6981  139.6555  161.9131 H   0  0  0  0  0  0  0  0  0  0  0  0
  1  2  1  0  0  0  0
  1 22  1  0  0  0  0
  1 23  1  0  0  0  0
  1 24  1  0  0  0  0
  2  3  1  0  0  0  0
  3  4  1  0  0  0  0
  3  5  1  0  0  0  0
  3  6  1  0  0  0  0
  4 25  1  0  0  0  0
  4 26  1  0  0  0  0
  4 27  1  0  0  0  0
  5 28  1  0  0  0  0
  5 29  1  0  0  0  0
  5 30  1  0  0  0  0
  6  7  2  0  0  0  0
  6  8  1  0  0  0  0
  8  9  1  0  0  0  0
  8 31  1  0  0  0  0
  9 21  1  0  0  0  0
  9 10  2  0  0  0  0
 10 11  1  0  0  0  0
 10 32  1  0  0  0  0
 11 12  2  0  0  0  0
 12 13  1  0  0  0  0
 12 19  1  0  0  0  0
 13 18  1  0  0  0  0
 13 14  1  0  0  0  0
 14 15  1  0  0  0  0
 14 33  1  0  0  0  0
 14 34  1  0  0  0  0
 15 16  1  0  0  0  0
 15 35  1  0  0  0  0
 15 36  1  0  0  0  0
 16 17  1  0  0  0  0
 16 37  1  0  0  0  0
 16 38  1  0  0  0  0
 17 18  1  0  0  0  0
 17 39  1  0  0  0  0
 17 40  1  0  0  0  0
 18 41  1  0  0  0  0
 18 42  1  0  0  0  0
 19 20  1  0  0  0  0
 19 21  2  0  0  0  0
 20 43  1  0  0  0  0
 20 44  1  0  0  0  0
 20 45  1  0  0  0  0
 21 46  1  0  0  0  0
M  END
> <s_m_source_file>
AV-unprocessed.smi

> <i_m_source_file_index>
2459

> <i_lp_mmshare_version>
43012

> <i_f3d_flags>
0

> <s_epik_input>
W0NIM11PQyhbQ0gzXSkoW0NIM10pQyg9TylbTkhdYzFbY0hdbmMoYyhbQ0gzXSlbY0hdMSlOMltDSDJdW0NIMl1bQ0gyXVtDSDJdW0NIMl0y

> <s_epik_cmdline>
J2VwaWtfcHl0aG9uJywgJy1waCcsICc3LjAnLCAnLXRuJywgJzgnLCAnLW1hJywgJzIwMCcsICctbWV0YWxfYmluZGluZycsICctaW1hZScsICc8aW5maWxlLm1hZT4nLCAnLW9tYWUnLCAnPG91dGZpbGUubWFlPic=

> <r_lp_tautomer_probability>
1

> <r_epik_Ionization_Penalty>
0.0966188

> <r_epik_Ionization_Penalty_Charging>
0

> <r_epik_Ionization_Penalty_Neutral>
0.0966188

> <r_epik_State_Penalty>
1.07001

> <r_epik_Charging_Adjusted_Penalty>
1.07001

> <i_epik_Tot_Q>
0

> <i_epik_Tot_abs_Q>
0

> <r_epik_Metal_State_Penalty>
1.00145

> <b_epik_Metal_Only>
0

> <s_lp_Force_Field>
OPLS_2005

> <r_lp_Energy>
29.1962

> <b_lp_Chiralities_Consistent>
1

> <s_lp_Variant>
AV-unprocessed.smi:2459-2

> <Gold.Version>
5.8.1

> <Gold.Id.Protein>
6NUR|6NUR_protein|mol2

> <Gold.PLP.Fitness>
36.3585

> <Gold.PLP.PLP>
-33.7596

> <Gold.PLP.part.hbond>
-1.0000

> <Gold.PLP.part.metal>
0.0000

> <Gold.PLP.part.buried>
-5.4594

> <Gold.PLP.part.nonpolar>
-27.0289

> <Gold.PLP.part.repulsive>
0.0390

> <Gold.PLP.ligand.clash>
0.0000

> <Gold.PLP.ligand.torsion>
0.2439

> <Gold.PLP.Chemscore.Hbond>
0.9588

> <Gold.PLP.Chemscore.CHOScore>
0.0000

> <Gold.PLP.Chemscore.Metal>
0.0000

> <Gold.Chemscore.Hbonds>
donor molecule, donor type, donor heavy atom, donor atom, acceptor molecule, acceptor atom, score
      P1  H  6896  6907       L1     2  0.81

> <Gold.PLP.Chemscore.Internal.Correction>
0.2104

> <Gold.Rescore>
     Score         DG    S(hbond)    S(metal)    S(lipo)     H(rot)  DE(clash)    DE(int)     intcor
     14.73     -17.08       0.91        0.00     102.02       1.32       0.07       2.27       ----

> <Gold.Chemscore.Fitness>
14.7298

> <Gold.Chemscore.DG>
-17.0766

> <Gold.Chemscore.ZeroCoef>
-5.4800

> <Gold.Chemscore.Hbond>
0.9091

> <Gold.Chemscore.Metal>
0.0000

> <Gold.Chemscore.Lipo>
102.0212

> <Gold.Chemscore.Internal_Hbond>
0.0000

> <Gold.Chemscore.DEClash>
0.0731

> <Gold.Chemscore.DEInternal>
2.2736

> <Gold.Chemscore.Rot>
1.3189

> <Gold.Chemscore.Internal.Correction>
   9.000000E+99

> <Gold.Chemscore.Hbonds>
donor molecule, donor type, donor heavy atom, donor atom, acceptor molecule, acceptor atom, score
      P1  H  6896  6907       L1     2  0.52

> <Gold.Chemscore.Hbond.Weighted>
-3.0365

> <Gold.Chemscore.Metal.Weighted>
-0.0000

> <Gold.Chemscore.Lipo.Weighted>
-11.9365

> <Gold.Chemscore.Internal_Hbond.Weighted>
0.0000

> <Gold.Chemscore.DEClash.Weighted>
0.0731

> <Gold.Chemscore.DEInternal.Weighted>
2.2736

> <Gold.Chemscore.Rot.Weighted>
3.3764

> <Gold.Chemscore.Internal.Correction.Weighted>
   9.000000E+99

> <Gold.Protein.RotatedTorsions>
[ 6907 6896 6895 6894 ] final   68.74 input  -60.11 | X-H torsion
[ 7974 7965 7964 7962 ] final    1.86 input  175.53 | X-H torsion
[ 8008 7997 7996 7995 ] final  131.51 input   59.86 | X-H torsion
[ 10167 10162 10161 10158 ] final   56.14 input  -65.29 | X-H torsion
[ 10718 10713 10712 10709 ] final   80.04 input   66.30 | X-H torsion
[ 10763 10752 10751 10750 ] final  -40.46 input  -60.55 | X-H torsion
[ 11005 11000 10999 10996 ] final   62.02 input  -57.11 | X-H torsion

> <Gold.Protein.ActiveResidues>
 VAL166  LYS551  ARG553  GLY616  TRP617  ASP618  TYR619  PRO620  LYS621  CYS622 
 ASP623  PHE694  ASN695  SER759  ASP760  ASP761  ALA762  ILE779  LEU786  VAL792 
 PHE793  MET794  SER795  GLU796  ALA797  LYS798  CYS799  TRP800  GLU811  SER814 

> <Gold.Protein.RotatedAtoms>
  152.4640  134.5118  159.9755 H   0  0  0  0  0  0  0  0  0  0  0  0  # atno 6907 bound_to 6896
  151.5160  133.3469  159.2901 H   0  0  0  0  0  0  0  0  0  0  0  0  # atno 6908 bound_to 6896
  150.8616  134.7998  159.7149 H   0  0  0  0  0  0  0  0  0  0  0  0  # atno 6909 bound_to 6896
  146.2442  140.0924  142.8351 H   0  0  0  0  0  0  0  0  0  0  0  0  # atno 7974 bound_to 7965
  156.2971  140.2569  156.2937 H   0  0  0  0  0  0  0  0  0  0  0  0  # atno 8008 bound_to 7997
  154.9485  140.0395  157.2151 H   0  0  0  0  0  0  0  0  0  0  0  0  # atno 8009 bound_to 7997
  154.8059  140.2836  155.5892 H   0  0  0  0  0  0  0  0  0  0  0  0  # atno 8010 bound_to 7997
  140.2119  144.3880  150.6485 H   0  0  0  0  0  0  0  0  0  0  0  0  # atno 10167 bound_to 10162
  157.6795  130.9941  150.2021 H   0  0  0  0  0  0  0  0  0  0  0  0  # atno 10718 bound_to 10713
  153.9463  135.6755  153.4744 H   0  0  0  0  0  0  0  0  0  0  0  0  # atno 10763 bound_to 10752
  153.0906  135.4876  154.8680 H   0  0  0  0  0  0  0  0  0  0  0  0  # atno 10764 bound_to 10752
  154.7350  135.3147  154.8786 H   0  0  0  0  0  0  0  0  0  0  0  0  # atno 10765 bound_to 10752
  140.0121  134.6280  155.9765 H   0  0  0  0  0  0  0  0  0  0  0  0  # atno 11005 bound_to 11000
  145.0639  140.9107  143.4922 LP  0  0  0  0  0  0  0  0  0  0  0  0  # atno 17320 bound_to 7965
  145.1044  139.2800  143.5669 LP  0  0  0  0  0  0  0  0  0  0  0  0  # atno 17321 bound_to 7965
  140.6317  143.2188  151.6481 LP  0  0  0  0  0  0  0  0  0  0  0  0  # atno 17342 bound_to 10162
  139.5176  144.3308  152.0827 LP  0  0  0  0  0  0  0  0  0  0  0  0  # atno 17343 bound_to 10162
  156.2710  130.3722  149.8032 LP  0  0  0  0  0  0  0  0  0  0  0  0  # atno 17370 bound_to 10713
  156.5749  130.8440  151.3367 LP  0  0  0  0  0  0  0  0  0  0  0  0  # atno 17371 bound_to 10713
  141.1718  133.6538  156.4680 LP  0  0  0  0  0  0  0  0  0  0  0  0  # atno 17394 bound_to 11000
  140.4536  134.6906  157.5051 LP  0  0  0  0  0  0  0  0  0  0  0  0  # atno 17395 bound_to 11000

$$$$
