AV-unprocessed.smi:213|AV-procd|sdf|1636|dock10
  -GOLD-   2262020 03D 1   1.00000     0.00000
 Structure written by MMmdl.
 59 62  0  0  0  0  0  0  0  0  2 V2000
  149.7381  133.5053  155.1507 C   0  0  0  0  0  0  0  0  0  0  0  0
  149.5587  134.9830  154.7543 C   0  0  1  0  0  0  0  0  0  0  0  0
  148.1186  135.4876  155.0094 C   0  0  0  0  0  0  0  0  0  0  0  0
  147.3970  135.8229  153.7561 N   0  3  0  0  0  0  0  0  0  0  0  0
  146.6618  134.6629  153.1983 C   0  0  0  0  0  0  0  0  0  0  0  0
  145.9739  135.0446  151.8769 C   0  0  0  0  0  0  0  0  0  0  0  0
  145.1049  136.1492  152.0934 O   0  0  0  0  0  0  0  0  0  0  0  0
  145.8093  137.2992  152.5452 C   0  0  0  0  0  0  0  0  0  0  0  0
  146.4936  136.9934  153.8883 C   0  0  0  0  0  0  0  0  0  0  0  0
  150.5525  135.8313  155.4258 N   0  0  0  0  0  0  0  0  0  0  0  0
  151.4177  135.2671  156.4597 C   0  0  0  0  0  0  0  0  0  0  0  0
  150.3975  137.1857  155.4303 C   0  0  0  0  0  0  0  0  0  0  0  0
  150.4962  137.8740  154.2603 N   0  0  0  0  0  0  0  0  0  0  0  0
  150.3386  139.2004  154.2330 C   0  0  0  0  0  0  0  0  0  0  0  0
  150.0840  140.0303  155.2448 N   0  0  0  0  0  0  0  0  0  0  0  0
  149.9918  139.3540  156.4245 C   0  0  0  0  0  0  0  0  0  0  0  0
  150.1325  137.9478  156.6075 C   0  0  0  0  0  0  0  0  0  0  0  0
  149.9846  137.6372  157.9556 N   0  0  0  0  0  0  0  0  0  0  0  0
  149.7609  138.7868  158.5310 C   0  0  0  0  0  0  0  0  0  0  0  0
  149.7483  139.8707  157.6840 N   0  0  0  0  0  0  0  0  0  0  0  0
  149.5294  141.2596  158.0475 C   0  0  0  0  0  0  0  0  0  0  0  0
  150.7012  142.1709  157.6317 C   0  0  1  0  0  0  0  0  0  0  0  0
  150.4939  142.6216  156.3062 O   0  0  0  0  0  0  0  0  0  0  0  0
  150.8427  143.3935  158.5576 C   0  0  2  0  0  0  0  0  0  0  0  0
  151.9015  144.4037  158.1196 C   0  0  0  0  0  0  0  0  0  0  0  0
  152.1640  145.1644  159.4029 C   0  0  0  0  0  0  0  0  0  0  0  0
  151.9118  144.1173  160.4903 C   0  0  0  0  0  0  0  0  0  0  0  0
  151.3157  142.9990  159.8383 O   0  0  0  0  0  0  0  0  0  0  0  0
  149.0862  132.8578  154.5642 H   0  0  0  0  0  0  0  0  0  0  0  0
  149.5101  133.3317  156.2025 H   0  0  0  0  0  0  0  0  0  0  0  0
  150.7628  133.1767  154.9739 H   0  0  0  0  0  0  0  0  0  0  0  0
  149.7661  135.0218  153.6856 H   0  0  0  0  0  0  0  0  0  0  0  0
  147.5666  134.7147  155.5454 H   0  0  0  0  0  0  0  0  0  0  0  0
  148.1197  136.3621  155.6617 H   0  0  0  0  0  0  0  0  0  0  0  0
  147.3503  133.8349  153.0253 H   0  0  0  0  0  0  0  0  0  0  0  0
  145.9195  134.3184  153.9204 H   0  0  0  0  0  0  0  0  0  0  0  0
  146.7105  135.2893  151.1096 H   0  0  0  0  0  0  0  0  0  0  0  0
  145.3897  134.2046  151.5007 H   0  0  0  0  0  0  0  0  0  0  0  0
  146.5401  137.6110  151.7971 H   0  0  0  0  0  0  0  0  0  0  0  0
  145.1034  138.1216  152.6625 H   0  0  0  0  0  0  0  0  0  0  0  0
  145.7400  136.7906  154.6510 H   0  0  0  0  0  0  0  0  0  0  0  0
  147.0476  137.8725  154.2160 H   0  0  0  0  0  0  0  0  0  0  0  0
  151.4075  135.8766  157.3644 H   0  0  0  0  0  0  0  0  0  0  0  0
  152.4437  135.2041  156.0967 H   0  0  0  0  0  0  0  0  0  0  0  0
  151.1046  134.2634  156.7445 H   0  0  0  0  0  0  0  0  0  0  0  0
  150.4300  139.6636  153.2617 H   0  0  0  0  0  0  0  0  0  0  0  0
  149.5970  138.8761  159.5952 H   0  0  0  0  0  0  0  0  0  0  0  0
  148.5992  141.5979  157.5888 H   0  0  0  0  0  0  0  0  0  0  0  0
  149.3784  141.3061  159.1266 H   0  0  0  0  0  0  0  0  0  0  0  0
  151.6285  141.5966  157.6489 H   0  0  0  0  0  0  0  0  0  0  0  0
  149.7275  143.1740  156.2938 H   0  0  0  0  0  0  0  0  0  0  0  0
  149.8812  143.8956  158.6809 H   0  0  0  0  0  0  0  0  0  0  0  0
  152.8087  143.8900  157.7986 H   0  0  0  0  0  0  0  0  0  0  0  0
  151.5669  145.0477  157.3059 H   0  0  0  0  0  0  0  0  0  0  0  0
  153.1693  145.5847  159.4441 H   0  0  0  0  0  0  0  0  0  0  0  0
  151.4508  145.9835  159.5028 H   0  0  0  0  0  0  0  0  0  0  0  0
  152.8389  143.8028  160.9699 H   0  0  0  0  0  0  0  0  0  0  0  0
  151.2458  144.5055  161.2617 H   0  0  0  0  0  0  0  0  0  0  0  0
  148.1015  136.0658  153.0741 H   0  0  0  0  0  0  0  0  0  0  0  0
  1  2  1  0  0  0  0
  1 29  1  0  0  0  0
  1 30  1  0  0  0  0
  1 31  1  0  0  0  0
  2  3  1  0  0  0  0
  2 10  1  0  0  0  0
  2 32  1  0  0  0  0
  3  4  1  0  0  0  0
  3 33  1  0  0  0  0
  3 34  1  0  0  0  0
  4  9  1  0  0  0  0
  4  5  1  0  0  0  0
  4 59  1  0  0  0  0
  5  6  1  0  0  0  0
  5 35  1  0  0  0  0
  5 36  1  0  0  0  0
  6  7  1  0  0  0  0
  6 37  1  0  0  0  0
  6 38  1  0  0  0  0
  7  8  1  0  0  0  0
  8  9  1  0  0  0  0
  8 39  1  0  0  0  0
  8 40  1  0  0  0  0
  9 41  1  0  0  0  0
  9 42  1  0  0  0  0
 10 11  1  0  0  0  0
 10 12  1  0  0  0  0
 11 43  1  0  0  0  0
 11 44  1  0  0  0  0
 11 45  1  0  0  0  0
 12 17  1  0  0  0  0
 12 13  2  0  0  0  0
 13 14  1  0  0  0  0
 14 15  2  0  0  0  0
 14 46  1  0  0  0  0
 15 16  1  0  0  0  0
 16 20  1  0  0  0  0
 16 17  2  0  0  0  0
 17 18  1  0  0  0  0
 18 19  2  0  0  0  0
 19 20  1  0  0  0  0
 19 47  1  0  0  0  0
 20 21  1  0  0  0  0
 21 22  1  0  0  0  0
 21 48  1  0  0  0  0
 21 49  1  0  0  0  0
 22 23  1  0  0  0  0
 22 24  1  0  0  0  0
 22 50  1  0  0  0  0
 23 51  1  0  0  0  0
 24 28  1  0  0  0  0
 24 25  1  0  0  0  0
 24 52  1  0  0  0  0
 25 26  1  0  0  0  0
 25 53  1  0  0  0  0
 25 54  1  0  0  0  0
 26 27  1  0  0  0  0
 26 55  1  0  0  0  0
 26 56  1  0  0  0  0
 27 28  1  0  0  0  0
 27 57  1  0  0  0  0
 27 58  1  0  0  0  0
M  CHG  1   4   1
M  END
> <s_m_source_file>
AV-unprocessed.smi

> <i_m_source_file_index>
213

> <i_lp_mmshare_version>
43012

> <i_f3d_flags>
0

> <s_epik_input>
W0NIMl0xW0NIMl1PW0NIMl1bQ0gyXU4xW0NIMl1bQ0BASF0oW0NIM10pTihbQ0gzXSljKG5bY0hdbjIpYyhjMjMpbltjSF1uM1tDSDJdW0NASF0oW09IXSlbQ0BASF00W0NIMl1bQ0gyXVtDSDJdTzQ=

> <s_epik_cmdline>
J2VwaWtfcHl0aG9uJywgJy1waCcsICc3LjAnLCAnLXRuJywgJzgnLCAnLW1hJywgJzIwMCcsICctbWV0YWxfYmluZGluZycsICctaW1hZScsICc8aW5maWxlLm1hZT4nLCAnLW9tYWUnLCAnPG91dGZpbGUubWFlPic=

> <r_lp_tautomer_probability>
1

> <r_epik_Ionization_Penalty>
0.399679

> <r_epik_Ionization_Penalty_Charging>
0.399433

> <r_epik_Ionization_Penalty_Neutral>
0.000246213

> <r_epik_State_Penalty>
0.286032

> <r_epik_Charging_Adjusted_Penalty>
0.685465

> <i_epik_Tot_Q>
1

> <i_epik_Tot_abs_Q>
1

> <r_epik_Metal_State_Penalty>
0.286072

> <b_epik_Metal_Only>
0

> <s_lp_Force_Field>
OPLS_2005

> <r_lp_Energy>
43.5533

> <b_lp_Chiralities_Consistent>
1

> <s_lp_Variant>
AV-unprocessed.smi:213-4

> <Gold.Version>
5.8.1

> <Gold.Id.Protein>
6NUR|6NUR_protein|mol2

> <Gold.PLP.Fitness>
48.1952

> <Gold.PLP.PLP>
-41.1849

> <Gold.PLP.part.hbond>
-2.3376

> <Gold.PLP.part.metal>
0.0000

> <Gold.PLP.part.buried>
-6.6321

> <Gold.PLP.part.nonpolar>
-33.1323

> <Gold.PLP.part.repulsive>
0.6852

> <Gold.PLP.ligand.clash>
0.0000

> <Gold.PLP.ligand.torsion>
2.8633

> <Gold.PLP.Chemscore.Hbond>
3.0000

> <Gold.PLP.Chemscore.CHOScore>
1.0000

> <Gold.PLP.Chemscore.Metal>
0.0000

> <Gold.Chemscore.Hbonds>
donor molecule, donor type, donor heavy atom, donor atom, acceptor molecule, acceptor atom, score
      L1  H     4    59       P1  7948  1.79
      L1  H    23    51       P1  8028  0.96
      L1  C    14    46       P1  7957  1.00

> <Gold.PLP.Chemscore.Internal.Correction>
0.7370

> <Gold.Rescore>
     Score         DG    S(hbond)    S(metal)    S(lipo)     H(rot)  DE(clash)    DE(int)     intcor
     12.58     -15.52       1.95        0.00      91.91       2.83       0.02       2.92       ----

> <Gold.Chemscore.Fitness>
12.5788

> <Gold.Chemscore.DG>
-15.5224

> <Gold.Chemscore.ZeroCoef>
-5.4800

> <Gold.Chemscore.Hbond>
1.9528

> <Gold.Chemscore.Metal>
0.0000

> <Gold.Chemscore.Lipo>
91.9054

> <Gold.Chemscore.Internal_Hbond>
0.0000

> <Gold.Chemscore.DEClash>
0.0206

> <Gold.Chemscore.DEInternal>
2.9230

> <Gold.Chemscore.Rot>
2.8254

> <Gold.Chemscore.Internal.Correction>
   9.000000E+99

> <Gold.Chemscore.Hbonds>
donor molecule, donor type, donor heavy atom, donor atom, acceptor molecule, acceptor atom, score
      L1  H     4    59       P1  7948  0.86
      L1  H    23    51       P1  8028  0.92

> <Gold.Chemscore.Hbond.Weighted>
-6.5224

> <Gold.Chemscore.Metal.Weighted>
-0.0000

> <Gold.Chemscore.Lipo.Weighted>
-10.7529

> <Gold.Chemscore.Internal_Hbond.Weighted>
0.0000

> <Gold.Chemscore.DEClash.Weighted>
0.0206

> <Gold.Chemscore.DEInternal.Weighted>
2.9230

> <Gold.Chemscore.Rot.Weighted>
7.2330

> <Gold.Chemscore.Internal.Correction.Weighted>
   9.000000E+99

> <Gold.Protein.RotatedTorsions>
[ 6907 6896 6895 6894 ] final  107.17 input  -60.11 | X-H torsion
[ 7974 7965 7964 7962 ] final -145.16 input  175.53 | X-H torsion
[ 8008 7997 7996 7995 ] final  135.55 input   59.86 | X-H torsion
[ 10167 10162 10161 10158 ] final  129.38 input  -65.29 | X-H torsion
[ 10718 10713 10712 10709 ] final -169.02 input   66.30 | X-H torsion
[ 10763 10752 10751 10750 ] final  -82.07 input  -60.55 | X-H torsion
[ 11005 11000 10999 10996 ] final   95.62 input  -57.11 | X-H torsion

> <Gold.Protein.ActiveResidues>
 VAL166  LYS551  ARG553  GLY616  TRP617  ASP618  TYR619  PRO620  LYS621  CYS622 
 ASP623  PHE694  ASN695  SER759  ASP760  ASP761  ALA762  ILE779  LEU786  VAL792 
 PHE793  MET794  SER795  GLU796  ALA797  LYS798  CYS799  TRP800  GLU811  SER814 

> <Gold.Protein.RotatedAtoms>
  152.5165  133.9273  159.7563 H   0  0  0  0  0  0  0  0  0  0  0  0  # atno 6907 bound_to 6896
  150.9631  133.6415  159.2758 H   0  0  0  0  0  0  0  0  0  0  0  0  # atno 6908 bound_to 6896
  151.3653  135.0917  159.9500 H   0  0  0  0  0  0  0  0  0  0  0  0  # atno 6909 bound_to 6896
  144.8247  140.5618  143.5555 H   0  0  0  0  0  0  0  0  0  0  0  0  # atno 7974 bound_to 7965
  156.3003  140.2468  156.3600 H   0  0  0  0  0  0  0  0  0  0  0  0  # atno 8008 bound_to 7997
  154.8886  140.0410  157.1844 H   0  0  0  0  0  0  0  0  0  0  0  0  # atno 8009 bound_to 7997
  154.8621  140.2922  155.5537 H   0  0  0  0  0  0  0  0  0  0  0  0  # atno 8010 bound_to 7997
  139.5480  144.6790  151.4411 H   0  0  0  0  0  0  0  0  0  0  0  0  # atno 10167 bound_to 10162
  156.7055  130.9213  151.3084 H   0  0  0  0  0  0  0  0  0  0  0  0  # atno 10718 bound_to 10713
  154.5712  135.5604  153.7097 H   0  0  0  0  0  0  0  0  0  0  0  0  # atno 10763 bound_to 10752
  153.0049  135.6297  154.2111 H   0  0  0  0  0  0  0  0  0  0  0  0  # atno 10764 bound_to 10752
  154.2051  135.2876  155.2957 H   0  0  0  0  0  0  0  0  0  0  0  0  # atno 10765 bound_to 10752
  139.8787  134.8909  156.4039 H   0  0  0  0  0  0  0  0  0  0  0  0  # atno 11005 bound_to 11000
  145.5028  139.1482  143.3648 LP  0  0  0  0  0  0  0  0  0  0  0  0  # atno 17320 bound_to 7965
  146.2552  140.5167  142.8876 LP  0  0  0  0  0  0  0  0  0  0  0  0  # atno 17321 bound_to 7965
  140.6735  143.8242  150.7029 LP  0  0  0  0  0  0  0  0  0  0  0  0  # atno 17342 bound_to 10162
  140.1673  143.4224  152.2025 LP  0  0  0  0  0  0  0  0  0  0  0  0  # atno 17343 bound_to 10162
  157.6956  130.9279  150.0636 LP  0  0  0  0  0  0  0  0  0  0  0  0  # atno 17370 bound_to 10713
  156.1698  130.3646  149.9181 LP  0  0  0  0  0  0  0  0  0  0  0  0  # atno 17371 bound_to 10713
  140.9248  133.7620  155.9951 LP  0  0  0  0  0  0  0  0  0  0  0  0  # atno 17394 bound_to 11000
  140.8398  134.3079  157.5317 LP  0  0  0  0  0  0  0  0  0  0  0  0  # atno 17395 bound_to 11000

$$$$
