AV-unprocessed.smi:2852|AV-procd|sdf|10972|dock5
  -GOLD-   2272015423D 1   1.00000     0.00000
 Structure written by MMmdl.
 28 29  0  0  0  0  0  0  0  0  1 V2000
  149.6479  134.3796  154.9342 C   0  0  0  0  0  0  0  0  0  0  0  0
  149.9810  135.6850  154.3852 N   0  0  0  0  0  0  0  0  0  0  0  0
  150.9001  136.5116  154.9058 C   0  0  0  0  0  0  0  0  0  0  0  0
  151.5701  136.2372  155.9015 O   0  0  0  0  0  0  0  0  0  0  0  0
  151.0972  137.8521  154.1956 C   0  0  0  0  0  0  0  0  0  0  0  0
  151.4548  138.9212  155.1783 C   0  0  0  0  0  0  0  0  0  0  0  0
  152.3861  138.7253  156.1045 N   0  0  0  0  0  0  0  0  0  0  0  0
  152.4099  139.9412  156.8030 O   0  0  0  0  0  0  0  0  0  0  0  0
  151.4859  140.7311  156.2056 C   0  0  0  0  0  0  0  0  0  0  0  0
  151.2832  142.0729  156.7404 C   0  0  0  0  0  0  0  0  0  0  0  0
  151.7636  142.5217  157.9137 C   0  0  0  0  0  0  0  0  0  0  0  0
  151.6360  143.8722  158.5761 C   0  0  0  0  0  0  0  0  0  0  0  0
  152.4773  143.2335  159.6975 C   0  0  0  0  0  0  0  0  0  0  0  0
  152.5983  141.8696  158.9924 C   0  0  0  0  0  0  0  0  0  0  0  0
  150.8643  140.1488  155.1814 N   0  0  0  0  0  0  0  0  0  0  0  0
  148.8905  133.8985  154.3157 H   0  0  0  0  0  0  0  0  0  0  0  0
  149.2511  134.4757  155.9456 H   0  0  0  0  0  0  0  0  0  0  0  0
  150.5258  133.7330  154.9638 H   0  0  0  0  0  0  0  0  0  0  0  0
  149.4734  135.9850  153.5651 H   0  0  0  0  0  0  0  0  0  0  0  0
  151.8846  137.7590  153.4463 H   0  0  0  0  0  0  0  0  0  0  0  0
  150.1863  138.1310  153.6642 H   0  0  0  0  0  0  0  0  0  0  0  0
  150.7004  142.7471  156.1298 H   0  0  0  0  0  0  0  0  0  0  0  0
  152.1470  144.7105  158.1015 H   0  0  0  0  0  0  0  0  0  0  0  0
  150.6446  144.1693  158.9191 H   0  0  0  0  0  0  0  0  0  0  0  0
  153.4412  143.7251  159.8367 H   0  0  0  0  0  0  0  0  0  0  0  0
  151.9421  143.1735  160.6463 H   0  0  0  0  0  0  0  0  0  0  0  0
  152.1356  141.0645  159.5641 H   0  0  0  0  0  0  0  0  0  0  0  0
  153.6303  141.6215  158.7431 H   0  0  0  0  0  0  0  0  0  0  0  0
  1  2  1  0  0  0  0
  1 16  1  0  0  0  0
  1 17  1  0  0  0  0
  1 18  1  0  0  0  0
  2  3  1  0  0  0  0
  2 19  1  0  0  0  0
  3  4  2  0  0  0  0
  3  5  1  0  0  0  0
  5  6  1  0  0  0  0
  5 20  1  0  0  0  0
  5 21  1  0  0  0  0
  6 15  1  0  0  0  0
  6  7  2  0  0  0  0
  7  8  1  0  0  0  0
  8  9  1  0  0  0  0
  9 10  1  0  0  0  0
  9 15  2  0  0  0  0
 10 11  2  0  0  0  0
 10 22  1  0  0  0  0
 11 14  1  0  0  0  0
 11 12  1  0  0  0  0
 12 13  1  0  0  0  0
 12 23  1  0  0  0  0
 12 24  1  0  0  0  0
 13 14  1  0  0  0  0
 13 25  1  0  0  0  0
 13 26  1  0  0  0  0
 14 27  1  0  0  0  0
 14 28  1  0  0  0  0
M  END
> <s_m_source_file>
AV-unprocessed.smi

> <i_m_source_file_index>
2852

> <i_lp_mmshare_version>
43012

> <i_f3d_flags>
0

> <s_epik_input>
W0NIM11bTkhdQyg9TylbQ0gyXWMxbm9jKG4xKVtDSF09QzJbQ0gyXVtDSDJdW0NIMl0y

> <s_epik_cmdline>
J2VwaWtfcHl0aG9uJywgJy1waCcsICc3LjAnLCAnLXRuJywgJzgnLCAnLW1hJywgJzIwMCcsICctbWV0YWxfYmluZGluZycsICctaW1hZScsICc8aW5maWxlLm1hZT4nLCAnLW9tYWUnLCAnPG91dGZpbGUubWFlPic=

> <r_lp_tautomer_probability>
1

> <r_epik_Ionization_Penalty>
1.02917e-07

> <r_epik_Ionization_Penalty_Charging>
0

> <r_epik_Ionization_Penalty_Neutral>
1.02917e-07

> <r_epik_State_Penalty>
-0

> <r_epik_Charging_Adjusted_Penalty>
0

> <i_epik_Tot_Q>
0

> <i_epik_Tot_abs_Q>
0

> <r_epik_Metal_State_Penalty>
-0

> <b_epik_Metal_Only>
0

> <s_lp_Force_Field>
OPLS_2005

> <r_lp_Energy>
12.6474

> <b_lp_Chiralities_Consistent>
1

> <s_lp_Variant>
AV-unprocessed.smi:2852-1

> <Gold.Version>
5.8.1

> <Gold.Id.Protein>
6NUR|6NUR_protein|mol2

> <Gold.PLP.Fitness>
40.2728

> <Gold.PLP.PLP>
-30.4293

> <Gold.PLP.part.hbond>
-4.6717

> <Gold.PLP.part.metal>
0.0000

> <Gold.PLP.part.buried>
-3.5210

> <Gold.PLP.part.nonpolar>
-22.3506

> <Gold.PLP.part.repulsive>
0.1370

> <Gold.PLP.ligand.clash>
0.0000

> <Gold.PLP.ligand.torsion>
0.5536

> <Gold.PLP.Chemscore.Hbond>
3.6500

> <Gold.PLP.Chemscore.CHOScore>
0.0000

> <Gold.PLP.Chemscore.Metal>
0.0000

> <Gold.Chemscore.Hbonds>
donor molecule, donor type, donor heavy atom, donor atom, acceptor molecule, acceptor atom, score
      L1  H     2    19       P1  7948  1.00
      P1  H  7989  7998       L1    15  0.95
      P1  H  7997  8008       L1     8  0.70
      P1  H 10752 10764       L1     4  1.00

> <Gold.PLP.Chemscore.Internal.Correction>
0.0006

> <Gold.Rescore>
     Score         DG    S(hbond)    S(metal)    S(lipo)     H(rot)  DE(clash)    DE(int)     intcor
     12.76     -16.20       1.98        0.00      64.72       1.35       0.04       3.40       ----

> <Gold.Chemscore.Fitness>
12.7578

> <Gold.Chemscore.DG>
-16.2049

> <Gold.Chemscore.ZeroCoef>
-5.4800

> <Gold.Chemscore.Hbond>
1.9802

> <Gold.Chemscore.Metal>
0.0000

> <Gold.Chemscore.Lipo>
64.7175

> <Gold.Chemscore.Internal_Hbond>
0.0000

> <Gold.Chemscore.DEClash>
0.0435

> <Gold.Chemscore.DEInternal>
3.4035

> <Gold.Chemscore.Rot>
1.3519

> <Gold.Chemscore.Internal.Correction>
   9.000000E+99

> <Gold.Chemscore.Hbonds>
donor molecule, donor type, donor heavy atom, donor atom, acceptor molecule, acceptor atom, score
      L1  H     2    19       P1  7948  0.45
      P1  H  7989  7998       L1    15  0.14
      P1  H  7997  8008       L1     8  0.07
      P1  H 10752 10764       L1     4  0.34

> <Gold.Chemscore.Hbond.Weighted>
-6.6139

> <Gold.Chemscore.Metal.Weighted>
-0.0000

> <Gold.Chemscore.Lipo.Weighted>
-7.5720

> <Gold.Chemscore.Internal_Hbond.Weighted>
0.0000

> <Gold.Chemscore.DEClash.Weighted>
0.0435

> <Gold.Chemscore.DEInternal.Weighted>
3.4035

> <Gold.Chemscore.Rot.Weighted>
3.4610

> <Gold.Chemscore.Internal.Correction.Weighted>
   9.000000E+99

> <Gold.Protein.RotatedTorsions>
[ 6907 6896 6895 6894 ] final  153.70 input  -60.11 | X-H torsion
[ 7974 7965 7964 7962 ] final  -48.91 input  175.53 | X-H torsion
[ 8008 7997 7996 7995 ] final  -67.86 input   59.86 | X-H torsion
[ 10167 10162 10161 10158 ] final  170.40 input  -65.29 | X-H torsion
[ 10718 10713 10712 10709 ] final  105.69 input   66.30 | X-H torsion
[ 10763 10752 10751 10750 ] final  -24.39 input  -60.55 | X-H torsion
[ 11005 11000 10999 10996 ] final -174.16 input  -57.11 | X-H torsion

> <Gold.Protein.ActiveResidues>
 VAL166  LYS551  ARG553  GLY616  TRP617  ASP618  TYR619  PRO620  LYS621  CYS622 
 ASP623  PHE694  ASN695  SER759  ASP760  ASP761  ALA762  ILE779  LEU786  VAL792 
 PHE793  MET794  SER795  GLU796  ALA797  LYS798  CYS799  TRP800  GLU811  SER814 

> <Gold.Protein.RotatedAtoms>
  152.0690  133.4098  159.4450 H   0  0  0  0  0  0  0  0  0  0  0  0  # atno 6907 bound_to 6896
  150.6864  134.3113  159.4757 H   0  0  0  0  0  0  0  0  0  0  0  0  # atno 6908 bound_to 6896
  152.0943  134.9385  160.0622 H   0  0  0  0  0  0  0  0  0  0  0  0  # atno 6909 bound_to 6896
  145.9462  140.7616  142.9527 H   0  0  0  0  0  0  0  0  0  0  0  0  # atno 7974 bound_to 7965
  154.4828  140.0884  156.7417 H   0  0  0  0  0  0  0  0  0  0  0  0  # atno 8008 bound_to 7997
  155.4427  140.3454  155.4273 H   0  0  0  0  0  0  0  0  0  0  0  0  # atno 8009 bound_to 7997
  156.1217  140.1476  156.9183 H   0  0  0  0  0  0  0  0  0  0  0  0  # atno 8010 bound_to 7997
  139.5017  144.3600  151.9834 H   0  0  0  0  0  0  0  0  0  0  0  0  # atno 10167 bound_to 10162
  157.6696  131.0833  150.5895 H   0  0  0  0  0  0  0  0  0  0  0  0  # atno 10718 bound_to 10713
  153.6830  135.6966  153.5112 H   0  0  0  0  0  0  0  0  0  0  0  0  # atno 10763 bound_to 10752
  153.2471  135.4287  155.0758 H   0  0  0  0  0  0  0  0  0  0  0  0  # atno 10764 bound_to 10752
  154.8395  135.3522  154.6373 H   0  0  0  0  0  0  0  0  0  0  0  0  # atno 10765 bound_to 10752
  140.4777  134.6105  157.4907 H   0  0  0  0  0  0  0  0  0  0  0  0  # atno 11005 bound_to 11000
  144.6787  140.2360  143.7349 LP  0  0  0  0  0  0  0  0  0  0  0  0  # atno 17320 bound_to 7965
  145.8234  139.2053  143.1925 LP  0  0  0  0  0  0  0  0  0  0  0  0  # atno 17321 bound_to 7965
  140.3037  144.3618  150.6053 LP  0  0  0  0  0  0  0  0  0  0  0  0  # atno 17342 bound_to 10162
  140.5853  143.2170  151.7353 LP  0  0  0  0  0  0  0  0  0  0  0  0  # atno 17343 bound_to 10162
  156.6195  130.4402  149.5827 LP  0  0  0  0  0  0  0  0  0  0  0  0  # atno 17370 bound_to 10713
  156.2366  130.6826  151.1516 LP  0  0  0  0  0  0  0  0  0  0  0  0  # atno 17371 bound_to 10713
  139.9846  134.7082  155.9797 LP  0  0  0  0  0  0  0  0  0  0  0  0  # atno 17394 bound_to 11000
  141.1546  133.6544  156.4122 LP  0  0  0  0  0  0  0  0  0  0  0  0  # atno 17395 bound_to 11000

$$$$
