#       Name:                AV-unprocessed.smi:1047
#       Creating user name   scv26
#       Creation time:       Fri Mar 27 03:07:59 2020


#       File generated by GOLD software.
#

@<TRIPOS>MOLECULE
AV-unprocessed.smi:1047
    62    64     1
SMALL
NO_CHARGES


@<TRIPOS>ATOM
      1 ****        -6.7534   3.4271   2.2028 C.3            1 S1                 0.0000
      2 ****        -6.3157   3.4418   0.7311 C.3            1 S1                 0.0000
      3 ****        -4.8857   3.2324   0.5110 N.3            1 S1                 0.0000
      4 ****        -4.5299   3.4786  -0.8820 C.3            1 S1                 0.0000
      5 ****        -3.0304   3.2572  -1.1403 C.3            1 S1                 0.0000
      6 ****        -2.6718   1.9379  -0.7437 O.3            1 S1                 0.0000
      7 ****        -2.9428   1.6785   0.6319 C.3            1 S1                 0.0000
      8 ****        -2.5037   0.2416   0.9465 C.3            1 S1                 0.0000
      9 ****        -1.0492   0.1421   1.0020 N.3            1 S1                 0.0000
     10 ****        -0.5628  -1.2080   1.2677 C.3            1 S1                 0.0000
     11 ****         0.9745  -1.2579   1.2557 C.3            1 S1                 0.0000
     12 ****         1.4520  -0.7573   2.4900 O.3            1 S1                 0.0000
     13 ****         1.4999  -2.6935   1.0636 C.3            1 S1                 0.0000
     14 ****         2.9500  -2.7486   1.0118 N.pl3          1 S1                 0.0000
     15 ****         3.7896  -3.0930   2.0073 C.2            1 S1                 0.0000
     16 ****         5.0924  -3.0689   1.7409 N.2            1 S1                 0.0000
     17 ****         5.0988  -2.6609   0.4178 C.ar           1 S1                 0.0000
     18 ****         6.1758  -2.4332  -0.4666 C.ar           1 S1                 0.0000
     19 ****         5.9456  -2.0146  -1.7967 C.ar           1 S1                 0.0000
     20 ****         7.1333  -1.7813  -2.7137 C.3            1 S1                 0.0000
     21 ****         4.6198  -1.8184  -2.2605 C.ar           1 S1                 0.0000
     22 ****         4.3476  -1.3735  -3.6865 C.3            1 S1                 0.0000
     23 ****         3.5324  -2.0392  -1.3893 C.ar           1 S1                 0.0000
     24 ****         3.7746  -2.4550  -0.0683 C.ar           1 S1                 0.0000
     25 ****        -4.4501   1.8872   0.8810 C.3            1 S1                 0.0000
     26 ****        -7.8045   3.7022   2.2917 H              1 S1                 0.0000
     27 ****        -6.1744   4.1387   2.7923 H              1 S1                 0.0000
     28 ****        -6.6389   2.4412   2.6528 H              1 S1                 0.0000
     29 ****        -6.8904   2.7014   0.1725 H              1 S1                 0.0000
     30 ****        -6.5955   4.4120   0.3183 H              1 S1                 0.0000
     31 ****        -5.1074   2.8200  -1.5328 H              1 S1                 0.0000
     32 ****        -4.7950   4.5000  -1.1573 H              1 S1                 0.0000
     33 ****        -2.8049   3.3855  -2.1990 H              1 S1                 0.0000
     34 ****        -2.4301   3.9860  -0.5934 H              1 S1                 0.0000
     35 ****        -2.3789   2.3764   1.2546 H              1 S1                 0.0000
     36 ****        -2.9208  -0.0627   1.9073 H              1 S1                 0.0000
     37 ****        -2.9084  -0.4418   0.1989 H              1 S1                 0.0000
     38 ****        -0.6502   0.4880   0.1349 H              1 S1                 0.0000
     39 ****        -0.9535  -1.5839   2.2143 H              1 S1                 0.0000
     40 ****        -0.9424  -1.8744   0.4919 H              1 S1                 0.0000
     41 ****         1.3602  -0.6313   0.4499 H              1 S1                 0.0000
     42 ****         1.0842  -1.2771   3.1879 H              1 S1                 0.0000
     43 ****         1.1519  -3.3419   1.8693 H              1 S1                 0.0000
     44 ****         1.1130  -3.1154   0.1351 H              1 S1                 0.0000
     45 ****         3.4235  -3.3732   2.9843 H              1 S1                 0.0000
     46 ****         7.1852  -2.5830  -0.1125 H              1 S1                 0.0000
     47 ****         7.0941  -2.4574  -3.5682 H              1 S1                 0.0000
     48 ****         8.0771  -1.9512  -2.1946 H              1 S1                 0.0000
     49 ****         7.1358  -0.7556  -3.0832 H              1 S1                 0.0000
     50 ****         3.2786  -1.2677  -3.8728 H              1 S1                 0.0000
     51 ****         4.7403  -2.1029  -4.3955 H              1 S1                 0.0000
     52 ****         4.8179  -0.4099  -3.8836 H              1 S1                 0.0000
     53 ****         2.5175  -1.8917  -1.7278 H              1 S1                 0.0000
     54 ****        -4.6567   1.7031   1.9349 H              1 S1                 0.0000
     55 ****        -5.0186   1.1462   0.3165 H              1 S1                 0.0000
     56 ****        -4.4165   3.8868   1.1040 LP             1 S1                 0.0000
     57 ****        -1.6931   1.8111  -0.9054 LP             1 S1                 0.0000
     58 ****        -3.1886   1.2863  -1.2990 LP             1 S1                 0.0000
     59 ****        -0.7546   0.7040   1.7750 LP             1 S1                 0.0000
     60 ****         1.1729   0.1969   2.5974 LP             1 S1                 0.0000
     61 ****         2.4499  -0.8175   2.5148 LP             1 S1                 0.0000
     62 ****         5.8638  -3.2877   2.3385 LP             1 S1                 0.0000
@<TRIPOS>BOND
    1    1    2 1     
    2    1   26 1     
    3    1   27 1     
    4    1   28 1     
    5    2    3 1     
    6    2   29 1     
    7    2   30 1     
    8    3   25 1     
    9    3    4 1     
   10    4    5 1     
   11    4   31 1     
   12    4   32 1     
   13    5    6 1     
   14    5   33 1     
   15    5   34 1     
   16    6    7 1     
   17    7    8 1     
   18    7   25 1     
   19    7   35 1     
   20    8    9 1     
   21    8   36 1     
   22    8   37 1     
   23    9   10 1     
   24    9   38 1     
   25   10   11 1     
   26   10   39 1     
   27   10   40 1     
   28   11   12 1     
   29   11   13 1     
   30   11   41 1     
   31   12   42 1     
   32   13   14 1     
   33   13   43 1     
   34   13   44 1     
   35   14   24 1     
   36   14   15 1     
   37   15   16 2     
   38   15   45 1     
   39   16   17 1     
   40   17   24 ar    
   41   17   18 ar    
   42   18   19 ar    
   43   18   46 1     
   44   19   20 1     
   45   19   21 ar    
   46   20   47 1     
   47   20   48 1     
   48   20   49 1     
   49   21   22 1     
   50   21   23 ar    
   51   22   50 1     
   52   22   51 1     
   53   22   52 1     
   54   23   24 ar    
   55   23   53 1     
   56   25   54 1     
   57   25   55 1     
   58    3   56 1     
   59    6   57 1     
   60    6   58 1     
   61    9   59 1     
   62   12   60 1     
   63   12   61 1     
   64   16   62 1     
@<TRIPOS>SUBSTRUCTURE
      1 S1             1
@<TRIPOS>SET
LONE_PAIRS      STATIC     ATOMS    <user>   **** ""
7 56 57 58 59 60 61 62
DONOR_HYDROGENS      STATIC     ATOMS    <user>   **** ""
2 38 42
ATOM$BLUE        STATIC     ATOMS    COLORGROUP SYSTEM
7 56 57 58 59 60 61 62
ATOM$RED        STATIC     ATOMS    COLORGROUP SYSTEM
2 38 42
