AV-unprocessed.smi:2336|AV-procd|sdf|9327|dock6
  -GOLD-   2272012543D 1   1.00000     0.00000
 Structure written by MMmdl.
 50 51  0  0  0  0  0  0  0  0  2 V2000
  152.3511  139.6288  156.2763 C   0  0  0  0  0  0  0  0  0  0  0  0
  152.0010  139.9634  157.7375 C   0  0  0  0  0  0  0  0  0  0  0  0
  152.5565  138.8955  158.6968 C   0  0  0  0  0  0  0  0  0  0  0  0
  150.4829  140.2823  157.9709 C   0  0  2  0  0  0  0  0  0  0  0  0
  149.5614  139.0257  157.8495 C   0  0  0  0  0  0  0  0  0  0  0  0
  149.1526  138.4808  159.1385 N   0  0  0  0  0  0  0  0  0  0  0  0
  148.9968  137.1745  159.3990 C   0  0  0  0  0  0  0  0  0  0  0  0
  149.1918  136.2927  158.5620 O   0  0  0  0  0  0  0  0  0  0  0  0
  148.5867  136.9785  160.6637 N   0  0  0  0  0  0  0  0  0  0  0  0
  148.2691  135.7607  161.3266 C   0  0  0  0  0  0  0  0  0  0  0  0
  148.5561  134.4714  160.8153 C   0  0  0  0  0  0  0  0  0  0  0  0
  148.1950  133.3456  161.5824 C   0  0  0  0  0  0  0  0  0  0  0  0
  147.5949  133.4274  162.7885 N   0  0  0  0  0  0  0  0  0  0  0  0
  147.3350  134.6575  163.2790 C   0  0  0  0  0  0  0  0  0  0  0  0
  147.6527  135.8469  162.5931 C   0  0  0  0  0  0  0  0  0  0  0  0
  147.3672  137.0510  163.1453 F   0  0  0  0  0  0  0  0  0  0  0  0
  150.0699  141.3924  157.0775 N   0  0  0  0  0  0  0  0  0  0  0  0
  148.7229  141.9526  157.2635 C   0  0  0  0  0  0  0  0  0  0  0  0
  148.6020  142.7263  158.5937 C   0  0  0  0  0  0  0  0  0  0  0  0
  149.5568  143.8566  158.6100 N   0  3  0  0  0  0  0  0  0  0  0  0
  149.4510  144.6779  159.8346 C   0  0  0  0  0  0  0  0  0  0  0  0
  150.9344  143.3754  158.3603 C   0  0  0  0  0  0  0  0  0  0  0  0
  150.9942  142.5416  157.0600 C   0  0  0  0  0  0  0  0  0  0  0  0
  151.9325  138.6717  155.9653 H   0  0  0  0  0  0  0  0  0  0  0  0
  153.4313  139.5674  156.1408 H   0  0  0  0  0  0  0  0  0  0  0  0
  151.9803  140.3963  155.5965 H   0  0  0  0  0  0  0  0  0  0  0  0
  152.5911  140.8455  157.9697 H   0  0  0  0  0  0  0  0  0  0  0  0
  152.2054  137.8939  158.4552 H   0  0  0  0  0  0  0  0  0  0  0  0
  152.2821  139.1097  159.7300 H   0  0  0  0  0  0  0  0  0  0  0  0
  153.6456  138.8666  158.6501 H   0  0  0  0  0  0  0  0  0  0  0  0
  150.3714  140.6415  158.9922 H   0  0  0  0  0  0  0  0  0  0  0  0
  148.6381  139.2457  157.3155 H   0  0  0  0  0  0  0  0  0  0  0  0
  150.0505  138.2375  157.2772 H   0  0  0  0  0  0  0  0  0  0  0  0
  148.9688  139.1437  159.8778 H   0  0  0  0  0  0  0  0  0  0  0  0
  148.4179  137.8131  161.2063 H   0  0  0  0  0  0  0  0  0  0  0  0
  149.0491  134.3190  159.8683 H   0  0  0  0  0  0  0  0  0  0  0  0
  148.4010  132.3500  161.2180 H   0  0  0  0  0  0  0  0  0  0  0  0
  146.8606  134.6960  164.2485 H   0  0  0  0  0  0  0  0  0  0  0  0
  148.5143  142.6316  156.4355 H   0  0  0  0  0  0  0  0  0  0  0  0
  147.9587  141.1806  157.1839 H   0  0  0  0  0  0  0  0  0  0  0  0
  147.5877  143.1126  158.6977 H   0  0  0  0  0  0  0  0  0  0  0  0
  148.7820  142.0769  159.4514 H   0  0  0  0  0  0  0  0  0  0  0  0
  149.7022  144.0937  160.7210 H   0  0  0  0  0  0  0  0  0  0  0  0
  148.4372  145.0619  159.9536 H   0  0  0  0  0  0  0  0  0  0  0  0
  150.1271  145.5319  159.7841 H   0  0  0  0  0  0  0  0  0  0  0  0
  151.5974  144.2360  158.2647 H   0  0  0  0  0  0  0  0  0  0  0  0
  151.2949  142.8055  159.2170 H   0  0  0  0  0  0  0  0  0  0  0  0
  152.0228  142.2419  156.8753 H   0  0  0  0  0  0  0  0  0  0  0  0
  150.7290  143.1800  156.2160 H   0  0  0  0  0  0  0  0  0  0  0  0
  149.3118  144.4532  157.8326 H   0  0  0  0  0  0  0  0  0  0  0  0
  1  2  1  0  0  0  0
  1 24  1  0  0  0  0
  1 25  1  0  0  0  0
  1 26  1  0  0  0  0
  2  3  1  0  0  0  0
  2  4  1  0  0  0  0
  2 27  1  0  0  0  0
  3 28  1  0  0  0  0
  3 29  1  0  0  0  0
  3 30  1  0  0  0  0
  4  5  1  0  0  0  0
  4 17  1  0  0  0  0
  4 31  1  0  0  0  0
  5  6  1  0  0  0  0
  5 32  1  0  0  0  0
  5 33  1  0  0  0  0
  6  7  1  0  0  0  0
  6 34  1  0  0  0  0
  7  8  2  0  0  0  0
  7  9  1  0  0  0  0
  9 10  1  0  0  0  0
  9 35  1  0  0  0  0
 10 15  1  0  0  0  0
 10 11  2  0  0  0  0
 11 12  1  0  0  0  0
 11 36  1  0  0  0  0
 12 13  2  0  0  0  0
 12 37  1  0  0  0  0
 13 14  1  0  0  0  0
 14 15  2  0  0  0  0
 14 38  1  0  0  0  0
 15 16  1  0  0  0  0
 17 23  1  0  0  0  0
 17 18  1  0  0  0  0
 18 19  1  0  0  0  0
 18 39  1  0  0  0  0
 18 40  1  0  0  0  0
 19 20  1  0  0  0  0
 19 41  1  0  0  0  0
 19 42  1  0  0  0  0
 20 21  1  0  0  0  0
 20 22  1  0  0  0  0
 20 50  1  0  0  0  0
 21 43  1  0  0  0  0
 21 44  1  0  0  0  0
 21 45  1  0  0  0  0
 22 23  1  0  0  0  0
 22 46  1  0  0  0  0
 22 47  1  0  0  0  0
 23 48  1  0  0  0  0
 23 49  1  0  0  0  0
M  CHG  1  20   1
M  END
> <s_m_source_file>
AV-unprocessed.smi

> <i_m_source_file_index>
2336

> <i_lp_mmshare_version>
43012

> <i_f3d_flags>
0

> <s_epik_input>
W0NIMl0xW0NIMl1OKFtDSDNdKVtDSDJdW0NIMl1OMVtDQEhdKFtDSF0oW0NIM10pW0NIM10pW0NIMl1bTkhdQyg9TylbTkhdYzJbY0hdW2NIXW5bY0hdYzJG

> <s_epik_cmdline>
J2VwaWtfcHl0aG9uJywgJy1waCcsICc3LjAnLCAnLXRuJywgJzgnLCAnLW1hJywgJzIwMCcsICctbWV0YWxfYmluZGluZycsICctaW1hZScsICc8aW5maWxlLm1hZT4nLCAnLW9tYWUnLCAnPG91dGZpbGUubWFlPic=

> <r_epik_Ionization_Penalty>
0.0313013

> <r_epik_Ionization_Penalty_Charging>
0.0272987

> <r_epik_Ionization_Penalty_Neutral>
0.00400259

> <r_epik_State_Penalty>
0.0776825

> <r_epik_Charging_Adjusted_Penalty>
0.104981

> <i_epik_Tot_Q>
1

> <i_epik_Tot_abs_Q>
1

> <r_epik_Metal_State_Penalty>
0.0776139

> <b_epik_Metal_Only>
0

> <s_lp_Force_Field>
OPLS_2005

> <r_lp_Energy>
31.6665

> <b_lp_Chiralities_Consistent>
1

> <s_lp_Variant>
AV-unprocessed.smi:2336-1

> <Gold.Version>
5.8.1

> <Gold.Id.Protein>
6NUR|6NUR_protein|mol2

> <Gold.PLP.Fitness>
40.3620

> <Gold.PLP.PLP>
-36.0651

> <Gold.PLP.part.hbond>
-1.3073

> <Gold.PLP.part.metal>
0.0000

> <Gold.PLP.part.buried>
-4.9280

> <Gold.PLP.part.nonpolar>
-30.1345

> <Gold.PLP.part.repulsive>
0.5032

> <Gold.PLP.ligand.clash>
0.0000

> <Gold.PLP.ligand.torsion>
0.9297

> <Gold.PLP.Chemscore.Hbond>
2.0000

> <Gold.PLP.Chemscore.CHOScore>
0.0000

> <Gold.PLP.Chemscore.Metal>
0.0000

> <Gold.Chemscore.Hbonds>
donor molecule, donor type, donor heavy atom, donor atom, acceptor molecule, acceptor atom, score
      L1  H    20    50       P1  8029  0.58

> <Gold.PLP.Chemscore.Internal.Correction>
0.1562

> <Gold.Rescore>
     Score         DG    S(hbond)    S(metal)    S(lipo)     H(rot)  DE(clash)    DE(int)     intcor
     13.16     -15.36       0.98        0.00      93.17       1.67       0.25       1.95       ----

> <Gold.Chemscore.Fitness>
13.1624

> <Gold.Chemscore.DG>
-15.3638

> <Gold.Chemscore.ZeroCoef>
-5.4800

> <Gold.Chemscore.Hbond>
0.9784

> <Gold.Chemscore.Metal>
0.0000

> <Gold.Chemscore.Lipo>
93.1730

> <Gold.Chemscore.Internal_Hbond>
0.0000

> <Gold.Chemscore.DEClash>
0.2511

> <Gold.Chemscore.DEInternal>
1.9503

> <Gold.Chemscore.Rot>
1.6739

> <Gold.Chemscore.Internal.Correction>
   9.000000E+99

> <Gold.Chemscore.Hbonds>
donor molecule, donor type, donor heavy atom, donor atom, acceptor molecule, acceptor atom, score
      L1  H    20    50       P1  8029  0.01
      P1  H  6896  6907       L1     8  0.01

> <Gold.Chemscore.Hbond.Weighted>
-3.2677

> <Gold.Chemscore.Metal.Weighted>
-0.0000

> <Gold.Chemscore.Lipo.Weighted>
-10.9012

> <Gold.Chemscore.Internal_Hbond.Weighted>
0.0000

> <Gold.Chemscore.DEClash.Weighted>
0.2511

> <Gold.Chemscore.DEInternal.Weighted>
1.9503

> <Gold.Chemscore.Rot.Weighted>
4.2851

> <Gold.Chemscore.Internal.Correction.Weighted>
   9.000000E+99

> <Gold.Protein.RotatedTorsions>
[ 6907 6896 6895 6894 ] final  -48.07 input  -60.11 | X-H torsion
[ 7974 7965 7964 7962 ] final -162.34 input  175.53 | X-H torsion
[ 8008 7997 7996 7995 ] final  167.69 input   59.86 | X-H torsion
[ 10167 10162 10161 10158 ] final -119.92 input  -65.29 | X-H torsion
[ 10718 10713 10712 10709 ] final  142.38 input   66.30 | X-H torsion
[ 10763 10752 10751 10750 ] final -150.69 input  -60.55 | X-H torsion
[ 11005 11000 10999 10996 ] final  -76.10 input  -57.11 | X-H torsion

> <Gold.Protein.ActiveResidues>
 VAL166  LYS551  ARG553  GLY616  TRP617  ASP618  TYR619  PRO620  LYS621  CYS622 
 ASP623  PHE694  ASN695  SER759  ASP760  ASP761  ALA762  ILE779  LEU786  VAL792 
 PHE793  MET794  SER795  GLU796  ALA797  LYS798  CYS799  TRP800  GLU811  SER814 

> <Gold.Protein.RotatedAtoms>
  150.8943  134.8349  159.7314 H   0  0  0  0  0  0  0  0  0  0  0  0  # atno 6907 bound_to 6896
  152.4855  134.4600  159.9612 H   0  0  0  0  0  0  0  0  0  0  0  0  # atno 6908 bound_to 6896
  151.4659  133.3542  159.2851 H   0  0  0  0  0  0  0  0  0  0  0  0  # atno 6909 bound_to 6896
  144.7360  140.3266  143.6161 H   0  0  0  0  0  0  0  0  0  0  0  0  # atno 7974 bound_to 7965
  156.1612  140.1610  156.8609 H   0  0  0  0  0  0  0  0  0  0  0  0  # atno 8008 bound_to 7997
  154.5162  140.0789  156.8122 H   0  0  0  0  0  0  0  0  0  0  0  0  # atno 8009 bound_to 7997
  155.3703  140.3400  155.4245 H   0  0  0  0  0  0  0  0  0  0  0  0  # atno 8010 bound_to 7997
  140.0414  143.5149  152.2128 H   0  0  0  0  0  0  0  0  0  0  0  0  # atno 10167 bound_to 10162
  157.3812  131.0992  151.0737 H   0  0  0  0  0  0  0  0  0  0  0  0  # atno 10718 bound_to 10713
  154.8103  135.3278  154.7322 H   0  0  0  0  0  0  0  0  0  0  0  0  # atno 10763 bound_to 10752
  153.7972  135.6906  153.4866 H   0  0  0  0  0  0  0  0  0  0  0  0  # atno 10764 bound_to 10752
  153.1877  135.4562  155.0056 H   0  0  0  0  0  0  0  0  0  0  0  0  # atno 10765 bound_to 10752
  141.1651  133.6971  156.7618 H   0  0  0  0  0  0  0  0  0  0  0  0  # atno 11005 bound_to 11000
  145.7514  139.1795  143.2319 LP  0  0  0  0  0  0  0  0  0  0  0  0  # atno 17320 bound_to 7965
  146.1057  140.7489  142.9527 LP  0  0  0  0  0  0  0  0  0  0  0  0  # atno 17321 bound_to 7965
  139.6011  144.7583  151.3170 LP  0  0  0  0  0  0  0  0  0  0  0  0  # atno 17342 bound_to 10162
  140.7258  143.7007  150.7847 LP  0  0  0  0  0  0  0  0  0  0  0  0  # atno 17343 bound_to 10162
  157.1805  130.6307  149.5670 LP  0  0  0  0  0  0  0  0  0  0  0  0  # atno 17370 bound_to 10713
  155.9776  130.4755  150.6605 LP  0  0  0  0  0  0  0  0  0  0  0  0  # atno 17371 bound_to 10713
  140.2528  134.8527  157.3684 LP  0  0  0  0  0  0  0  0  0  0  0  0  # atno 17394 bound_to 11000
  140.1686  134.4638  155.7847 LP  0  0  0  0  0  0  0  0  0  0  0  0  # atno 17395 bound_to 11000

$$$$
