AV-unprocessed.smi:260|AV-procd|sdf|1976|dock7
  -GOLD-   2262021143D 1   1.00000     0.00000
 Structure written by MMmdl.
 53 56  0  0  0  0  0  0  0  0  1 V2000
  154.3319  141.4597  160.4372 C   0  0  0  0  0  0  0  0  0  0  0  0
  153.5400  142.2419  159.5006 N   0  0  0  0  0  0  0  0  0  0  0  0
  152.2815  142.6511  159.7275 C   0  0  0  0  0  0  0  0  0  0  0  0
  151.6859  142.3779  160.7707 O   0  0  0  0  0  0  0  0  0  0  0  0
  151.5631  143.4875  158.6359 C   0  0  2  0  0  0  0  0  0  0  0  0
  152.3589  144.7853  158.3936 C   0  0  0  0  0  0  0  0  0  0  0  0
  150.0725  143.7735  158.9311 C   0  0  0  0  0  0  0  0  0  0  0  0
  149.3249  142.5200  158.4580 C   0  0  0  0  0  0  0  0  0  0  0  0
  150.2137  141.8776  157.5011 N   0  0  0  0  0  0  0  0  0  0  0  0
  149.7449  141.0715  156.5133 C   0  0  0  0  0  0  0  0  0  0  0  0
  150.3614  141.1027  155.3021 N   0  0  0  0  0  0  0  0  0  0  0  0
  149.9375  140.3242  154.3030 C   0  0  0  0  0  0  0  0  0  0  0  0
  148.9300  139.4507  154.2970 N   0  0  0  0  0  0  0  0  0  0  0  0
  148.3088  139.4052  155.5098 C   0  0  0  0  0  0  0  0  0  0  0  0
  148.6493  140.1700  156.6632 C   0  0  0  0  0  0  0  0  0  0  0  0
  147.7993  139.8329  157.7113 N   0  0  0  0  0  0  0  0  0  0  0  0
  146.9998  138.9348  157.2058 C   0  0  0  0  0  0  0  0  0  0  0  0
  147.2237  138.6307  155.8827 N   0  0  0  0  0  0  0  0  0  0  0  0
  146.4930  137.6653  155.0793 C   0  0  0  0  0  0  0  0  0  0  0  0
  145.6675  138.3033  153.9382 C   0  0  2  0  0  0  0  0  0  0  0  0
  144.6305  139.0253  154.5714 O   0  0  0  0  0  0  0  0  0  0  0  0
  144.9983  137.3044  152.9660 C   0  0  2  0  0  0  0  0  0  0  0  0
  144.2463  136.1366  153.6095 C   0  0  0  0  0  0  0  0  0  0  0  0
  144.2793  135.0484  152.5488 C   0  0  0  0  0  0  0  0  0  0  0  0
  145.3851  135.5007  151.5946 C   0  0  0  0  0  0  0  0  0  0  0  0
  146.0014  136.6020  152.2458 O   0  0  0  0  0  0  0  0  0  0  0  0
  151.4360  142.6566  157.3447 C   0  0  0  0  0  0  0  0  0  0  0  0
  155.3162  141.2589  160.0146 H   0  0  0  0  0  0  0  0  0  0  0  0
  153.8509  140.5044  160.6504 H   0  0  0  0  0  0  0  0  0  0  0  0
  154.4670  141.9989  161.3754 H   0  0  0  0  0  0  0  0  0  0  0  0
  153.9764  142.4966  158.6265 H   0  0  0  0  0  0  0  0  0  0  0  0
  151.9126  145.3821  157.5975 H   0  0  0  0  0  0  0  0  0  0  0  0
  153.3895  144.5799  158.1008 H   0  0  0  0  0  0  0  0  0  0  0  0
  152.3852  145.4058  159.2903 H   0  0  0  0  0  0  0  0  0  0  0  0
  149.8521  144.0302  159.9678 H   0  0  0  0  0  0  0  0  0  0  0  0
  149.7407  144.6219  158.3310 H   0  0  0  0  0  0  0  0  0  0  0  0
  149.1461  141.8374  159.2891 H   0  0  0  0  0  0  0  0  0  0  0  0
  148.3639  142.7849  158.0157 H   0  0  0  0  0  0  0  0  0  0  0  0
  150.4840  140.4154  153.3759 H   0  0  0  0  0  0  0  0  0  0  0  0
  146.2173  138.4697  157.7877 H   0  0  0  0  0  0  0  0  0  0  0  0
  147.1877  136.9260  154.6789 H   0  0  0  0  0  0  0  0  0  0  0  0
  145.8317  137.1276  155.7606 H   0  0  0  0  0  0  0  0  0  0  0  0
  146.2827  139.0126  153.3834 H   0  0  0  0  0  0  0  0  0  0  0  0
  144.3078  139.6777  153.9688 H   0  0  0  0  0  0  0  0  0  0  0  0
  144.3392  137.8230  152.2667 H   0  0  0  0  0  0  0  0  0  0  0  0
  144.7749  135.7890  154.4981 H   0  0  0  0  0  0  0  0  0  0  0  0
  143.2289  136.3984  153.8978 H   0  0  0  0  0  0  0  0  0  0  0  0
  144.4961  134.0760  152.9920 H   0  0  0  0  0  0  0  0  0  0  0  0
  143.3267  134.9749  152.0233 H   0  0  0  0  0  0  0  0  0  0  0  0
  146.1098  134.7129  151.3884 H   0  0  0  0  0  0  0  0  0  0  0  0
  144.9625  135.8334  150.6454 H   0  0  0  0  0  0  0  0  0  0  0  0
  151.3411  143.3052  156.4725 H   0  0  0  0  0  0  0  0  0  0  0  0
  152.2956  142.0050  157.1807 H   0  0  0  0  0  0  0  0  0  0  0  0
  1  2  1  0  0  0  0
  1 28  1  0  0  0  0
  1 29  1  0  0  0  0
  1 30  1  0  0  0  0
  2  3  1  0  0  0  0
  2 31  1  0  0  0  0
  3  4  2  0  0  0  0
  3  5  1  0  0  0  0
  5 27  1  0  0  0  0
  5  6  1  0  0  0  0
  5  7  1  0  0  0  0
  6 32  1  0  0  0  0
  6 33  1  0  0  0  0
  6 34  1  0  0  0  0
  7  8  1  0  0  0  0
  7 35  1  0  0  0  0
  7 36  1  0  0  0  0
  8  9  1  0  0  0  0
  8 37  1  0  0  0  0
  8 38  1  0  0  0  0
  9 10  1  0  0  0  0
  9 27  1  0  0  0  0
 10 15  1  0  0  0  0
 10 11  2  0  0  0  0
 11 12  1  0  0  0  0
 12 13  2  0  0  0  0
 12 39  1  0  0  0  0
 13 14  1  0  0  0  0
 14 18  1  0  0  0  0
 14 15  2  0  0  0  0
 15 16  1  0  0  0  0
 16 17  2  0  0  0  0
 17 18  1  0  0  0  0
 17 40  1  0  0  0  0
 18 19  1  0  0  0  0
 19 20  1  0  0  0  0
 19 41  1  0  0  0  0
 19 42  1  0  0  0  0
 20 21  1  0  0  0  0
 20 22  1  0  0  0  0
 20 43  1  0  0  0  0
 21 44  1  0  0  0  0
 22 26  1  0  0  0  0
 22 23  1  0  0  0  0
 22 45  1  0  0  0  0
 23 24  1  0  0  0  0
 23 46  1  0  0  0  0
 23 47  1  0  0  0  0
 24 25  1  0  0  0  0
 24 48  1  0  0  0  0
 24 49  1  0  0  0  0
 25 26  1  0  0  0  0
 25 50  1  0  0  0  0
 25 51  1  0  0  0  0
 27 52  1  0  0  0  0
 27 53  1  0  0  0  0
M  END
> <s_m_source_file>
AV-unprocessed.smi

> <i_m_source_file_index>
260

> <i_lp_mmshare_version>
43012

> <i_f3d_flags>
0

> <s_epik_input>
W0NIM11bTkhdQyg9TylbQ0BAXTEoW0NIM10pW0NIMl1bQ0gyXU4oW0NIMl0xKWMobltjSF1uMiljKGMyMyluW2NIXW4zW0NIMl1bQ0BIXShbT0hdKVtDQEBIXTRbQ0gyXVtDSDJdW0NIMl1PNA==

> <s_epik_cmdline>
J2VwaWtfcHl0aG9uJywgJy1waCcsICc3LjAnLCAnLXRuJywgJzgnLCAnLW1hJywgJzIwMCcsICctbWV0YWxfYmluZGluZycsICctaW1hZScsICc8aW5maWxlLm1hZT4nLCAnLW9tYWUnLCAnPG91dGZpbGUubWFlPic=

> <r_lp_tautomer_probability>
1

> <r_epik_Ionization_Penalty>
0.00115068

> <r_epik_Ionization_Penalty_Charging>
0

> <r_epik_Ionization_Penalty_Neutral>
0.00115068

> <r_epik_State_Penalty>
0.000668876

> <r_epik_Charging_Adjusted_Penalty>
0.000668876

> <i_epik_Tot_Q>
0

> <i_epik_Tot_abs_Q>
0

> <r_epik_Metal_State_Penalty>
-0

> <b_epik_Metal_Only>
0

> <s_lp_Force_Field>
OPLS_2005

> <r_lp_Energy>
52.371

> <b_lp_Chiralities_Consistent>
1

> <s_lp_Variant>
AV-unprocessed.smi:260-2

> <Gold.Version>
5.8.1

> <Gold.Id.Protein>
6NUR|6NUR_protein|mol2

> <Gold.PLP.Fitness>
41.8488

> <Gold.PLP.PLP>
-36.1428

> <Gold.PLP.part.hbond>
-3.1633

> <Gold.PLP.part.metal>
0.0000

> <Gold.PLP.part.buried>
-5.4575

> <Gold.PLP.part.nonpolar>
-28.5993

> <Gold.PLP.part.repulsive>
0.5155

> <Gold.PLP.ligand.clash>
0.0000

> <Gold.PLP.ligand.torsion>
0.4913

> <Gold.PLP.Chemscore.Hbond>
1.1547

> <Gold.PLP.Chemscore.CHOScore>
0.9613

> <Gold.PLP.Chemscore.Metal>
0.0000

> <Gold.Chemscore.Hbonds>
donor molecule, donor type, donor heavy atom, donor atom, acceptor molecule, acceptor atom, score
      L1  H    21    44       P1 10175  1.00
      P1  H  6933  6945       L1     4  0.11
      L1  C    12    39       P1  7957  0.94

> <Gold.PLP.Chemscore.Internal.Correction>
0.3408

> <Gold.Rescore>
     Score         DG    S(hbond)    S(metal)    S(lipo)     H(rot)  DE(clash)    DE(int)     intcor
     11.39     -12.02       1.31        0.00      73.64       2.53       0.07       0.57       ----

> <Gold.Chemscore.Fitness>
11.3851

> <Gold.Chemscore.DG>
-12.0204

> <Gold.Chemscore.ZeroCoef>
-5.4800

> <Gold.Chemscore.Hbond>
1.3148

> <Gold.Chemscore.Metal>
0.0000

> <Gold.Chemscore.Lipo>
73.6367

> <Gold.Chemscore.Internal_Hbond>
0.0000

> <Gold.Chemscore.DEClash>
0.0688

> <Gold.Chemscore.DEInternal>
0.5664

> <Gold.Chemscore.Rot>
2.5259

> <Gold.Chemscore.Internal.Correction>
   9.000000E+99

> <Gold.Chemscore.Hbonds>
donor molecule, donor type, donor heavy atom, donor atom, acceptor molecule, acceptor atom, score
      L1  H    21    44       P1 10175  1.00
      P1  H  6933  6945       L1     4  0.10

> <Gold.Chemscore.Hbond.Weighted>
-4.3913

> <Gold.Chemscore.Metal.Weighted>
-0.0000

> <Gold.Chemscore.Lipo.Weighted>
-8.6155

> <Gold.Chemscore.Internal_Hbond.Weighted>
0.0000

> <Gold.Chemscore.DEClash.Weighted>
0.0688

> <Gold.Chemscore.DEInternal.Weighted>
0.5664

> <Gold.Chemscore.Rot.Weighted>
6.4663

> <Gold.Chemscore.Internal.Correction.Weighted>
   9.000000E+99

> <Gold.Protein.RotatedTorsions>
[ 6907 6896 6895 6894 ] final   31.82 input  -60.11 | X-H torsion
[ 7974 7965 7964 7962 ] final  156.20 input  175.53 | X-H torsion
[ 8008 7997 7996 7995 ] final -103.75 input   59.86 | X-H torsion
[ 10167 10162 10161 10158 ] final   28.62 input  -65.29 | X-H torsion
[ 10718 10713 10712 10709 ] final -119.44 input   66.30 | X-H torsion
[ 10763 10752 10751 10750 ] final  160.42 input  -60.55 | X-H torsion
[ 11005 11000 10999 10996 ] final   34.02 input  -57.11 | X-H torsion

> <Gold.Protein.ActiveResidues>
 VAL166  LYS551  ARG553  GLY616  TRP617  ASP618  TYR619  PRO620  LYS621  CYS622 
 ASP623  PHE694  ASN695  SER759  ASP760  ASP761  ALA762  ILE779  LEU786  VAL792 
 PHE793  MET794  SER795  GLU796  ALA797  LYS798  CYS799  TRP800  GLU811  SER814 

> <Gold.Protein.RotatedAtoms>
  152.0657  134.9566  160.0574 H   0  0  0  0  0  0  0  0  0  0  0  0  # atno 6907 bound_to 6896
  152.0912  133.4196  159.4553 H   0  0  0  0  0  0  0  0  0  0  0  0  # atno 6908 bound_to 6896
  150.6837  134.2789  159.4662 H   0  0  0  0  0  0  0  0  0  0  0  0  # atno 6909 bound_to 6896
  144.7978  139.7171  143.6194 H   0  0  0  0  0  0  0  0  0  0  0  0  # atno 7974 bound_to 7965
  154.8754  140.0421  157.1750 H   0  0  0  0  0  0  0  0  0  0  0  0  # atno 8008 bound_to 7997
  154.8695  140.2956  155.5469 H   0  0  0  0  0  0  0  0  0  0  0  0  # atno 8009 bound_to 7997
  156.2999  140.2432  156.3681 H   0  0  0  0  0  0  0  0  0  0  0  0  # atno 8010 bound_to 7997
  140.4837  144.0576  150.6273 H   0  0  0  0  0  0  0  0  0  0  0  0  # atno 10167 bound_to 10162
  156.1181  130.6302  150.9416 H   0  0  0  0  0  0  0  0  0  0  0  0  # atno 10718 bound_to 10713
  154.2471  135.2773  155.2831 H   0  0  0  0  0  0  0  0  0  0  0  0  # atno 10763 bound_to 10752
  154.5496  135.5679  153.6914 H   0  0  0  0  0  0  0  0  0  0  0  0  # atno 10764 bound_to 10752
  152.9988  135.6271  154.2617 H   0  0  0  0  0  0  0  0  0  0  0  0  # atno 10765 bound_to 10752
  140.2571  134.3235  155.7870 H   0  0  0  0  0  0  0  0  0  0  0  0  # atno 11005 bound_to 11000
  146.2251  139.5707  142.9592 LP  0  0  0  0  0  0  0  0  0  0  0  0  # atno 17320 bound_to 7965
  145.5630  141.0402  143.2216 LP  0  0  0  0  0  0  0  0  0  0  0  0  # atno 17321 bound_to 7965
  140.3825  143.2795  152.0153 LP  0  0  0  0  0  0  0  0  0  0  0  0  # atno 17342 bound_to 10162
  139.4838  144.6143  151.7376 LP  0  0  0  0  0  0  0  0  0  0  0  0  # atno 17343 bound_to 10162
  157.6365  131.0915  150.8338 LP  0  0  0  0  0  0  0  0  0  0  0  0  # atno 17370 bound_to 10713
  156.8439  130.5057  149.5318 LP  0  0  0  0  0  0  0  0  0  0  0  0  # atno 17371 bound_to 10713
  141.2195  133.7387  156.9128 LP  0  0  0  0  0  0  0  0  0  0  0  0  # atno 17394 bound_to 11000
  140.1501  134.9236  157.2581 LP  0  0  0  0  0  0  0  0  0  0  0  0  # atno 17395 bound_to 11000

$$$$
