AV-unprocessed.smi:2390|AV-procd|sdf|9476|dock8
  -GOLD-   2272013103D 1   1.00000     0.00000
 Structure written by MMmdl.
 45 46  0  0  0  0  0  0  0  0  1 V2000
  154.0576  141.1599  159.9607 C   0  0  0  0  0  0  0  0  0  0  0  0
  153.1577  142.3022  159.5388 C   0  0  0  0  0  0  0  0  0  0  0  0
  153.1895  143.5383  160.2140 C   0  0  0  0  0  0  0  0  0  0  0  0
  152.3281  144.5578  159.7709 C   0  0  0  0  0  0  0  0  0  0  0  0
  151.4767  144.3015  158.6787 C   0  0  0  0  0  0  0  0  0  0  0  0
  151.5052  143.0325  158.0576 C   0  0  0  0  0  0  0  0  0  0  0  0
  150.6105  142.8759  156.9659 N   0  0  0  0  0  0  0  0  0  0  0  0
  150.3898  141.7764  156.2240 C   0  0  0  0  0  0  0  0  0  0  0  0
  150.9297  140.6830  156.3951 O   0  0  0  0  0  0  0  0  0  0  0  0
  149.4963  142.0201  155.2541 N   0  0  0  0  0  0  0  0  0  0  0  0
  149.0564  141.0661  154.2357 C   0  0  1  0  0  0  0  0  0  0  0  0
  148.8627  139.6787  154.8746 C   0  0  0  0  0  0  0  0  0  0  0  0
  147.8086  141.6118  153.4721 C   0  0  1  0  0  0  0  0  0  0  0  0
  147.1679  140.4766  152.6323 C   0  0  0  0  0  0  0  0  0  0  0  0
  146.8236  142.2960  154.3480 N   0  0  0  0  0  0  0  0  0  0  0  0
  146.1133  141.3670  155.2347 C   0  0  0  0  0  0  0  0  0  0  0  0
  145.0825  142.0688  156.1358 C   0  0  0  0  0  0  0  0  0  0  0  0
  144.1542  142.7860  155.3346 O   0  0  0  0  0  0  0  0  0  0  0  0
  144.7950  143.7546  154.5165 C   0  0  0  0  0  0  0  0  0  0  0  0
  145.8199  143.0639  153.6010 C   0  0  0  0  0  0  0  0  0  0  0  0
  152.3396  142.0556  158.4930 N   0  0  0  0  0  0  0  0  0  0  0  0
  154.7821  141.4831  160.7086 H   0  0  0  0  0  0  0  0  0  0  0  0
  154.6067  140.7705  159.1028 H   0  0  0  0  0  0  0  0  0  0  0  0
  153.4652  140.3498  160.3866 H   0  0  0  0  0  0  0  0  0  0  0  0
  153.8550  143.7032  161.0487 H   0  0  0  0  0  0  0  0  0  0  0  0
  152.3206  145.5210  160.2596 H   0  0  0  0  0  0  0  0  0  0  0  0
  150.8101  145.0748  158.3247 H   0  0  0  0  0  0  0  0  0  0  0  0
  150.0879  143.7007  156.7111 H   0  0  0  0  0  0  0  0  0  0  0  0
  149.1091  142.9503  155.1923 H   0  0  0  0  0  0  0  0  0  0  0  0
  149.8520  140.9020  153.5106 H   0  0  0  0  0  0  0  0  0  0  0  0
  148.4410  138.9712  154.1601 H   0  0  0  0  0  0  0  0  0  0  0  0
  148.2112  139.7085  155.7476 H   0  0  0  0  0  0  0  0  0  0  0  0
  149.8189  139.2742  155.2082 H   0  0  0  0  0  0  0  0  0  0  0  0
  148.1829  142.3501  152.7612 H   0  0  0  0  0  0  0  0  0  0  0  0
  147.8969  139.9512  152.0189 H   0  0  0  0  0  0  0  0  0  0  0  0
  146.4319  140.8539  151.9242 H   0  0  0  0  0  0  0  0  0  0  0  0
  146.6750  139.7385  153.2658 H   0  0  0  0  0  0  0  0  0  0  0  0
  145.6127  140.6001  154.6416 H   0  0  0  0  0  0  0  0  0  0  0  0
  146.8110  140.8537  155.8938 H   0  0  0  0  0  0  0  0  0  0  0  0
  144.5421  141.3356  156.7347 H   0  0  0  0  0  0  0  0  0  0  0  0
  145.5764  142.7489  156.8318 H   0  0  0  0  0  0  0  0  0  0  0  0
  144.0425  144.2708  153.9205 H   0  0  0  0  0  0  0  0  0  0  0  0
  145.2809  144.5067  155.1404 H   0  0  0  0  0  0  0  0  0  0  0  0
  146.2904  143.8506  153.0155 H   0  0  0  0  0  0  0  0  0  0  0  0
  145.2998  142.4107  152.8989 H   0  0  0  0  0  0  0  0  0  0  0  0
  1  2  1  0  0  0  0
  1 22  1  0  0  0  0
  1 23  1  0  0  0  0
  1 24  1  0  0  0  0
  2 21  1  0  0  0  0
  2  3  2  0  0  0  0
  3  4  1  0  0  0  0
  3 25  1  0  0  0  0
  4  5  2  0  0  0  0
  4 26  1  0  0  0  0
  5  6  1  0  0  0  0
  5 27  1  0  0  0  0
  6  7  1  0  0  0  0
  6 21  2  0  0  0  0
  7  8  1  0  0  0  0
  7 28  1  0  0  0  0
  8  9  2  0  0  0  0
  8 10  1  0  0  0  0
 10 11  1  0  0  0  0
 10 29  1  0  0  0  0
 11 12  1  0  0  0  0
 11 13  1  0  0  0  0
 11 30  1  0  0  0  0
 12 31  1  0  0  0  0
 12 32  1  0  0  0  0
 12 33  1  0  0  0  0
 13 14  1  0  0  0  0
 13 15  1  0  0  0  0
 13 34  1  0  0  0  0
 14 35  1  0  0  0  0
 14 36  1  0  0  0  0
 14 37  1  0  0  0  0
 15 20  1  0  0  0  0
 15 16  1  0  0  0  0
 16 17  1  0  0  0  0
 16 38  1  0  0  0  0
 16 39  1  0  0  0  0
 17 18  1  0  0  0  0
 17 40  1  0  0  0  0
 17 41  1  0  0  0  0
 18 19  1  0  0  0  0
 19 20  1  0  0  0  0
 19 42  1  0  0  0  0
 19 43  1  0  0  0  0
 20 44  1  0  0  0  0
 20 45  1  0  0  0  0
M  END
> <s_m_source_file>
AV-unprocessed.smi

> <i_m_source_file_index>
2390

> <i_lp_mmshare_version>
43012

> <i_f3d_flags>
0

> <s_epik_input>
W0NIM11jMVtjSF1bY0hdW2NIXWMobjEpW05IXUMoPU8pW05IXVtDQEhdKFtDSDNdKVtDQEhdKFtDSDNdKU4yW0NIMl1bQ0gyXU9bQ0gyXVtDSDJdMg==

> <s_epik_cmdline>
J2VwaWtfcHl0aG9uJywgJy1waCcsICc3LjAnLCAnLXRuJywgJzgnLCAnLW1hJywgJzIwMCcsICctbWV0YWxfYmluZGluZycsICctaW1hZScsICc8aW5maWxlLm1hZT4nLCAnLW9tYWUnLCAnPG91dGZpbGUubWFlPic=

> <r_epik_Ionization_Penalty>
0.266074

> <r_epik_Ionization_Penalty_Charging>
0

> <r_epik_Ionization_Penalty_Neutral>
0.266074

> <r_epik_State_Penalty>
0.257924

> <r_epik_Charging_Adjusted_Penalty>
0.257924

> <i_epik_Tot_Q>
0

> <i_epik_Tot_abs_Q>
0

> <r_epik_Metal_State_Penalty>
0.257919

> <b_epik_Metal_Only>
0

> <s_lp_Force_Field>
OPLS_2005

> <r_lp_Energy>
36.7319

> <b_lp_Chiralities_Consistent>
1

> <s_lp_Variant>
AV-unprocessed.smi:2390-4

> <Gold.Version>
5.8.1

> <Gold.Id.Protein>
6NUR|6NUR_protein|mol2

> <Gold.PLP.Fitness>
47.9807

> <Gold.PLP.PLP>
-43.1161

> <Gold.PLP.part.hbond>
-2.0000

> <Gold.PLP.part.metal>
0.0000

> <Gold.PLP.part.buried>
-7.1744

> <Gold.PLP.part.nonpolar>
-33.6736

> <Gold.PLP.part.repulsive>
0.5288

> <Gold.PLP.ligand.clash>
0.0000

> <Gold.PLP.ligand.torsion>
0.6196

> <Gold.PLP.Chemscore.Hbond>
2.0000

> <Gold.PLP.Chemscore.CHOScore>
0.0000

> <Gold.PLP.Chemscore.Metal>
0.0000

> <Gold.Chemscore.Hbonds>
donor molecule, donor type, donor heavy atom, donor atom, acceptor molecule, acceptor atom, score
      L1  H     7    28       P1  8028  1.00
      L1  H    10    29       P1  8028  1.00

> <Gold.PLP.Chemscore.Internal.Correction>
0.1038

> <Gold.Rescore>
     Score         DG    S(hbond)    S(metal)    S(lipo)     H(rot)  DE(clash)    DE(int)     intcor
     17.46     -20.57       1.97        0.00     104.18       1.44       0.13       2.98       ----

> <Gold.Chemscore.Fitness>
17.4630

> <Gold.Chemscore.DG>
-20.5721

> <Gold.Chemscore.ZeroCoef>
-5.4800

> <Gold.Chemscore.Hbond>
1.9727

> <Gold.Chemscore.Metal>
0.0000

> <Gold.Chemscore.Lipo>
104.1755

> <Gold.Chemscore.Internal_Hbond>
0.0000

> <Gold.Chemscore.DEClash>
0.1309

> <Gold.Chemscore.DEInternal>
2.9781

> <Gold.Chemscore.Rot>
1.4396

> <Gold.Chemscore.Internal.Correction>
   9.000000E+99

> <Gold.Chemscore.Hbonds>
donor molecule, donor type, donor heavy atom, donor atom, acceptor molecule, acceptor atom, score
      L1  H     7    28       P1  8028  0.98
      L1  H    10    29       P1  8028  0.99

> <Gold.Chemscore.Hbond.Weighted>
-6.5890

> <Gold.Chemscore.Metal.Weighted>
-0.0000

> <Gold.Chemscore.Lipo.Weighted>
-12.1885

> <Gold.Chemscore.Internal_Hbond.Weighted>
0.0000

> <Gold.Chemscore.DEClash.Weighted>
0.1309

> <Gold.Chemscore.DEInternal.Weighted>
2.9781

> <Gold.Chemscore.Rot.Weighted>
3.6855

> <Gold.Chemscore.Internal.Correction.Weighted>
   9.000000E+99

> <Gold.Protein.RotatedTorsions>
[ 6907 6896 6895 6894 ] final   -0.23 input  -60.11 | X-H torsion
[ 7974 7965 7964 7962 ] final  -34.47 input  175.53 | X-H torsion
[ 8008 7997 7996 7995 ] final -127.39 input   59.86 | X-H torsion
[ 10167 10162 10161 10158 ] final   40.36 input  -65.29 | X-H torsion
[ 10718 10713 10712 10709 ] final -164.80 input   66.30 | X-H torsion
[ 10763 10752 10751 10750 ] final -115.41 input  -60.55 | X-H torsion
[ 11005 11000 10999 10996 ] final -133.96 input  -57.11 | X-H torsion

> <Gold.Protein.ActiveResidues>
 VAL166  LYS551  ARG553  GLY616  TRP617  ASP618  TYR619  PRO620  LYS621  CYS622 
 ASP623  PHE694  ASN695  SER759  ASP760  ASP761  ALA762  ILE779  LEU786  VAL792 
 PHE793  MET794  SER795  GLU796  ALA797  LYS798  CYS799  TRP800  GLU811  SER814 

> <Gold.Protein.RotatedAtoms>
  151.5656  135.1064  159.9982 H   0  0  0  0  0  0  0  0  0  0  0  0  # atno 6907 bound_to 6896
  152.4425  133.7471  159.6684 H   0  0  0  0  0  0  0  0  0  0  0  0  # atno 6908 bound_to 6896
  150.8334  133.7985  159.3113 H   0  0  0  0  0  0  0  0  0  0  0  0  # atno 6909 bound_to 6896
  146.0826  140.6042  142.8901 H   0  0  0  0  0  0  0  0  0  0  0  0  # atno 7974 bound_to 7965
  155.2454  140.0430  157.2980 H   0  0  0  0  0  0  0  0  0  0  0  0  # atno 8008 bound_to 7997
  154.5802  140.2398  155.8034 H   0  0  0  0  0  0  0  0  0  0  0  0  # atno 8009 bound_to 7997
  156.2187  140.2976  155.9910 H   0  0  0  0  0  0  0  0  0  0  0  0  # atno 8010 bound_to 7997
  140.3749  144.2056  150.6132 H   0  0  0  0  0  0  0  0  0  0  0  0  # atno 10167 bound_to 10162
  156.6442  130.8981  151.3001 H   0  0  0  0  0  0  0  0  0  0  0  0  # atno 10718 bound_to 10713
  154.8480  135.4382  154.1659 H   0  0  0  0  0  0  0  0  0  0  0  0  # atno 10763 bound_to 10752
  153.2784  135.6951  153.7416 H   0  0  0  0  0  0  0  0  0  0  0  0  # atno 10764 bound_to 10752
  153.6629  135.3432  155.3107 H   0  0  0  0  0  0  0  0  0  0  0  0  # atno 10765 bound_to 10752
  140.9033  134.1662  157.4444 H   0  0  0  0  0  0  0  0  0  0  0  0  # atno 11005 bound_to 11000
  144.7304  140.4654  143.6942 LP  0  0  0  0  0  0  0  0  0  0  0  0  # atno 17320 bound_to 7965
  145.6188  139.1521  143.3034 LP  0  0  0  0  0  0  0  0  0  0  0  0  # atno 17321 bound_to 7965
  140.4996  143.2322  151.8699 LP  0  0  0  0  0  0  0  0  0  0  0  0  # atno 17342 bound_to 10162
  139.4800  144.5075  151.8978 LP  0  0  0  0  0  0  0  0  0  0  0  0  # atno 17343 bound_to 10162
  157.7161  130.9499  150.1262 LP  0  0  0  0  0  0  0  0  0  0  0  0  # atno 17370 bound_to 10713
  156.2135  130.3668  149.8641 LP  0  0  0  0  0  0  0  0  0  0  0  0  # atno 17371 bound_to 10713
  139.8745  134.9907  156.5513 LP  0  0  0  0  0  0  0  0  0  0  0  0  # atno 17394 bound_to 11000
  140.8203  133.8359  155.8889 LP  0  0  0  0  0  0  0  0  0  0  0  0  # atno 17395 bound_to 11000

$$$$
