AV-unprocessed.smi:1757|AV-procd|sdf|7076|dock3
  -GOLD-   22720 8293D 1   1.00000     0.00000
 Structure written by MMmdl.
 40 41  0  0  0  0  0  0  0  0  2 V2000
  144.1287  142.4301  155.2896 C   0  0  0  0  0  0  0  0  0  0  0  0
  145.3581  141.7755  154.7927 N   0  3  2  0  0  0  0  0  0  0  0  0
  146.0878  141.0539  155.8646 C   0  0  0  0  0  0  0  0  0  0  0  0
  147.2842  140.2730  155.2909 C   0  0  0  0  0  0  0  0  0  0  0  0
  148.2335  141.1770  154.4834 C   0  0  2  0  0  0  0  0  0  0  0  0
  148.9717  142.0759  155.3718 N   0  0  0  0  0  0  0  0  0  0  0  0
  149.8506  141.7072  156.3156 C   0  0  0  0  0  0  0  0  0  0  0  0
  150.1517  140.5359  156.5423 O   0  0  0  0  0  0  0  0  0  0  0  0
  150.3221  142.7822  156.9738 N   0  0  0  0  0  0  0  0  0  0  0  0
  151.2577  142.8438  158.0203 C   0  0  0  0  0  0  0  0  0  0  0  0
  152.0499  141.8130  158.4159 C   0  0  0  0  0  0  0  0  0  0  0  0
  153.0035  141.9493  159.5054 C   0  0  0  0  0  0  0  0  0  0  0  0
  153.8814  140.7981  159.9702 C   0  0  0  0  0  0  0  0  0  0  0  0
  153.6645  140.5472  161.2611 F   0  0  0  0  0  0  0  0  0  0  0  0
  153.5941  139.6929  159.2830 F   0  0  0  0  0  0  0  0  0  0  0  0
  155.1769  141.0677  159.8078 F   0  0  0  0  0  0  0  0  0  0  0  0
  153.0709  143.1551  160.0975 C   0  0  0  0  0  0  0  0  0  0  0  0
  152.2693  144.2229  159.6883 N   0  0  0  0  0  0  0  0  0  0  0  0
  151.3659  144.1531  158.6852 C   0  0  0  0  0  0  0  0  0  0  0  0
  150.6982  145.1409  158.3800 O   0  0  0  0  0  0  0  0  0  0  0  0
  147.4398  141.9768  153.4345 C   0  0  0  0  0  0  0  0  0  0  0  0
  146.2395  142.7145  154.0552 C   0  0  0  0  0  0  0  0  0  0  0  0
  152.3822  145.0972  160.1809 H   0  0  0  0  0  0  0  0  0  0  0  0
  144.3654  143.2115  156.0130 H   0  0  0  0  0  0  0  0  0  0  0  0
  143.4730  141.7042  155.7718 H   0  0  0  0  0  0  0  0  0  0  0  0
  143.5739  142.8818  154.4666 H   0  0  0  0  0  0  0  0  0  0  0  0
  146.4248  141.7643  156.6214 H   0  0  0  0  0  0  0  0  0  0  0  0
  145.4100  140.3603  156.3637 H   0  0  0  0  0  0  0  0  0  0  0  0
  147.8278  139.7745  156.0944 H   0  0  0  0  0  0  0  0  0  0  0  0
  146.9105  139.4794  154.6424 H   0  0  0  0  0  0  0  0  0  0  0  0
  148.9346  140.5326  153.9506 H   0  0  0  0  0  0  0  0  0  0  0  0
  148.7908  143.0633  155.2664 H   0  0  0  0  0  0  0  0  0  0  0  0
  149.9237  143.6744  156.7197 H   0  0  0  0  0  0  0  0  0  0  0  0
  152.0041  140.8600  157.9153 H   0  0  0  0  0  0  0  0  0  0  0  0
  153.7330  143.3896  160.9183 H   0  0  0  0  0  0  0  0  0  0  0  0
  148.0935  142.6850  152.9239 H   0  0  0  0  0  0  0  0  0  0  0  0
  147.0762  141.2933  152.6661 H   0  0  0  0  0  0  0  0  0  0  0  0
  145.6695  143.2055  153.2655 H   0  0  0  0  0  0  0  0  0  0  0  0
  146.5841  143.4999  154.7298 H   0  0  0  0  0  0  0  0  0  0  0  0
  145.0601  141.0765  154.1269 H   0  0  0  0  0  0  0  0  0  0  0  0
  1  2  1  0  0  0  0
  1 24  1  0  0  0  0
  1 25  1  0  0  0  0
  1 26  1  0  0  0  0
  2 22  1  0  0  0  0
  2  3  1  0  0  0  0
  2 40  1  0  0  0  0
  3  4  1  0  0  0  0
  3 27  1  0  0  0  0
  3 28  1  0  0  0  0
  4  5  1  0  0  0  0
  4 29  1  0  0  0  0
  4 30  1  0  0  0  0
  5  6  1  0  0  0  0
  5 21  1  0  0  0  0
  5 31  1  0  0  0  0
  6  7  1  0  0  0  0
  6 32  1  0  0  0  0
  7  8  2  0  0  0  0
  7  9  1  0  0  0  0
  9 10  1  0  0  0  0
  9 33  1  0  0  0  0
 10 19  1  0  0  0  0
 10 11  2  0  0  0  0
 11 12  1  0  0  0  0
 11 34  1  0  0  0  0
 12 13  1  0  0  0  0
 12 17  2  0  0  0  0
 13 14  1  0  0  0  0
 13 15  1  0  0  0  0
 13 16  1  0  0  0  0
 17 18  1  0  0  0  0
 17 35  1  0  0  0  0
 18 23  1  0  0  0  0
 18 19  1  0  0  0  0
 19 20  2  0  0  0  0
 21 22  1  0  0  0  0
 21 36  1  0  0  0  0
 21 37  1  0  0  0  0
 22 38  1  0  0  0  0
 22 39  1  0  0  0  0
M  CHG  1   2   1
M  END
> <s_m_source_file>
AV-unprocessed.smi

> <i_m_source_file_index>
1757

> <i_lp_mmshare_version>
43012

> <i_f3d_flags>
0

> <s_epik_input>
W0NIM11OMVtDSDJdW0NIMl1bQ0hdKFtDSDJdW0NIMl0xKVtOSF1DKD1PKVtOSF1jMltjSF1jKEMoRikoRilGKVtjSF1bbkhdYzI9Tw==

> <s_epik_cmdline>
J2VwaWtfcHl0aG9uJywgJy1waCcsICc3LjAnLCAnLXRuJywgJzgnLCAnLW1hJywgJzIwMCcsICctbWV0YWxfYmluZGluZycsICctaW1hZScsICc8aW5maWxlLm1hZT4nLCAnLW9tYWUnLCAnPG91dGZpbGUubWFlPic=

> <r_lp_tautomer_probability>
1

> <r_epik_Ionization_Penalty>
0.00859077

> <r_epik_Ionization_Penalty_Charging>
0.00857233

> <r_epik_Ionization_Penalty_Neutral>
1.84472e-05

> <r_epik_State_Penalty>
-0

> <r_epik_Charging_Adjusted_Penalty>
0.00857233

> <i_epik_Tot_Q>
1

> <i_epik_Tot_abs_Q>
1

> <r_epik_Metal_State_Penalty>
0.377538

> <b_epik_Metal_Only>
0

> <s_lp_Force_Field>
OPLS_2005

> <r_lp_Energy>
26.4268

> <b_lp_Chiralities_Consistent>
1

> <s_lp_Variant>
AV-unprocessed.smi:1757-2

> <Gold.Version>
5.8.1

> <Gold.Id.Protein>
6NUR|6NUR_protein|mol2

> <Gold.PLP.Fitness>
47.9206

> <Gold.PLP.PLP>
-38.9739

> <Gold.PLP.part.hbond>
-2.7053

> <Gold.PLP.part.metal>
0.0000

> <Gold.PLP.part.buried>
-6.7499

> <Gold.PLP.part.nonpolar>
-30.2668

> <Gold.PLP.part.repulsive>
0.6330

> <Gold.PLP.ligand.clash>
0.0000

> <Gold.PLP.ligand.torsion>
0.0751

> <Gold.PLP.Chemscore.Hbond>
3.0296

> <Gold.PLP.Chemscore.CHOScore>
0.0000

> <Gold.PLP.Chemscore.Metal>
0.0000

> <Gold.Chemscore.Hbonds>
donor molecule, donor type, donor heavy atom, donor atom, acceptor molecule, acceptor atom, score
      L1  H     2    40       P1 10175  1.03
      L1  H     6    32       P1  8028  1.00
      L1  H     9    33       P1  8028  1.00

> <Gold.PLP.Chemscore.Internal.Correction>
0.0082

> <Gold.Rescore>
     Score         DG    S(hbond)    S(metal)    S(lipo)     H(rot)  DE(clash)    DE(int)     intcor
     17.99     -20.59       2.61        0.00      76.46       1.00       1.35       1.25       ----

> <Gold.Chemscore.Fitness>
17.9934

> <Gold.Chemscore.DG>
-20.5886

> <Gold.Chemscore.ZeroCoef>
-5.4800

> <Gold.Chemscore.Hbond>
2.6115

> <Gold.Chemscore.Metal>
0.0000

> <Gold.Chemscore.Lipo>
76.4632

> <Gold.Chemscore.Internal_Hbond>
0.0000

> <Gold.Chemscore.DEClash>
1.3487

> <Gold.Chemscore.DEInternal>
1.2465

> <Gold.Chemscore.Rot>
1.0000

> <Gold.Chemscore.Internal.Correction>
   9.000000E+99

> <Gold.Chemscore.Hbonds>
donor molecule, donor type, donor heavy atom, donor atom, acceptor molecule, acceptor atom, score
      L1  H     2    40       P1 10175  0.41
      L1  H     6    32       P1  8028  0.99
      L1  H     9    33       P1  8028  0.97

> <Gold.Chemscore.Hbond.Weighted>
-8.7224

> <Gold.Chemscore.Metal.Weighted>
-0.0000

> <Gold.Chemscore.Lipo.Weighted>
-8.9462

> <Gold.Chemscore.Internal_Hbond.Weighted>
0.0000

> <Gold.Chemscore.DEClash.Weighted>
1.3487

> <Gold.Chemscore.DEInternal.Weighted>
1.2465

> <Gold.Chemscore.Rot.Weighted>
2.5600

> <Gold.Chemscore.Internal.Correction.Weighted>
   9.000000E+99

> <Gold.Protein.RotatedTorsions>
[ 6907 6896 6895 6894 ] final   65.53 input  -60.11 | X-H torsion
[ 7974 7965 7964 7962 ] final   82.19 input  175.53 | X-H torsion
[ 8008 7997 7996 7995 ] final  -31.95 input   59.86 | X-H torsion
[ 10167 10162 10161 10158 ] final -132.21 input  -65.29 | X-H torsion
[ 10718 10713 10712 10709 ] final  -56.85 input   66.30 | X-H torsion
[ 10763 10752 10751 10750 ] final   25.26 input  -60.55 | X-H torsion
[ 11005 11000 10999 10996 ] final  -99.62 input  -57.11 | X-H torsion

> <Gold.Protein.ActiveResidues>
 VAL166  LYS551  ARG553  GLY616  TRP617  ASP618  TYR619  PRO620  LYS621  CYS622 
 ASP623  PHE694  ASN695  SER759  ASP760  ASP761  ALA762  ILE779  LEU786  VAL792 
 PHE793  MET794  SER795  GLU796  ALA797  LYS798  CYS799  TRP800  GLU811  SER814 

> <Gold.Protein.RotatedAtoms>
  152.4414  134.5583  159.9886 H   0  0  0  0  0  0  0  0  0  0  0  0  # atno 6907 bound_to 6896
  151.5679  133.3388  159.2992 H   0  0  0  0  0  0  0  0  0  0  0  0  # atno 6908 bound_to 6896
  150.8321  134.7612  159.6926 H   0  0  0  0  0  0  0  0  0  0  0  0  # atno 6909 bound_to 6896
  145.6283  139.2399  143.2099 H   0  0  0  0  0  0  0  0  0  0  0  0  # atno 7974 bound_to 7965
  154.4196  140.1750  156.1650 H   0  0  0  0  0  0  0  0  0  0  0  0  # atno 8008 bound_to 7997
  155.9807  140.3377  155.6636 H   0  0  0  0  0  0  0  0  0  0  0  0  # atno 8009 bound_to 7997
  155.6503  140.0689  157.2580 H   0  0  0  0  0  0  0  0  0  0  0  0  # atno 8010 bound_to 7997
  139.9109  143.6496  152.2575 H   0  0  0  0  0  0  0  0  0  0  0  0  # atno 10167 bound_to 10162
  156.1256  130.4163  150.0360 H   0  0  0  0  0  0  0  0  0  0  0  0  # atno 10718 bound_to 10713
  153.0704  135.6587  154.0260 H   0  0  0  0  0  0  0  0  0  0  0  0  # atno 10763 bound_to 10752
  153.9906  135.2946  155.3413 H   0  0  0  0  0  0  0  0  0  0  0  0  # atno 10764 bound_to 10752
  154.7077  135.5218  153.8689 H   0  0  0  0  0  0  0  0  0  0  0  0  # atno 10765 bound_to 10752
  141.1302  133.8335  157.0995 H   0  0  0  0  0  0  0  0  0  0  0  0  # atno 11005 bound_to 11000
  146.1377  140.7100  142.9382 LP  0  0  0  0  0  0  0  0  0  0  0  0  # atno 17320 bound_to 7965
  144.7204  140.4352  143.7013 LP  0  0  0  0  0  0  0  0  0  0  0  0  # atno 17321 bound_to 7965
  139.6944  144.7643  151.1382 LP  0  0  0  0  0  0  0  0  0  0  0  0  # atno 17342 bound_to 10162
  140.7685  143.5544  150.9168 LP  0  0  0  0  0  0  0  0  0  0  0  0  # atno 17343 bound_to 10162
  156.8287  130.9384  151.3638 LP  0  0  0  0  0  0  0  0  0  0  0  0  # atno 17370 bound_to 10713
  157.6438  130.8827  149.9499 LP  0  0  0  0  0  0  0  0  0  0  0  0  # atno 17371 bound_to 10713
  140.0342  134.9886  157.0839 LP  0  0  0  0  0  0  0  0  0  0  0  0  # atno 17394 bound_to 11000
  140.4237  134.1854  155.7165 LP  0  0  0  0  0  0  0  0  0  0  0  0  # atno 17395 bound_to 11000

$$$$
