AV-unprocessed.smi:2131|AV-procd|sdf|8688|dock2
  -GOLD-   2272011443D 1   1.00000     0.00000
 Structure written by MMmdl.
 40 42  0  0  0  0  0  0  0  0  1 V2000
  143.8793  147.2400  155.8944 N   0  0  0  0  0  0  0  0  0  0  0  0
  143.8153  146.4200  155.0806 C   0  0  0  0  0  0  0  0  0  0  0  0
  143.7343  145.3780  154.0458 C   0  0  0  0  0  0  0  0  0  0  0  0
  144.6743  144.2244  154.3269 C   0  0  0  0  0  0  0  0  0  0  0  0
  144.5975  143.5299  155.5496 C   0  0  0  0  0  0  0  0  0  0  0  0
  145.4737  142.4586  155.8089 C   0  0  0  0  0  0  0  0  0  0  0  0
  146.4348  142.0638  154.8557 C   0  0  0  0  0  0  0  0  0  0  0  0
  147.2501  141.0046  155.1919 O   0  0  0  0  0  0  0  0  0  0  0  0
  148.2939  140.6462  154.2955 C   0  0  0  0  0  0  0  0  0  0  0  0
  149.5804  140.4095  155.1000 C   0  0  1  0  0  0  0  0  0  0  0  0
  150.5070  139.7274  154.2780 O   0  0  0  0  0  0  0  0  0  0  0  0
  150.2045  141.7232  155.6103 C   0  0  0  0  0  0  0  0  0  0  0  0
  150.8461  141.5676  156.9031 N   0  0  0  0  0  0  0  0  0  0  0  0
  151.0217  140.4239  157.5928 C   0  0  0  0  0  0  0  0  0  0  0  0
  151.6418  140.5095  158.7662 N   0  0  0  0  0  0  0  0  0  0  0  0
  151.9029  141.8667  158.8459 C   0  0  0  0  0  0  0  0  0  0  0  0
  152.5464  142.6195  159.8541 C   0  0  0  0  0  0  0  0  0  0  0  0
  152.6989  144.0149  159.7162 C   0  0  0  0  0  0  0  0  0  0  0  0
  152.2138  144.6779  158.5700 C   0  0  0  0  0  0  0  0  0  0  0  0
  151.5710  143.9488  157.5511 C   0  0  0  0  0  0  0  0  0  0  0  0
  151.4190  142.5571  157.6940 C   0  0  0  0  0  0  0  0  0  0  0  0
  146.5064  142.7676  153.6268 C   0  0  0  0  0  0  0  0  0  0  0  0
  145.6320  143.8412  153.3678 C   0  0  0  0  0  0  0  0  0  0  0  0
  142.7057  145.0202  153.9953 H   0  0  0  0  0  0  0  0  0  0  0  0
  143.9725  145.8287  153.0821 H   0  0  0  0  0  0  0  0  0  0  0  0
  143.8675  143.8172  156.2921 H   0  0  0  0  0  0  0  0  0  0  0  0
  145.4076  141.9341  156.7508 H   0  0  0  0  0  0  0  0  0  0  0  0
  148.0174  139.7316  153.7678 H   0  0  0  0  0  0  0  0  0  0  0  0
  148.4553  141.4304  153.5536 H   0  0  0  0  0  0  0  0  0  0  0  0
  149.3536  139.7585  155.9452 H   0  0  0  0  0  0  0  0  0  0  0  0
  150.1541  138.8748  154.0736 H   0  0  0  0  0  0  0  0  0  0  0  0
  150.9397  142.0991  154.8970 H   0  0  0  0  0  0  0  0  0  0  0  0
  149.4391  142.4945  155.7041 H   0  0  0  0  0  0  0  0  0  0  0  0
  150.6715  139.4749  157.2134 H   0  0  0  0  0  0  0  0  0  0  0  0
  152.9229  142.1223  160.7358 H   0  0  0  0  0  0  0  0  0  0  0  0
  153.1909  144.5798  160.4941 H   0  0  0  0  0  0  0  0  0  0  0  0
  152.3353  145.7469  158.4738 H   0  0  0  0  0  0  0  0  0  0  0  0
  151.1984  144.4527  156.6714 H   0  0  0  0  0  0  0  0  0  0  0  0
  147.2240  142.5041  152.8648 H   0  0  0  0  0  0  0  0  0  0  0  0
  145.6989  144.3708  152.4288 H   0  0  0  0  0  0  0  0  0  0  0  0
  1  2  3  0  0  0  0
  2  3  1  0  0  0  0
  3  4  1  0  0  0  0
  3 24  1  0  0  0  0
  3 25  1  0  0  0  0
  4 23  1  0  0  0  0
  4  5  2  0  0  0  0
  5  6  1  0  0  0  0
  5 26  1  0  0  0  0
  6  7  2  0  0  0  0
  6 27  1  0  0  0  0
  7  8  1  0  0  0  0
  7 22  1  0  0  0  0
  8  9  1  0  0  0  0
  9 10  1  0  0  0  0
  9 28  1  0  0  0  0
  9 29  1  0  0  0  0
 10 11  1  0  0  0  0
 10 12  1  0  0  0  0
 10 30  1  0  0  0  0
 11 31  1  0  0  0  0
 12 13  1  0  0  0  0
 12 32  1  0  0  0  0
 12 33  1  0  0  0  0
 13 21  1  0  0  0  0
 13 14  1  0  0  0  0
 14 15  2  0  0  0  0
 14 34  1  0  0  0  0
 15 16  1  0  0  0  0
 16 21  2  0  0  0  0
 16 17  1  0  0  0  0
 17 18  2  0  0  0  0
 17 35  1  0  0  0  0
 18 19  1  0  0  0  0
 18 36  1  0  0  0  0
 19 20  2  0  0  0  0
 19 37  1  0  0  0  0
 20 21  1  0  0  0  0
 20 38  1  0  0  0  0
 22 23  2  0  0  0  0
 22 39  1  0  0  0  0
 23 40  1  0  0  0  0
M  END
> <s_m_source_file>
AV-unprocessed.smi

> <i_m_source_file_index>
2131

> <i_lp_mmshare_version>
43012

> <i_f3d_flags>
0

> <s_epik_input>
TiNDW0NIMl1jMVtjSF1bY0hdYyhbY0hdW2NIXTEpT1tDSDJdW0NASF0oW09IXSlbQ0gyXW4oW2NIXW4yKWMoYzIzKVtjSF1bY0hdW2NIXVtjSF0z

> <s_epik_cmdline>
J2VwaWtfcHl0aG9uJywgJy1waCcsICc3LjAnLCAnLXRuJywgJzgnLCAnLW1hJywgJzIwMCcsICctbWV0YWxfYmluZGluZycsICctaW1hZScsICc8aW5maWxlLm1hZT4nLCAnLW9tYWUnLCAnPG91dGZpbGUubWFlPic=

> <r_lp_tautomer_probability>
1

> <r_epik_Ionization_Penalty>
0.0609831

> <r_epik_Ionization_Penalty_Charging>
0

> <r_epik_Ionization_Penalty_Neutral>
0.0609831

> <r_epik_State_Penalty>
0.0529032

> <r_epik_Charging_Adjusted_Penalty>
0.0529032

> <i_epik_Tot_Q>
0

> <i_epik_Tot_abs_Q>
0

> <r_epik_Metal_State_Penalty>
5.53344e-05

> <b_epik_Metal_Only>
0

> <s_lp_Force_Field>
OPLS_2005

> <r_lp_Energy>
14.7938

> <b_lp_Chiralities_Consistent>
1

> <s_lp_Variant>
AV-unprocessed.smi:2131-2

> <Gold.Version>
5.8.1

> <Gold.Id.Protein>
6NUR|6NUR_protein|mol2

> <Gold.PLP.Fitness>
55.6147

> <Gold.PLP.PLP>
-54.4105

> <Gold.PLP.part.hbond>
-1.8142

> <Gold.PLP.part.metal>
0.0000

> <Gold.PLP.part.buried>
-8.3681

> <Gold.PLP.part.nonpolar>
-44.4896

> <Gold.PLP.part.repulsive>
0.1136

> <Gold.PLP.ligand.clash>
0.0000

> <Gold.PLP.ligand.torsion>
0.9290

> <Gold.PLP.Chemscore.Hbond>
1.0000

> <Gold.PLP.Chemscore.CHOScore>
0.0000

> <Gold.PLP.Chemscore.Metal>
0.0000

> <Gold.Chemscore.Hbonds>
donor molecule, donor type, donor heavy atom, donor atom, acceptor molecule, acceptor atom, score
      P1  H  7989  7998       L1    11  1.00

> <Gold.PLP.Chemscore.Internal.Correction>
0.0622

> <Gold.Rescore>
     Score         DG    S(hbond)    S(metal)    S(lipo)     H(rot)  DE(clash)    DE(int)     intcor
     15.94     -16.90       0.95        0.00     129.83       2.72       0.04       0.91       ----

> <Gold.Chemscore.Fitness>
15.9421

> <Gold.Chemscore.DG>
-16.8967

> <Gold.Chemscore.ZeroCoef>
-5.4800

> <Gold.Chemscore.Hbond>
0.9539

> <Gold.Chemscore.Metal>
0.0000

> <Gold.Chemscore.Lipo>
129.8251

> <Gold.Chemscore.Internal_Hbond>
0.0000

> <Gold.Chemscore.DEClash>
0.0439

> <Gold.Chemscore.DEInternal>
0.9107

> <Gold.Chemscore.Rot>
2.7183

> <Gold.Chemscore.Internal.Correction>
   9.000000E+99

> <Gold.Chemscore.Hbonds>
donor molecule, donor type, donor heavy atom, donor atom, acceptor molecule, acceptor atom, score
      P1  H  7989  7998       L1    11  0.78

> <Gold.Chemscore.Hbond.Weighted>
-3.1860

> <Gold.Chemscore.Metal.Weighted>
-0.0000

> <Gold.Chemscore.Lipo.Weighted>
-15.1895

> <Gold.Chemscore.Internal_Hbond.Weighted>
0.0000

> <Gold.Chemscore.DEClash.Weighted>
0.0439

> <Gold.Chemscore.DEInternal.Weighted>
0.9107

> <Gold.Chemscore.Rot.Weighted>
6.9588

> <Gold.Chemscore.Internal.Correction.Weighted>
   9.000000E+99

> <Gold.Protein.RotatedTorsions>
[ 6907 6896 6895 6894 ] final  -55.00 input  -60.11 | X-H torsion
[ 7974 7965 7964 7962 ] final  160.26 input  175.53 | X-H torsion
[ 8008 7997 7996 7995 ] final -134.79 input   59.86 | X-H torsion
[ 10167 10162 10161 10158 ] final  -86.12 input  -65.29 | X-H torsion
[ 10718 10713 10712 10709 ] final   80.19 input   66.30 | X-H torsion
[ 10763 10752 10751 10750 ] final  153.21 input  -60.55 | X-H torsion
[ 11005 11000 10999 10996 ] final  -85.81 input  -57.11 | X-H torsion

> <Gold.Protein.ActiveResidues>
 VAL166  LYS551  ARG553  GLY616  TRP617  ASP618  TYR619  PRO620  LYS621  CYS622 
 ASP623  PHE694  ASN695  SER759  ASP760  ASP761  ALA762  ILE779  LEU786  VAL792 
 PHE793  MET794  SER795  GLU796  ALA797  LYS798  CYS799  TRP800  GLU811  SER814 

> <Gold.Protein.RotatedAtoms>
  150.8289  134.7533  159.6836 H   0  0  0  0  0  0  0  0  0  0  0  0  # atno 6907 bound_to 6896
  152.4396  134.5614  159.9905 H   0  0  0  0  0  0  0  0  0  0  0  0  # atno 6908 bound_to 6896
  151.5779  133.3344  159.3038 H   0  0  0  0  0  0  0  0  0  0  0  0  # atno 6909 bound_to 6896
  144.7746  139.7732  143.6283 H   0  0  0  0  0  0  0  0  0  0  0  0  # atno 7974 bound_to 7965
  155.3679  140.0486  157.3046 H   0  0  0  0  0  0  0  0  0  0  0  0  # atno 8008 bound_to 7997
  154.5145  140.2203  155.9056 H   0  0  0  0  0  0  0  0  0  0  0  0  # atno 8009 bound_to 7997
  156.1620  140.3114  155.8830 H   0  0  0  0  0  0  0  0  0  0  0  0  # atno 8010 bound_to 7997
  140.3972  143.2678  151.9189 H   0  0  0  0  0  0  0  0  0  0  0  0  # atno 10167 bound_to 10162
  157.6799  130.9948  150.2043 H   0  0  0  0  0  0  0  0  0  0  0  0  # atno 10718 bound_to 10713
  154.1325  135.2826  155.3181 H   0  0  0  0  0  0  0  0  0  0  0  0  # atno 10763 bound_to 10752
  154.6345  135.5424  153.7721 H   0  0  0  0  0  0  0  0  0  0  0  0  # atno 10764 bound_to 10752
  153.0276  135.6471  154.1475 H   0  0  0  0  0  0  0  0  0  0  0  0  # atno 10765 bound_to 10752
  141.1637  133.7420  156.9070 H   0  0  0  0  0  0  0  0  0  0  0  0  # atno 11005 bound_to 11000
  146.1917  139.5161  142.9801 LP  0  0  0  0  0  0  0  0  0  0  0  0  # atno 17320 bound_to 7965
  145.6223  141.0320  143.1908 LP  0  0  0  0  0  0  0  0  0  0  0  0  # atno 17321 bound_to 7965
  139.4786  144.5669  151.8150 LP  0  0  0  0  0  0  0  0  0  0  0  0  # atno 17342 bound_to 10162
  140.4778  144.1494  150.5927 LP  0  0  0  0  0  0  0  0  0  0  0  0  # atno 17343 bound_to 10162
  156.2727  130.3724  149.8014 LP  0  0  0  0  0  0  0  0  0  0  0  0  # atno 17370 bound_to 10713
  156.5726  130.8431  151.3361 LP  0  0  0  0  0  0  0  0  0  0  0  0  # atno 17371 bound_to 10713
  140.1543  134.9209  157.2633 LP  0  0  0  0  0  0  0  0  0  0  0  0  # atno 17394 bound_to 11000
  140.2686  134.3487  155.7381 LP  0  0  0  0  0  0  0  0  0  0  0  0  # atno 17395 bound_to 11000

$$$$
