AV-unprocessed.smi:1572|AV-procd|sdf|6331|dock9
  -GOLD-   22720 6543D 1   1.00000     0.00000
 Structure written by MMmdl.
 42 43  0  0  0  0  0  0  0  0  3 V2000
  143.6050  134.5464  151.8245 C   0  0  0  0  0  0  0  0  0  0  0  0
  144.8435  135.1282  151.3186 N   0  0  0  0  0  0  0  0  0  0  0  0
  145.5123  135.9933  152.2900 C   0  0  0  0  0  0  0  0  0  0  0  0
  146.1442  135.1948  153.4497 C   0  0  0  0  0  0  0  0  0  0  0  0
  147.1156  134.1898  152.9302 N   0  3  0  0  0  0  0  0  0  0  0  0
  147.9621  133.4961  153.9666 C   0  0  0  0  0  0  0  0  0  0  0  0
  147.1521  132.3514  154.6260 C   0  0  0  0  0  0  0  0  0  0  0  0
  149.1715  132.8180  153.2741 C   0  0  0  0  0  0  0  0  0  0  0  0
  148.4450  134.4941  155.0620 C   0  0  0  0  0  0  0  0  0  0  0  0
  149.5935  135.2981  154.6467 N   0  0  0  0  0  0  0  0  0  0  0  0
  150.7966  135.3343  155.2372 C   0  0  0  0  0  0  0  0  0  0  0  0
  151.0175  134.6396  156.2318 O   0  0  0  0  0  0  0  0  0  0  0  0
  151.6652  136.1823  154.6430 N   0  5  0  0  0  0  0  0  0  0  0  0
  151.6059  137.4978  154.9086 C   0  0  0  0  0  0  0  0  0  0  0  0
  150.8665  138.3457  154.1761 N   0  0  0  0  0  0  0  0  0  0  0  0
  150.9440  139.6594  154.6181 N   0  0  0  0  0  0  0  0  0  0  0  0
  151.7354  139.7670  155.6851 C   0  0  0  0  0  0  0  0  0  0  0  0
  152.4578  138.2742  156.2463 S   0  0  0  0  0  0  0  0  0  0  0  0
  146.4222  133.3014  151.9543 C   0  0  0  0  0  0  0  0  0  0  0  0
  145.7874  134.1298  150.8180 C   0  0  0  0  0  0  0  0  0  0  0  0
  142.9139  135.3348  152.1240 H   0  0  0  0  0  0  0  0  0  0  0  0
  143.7653  133.8959  152.6835 H   0  0  0  0  0  0  0  0  0  0  0  0
  143.1181  133.9603  151.0445 H   0  0  0  0  0  0  0  0  0  0  0  0
  146.2882  136.5598  151.7734 H   0  0  0  0  0  0  0  0  0  0  0  0
  144.8022  136.7259  152.6758 H   0  0  0  0  0  0  0  0  0  0  0  0
  146.6334  135.9146  154.1023 H   0  0  0  0  0  0  0  0  0  0  0  0
  145.3701  134.7125  154.0457 H   0  0  0  0  0  0  0  0  0  0  0  0
  147.7886  131.7038  155.2302 H   0  0  0  0  0  0  0  0  0  0  0  0
  146.6734  131.7191  153.8774 H   0  0  0  0  0  0  0  0  0  0  0  0
  146.3793  132.7227  155.2987 H   0  0  0  0  0  0  0  0  0  0  0  0
  149.6887  132.1302  153.9437 H   0  0  0  0  0  0  0  0  0  0  0  0
  149.9206  133.5388  152.9474 H   0  0  0  0  0  0  0  0  0  0  0  0
  148.8593  132.2383  152.4047 H   0  0  0  0  0  0  0  0  0  0  0  0
  147.6354  135.1485  155.3850 H   0  0  0  0  0  0  0  0  0  0  0  0
  148.7616  133.9550  155.9540 H   0  0  0  0  0  0  0  0  0  0  0  0
  149.4662  135.8857  153.8356 H   0  0  0  0  0  0  0  0  0  0  0  0
  151.8945  140.7309  156.1448 H   0  0  0  0  0  0  0  0  0  0  0  0
  147.1195  132.6078  151.4897 H   0  0  0  0  0  0  0  0  0  0  0  0
  145.6660  132.6951  152.4525 H   0  0  0  0  0  0  0  0  0  0  0  0
  145.2832  133.4751  150.1063 H   0  0  0  0  0  0  0  0  0  0  0  0
  146.5725  134.6431  150.2610 H   0  0  0  0  0  0  0  0  0  0  0  0
  147.7740  134.7218  152.3798 H   0  0  0  0  0  0  0  0  0  0  0  0
  1  2  1  0  0  0  0
  1 21  1  0  0  0  0
  1 22  1  0  0  0  0
  1 23  1  0  0  0  0
  2 20  1  0  0  0  0
  2  3  1  0  0  0  0
  3  4  1  0  0  0  0
  3 24  1  0  0  0  0
  3 25  1  0  0  0  0
  4  5  1  0  0  0  0
  4 26  1  0  0  0  0
  4 27  1  0  0  0  0
  5  6  1  0  0  0  0
  5 19  1  0  0  0  0
  5 42  1  0  0  0  0
  6  7  1  0  0  0  0
  6  8  1  0  0  0  0
  6  9  1  0  0  0  0
  7 28  1  0  0  0  0
  7 29  1  0  0  0  0
  7 30  1  0  0  0  0
  8 31  1  0  0  0  0
  8 32  1  0  0  0  0
  8 33  1  0  0  0  0
  9 10  1  0  0  0  0
  9 34  1  0  0  0  0
  9 35  1  0  0  0  0
 10 11  1  0  0  0  0
 10 36  1  0  0  0  0
 11 12  2  0  0  0  0
 11 13  1  0  0  0  0
 13 14  1  0  0  0  0
 14 18  1  0  0  0  0
 14 15  2  0  0  0  0
 15 16  1  0  0  0  0
 16 17  2  0  0  0  0
 17 18  1  0  0  0  0
 17 37  1  0  0  0  0
 19 20  1  0  0  0  0
 19 38  1  0  0  0  0
 19 39  1  0  0  0  0
 20 40  1  0  0  0  0
 20 41  1  0  0  0  0
M  CHG  1   5   1
M  CHG  1  13  -1
M  END
> <s_m_source_file>
AV-unprocessed.smi

> <i_m_source_file_index>
1572

> <i_lp_mmshare_version>
43012

> <i_f3d_flags>
0

> <s_epik_input>
W0NIM11OMVtDSDJdW0NIMl1OKFtDSDJdW0NIMl0xKUMoW0NIM10pKFtDSDNdKVtDSDJdW05IXUMoPU8pW05IXWMybm5bY0hdczI=

> <s_epik_cmdline>
J2VwaWtfcHl0aG9uJywgJy1waCcsICc3LjAnLCAnLXRuJywgJzgnLCAnLW1hJywgJzIwMCcsICctbWV0YWxfYmluZGluZycsICctaW1hZScsICc8aW5maWxlLm1hZT4nLCAnLW9tYWUnLCAnPG91dGZpbGUubWFlPic=

> <r_epik_Ionization_Penalty>
3.12043

> <r_epik_Ionization_Penalty_Charging>
3.08547

> <r_epik_Ionization_Penalty_Neutral>
0.0349584

> <r_epik_State_Penalty>
4.04075

> <r_epik_Charging_Adjusted_Penalty>
7.12622

> <i_epik_Tot_Q>
0

> <i_epik_Tot_abs_Q>
2

> <r_epik_Metal_State_Penalty>
1.47091

> <b_epik_Metal_Only>
1

> <s_lp_Force_Field>
OPLS_2005

> <r_lp_Energy>
19.1563

> <b_lp_Chiralities_Consistent>
1

> <s_lp_Variant>
AV-unprocessed.smi:1572-5

> <Gold.Version>
5.8.1

> <Gold.Id.Protein>
6NUR|6NUR_protein|mol2

> <Gold.PLP.Fitness>
43.2655

> <Gold.PLP.PLP>
-29.3065

> <Gold.PLP.part.hbond>
-4.0000

> <Gold.PLP.part.metal>
0.0000

> <Gold.PLP.part.buried>
-5.0521

> <Gold.PLP.part.nonpolar>
-20.9379

> <Gold.PLP.part.repulsive>
0.6976

> <Gold.PLP.ligand.clash>
0.0000

> <Gold.PLP.ligand.torsion>
2.0717

> <Gold.PLP.Chemscore.Hbond>
5.9920

> <Gold.PLP.Chemscore.CHOScore>
0.0000

> <Gold.PLP.Chemscore.Metal>
0.0000

> <Gold.Chemscore.Hbonds>
donor molecule, donor type, donor heavy atom, donor atom, acceptor molecule, acceptor atom, score
      L1  H     5    42       P1  7948  2.00
      L1  H    10    36       P1  7948  0.99
      P1  H  7989  7998       L1    16  1.00
      P1  H 10752 10763       L1    13  1.69

> <Gold.PLP.Chemscore.Internal.Correction>
0.1264

> <Gold.Rescore>
     Score         DG    S(hbond)    S(metal)    S(lipo)     H(rot)  DE(clash)    DE(int)     intcor
     16.60     -18.60       3.44        0.00      50.55       1.67       0.01       1.99       ----

> <Gold.Chemscore.Fitness>
16.5959

> <Gold.Chemscore.DG>
-18.5996

> <Gold.Chemscore.ZeroCoef>
-5.4800

> <Gold.Chemscore.Hbond>
3.4367

> <Gold.Chemscore.Metal>
0.0000

> <Gold.Chemscore.Lipo>
50.5538

> <Gold.Chemscore.Internal_Hbond>
0.0000

> <Gold.Chemscore.DEClash>
0.0126

> <Gold.Chemscore.DEInternal>
1.9911

> <Gold.Chemscore.Rot>
1.6694

> <Gold.Chemscore.Internal.Correction>
   9.000000E+99

> <Gold.Chemscore.Hbonds>
donor molecule, donor type, donor heavy atom, donor atom, acceptor molecule, acceptor atom, score
      L1  H     5    42       P1  7948  0.73
      L1  H    10    36       P1  7948  0.49
      P1  H  7989  7998       L1    16  0.37
      P1  H 10752 10763       L1    13  0.37

> <Gold.Chemscore.Hbond.Weighted>
-11.4786

> <Gold.Chemscore.Metal.Weighted>
-0.0000

> <Gold.Chemscore.Lipo.Weighted>
-5.9148

> <Gold.Chemscore.Internal_Hbond.Weighted>
0.0000

> <Gold.Chemscore.DEClash.Weighted>
0.0126

> <Gold.Chemscore.DEInternal.Weighted>
1.9911

> <Gold.Chemscore.Rot.Weighted>
4.2738

> <Gold.Chemscore.Internal.Correction.Weighted>
   9.000000E+99

> <Gold.Protein.RotatedTorsions>
[ 6907 6896 6895 6894 ] final -143.69 input  -60.11 | X-H torsion
[ 7974 7965 7964 7962 ] final   71.07 input  175.53 | X-H torsion
[ 8008 7997 7996 7995 ] final  -91.50 input   59.86 | X-H torsion
[ 10167 10162 10161 10158 ] final   50.30 input  -65.29 | X-H torsion
[ 10718 10713 10712 10709 ] final -132.83 input   66.30 | X-H torsion
[ 10763 10752 10751 10750 ] final   71.89 input  -60.55 | X-H torsion
[ 11005 11000 10999 10996 ] final   43.74 input  -57.11 | X-H torsion

> <Gold.Protein.ActiveResidues>
 VAL166  LYS551  ARG553  GLY616  TRP617  ASP618  TYR619  PRO620  LYS621  CYS622 
 ASP623  PHE694  ASN695  SER759  ASP760  ASP761  ALA762  ILE779  LEU786  VAL792 
 PHE793  MET794  SER795  GLU796  ALA797  LYS798  CYS799  TRP800  GLU811  SER814 

> <Gold.Protein.RotatedAtoms>
  151.1038  133.5223  159.2608 H   0  0  0  0  0  0  0  0  0  0  0  0  # atno 6907 bound_to 6896
  151.2044  135.0455  159.8895 H   0  0  0  0  0  0  0  0  0  0  0  0  # atno 6908 bound_to 6896
  152.5445  134.0862  159.8310 H   0  0  0  0  0  0  0  0  0  0  0  0  # atno 6909 bound_to 6896
  145.7704  139.2841  143.1324 H   0  0  0  0  0  0  0  0  0  0  0  0  # atno 7974 bound_to 7965
  154.7115  140.0519  157.0554 H   0  0  0  0  0  0  0  0  0  0  0  0  # atno 8008 bound_to 7997
  155.0549  140.3183  155.4660 H   0  0  0  0  0  0  0  0  0  0  0  0  # atno 8009 bound_to 7997
  156.2790  140.2109  156.5675 H   0  0  0  0  0  0  0  0  0  0  0  0  # atno 8010 bound_to 7997
  140.2738  144.3235  150.6282 H   0  0  0  0  0  0  0  0  0  0  0  0  # atno 10167 bound_to 10162
  156.2386  130.7082  151.0933 H   0  0  0  0  0  0  0  0  0  0  0  0  # atno 10718 bound_to 10713
  153.0425  135.5120  154.7661 H   0  0  0  0  0  0  0  0  0  0  0  0  # atno 10763 bound_to 10752
  154.6586  135.2935  154.9897 H   0  0  0  0  0  0  0  0  0  0  0  0  # atno 10764 bound_to 10752
  154.0756  135.6671  153.4883 H   0  0  0  0  0  0  0  0  0  0  0  0  # atno 10765 bound_to 10752
  140.1617  134.4333  155.8314 H   0  0  0  0  0  0  0  0  0  0  0  0  # atno 11005 bound_to 11000
  146.0175  140.8378  142.9940 LP  0  0  0  0  0  0  0  0  0  0  0  0  # atno 17320 bound_to 7965
  144.6814  140.2580  143.7323 LP  0  0  0  0  0  0  0  0  0  0  0  0  # atno 17321 bound_to 7965
  140.5868  143.2169  151.7328 LP  0  0  0  0  0  0  0  0  0  0  0  0  # atno 17342 bound_to 10162
  139.4981  144.3999  152.0192 LP  0  0  0  0  0  0  0  0  0  0  0  0  # atno 17343 bound_to 10162
  157.7165  131.0706  150.6305 LP  0  0  0  0  0  0  0  0  0  0  0  0  # atno 17370 bound_to 10713
  156.6377  130.4449  149.5763 LP  0  0  0  0  0  0  0  0  0  0  0  0  # atno 17371 bound_to 10713
  141.2210  133.6916  156.7605 LP  0  0  0  0  0  0  0  0  0  0  0  0  # atno 17394 bound_to 11000
  140.2482  134.8561  157.3641 LP  0  0  0  0  0  0  0  0  0  0  0  0  # atno 17395 bound_to 11000

$$$$
