AV-unprocessed.smi:1995|AV-procd|sdf|8078|dock4
  -GOLD-   2272010293D 1   1.00000     0.00000
 Structure written by MMmdl.
 43 44  0  0  0  0  0  0  0  0  2 V2000
  147.3741  141.6212  154.0586 C   0  0  0  0  0  0  0  0  0  0  0  0
  148.4302  140.5025  154.0170 C   0  0  0  0  0  0  0  0  0  0  0  0
  147.9207  139.0665  154.3501 C   0  0  1  0  0  0  0  0  0  0  0  0
  147.3318  139.0570  155.7848 C   0  0  0  0  0  0  0  0  0  0  0  0
  146.7721  138.6789  153.3659 C   0  0  0  0  0  0  0  0  0  0  0  0
  146.9046  137.3384  152.7920 N   0  0  0  0  0  0  0  0  0  0  0  0
  145.8914  136.5544  152.3959 C   0  0  0  0  0  0  0  0  0  0  0  0
  144.7070  136.8749  152.4932 O   0  0  0  0  0  0  0  0  0  0  0  0
  146.3441  135.3941  151.8895 N   0  0  0  0  0  0  0  0  0  0  0  0
  145.5877  134.3003  151.3924 C   0  0  0  0  0  0  0  0  0  0  0  0
  144.2509  134.2703  151.3369 N   0  0  0  0  0  0  0  0  0  0  0  0
  143.7752  133.0689  150.8051 C   0  0  0  0  0  0  0  0  0  0  0  0
  144.7707  132.1883  150.4622 C   0  0  0  0  0  0  0  0  0  0  0  0
  146.3548  132.8367  150.7942 S   0  0  0  0  0  0  0  0  0  0  0  0
  149.0431  138.0604  154.2595 N   0  3  0  0  0  0  0  0  0  0  0  0
  150.4210  138.6172  154.3730 C   0  0  0  0  0  0  0  0  0  0  0  0
  151.4648  137.5378  154.0440 C   0  0  0  0  0  0  0  0  0  0  0  0
  151.3024  136.4368  154.9269 O   0  0  0  0  0  0  0  0  0  0  0  0
  150.0231  135.8344  154.7887 C   0  0  0  0  0  0  0  0  0  0  0  0
  148.9238  136.8554  155.1290 C   0  0  0  0  0  0  0  0  0  0  0  0
  147.8278  142.5788  153.8025 H   0  0  0  0  0  0  0  0  0  0  0  0
  146.9344  141.7307  155.0495 H   0  0  0  0  0  0  0  0  0  0  0  0
  146.5680  141.4491  153.3461 H   0  0  0  0  0  0  0  0  0  0  0  0
  148.8752  140.5194  153.0226 H   0  0  0  0  0  0  0  0  0  0  0  0
  149.2279  140.7832  154.7041 H   0  0  0  0  0  0  0  0  0  0  0  0
  146.3713  139.5706  155.8317 H   0  0  0  0  0  0  0  0  0  0  0  0
  147.9830  139.5594  156.5002 H   0  0  0  0  0  0  0  0  0  0  0  0
  147.1646  138.0418  156.1456 H   0  0  0  0  0  0  0  0  0  0  0  0
  145.7974  138.7768  153.8464 H   0  0  0  0  0  0  0  0  0  0  0  0
  146.7370  139.3803  152.5322 H   0  0  0  0  0  0  0  0  0  0  0  0
  147.8444  136.9946  152.6587 H   0  0  0  0  0  0  0  0  0  0  0  0
  147.3461  135.2776  151.8531 H   0  0  0  0  0  0  0  0  0  0  0  0
  142.7094  132.9238  150.7065 H   0  0  0  0  0  0  0  0  0  0  0  0
  144.6684  131.2013  150.0361 H   0  0  0  0  0  0  0  0  0  0  0  0
  150.5721  139.4552  153.6955 H   0  0  0  0  0  0  0  0  0  0  0  0
  150.5979  138.9859  155.3837 H   0  0  0  0  0  0  0  0  0  0  0  0
  151.3746  137.2095  153.0072 H   0  0  0  0  0  0  0  0  0  0  0  0
  152.4711  137.9393  154.1649 H   0  0  0  0  0  0  0  0  0  0  0  0
  149.8964  135.4497  153.7753 H   0  0  0  0  0  0  0  0  0  0  0  0
  149.9628  134.9794  155.4625 H   0  0  0  0  0  0  0  0  0  0  0  0
  149.0030  137.1378  156.1790 H   0  0  0  0  0  0  0  0  0  0  0  0
  147.9648  136.3573  155.0010 H   0  0  0  0  0  0  0  0  0  0  0  0
  148.9783  137.7042  153.3166 H   0  0  0  0  0  0  0  0  0  0  0  0
  1  2  1  0  0  0  0
  1 21  1  0  0  0  0
  1 22  1  0  0  0  0
  1 23  1  0  0  0  0
  2  3  1  0  0  0  0
  2 24  1  0  0  0  0
  2 25  1  0  0  0  0
  3  4  1  0  0  0  0
  3  5  1  0  0  0  0
  3 15  1  0  0  0  0
  4 26  1  0  0  0  0
  4 27  1  0  0  0  0
  4 28  1  0  0  0  0
  5  6  1  0  0  0  0
  5 29  1  0  0  0  0
  5 30  1  0  0  0  0
  6  7  1  0  0  0  0
  6 31  1  0  0  0  0
  7  8  2  0  0  0  0
  7  9  1  0  0  0  0
  9 10  1  0  0  0  0
  9 32  1  0  0  0  0
 10 14  1  0  0  0  0
 10 11  2  0  0  0  0
 11 12  1  0  0  0  0
 12 13  2  0  0  0  0
 12 33  1  0  0  0  0
 13 14  1  0  0  0  0
 13 34  1  0  0  0  0
 15 20  1  0  0  0  0
 15 16  1  0  0  0  0
 15 43  1  0  0  0  0
 16 17  1  0  0  0  0
 16 35  1  0  0  0  0
 16 36  1  0  0  0  0
 17 18  1  0  0  0  0
 17 37  1  0  0  0  0
 17 38  1  0  0  0  0
 18 19  1  0  0  0  0
 19 20  1  0  0  0  0
 19 39  1  0  0  0  0
 19 40  1  0  0  0  0
 20 41  1  0  0  0  0
 20 42  1  0  0  0  0
M  CHG  1  15   1
M  END
> <s_m_source_file>
AV-unprocessed.smi

> <i_m_source_file_index>
1995

> <i_lp_mmshare_version>
43012

> <i_f3d_flags>
0

> <s_epik_input>
W0NIMl0xW0NIMl1PW0NIMl1bQ0gyXU4xW0NAQF0oW0NIM10pKFtDSDJdW0NIM10pW0NIMl1bTkhdQyg9TylbTkhdYzJuW2NIXVtjSF1zMg==

> <s_epik_cmdline>
J2VwaWtfcHl0aG9uJywgJy1waCcsICc3LjAnLCAnLXRuJywgJzgnLCAnLW1hJywgJzIwMCcsICctbWV0YWxfYmluZGluZycsICctaW1hZScsICc8aW5maWxlLm1hZT4nLCAnLW9tYWUnLCAnPG91dGZpbGUubWFlPic=

> <r_lp_tautomer_probability>
0.999

> <r_epik_Ionization_Penalty>
0.55406

> <r_epik_Ionization_Penalty_Charging>
0.553838

> <r_epik_Ionization_Penalty_Neutral>
0.000222147

> <r_epik_State_Penalty>
0.564424

> <r_epik_Charging_Adjusted_Penalty>
1.11826

> <i_epik_Tot_Q>
1

> <i_epik_Tot_abs_Q>
1

> <r_epik_Metal_State_Penalty>
0.573776

> <b_epik_Metal_Only>
0

> <s_lp_Force_Field>
OPLS_2005

> <r_lp_Energy>
32.5614

> <b_lp_Chiralities_Consistent>
1

> <s_lp_Variant>
AV-unprocessed.smi:1995-3

> <Gold.Version>
5.8.1

> <Gold.Id.Protein>
6NUR|6NUR_protein|mol2

> <Gold.PLP.Fitness>
42.7554

> <Gold.PLP.PLP>
-30.2562

> <Gold.PLP.part.hbond>
-3.8472

> <Gold.PLP.part.metal>
0.0000

> <Gold.PLP.part.buried>
-1.7935

> <Gold.PLP.part.nonpolar>
-26.1251

> <Gold.PLP.part.repulsive>
0.5928

> <Gold.PLP.ligand.clash>
0.0000

> <Gold.PLP.ligand.torsion>
2.5143

> <Gold.PLP.Chemscore.Hbond>
4.7975

> <Gold.PLP.Chemscore.CHOScore>
1.0000

> <Gold.PLP.Chemscore.Metal>
0.0000

> <Gold.Chemscore.Hbonds>
donor molecule, donor type, donor heavy atom, donor atom, acceptor molecule, acceptor atom, score
      L1  H     6    31       P1  7948  1.00
      L1  H     9    32       P1  7948  0.88
      L1  H    15    43       P1  7948  1.92
      P1  H 10752 10764       L1    18  1.00
      L1  C    12    33       P1 10186  0.96

> <Gold.PLP.Chemscore.Internal.Correction>
0.1352

> <Gold.Rescore>
     Score         DG    S(hbond)    S(metal)    S(lipo)     H(rot)  DE(clash)    DE(int)     intcor
     17.16     -21.19       3.44        0.00      75.39       1.79       0.25       3.78       ----

> <Gold.Chemscore.Fitness>
17.1576

> <Gold.Chemscore.DG>
-21.1864

> <Gold.Chemscore.ZeroCoef>
-5.4800

> <Gold.Chemscore.Hbond>
3.4368

> <Gold.Chemscore.Metal>
0.0000

> <Gold.Chemscore.Lipo>
75.3898

> <Gold.Chemscore.Internal_Hbond>
0.0000

> <Gold.Chemscore.DEClash>
0.2480

> <Gold.Chemscore.DEInternal>
3.7808

> <Gold.Chemscore.Rot>
1.7942

> <Gold.Chemscore.Internal.Correction>
   9.000000E+99

> <Gold.Chemscore.Hbonds>
donor molecule, donor type, donor heavy atom, donor atom, acceptor molecule, acceptor atom, score
      L1  H     6    31       P1  7948  0.93
      L1  H     9    32       P1  7948  0.85
      L1  H    15    43       P1  7948  0.89
      P1  H 10752 10764       L1    18  0.34

> <Gold.Chemscore.Hbond.Weighted>
-11.4788

> <Gold.Chemscore.Metal.Weighted>
-0.0000

> <Gold.Chemscore.Lipo.Weighted>
-8.8206

> <Gold.Chemscore.Internal_Hbond.Weighted>
0.0000

> <Gold.Chemscore.DEClash.Weighted>
0.2480

> <Gold.Chemscore.DEInternal.Weighted>
3.7808

> <Gold.Chemscore.Rot.Weighted>
4.5931

> <Gold.Chemscore.Internal.Correction.Weighted>
   9.000000E+99

> <Gold.Protein.RotatedTorsions>
[ 6907 6896 6895 6894 ] final -168.14 input  -60.11 | X-H torsion
[ 7974 7965 7964 7962 ] final   92.18 input  175.53 | X-H torsion
[ 8008 7997 7996 7995 ] final  108.12 input   59.86 | X-H torsion
[ 10167 10162 10161 10158 ] final  -83.39 input  -65.29 | X-H torsion
[ 10718 10713 10712 10709 ] final   41.61 input   66.30 | X-H torsion
[ 10763 10752 10751 10750 ] final  -47.63 input  -60.55 | X-H torsion
[ 11005 11000 10999 10996 ] final   50.16 input  -57.11 | X-H torsion

> <Gold.Protein.ActiveResidues>
 VAL166  LYS551  ARG553  GLY616  TRP617  ASP618  TYR619  PRO620  LYS621  CYS622 
 ASP623  PHE694  ASN695  SER759  ASP760  ASP761  ALA762  ILE779  LEU786  VAL792 
 PHE793  MET794  SER795  GLU796  ALA797  LYS798  CYS799  TRP800  GLU811  SER814 

> <Gold.Protein.RotatedAtoms>
  151.4708  133.3569  159.2822 H   0  0  0  0  0  0  0  0  0  0  0  0  # atno 6907 bound_to 6896
  150.8962  134.8373  159.7339 H   0  0  0  0  0  0  0  0  0  0  0  0  # atno 6908 bound_to 6896
  152.4853  134.4623  159.9661 H   0  0  0  0  0  0  0  0  0  0  0  0  # atno 6909 bound_to 6896
  145.4958  139.2276  143.2805 H   0  0  0  0  0  0  0  0  0  0  0  0  # atno 7974 bound_to 7965
  156.1878  140.3082  155.9273 H   0  0  0  0  0  0  0  0  0  0  0  0  # atno 8008 bound_to 7997
  155.3242  140.0457  157.3057 H   0  0  0  0  0  0  0  0  0  0  0  0  # atno 8009 bound_to 7997
  154.5416  140.2263  155.8641 H   0  0  0  0  0  0  0  0  0  0  0  0  # atno 8010 bound_to 7997
  140.4231  143.2577  151.8863 H   0  0  0  0  0  0  0  0  0  0  0  0  # atno 10167 bound_to 10162
  157.3955  130.7830  149.7304 H   0  0  0  0  0  0  0  0  0  0  0  0  # atno 10718 bound_to 10713
  154.0645  135.6613  153.4816 H   0  0  0  0  0  0  0  0  0  0  0  0  # atno 10763 bound_to 10752
  153.0414  135.5142  154.7626 H   0  0  0  0  0  0  0  0  0  0  0  0  # atno 10764 bound_to 10752
  154.6673  135.3024  154.9755 H   0  0  0  0  0  0  0  0  0  0  0  0  # atno 10765 bound_to 10752
  140.1041  134.5042  155.8736 H   0  0  0  0  0  0  0  0  0  0  0  0  # atno 11005 bound_to 11000
  146.2256  140.5755  142.8998 LP  0  0  0  0  0  0  0  0  0  0  0  0  # atno 17320 bound_to 7965
  144.7808  140.5836  143.6607 LP  0  0  0  0  0  0  0  0  0  0  0  0  # atno 17321 bound_to 7965
  139.4783  144.5416  151.8520 LP  0  0  0  0  0  0  0  0  0  0  0  0  # atno 17342 bound_to 10162
  140.4511  144.1853  150.5897 LP  0  0  0  0  0  0  0  0  0  0  0  0  # atno 17343 bound_to 10162
  155.9809  130.4024  150.3501 LP  0  0  0  0  0  0  0  0  0  0  0  0  # atno 17370 bound_to 10713
  157.1622  131.0348  151.2835 LP  0  0  0  0  0  0  0  0  0  0  0  0  # atno 17371 bound_to 10713
  141.2113  133.6705  156.6576 LP  0  0  0  0  0  0  0  0  0  0  0  0  # atno 17394 bound_to 11000
  140.3180  134.8031  157.4229 LP  0  0  0  0  0  0  0  0  0  0  0  0  # atno 17395 bound_to 11000

$$$$
