AV-unprocessed.smi:1007|AV-procd|sdf|4403|dock4
  -GOLD-   22720 2343D 1   1.00000     0.00000
 Structure written by MMmdl.
 57 59  0  0  0  0  0  0  0  0  3 V2000
  151.8799  141.3488  157.9429 C   0  0  0  0  0  0  0  0  0  0  0  0
  151.1654  142.0661  156.9486 O   0  0  0  0  0  0  0  0  0  0  0  0
  149.8393  141.6016  156.7418 C   0  0  0  0  0  0  0  0  0  0  0  0
  149.8285  140.2298  156.0409 C   0  0  0  0  0  0  0  0  0  0  0  0
  149.9687  140.2838  154.5824 N   0  0  0  0  0  0  0  0  0  0  0  0
  149.9522  138.9602  153.9609 C   0  0  0  0  0  0  0  0  0  0  0  0
  148.5585  138.2981  153.9690 C   0  0  0  0  0  0  0  0  0  0  0  0
  147.5605  139.1748  153.3026 N   0  3  0  0  0  0  0  0  0  0  0  0
  146.2171  138.5440  153.2276 C   0  0  0  0  0  0  0  0  0  0  0  0
  145.9888  137.7672  151.9153 C   0  0  1  0  0  0  0  0  0  0  0  0
  146.6920  138.4092  150.8686 O   0  0  0  0  0  0  0  0  0  0  0  0
  146.4664  136.3052  152.0204 C   0  0  0  0  0  0  0  0  0  0  0  0
  145.4845  135.3490  151.4916 N   0  0  0  0  0  0  0  0  0  0  0  0
  144.3437  135.5644  150.7811 C   0  0  0  0  0  0  0  0  0  0  0  0
  143.7769  134.3502  150.5368 N   0  3  0  0  0  0  0  0  0  0  0  0
  144.5689  133.3449  151.0961 C   0  0  0  0  0  0  0  0  0  0  0  0
  144.4108  131.9642  151.1150 C   0  0  0  0  0  0  0  0  0  0  0  0
  145.4074  131.2096  151.7745 C   0  0  0  0  0  0  0  0  0  0  0  0
  145.2635  129.6976  151.8162 C   0  0  0  0  0  0  0  0  0  0  0  0
  146.5189  131.8449  152.3871 C   0  0  0  0  0  0  0  0  0  0  0  0
  147.5858  131.0233  153.0907 C   0  0  0  0  0  0  0  0  0  0  0  0
  146.6602  133.2509  152.3592 C   0  0  0  0  0  0  0  0  0  0  0  0
  145.6684  133.9788  151.7063 C   0  0  0  0  0  0  0  0  0  0  0  0
  147.5566  140.5278  153.9219 C   0  0  0  0  0  0  0  0  0  0  0  0
  148.9780  141.1259  153.9083 C   0  0  0  0  0  0  0  0  0  0  0  0
  152.8707  141.7865  158.0645 H   0  0  0  0  0  0  0  0  0  0  0  0
  152.0124  140.3015  157.6726 H   0  0  0  0  0  0  0  0  0  0  0  0
  151.3729  141.4003  158.9074 H   0  0  0  0  0  0  0  0  0  0  0  0
  149.2954  141.5835  157.6866 H   0  0  0  0  0  0  0  0  0  0  0  0
  149.3354  142.3303  156.1062 H   0  0  0  0  0  0  0  0  0  0  0  0
  150.6609  139.6534  156.4464 H   0  0  0  0  0  0  0  0  0  0  0  0
  148.9290  139.6812  156.3149 H   0  0  0  0  0  0  0  0  0  0  0  0
  150.2934  139.0495  152.9285 H   0  0  0  0  0  0  0  0  0  0  0  0
  150.6747  138.3096  154.4551 H   0  0  0  0  0  0  0  0  0  0  0  0
  148.6141  137.3447  153.4424 H   0  0  0  0  0  0  0  0  0  0  0  0
  148.2380  138.0752  154.9876 H   0  0  0  0  0  0  0  0  0  0  0  0
  146.0908  137.8554  154.0646 H   0  0  0  0  0  0  0  0  0  0  0  0
  145.4547  139.3149  153.3508 H   0  0  0  0  0  0  0  0  0  0  0  0
  144.9307  137.7650  151.6581 H   0  0  0  0  0  0  0  0  0  0  0  0
  146.0675  138.7379  150.2394 H   0  0  0  0  0  0  0  0  0  0  0  0
  147.3949  136.1650  151.4648 H   0  0  0  0  0  0  0  0  0  0  0  0
  146.6822  136.0369  153.0554 H   0  0  0  0  0  0  0  0  0  0  0  0
  143.9540  136.5235  150.4715 H   0  0  0  0  0  0  0  0  0  0  0  0
  143.5624  131.4870  150.6464 H   0  0  0  0  0  0  0  0  0  0  0  0
  145.1962  129.3484  152.8467 H   0  0  0  0  0  0  0  0  0  0  0  0
  146.1195  129.2174  151.3419 H   0  0  0  0  0  0  0  0  0  0  0  0
  144.3654  129.3674  151.2933 H   0  0  0  0  0  0  0  0  0  0  0  0
  148.3775  131.6566  153.4924 H   0  0  0  0  0  0  0  0  0  0  0  0
  148.0452  130.3170  152.3985 H   0  0  0  0  0  0  0  0  0  0  0  0
  147.1530  130.4642  153.9206 H   0  0  0  0  0  0  0  0  0  0  0  0
  147.5052  133.7340  152.8261 H   0  0  0  0  0  0  0  0  0  0  0  0
  146.8967  141.1956  153.3704 H   0  0  0  0  0  0  0  0  0  0  0  0
  147.1655  140.4744  154.9387 H   0  0  0  0  0  0  0  0  0  0  0  0
  148.9664  142.1251  154.3419 H   0  0  0  0  0  0  0  0  0  0  0  0
  149.2853  141.2671  152.8711 H   0  0  0  0  0  0  0  0  0  0  0  0
  147.8786  139.2887  152.3504 H   0  0  0  0  0  0  0  0  0  0  0  0
  142.9126  134.2203  150.0263 H   0  0  0  0  0  0  0  0  0  0  0  0
  1  2  1  0  0  0  0
  1 26  1  0  0  0  0
  1 27  1  0  0  0  0
  1 28  1  0  0  0  0
  2  3  1  0  0  0  0
  3  4  1  0  0  0  0
  3 29  1  0  0  0  0
  3 30  1  0  0  0  0
  4  5  1  0  0  0  0
  4 31  1  0  0  0  0
  4 32  1  0  0  0  0
  5 25  1  0  0  0  0
  5  6  1  0  0  0  0
  6  7  1  0  0  0  0
  6 33  1  0  0  0  0
  6 34  1  0  0  0  0
  7  8  1  0  0  0  0
  7 35  1  0  0  0  0
  7 36  1  0  0  0  0
  8  9  1  0  0  0  0
  8 24  1  0  0  0  0
  8 56  1  0  0  0  0
  9 10  1  0  0  0  0
  9 37  1  0  0  0  0
  9 38  1  0  0  0  0
 10 11  1  0  0  0  0
 10 12  1  0  0  0  0
 10 39  1  0  0  0  0
 11 40  1  0  0  0  0
 12 13  1  0  0  0  0
 12 41  1  0  0  0  0
 12 42  1  0  0  0  0
 13 23  1  0  0  0  0
 13 14  1  0  0  0  0
 14 15  2  0  0  0  0
 14 43  1  0  0  0  0
 15 16  1  0  0  0  0
 15 57  1  0  0  0  0
 16 23  2  0  0  0  0
 16 17  1  0  0  0  0
 17 18  2  0  0  0  0
 17 44  1  0  0  0  0
 18 19  1  0  0  0  0
 18 20  1  0  0  0  0
 19 45  1  0  0  0  0
 19 46  1  0  0  0  0
 19 47  1  0  0  0  0
 20 21  1  0  0  0  0
 20 22  2  0  0  0  0
 21 48  1  0  0  0  0
 21 49  1  0  0  0  0
 21 50  1  0  0  0  0
 22 23  1  0  0  0  0
 22 51  1  0  0  0  0
 24 25  1  0  0  0  0
 24 52  1  0  0  0  0
 24 53  1  0  0  0  0
 25 54  1  0  0  0  0
 25 55  1  0  0  0  0
M  CHG  1   8   1
M  CHG  1  15   1
M  END
> <s_m_source_file>
AV-unprocessed.smi

> <i_m_source_file_index>
1007

> <i_lp_mmshare_version>
43012

> <i_f3d_flags>
0

> <s_epik_input>
W0NIM11PW0NIMl1bQ0gyXU4xW0NIMl1bQ0gyXU4oW0NIMl1bQ0gyXTEpW0NIMl1bQ0BIXShbT0hdKVtDSDJdbihbY0hdbjIpYyhjMjMpW2NIXWMoW0NIM10pYyhbY0hdMylbQ0gzXQ==

> <s_epik_cmdline>
J2VwaWtfcHl0aG9uJywgJy1waCcsICc3LjAnLCAnLXRuJywgJzgnLCAnLW1hJywgJzIwMCcsICctbWV0YWxfYmluZGluZycsICctaW1hZScsICc8aW5maWxlLm1hZT4nLCAnLW9tYWUnLCAnPG91dGZpbGUubWFlPic=

> <r_epik_Ionization_Penalty>
1.19231

> <r_epik_Ionization_Penalty_Charging>
1.17974

> <r_epik_Ionization_Penalty_Neutral>
0.0125676

> <r_epik_State_Penalty>
1.24499

> <r_epik_Charging_Adjusted_Penalty>
2.42472

> <i_epik_Tot_Q>
2

> <i_epik_Tot_abs_Q>
2

> <r_epik_Metal_State_Penalty>
5.24866

> <b_epik_Metal_Only>
0

> <s_lp_Force_Field>
OPLS_2005

> <r_lp_Energy>
41.9182

> <b_lp_Chiralities_Consistent>
1

> <s_lp_Variant>
AV-unprocessed.smi:1007-6

> <Gold.Version>
5.8.1

> <Gold.Id.Protein>
6NUR|6NUR_protein|mol2

> <Gold.PLP.Fitness>
51.4813

> <Gold.PLP.PLP>
-38.9645

> <Gold.PLP.part.hbond>
-5.2899

> <Gold.PLP.part.metal>
0.0000

> <Gold.PLP.part.buried>
5.1788

> <Gold.PLP.part.nonpolar>
-39.6359

> <Gold.PLP.part.repulsive>
0.2134

> <Gold.PLP.ligand.clash>
0.0000

> <Gold.PLP.ligand.torsion>
1.7158

> <Gold.PLP.Chemscore.Hbond>
4.2565

> <Gold.PLP.Chemscore.CHOScore>
1.0000

> <Gold.PLP.Chemscore.Metal>
0.0000

> <Gold.Chemscore.Hbonds>
donor molecule, donor type, donor heavy atom, donor atom, acceptor molecule, acceptor atom, score
      L1  H     8    56       P1  7957  0.48
      L1  H    11    40       P1 10171  0.43
      L1  H    15    57       P1 10186  2.00
      P1  H  7954  7966       L1    11  1.00
      P1  H  7989  7998       L1     5  0.50
      L1  C    14    43       P1 10171  1.00

> <Gold.PLP.Chemscore.Internal.Correction>
0.1791

> <Gold.Rescore>
     Score         DG    S(hbond)    S(metal)    S(lipo)     H(rot)  DE(clash)    DE(int)     intcor
     16.83     -21.10       2.58        0.00     117.69       2.64       2.59       1.69       ----

> <Gold.Chemscore.Fitness>
16.8260

> <Gold.Chemscore.DG>
-21.1008

> <Gold.Chemscore.ZeroCoef>
-5.4800

> <Gold.Chemscore.Hbond>
2.5802

> <Gold.Chemscore.Metal>
0.0000

> <Gold.Chemscore.Lipo>
117.6884

> <Gold.Chemscore.Internal_Hbond>
0.0000

> <Gold.Chemscore.DEClash>
2.5856

> <Gold.Chemscore.DEInternal>
1.6892

> <Gold.Chemscore.Rot>
2.6432

> <Gold.Chemscore.Internal.Correction>
   9.000000E+99

> <Gold.Chemscore.Hbonds>
donor molecule, donor type, donor heavy atom, donor atom, acceptor molecule, acceptor atom, score
      L1  H     8    56       P1  7957  0.48
      L1  H    11    40       P1 10171  0.43
      L1  H    15    57       P1 10186  0.94
      P1  H  7954  7966       L1    11  0.53
      P1  H  7989  7998       L1     5  0.01

> <Gold.Chemscore.Hbond.Weighted>
-8.6177

> <Gold.Chemscore.Metal.Weighted>
-0.0000

> <Gold.Chemscore.Lipo.Weighted>
-13.7695

> <Gold.Chemscore.Internal_Hbond.Weighted>
0.0000

> <Gold.Chemscore.DEClash.Weighted>
2.5856

> <Gold.Chemscore.DEInternal.Weighted>
1.6892

> <Gold.Chemscore.Rot.Weighted>
6.7665

> <Gold.Chemscore.Internal.Correction.Weighted>
   9.000000E+99

> <Gold.Protein.RotatedTorsions>
[ 6907 6896 6895 6894 ] final   50.29 input  -60.11 | X-H torsion
[ 7974 7965 7964 7962 ] final -100.29 input  175.53 | X-H torsion
[ 8008 7997 7996 7995 ] final   16.49 input   59.86 | X-H torsion
[ 10167 10162 10161 10158 ] final   71.38 input  -65.29 | X-H torsion
[ 10718 10713 10712 10709 ] final -123.12 input   66.30 | X-H torsion
[ 10763 10752 10751 10750 ] final  -47.10 input  -60.55 | X-H torsion
[ 11005 11000 10999 10996 ] final  -41.37 input  -57.11 | X-H torsion

> <Gold.Protein.ActiveResidues>
 VAL166  LYS551  ARG553  GLY616  TRP617  ASP618  TYR619  PRO620  LYS621  CYS622 
 ASP623  PHE694  ASN695  SER759  ASP760  ASP761  ALA762  ILE779  LEU786  VAL792 
 PHE793  MET794  SER795  GLU796  ALA797  LYS798  CYS799  TRP800  GLU811  SER814 

> <Gold.Protein.RotatedAtoms>
  152.3002  134.7620  160.0359 H   0  0  0  0  0  0  0  0  0  0  0  0  # atno 6907 bound_to 6896
  151.8135  133.3379  159.3571 H   0  0  0  0  0  0  0  0  0  0  0  0  # atno 6908 bound_to 6896
  150.7270  134.5570  159.5868 H   0  0  0  0  0  0  0  0  0  0  0  0  # atno 6909 bound_to 6896
  145.2965  140.9366  143.2848 H   0  0  0  0  0  0  0  0  0  0  0  0  # atno 7974 bound_to 7965
  154.8777  140.2968  155.5443 H   0  0  0  0  0  0  0  0  0  0  0  0  # atno 8008 bound_to 7997
  156.3022  140.2448  156.3709 H   0  0  0  0  0  0  0  0  0  0  0  0  # atno 8009 bound_to 7997
  154.8749  140.0400  157.1736 H   0  0  0  0  0  0  0  0  0  0  0  0  # atno 8010 bound_to 7997
  140.0467  144.5345  150.7393 H   0  0  0  0  0  0  0  0  0  0  0  0  # atno 10167 bound_to 10162
  156.1475  130.6511  150.9865 H   0  0  0  0  0  0  0  0  0  0  0  0  # atno 10718 bound_to 10713
  154.0559  135.6625  153.4806 H   0  0  0  0  0  0  0  0  0  0  0  0  # atno 10763 bound_to 10752
  153.0446  135.5123  154.7706 H   0  0  0  0  0  0  0  0  0  0  0  0  # atno 10764 bound_to 10752
  154.6727  135.3032  154.9687 H   0  0  0  0  0  0  0  0  0  0  0  0  # atno 10765 bound_to 10752
  141.0241  133.6849  156.2448 H   0  0  0  0  0  0  0  0  0  0  0  0  # atno 11005 bound_to 11000
  144.9129  139.4506  143.6578 LP  0  0  0  0  0  0  0  0  0  0  0  0  # atno 17320 bound_to 7965
  146.3167  139.7947  142.8978 LP  0  0  0  0  0  0  0  0  0  0  0  0  # atno 17321 bound_to 7965
  140.7235  143.2612  151.4198 LP  0  0  0  0  0  0  0  0  0  0  0  0  # atno 17342 bound_to 10162
  139.5979  144.1358  152.2165 LP  0  0  0  0  0  0  0  0  0  0  0  0  # atno 17343 bound_to 10162
  157.6629  131.0877  150.7796 LP  0  0  0  0  0  0  0  0  0  0  0  0  # atno 17370 bound_to 10713
  156.7866  130.4876  149.5392 LP  0  0  0  0  0  0  0  0  0  0  0  0  # atno 17371 bound_to 10713
  140.6522  134.5055  157.5578 LP  0  0  0  0  0  0  0  0  0  0  0  0  # atno 17394 bound_to 11000
  139.9164  134.8237  156.1351 LP  0  0  0  0  0  0  0  0  0  0  0  0  # atno 17395 bound_to 11000

$$$$
