AV-unprocessed.smi:1641|AV-procd|sdf|6568|dock1
  -GOLD-   22720 7253D 1   1.00000     0.00000
 Structure written by MMmdl.
 41 42  0  0  0  0  0  0  0  0  3 V2000
  148.7588  140.8474  154.6198 C   0  0  0  0  0  0  0  0  0  0  0  0
  149.7229  139.7158  154.7259 C   0  0  0  0  0  0  0  0  0  0  0  0
  151.0439  139.8949  154.8033 N   0  0  0  0  0  0  0  0  0  0  0  0
  151.7303  138.6923  154.8918 N   0  0  0  0  0  0  0  0  0  0  0  0
  150.9219  137.6229  154.8683 C   0  0  0  0  0  0  0  0  0  0  0  0
  151.3856  136.3644  154.9417 N   0  5  0  0  0  0  0  0  0  0  0  0
  150.5632  135.3642  155.3296 C   0  0  0  0  0  0  0  0  0  0  0  0
  150.6230  134.7371  156.3898 O   0  0  0  0  0  0  0  0  0  0  0  0
  149.6161  135.0650  154.4293 N   0  0  0  0  0  0  0  0  0  0  0  0
  148.6074  134.0217  154.5710 C   0  0  0  0  0  0  0  0  0  0  0  0
  148.2221  133.4224  153.2046 C   0  0  0  0  0  0  0  0  0  0  0  0
  147.0759  134.1264  152.5791 N   0  3  1  0  0  0  0  0  0  0  0  0
  146.4010  133.3002  151.5516 C   0  0  0  0  0  0  0  0  0  0  0  0
  145.2884  134.1049  150.8564 C   0  0  1  0  0  0  0  0  0  0  0  0
  144.5056  133.2527  149.8514 C   0  0  0  0  0  0  0  0  0  0  0  0
  144.3675  134.5856  151.8321 O   0  0  0  0  0  0  0  0  0  0  0  0
  144.9459  135.3969  152.8545 C   0  0  2  0  0  0  0  0  0  0  0  0
  145.3654  136.7826  152.3316 C   0  0  0  0  0  0  0  0  0  0  0  0
  146.0848  134.6346  153.5597 C   0  0  0  0  0  0  0  0  0  0  0  0
  149.2117  138.0368  154.7544 S   0  0  0  0  0  0  0  0  0  0  0  0
  148.6449  141.1422  153.5766 H   0  0  0  0  0  0  0  0  0  0  0  0
  149.1151  141.7050  155.1914 H   0  0  0  0  0  0  0  0  0  0  0  0
  147.7846  140.5506  155.0087 H   0  0  0  0  0  0  0  0  0  0  0  0
  149.6005  135.6065  153.5773 H   0  0  0  0  0  0  0  0  0  0  0  0
  148.9802  133.2598  155.2559 H   0  0  0  0  0  0  0  0  0  0  0  0
  147.7297  134.4624  155.0442 H   0  0  0  0  0  0  0  0  0  0  0  0
  149.0896  133.4977  152.5473 H   0  0  0  0  0  0  0  0  0  0  0  0
  147.9924  132.3591  153.2890 H   0  0  0  0  0  0  0  0  0  0  0  0
  147.1283  132.9684  150.8096 H   0  0  0  0  0  0  0  0  0  0  0  0
  145.9884  132.4043  152.0190 H   0  0  0  0  0  0  0  0  0  0  0  0
  145.7261  134.9453  150.3171 H   0  0  0  0  0  0  0  0  0  0  0  0
  145.1605  132.8613  149.0725 H   0  0  0  0  0  0  0  0  0  0  0  0
  143.7273  133.8412  149.3651 H   0  0  0  0  0  0  0  0  0  0  0  0
  144.0245  132.4057  150.3412 H   0  0  0  0  0  0  0  0  0  0  0  0
  144.1565  135.5645  153.5878 H   0  0  0  0  0  0  0  0  0  0  0  0
  145.6760  137.4275  153.1541 H   0  0  0  0  0  0  0  0  0  0  0  0
  144.5351  137.2744  151.8242 H   0  0  0  0  0  0  0  0  0  0  0  0
  146.1999  136.7274  151.6330 H   0  0  0  0  0  0  0  0  0  0  0  0
  145.6707  133.7914  154.1149 H   0  0  0  0  0  0  0  0  0  0  0  0
  146.5587  135.2873  154.2918 H   0  0  0  0  0  0  0  0  0  0  0  0
  147.4579  134.9274  152.0969 H   0  0  0  0  0  0  0  0  0  0  0  0
  1  2  1  0  0  0  0
  1 21  1  0  0  0  0
  1 22  1  0  0  0  0
  1 23  1  0  0  0  0
  2 20  1  0  0  0  0
  2  3  2  0  0  0  0
  3  4  1  0  0  0  0
  4  5  2  0  0  0  0
  5  6  1  0  0  0  0
  5 20  1  0  0  0  0
  6  7  1  0  0  0  0
  7  8  2  0  0  0  0
  7  9  1  0  0  0  0
  9 10  1  0  0  0  0
  9 24  1  0  0  0  0
 10 11  1  0  0  0  0
 10 25  1  0  0  0  0
 10 26  1  0  0  0  0
 11 12  1  0  0  0  0
 11 27  1  0  0  0  0
 11 28  1  0  0  0  0
 12 19  1  0  0  0  0
 12 13  1  0  0  0  0
 12 41  1  0  0  0  0
 13 14  1  0  0  0  0
 13 29  1  0  0  0  0
 13 30  1  0  0  0  0
 14 15  1  0  0  0  0
 14 16  1  0  0  0  0
 14 31  1  0  0  0  0
 15 32  1  0  0  0  0
 15 33  1  0  0  0  0
 15 34  1  0  0  0  0
 16 17  1  0  0  0  0
 17 18  1  0  0  0  0
 17 19  1  0  0  0  0
 17 35  1  0  0  0  0
 18 36  1  0  0  0  0
 18 37  1  0  0  0  0
 18 38  1  0  0  0  0
 19 39  1  0  0  0  0
 19 40  1  0  0  0  0
M  CHG  1   6  -1
M  CHG  1  12   1
M  END
> <s_m_source_file>
AV-unprocessed.smi

> <i_m_source_file_index>
1641

> <i_lp_mmshare_version>
43012

> <i_f3d_flags>
0

> <s_epik_input>
W0NIM11jMW5uYyhzMSlbTkhdQyg9TylbTkhdW0NIMl1bQ0gyXU4yW0NIMl1bQ0BASF0oW0NIM10pT1tDQEBIXShbQ0gzXSlbQ0gyXTI=

> <s_epik_cmdline>
J2VwaWtfcHl0aG9uJywgJy1waCcsICc3LjAnLCAnLXRuJywgJzgnLCAnLW1hJywgJzIwMCcsICctbWV0YWxfYmluZGluZycsICctaW1hZScsICc8aW5maWxlLm1hZT4nLCAnLW9tYWUnLCAnPG91dGZpbGUubWFlPic=

> <r_lp_tautomer_probability>
1

> <r_epik_Ionization_Penalty>
3.5343

> <r_epik_Ionization_Penalty_Charging>
3.42778

> <r_epik_Ionization_Penalty_Neutral>
0.106519

> <r_epik_State_Penalty>
3.62118

> <r_epik_Charging_Adjusted_Penalty>
7.04896

> <i_epik_Tot_Q>
0

> <i_epik_Tot_abs_Q>
2

> <r_epik_Metal_State_Penalty>
1.13984

> <b_epik_Metal_Only>
1

> <s_lp_Force_Field>
OPLS_2005

> <r_lp_Energy>
9.90371

> <b_lp_Chiralities_Consistent>
1

> <s_lp_Variant>
AV-unprocessed.smi:1641-13

> <Gold.Version>
5.8.1

> <Gold.Id.Protein>
6NUR|6NUR_protein|mol2

> <Gold.PLP.Fitness>
46.4739

> <Gold.PLP.PLP>
-31.7513

> <Gold.PLP.part.hbond>
-4.0000

> <Gold.PLP.part.metal>
0.0000

> <Gold.PLP.part.buried>
-6.0483

> <Gold.PLP.part.nonpolar>
-23.1696

> <Gold.PLP.part.repulsive>
0.4778

> <Gold.PLP.ligand.clash>
0.0000

> <Gold.PLP.ligand.torsion>
1.3807

> <Gold.PLP.Chemscore.Hbond>
5.7840

> <Gold.PLP.Chemscore.CHOScore>
0.0000

> <Gold.PLP.Chemscore.Metal>
0.0000

> <Gold.Chemscore.Hbonds>
donor molecule, donor type, donor heavy atom, donor atom, acceptor molecule, acceptor atom, score
      L1  H     9    24       P1  7948  0.85
      L1  H    12    41       P1  7948  1.95
      P1  H  7989  7998       L1     3  1.00
      P1  H 10752 10763       L1     6  2.00

> <Gold.PLP.Chemscore.Internal.Correction>
0.1319

> <Gold.Rescore>
     Score         DG    S(hbond)    S(metal)    S(lipo)     H(rot)  DE(clash)    DE(int)     intcor
     16.46     -17.83       2.96        0.00      56.20       1.61       0.12       1.25       ----

> <Gold.Chemscore.Fitness>
16.4566

> <Gold.Chemscore.DG>
-17.8268

> <Gold.Chemscore.ZeroCoef>
-5.4800

> <Gold.Chemscore.Hbond>
2.9596

> <Gold.Chemscore.Metal>
0.0000

> <Gold.Chemscore.Lipo>
56.2012

> <Gold.Chemscore.Internal_Hbond>
0.0000

> <Gold.Chemscore.DEClash>
0.1219

> <Gold.Chemscore.DEInternal>
1.2484

> <Gold.Chemscore.Rot>
1.6070

> <Gold.Chemscore.Internal.Correction>
   9.000000E+99

> <Gold.Chemscore.Hbonds>
donor molecule, donor type, donor heavy atom, donor atom, acceptor molecule, acceptor atom, score
      L1  H     9    24       P1  7948  0.14
      L1  H    12    41       P1  7948  0.83
      P1  H  7989  7998       L1     3  0.64
      P1  H 10752 10763       L1     6  0.65

> <Gold.Chemscore.Hbond.Weighted>
-9.8852

> <Gold.Chemscore.Metal.Weighted>
-0.0000

> <Gold.Chemscore.Lipo.Weighted>
-6.5755

> <Gold.Chemscore.Internal_Hbond.Weighted>
0.0000

> <Gold.Chemscore.DEClash.Weighted>
0.1219

> <Gold.Chemscore.DEInternal.Weighted>
1.2484

> <Gold.Chemscore.Rot.Weighted>
4.1139

> <Gold.Chemscore.Internal.Correction.Weighted>
   9.000000E+99

> <Gold.Protein.RotatedTorsions>
[ 6907 6896 6895 6894 ] final  173.11 input  -60.11 | X-H torsion
[ 7974 7965 7964 7962 ] final  -89.52 input  175.53 | X-H torsion
[ 8008 7997 7996 7995 ] final   85.26 input   59.86 | X-H torsion
[ 10167 10162 10161 10158 ] final -100.43 input  -65.29 | X-H torsion
[ 10718 10713 10712 10709 ] final  -48.89 input   66.30 | X-H torsion
[ 10763 10752 10751 10750 ] final   48.24 input  -60.55 | X-H torsion
[ 11005 11000 10999 10996 ] final  -15.73 input  -57.11 | X-H torsion

> <Gold.Protein.ActiveResidues>
 VAL166  LYS551  ARG553  GLY616  TRP617  ASP618  TYR619  PRO620  LYS621  CYS622 
 ASP623  PHE694  ASN695  SER759  ASP760  ASP761  ALA762  ILE779  LEU786  VAL792 
 PHE793  MET794  SER795  GLU796  ALA797  LYS798  CYS799  TRP800  GLU811  SER814 

> <Gold.Protein.RotatedAtoms>
  151.7736  133.3343  159.3451 H   0  0  0  0  0  0  0  0  0  0  0  0  # atno 6907 bound_to 6896
  150.7452  134.5996  159.6039 H   0  0  0  0  0  0  0  0  0  0  0  0  # atno 6908 bound_to 6896
  152.3324  134.7243  160.0337 H   0  0  0  0  0  0  0  0  0  0  0  0  # atno 6909 bound_to 6896
  145.4387  140.9558  143.2087 H   0  0  0  0  0  0  0  0  0  0  0  0  # atno 7974 bound_to 7965
  155.9477  140.3403  155.6381 H   0  0  0  0  0  0  0  0  0  0  0  0  # atno 8008 bound_to 7997
  155.6960  140.0754  157.2448 H   0  0  0  0  0  0  0  0  0  0  0  0  # atno 8009 bound_to 7997
  154.4115  140.1648  156.2126 H   0  0  0  0  0  0  0  0  0  0  0  0  # atno 8010 bound_to 7997
  140.2520  143.3466  152.0706 H   0  0  0  0  0  0  0  0  0  0  0  0  # atno 10167 bound_to 10162
  156.1945  130.4154  149.9325 H   0  0  0  0  0  0  0  0  0  0  0  0  # atno 10718 bound_to 10713
  152.9793  135.5950  154.3893 H   0  0  0  0  0  0  0  0  0  0  0  0  # atno 10763 bound_to 10752
  154.3550  135.2767  155.2353 H   0  0  0  0  0  0  0  0  0  0  0  0  # atno 10764 bound_to 10752
  154.4376  135.6021  153.6163 H   0  0  0  0  0  0  0  0  0  0  0  0  # atno 10765 bound_to 10752
  140.7996  133.8224  155.9457 H   0  0  0  0  0  0  0  0  0  0  0  0  # atno 11005 bound_to 11000
  144.8135  139.5919  143.7019 LP  0  0  0  0  0  0  0  0  0  0  0  0  # atno 17320 bound_to 7965
  146.2568  139.6320  142.9389 LP  0  0  0  0  0  0  0  0  0  0  0  0  # atno 17321 bound_to 7965
  139.5043  144.6773  151.6097 LP  0  0  0  0  0  0  0  0  0  0  0  0  # atno 17342 bound_to 10162
  140.6033  143.9570  150.6401 LP  0  0  0  0  0  0  0  0  0  0  0  0  # atno 17343 bound_to 10162
  156.7055  130.8949  151.3604 LP  0  0  0  0  0  0  0  0  0  0  0  0  # atno 17370 bound_to 10713
  157.6949  130.9272  150.0617 LP  0  0  0  0  0  0  0  0  0  0  0  0  # atno 17371 bound_to 10713
  140.9308  134.2024  157.4865 LP  0  0  0  0  0  0  0  0  0  0  0  0  # atno 17394 bound_to 11000
  139.8723  134.9832  156.5188 LP  0  0  0  0  0  0  0  0  0  0  0  0  # atno 17395 bound_to 11000

$$$$
