#       Name:                AV-unprocessed.smi:281
#       Creating user name   scv26
#       Creation time:       Thu Mar 26 21:39:10 2020


#       File generated by GOLD software.
#

@<TRIPOS>MOLECULE
AV-unprocessed.smi:281
    67    71     1
SMALL
NO_CHARGES


@<TRIPOS>ATOM
      1 ****        -3.8825  -0.8949   2.8778 C.3            1 S1                 0.0000
      2 ****        -3.2548  -0.1567   1.6912 C.3            1 S1                 0.0000
      3 ****        -1.7237  -0.0834   1.8033 C.3            1 S1                 0.0000
      4 ****        -1.1909   0.7116   0.7077 N.3            1 S1                 0.0000
      5 ****         0.1557   0.6806   0.6262 C.ar           1 S1                 0.0000
      6 ****         0.9110   1.2999   1.5713 N.ar           1 S1                 0.0000
      7 ****         2.2444   1.2643   1.4856 C.ar           1 S1                 0.0000
      8 ****         3.0065   0.6782   0.5590 N.ar           1 S1                 0.0000
      9 ****         2.2469   0.0535  -0.3867 C.ar           1 S1                 0.0000
     10 ****         0.8258   0.0080  -0.4278 C.ar           1 S1                 0.0000
     11 ****         0.4009  -0.7112  -1.5371 N.2            1 S1                 0.0000
     12 ****         1.5113  -1.0713  -2.1217 C.2            1 S1                 0.0000
     13 ****         2.6672  -0.6622  -1.4941 N.pl3          1 S1                 0.0000
     14 ****         4.0326  -0.9256  -1.9209 C.3            1 S1                 0.0000
     15 ****         4.6142  -2.2381  -1.3457 C.3            1 S1                 0.0000
     16 ****         4.6705  -2.1406   0.0668 O.3            1 S1                 0.0000
     17 ****         3.8170  -3.4876  -1.7119 C.3            1 S1                 0.0000
     18 ****         4.8916  -4.5610  -1.8115 C.3            1 S1                 0.0000
     19 ****         5.9609  -3.8663  -2.4293 O.3            1 S1                 0.0000
     20 ****         6.0283  -2.5585  -1.8706 C.3            1 S1                 0.0000
     21 ****        -1.7594   2.0522   0.6636 C.3            1 S1                 0.0000
     22 ****        -3.3031   1.9977   0.5956 C.3            1 S1                 0.0000
     23 ****        -3.8436   1.5207  -0.7606 C.3            1 S1                 0.0000
     24 ****        -4.4445   2.7696  -1.3924 C.3            1 S1                 0.0000
     25 ****        -4.9211   3.4853  -0.2685 O.3            1 S1                 0.0000
     26 ****        -3.9036   3.4189   0.7190 C.3            1 S1                 0.0000
     27 ****        -4.4639   3.7965   2.0976 C.3            1 S1                 0.0000
     28 ****        -3.7926   1.1665   1.6569 O.3            1 S1                 0.0000
     29 ****        -3.5113  -1.9180   2.9439 H              1 S1                 0.0000
     30 ****        -4.9672  -0.9407   2.7782 H              1 S1                 0.0000
     31 ****        -3.6553  -0.3942   3.8195 H              1 S1                 0.0000
     32 ****        -3.5238  -0.6877   0.7775 H              1 S1                 0.0000
     33 ****        -1.4369   0.3650   2.7559 H              1 S1                 0.0000
     34 ****        -1.2971  -1.0873   1.7758 H              1 S1                 0.0000
     35 ****         2.7771   1.7782   2.2721 H              1 S1                 0.0000
     36 ****         1.5167  -1.6531  -3.0318 H              1 S1                 0.0000
     37 ****         4.0453  -0.9560  -3.0113 H              1 S1                 0.0000
     38 ****         4.6555  -0.0776  -1.6326 H              1 S1                 0.0000
     39 ****         5.0504  -2.9359   0.4078 H              1 S1                 0.0000
     40 ****         3.0270  -3.7325  -1.0003 H              1 S1                 0.0000
     41 ****         3.3552  -3.3665  -2.6925 H              1 S1                 0.0000
     42 ****         5.1970  -4.9075  -0.8229 H              1 S1                 0.0000
     43 ****         4.5761  -5.4226  -2.4003 H              1 S1                 0.0000
     44 ****         6.3568  -1.8573  -2.6385 H              1 S1                 0.0000
     45 ****         6.7749  -2.5424  -1.0748 H              1 S1                 0.0000
     46 ****        -1.4548   2.5994   1.5573 H              1 S1                 0.0000
     47 ****        -1.3607   2.5953  -0.1946 H              1 S1                 0.0000
     48 ****        -3.0875   1.0571  -1.3952 H              1 S1                 0.0000
     49 ****        -4.6423   0.7925  -0.6156 H              1 S1                 0.0000
     50 ****        -3.6822   3.3547  -1.9095 H              1 S1                 0.0000
     51 ****        -5.2453   2.5433  -2.0966 H              1 S1                 0.0000
     52 ****        -3.1499   4.1570   0.4374 H              1 S1                 0.0000
     53 ****        -3.6931   3.7261   2.8653 H              1 S1                 0.0000
     54 ****        -5.2891   3.1452   2.3864 H              1 S1                 0.0000
     55 ****        -4.8386   4.8202   2.0951 H              1 S1                 0.0000
     56 ****        -1.4974   0.2662  -0.1335 LP             1 S1                 0.0000
     57 ****         0.4702   1.7811   2.3290 LP             1 S1                 0.0000
     58 ****         4.0064   0.6950   0.5583 LP             1 S1                 0.0000
     59 ****        -0.5373  -0.9076  -1.8219 LP             1 S1                 0.0000
     60 ****         3.7477  -2.0234   0.4338 LP             1 S1                 0.0000
     61 ****         5.2352  -1.3579   0.3286 LP             1 S1                 0.0000
     62 ****         5.7998  -3.8050  -3.4143 LP             1 S1                 0.0000
     63 ****         6.8199  -4.3501  -2.2615 LP             1 S1                 0.0000
     64 ****        -5.7622   3.0675   0.0748 LP             1 S1                 0.0000
     65 ****        -5.0990   4.4376  -0.5164 LP             1 S1                 0.0000
     66 ****        -3.5734   1.6120   2.5249 LP             1 S1                 0.0000
     67 ****        -4.7853   1.0945   1.5606 LP             1 S1                 0.0000
@<TRIPOS>BOND
    1    1    2 1     
    2    1   29 1     
    3    1   30 1     
    4    1   31 1     
    5    2   28 1     
    6    2    3 1     
    7    2   32 1     
    8    3    4 1     
    9    3   33 1     
   10    3   34 1     
   11    4    5 1     
   12    4   21 1     
   13    5   10 ar    
   14    5    6 ar    
   15    6    7 ar    
   16    7    8 ar    
   17    7   35 1     
   18    8    9 ar    
   19    9   13 1     
   20    9   10 ar    
   21   10   11 1     
   22   11   12 2     
   23   12   13 1     
   24   12   36 1     
   25   13   14 1     
   26   14   15 1     
   27   14   37 1     
   28   14   38 1     
   29   15   20 1     
   30   15   16 1     
   31   15   17 1     
   32   16   39 1     
   33   17   18 1     
   34   17   40 1     
   35   17   41 1     
   36   18   19 1     
   37   18   42 1     
   38   18   43 1     
   39   19   20 1     
   40   20   44 1     
   41   20   45 1     
   42   21   22 1     
   43   21   46 1     
   44   21   47 1     
   45   22   26 1     
   46   22   23 1     
   47   22   28 1     
   48   23   24 1     
   49   23   48 1     
   50   23   49 1     
   51   24   25 1     
   52   24   50 1     
   53   24   51 1     
   54   25   26 1     
   55   26   27 1     
   56   26   52 1     
   57   27   53 1     
   58   27   54 1     
   59   27   55 1     
   60    4   56 1     
   61    6   57 1     
   62    8   58 1     
   63   11   59 1     
   64   16   60 1     
   65   16   61 1     
   66   19   62 1     
   67   19   63 1     
   68   25   64 1     
   69   25   65 1     
   70   28   66 1     
   71   28   67 1     
@<TRIPOS>SUBSTRUCTURE
      1 S1             1
@<TRIPOS>SET
LONE_PAIRS      STATIC     ATOMS    <user>   **** ""
12 56 57 58 59 60 61 62 63 64 65 66 67
DONOR_HYDROGENS      STATIC     ATOMS    <user>   **** ""
1 39
ATOM$BLUE        STATIC     ATOMS    COLORGROUP SYSTEM
12 56 57 58 59 60 61 62 63 64 65 66 67
ATOM$RED        STATIC     ATOMS    COLORGROUP SYSTEM
1 39
