AV-unprocessed.smi:1767|AV-procd|sdf|7139|dock2
  -GOLD-   22720 8373D 1   1.00000     0.00000
 Structure written by MMmdl.
 32 34  0  0  0  0  0  0  0  0  1 V2000
  152.7829  139.8076  157.7501 O   0  0  0  0  0  0  0  0  0  0  0  0
  151.6876  140.6408  157.4303 C   0  0  2  0  0  0  0  0  0  0  0  0
  151.6391  140.8086  155.8988 C   0  0  0  0  0  0  0  0  0  0  0  0
  150.6889  139.9029  155.2784 N   0  0  0  0  0  0  0  0  0  0  0  0
  150.7753  138.5605  155.2125 C   0  0  0  0  0  0  0  0  0  0  0  0
  149.7823  137.9144  154.6086 N   0  0  0  0  0  0  0  0  0  0  0  0
  148.9542  138.9597  154.2372 C   0  0  0  0  0  0  0  0  0  0  0  0
  147.7158  138.9507  153.5562 C   0  0  0  0  0  0  0  0  0  0  0  0
  147.0402  140.1590  153.2862 C   0  0  0  0  0  0  0  0  0  0  0  0
  147.5909  141.3923  153.6909 C   0  0  0  0  0  0  0  0  0  0  0  0
  148.8241  141.4264  154.3696 C   0  0  0  0  0  0  0  0  0  0  0  0
  149.4947  140.2186  154.6385 C   0  0  0  0  0  0  0  0  0  0  0  0
  151.7493  141.9775  158.1573 C   0  0  0  0  0  0  0  0  0  0  0  0
  150.7835  142.9713  157.8873 C   0  0  0  0  0  0  0  0  0  0  0  0
  150.8511  144.2214  158.5324 C   0  0  0  0  0  0  0  0  0  0  0  0
  151.8841  144.4849  159.4521 C   0  0  0  0  0  0  0  0  0  0  0  0
  151.9501  145.6876  160.0708 F   0  0  0  0  0  0  0  0  0  0  0  0
  152.8493  143.4976  159.7270 C   0  0  0  0  0  0  0  0  0  0  0  0
  152.7828  142.2476  159.0814 C   0  0  0  0  0  0  0  0  0  0  0  0
  152.7964  139.6786  158.6862 H   0  0  0  0  0  0  0  0  0  0  0  0
  150.7928  140.1081  157.7558 H   0  0  0  0  0  0  0  0  0  0  0  0
  151.3832  141.8334  155.6262 H   0  0  0  0  0  0  0  0  0  0  0  0
  152.6212  140.6083  155.4677 H   0  0  0  0  0  0  0  0  0  0  0  0
  151.6130  138.0270  155.6376 H   0  0  0  0  0  0  0  0  0  0  0  0
  147.2843  138.0120  153.2420 H   0  0  0  0  0  0  0  0  0  0  0  0
  146.0938  140.1393  152.7659 H   0  0  0  0  0  0  0  0  0  0  0  0
  147.0659  142.3126  153.4805 H   0  0  0  0  0  0  0  0  0  0  0  0
  149.2462  142.3693  154.6837 H   0  0  0  0  0  0  0  0  0  0  0  0
  149.9928  142.7821  157.1761 H   0  0  0  0  0  0  0  0  0  0  0  0
  150.1120  144.9795  158.3191 H   0  0  0  0  0  0  0  0  0  0  0  0
  153.6432  143.7000  160.4305 H   0  0  0  0  0  0  0  0  0  0  0  0
  153.5339  141.5001  159.2912 H   0  0  0  0  0  0  0  0  0  0  0  0
  1  2  1  0  0  0  0
  1 20  1  0  0  0  0
  2  3  1  0  0  0  0
  2 13  1  0  0  0  0
  2 21  1  0  0  0  0
  3  4  1  0  0  0  0
  3 22  1  0  0  0  0
  3 23  1  0  0  0  0
  4 12  1  0  0  0  0
  4  5  1  0  0  0  0
  5  6  2  0  0  0  0
  5 24  1  0  0  0  0
  6  7  1  0  0  0  0
  7 12  2  0  0  0  0
  7  8  1  0  0  0  0
  8  9  2  0  0  0  0
  8 25  1  0  0  0  0
  9 10  1  0  0  0  0
  9 26  1  0  0  0  0
 10 11  2  0  0  0  0
 10 27  1  0  0  0  0
 11 12  1  0  0  0  0
 11 28  1  0  0  0  0
 13 19  1  0  0  0  0
 13 14  2  0  0  0  0
 14 15  1  0  0  0  0
 14 29  1  0  0  0  0
 15 16  2  0  0  0  0
 15 30  1  0  0  0  0
 16 17  1  0  0  0  0
 16 18  1  0  0  0  0
 18 19  2  0  0  0  0
 18 31  1  0  0  0  0
 19 32  1  0  0  0  0
M  END
> <s_m_source_file>
AV-unprocessed.smi

> <i_m_source_file_index>
1767

> <i_lp_mmshare_version>
43012

> <i_f3d_flags>
0

> <s_epik_input>
W2NIXTFbY0hdYyhGKVtjSF1bY0hdYzFbQ0BIXShbT0hdKVtDSDJdbihbY0hdbjIpYyhjMjMpW2NIXVtjSF1bY0hdW2NIXTM=

> <s_epik_cmdline>
J2VwaWtfcHl0aG9uJywgJy1waCcsICc3LjAnLCAnLXRuJywgJzgnLCAnLW1hJywgJzIwMCcsICctbWV0YWxfYmluZGluZycsICctaW1hZScsICc8aW5maWxlLm1hZT4nLCAnLW9tYWUnLCAnPG91dGZpbGUubWFlPic=

> <r_epik_Ionization_Penalty>
0.0696514

> <r_epik_Ionization_Penalty_Charging>
0

> <r_epik_Ionization_Penalty_Neutral>
0.0696514

> <r_epik_State_Penalty>
0.0610247

> <r_epik_Charging_Adjusted_Penalty>
0.0610247

> <i_epik_Tot_Q>
0

> <i_epik_Tot_abs_Q>
0

> <r_epik_Metal_State_Penalty>
6.42746e-05

> <b_epik_Metal_Only>
0

> <s_lp_Force_Field>
OPLS_2005

> <r_lp_Energy>
11.9132

> <b_lp_Chiralities_Consistent>
1

> <s_lp_Variant>
AV-unprocessed.smi:1767-1

> <Gold.Version>
5.8.1

> <Gold.Id.Protein>
6NUR|6NUR_protein|mol2

> <Gold.PLP.Fitness>
48.3104

> <Gold.PLP.PLP>
-46.6037

> <Gold.PLP.part.hbond>
-1.0000

> <Gold.PLP.part.metal>
0.0000

> <Gold.PLP.part.buried>
-3.1744

> <Gold.PLP.part.nonpolar>
-41.4756

> <Gold.PLP.part.repulsive>
0.1998

> <Gold.PLP.ligand.clash>
0.0000

> <Gold.PLP.ligand.torsion>
0.6665

> <Gold.PLP.Chemscore.Hbond>
1.0000

> <Gold.PLP.Chemscore.CHOScore>
0.0000

> <Gold.PLP.Chemscore.Metal>
0.0000

> <Gold.Chemscore.Hbonds>
donor molecule, donor type, donor heavy atom, donor atom, acceptor molecule, acceptor atom, score
      P1  H  7997  8009       L1     1  1.00

> <Gold.PLP.Chemscore.Internal.Correction>
0.0397

> <Gold.Rescore>
     Score         DG    S(hbond)    S(metal)    S(lipo)     H(rot)  DE(clash)    DE(int)     intcor
     16.88     -17.70       0.93        0.00     119.68       1.91       0.20       0.62       ----

> <Gold.Chemscore.Fitness>
16.8755

> <Gold.Chemscore.DG>
-17.6971

> <Gold.Chemscore.ZeroCoef>
-5.4800

> <Gold.Chemscore.Hbond>
0.9307

> <Gold.Chemscore.Metal>
0.0000

> <Gold.Chemscore.Lipo>
119.6773

> <Gold.Chemscore.Internal_Hbond>
0.0000

> <Gold.Chemscore.DEClash>
0.2027

> <Gold.Chemscore.DEInternal>
0.6188

> <Gold.Chemscore.Rot>
1.9116

> <Gold.Chemscore.Internal.Correction>
   9.000000E+99

> <Gold.Chemscore.Hbonds>
donor molecule, donor type, donor heavy atom, donor atom, acceptor molecule, acceptor atom, score
      P1  H  7997  8009       L1     1  0.90

> <Gold.Chemscore.Hbond.Weighted>
-3.1085

> <Gold.Chemscore.Metal.Weighted>
-0.0000

> <Gold.Chemscore.Lipo.Weighted>
-14.0022

> <Gold.Chemscore.Internal_Hbond.Weighted>
0.0000

> <Gold.Chemscore.DEClash.Weighted>
0.2027

> <Gold.Chemscore.DEInternal.Weighted>
0.6188

> <Gold.Chemscore.Rot.Weighted>
4.8937

> <Gold.Chemscore.Internal.Correction.Weighted>
   9.000000E+99

> <Gold.Protein.RotatedTorsions>
[ 6907 6896 6895 6894 ] final   99.58 input  -60.11 | X-H torsion
[ 7974 7965 7964 7962 ] final  -19.46 input  175.53 | X-H torsion
[ 8008 7997 7996 7995 ] final  162.79 input   59.86 | X-H torsion
[ 10167 10162 10161 10158 ] final -122.14 input  -65.29 | X-H torsion
[ 10718 10713 10712 10709 ] final   76.08 input   66.30 | X-H torsion
[ 10763 10752 10751 10750 ] final -118.13 input  -60.55 | X-H torsion
[ 11005 11000 10999 10996 ] final  129.02 input  -57.11 | X-H torsion

> <Gold.Protein.ActiveResidues>
 VAL166  LYS551  ARG553  GLY616  TRP617  ASP618  TYR619  PRO620  LYS621  CYS622 
 ASP623  PHE694  ASN695  SER759  ASP760  ASP761  ALA762  ILE779  LEU786  VAL792 
 PHE793  MET794  SER795  GLU796  ALA797  LYS798  CYS799  TRP800  GLU811  SER814 

> <Gold.Protein.RotatedAtoms>
  152.5389  134.0407  159.8066 H   0  0  0  0  0  0  0  0  0  0  0  0  # atno 6907 bound_to 6896
  151.0564  133.5573  159.2645 H   0  0  0  0  0  0  0  0  0  0  0  0  # atno 6908 bound_to 6896
  151.2488  135.0623  159.9108 H   0  0  0  0  0  0  0  0  0  0  0  0  # atno 6909 bound_to 6896
  146.1840  140.4064  142.8483 H   0  0  0  0  0  0  0  0  0  0  0  0  # atno 7974 bound_to 7965
  156.2005  140.1741  156.7909 H   0  0  0  0  0  0  0  0  0  0  0  0  # atno 8008 bound_to 7997
  154.5585  140.0704  156.8813 H   0  0  0  0  0  0  0  0  0  0  0  0  # atno 8009 bound_to 7997
  155.2892  140.3354  155.4256 H   0  0  0  0  0  0  0  0  0  0  0  0  # atno 8010 bound_to 7997
  140.0175  143.5378  152.2236 H   0  0  0  0  0  0  0  0  0  0  0  0  # atno 10167 bound_to 10162
  157.6659  130.9757  150.1446 H   0  0  0  0  0  0  0  0  0  0  0  0  # atno 10718 bound_to 10713
  154.8578  135.4285  154.2090 H   0  0  0  0  0  0  0  0  0  0  0  0  # atno 10763 bound_to 10752
  153.3120  135.6976  153.7113 H   0  0  0  0  0  0  0  0  0  0  0  0  # atno 10764 bound_to 10752
  153.6201  135.3503  155.2982 H   0  0  0  0  0  0  0  0  0  0  0  0  # atno 10765 bound_to 10752
  139.9592  134.9606  156.9087 H   0  0  0  0  0  0  0  0  0  0  0  0  # atno 11005 bound_to 11000
  144.8365  140.6789  143.6257 LP  0  0  0  0  0  0  0  0  0  0  0  0  # atno 17320 bound_to 7965
  145.3993  139.1601  143.4186 LP  0  0  0  0  0  0  0  0  0  0  0  0  # atno 17321 bound_to 7965
  139.6162  144.7620  151.2840 LP  0  0  0  0  0  0  0  0  0  0  0  0  # atno 17342 bound_to 10162
  140.7356  143.6731  150.8064 LP  0  0  0  0  0  0  0  0  0  0  0  0  # atno 17343 bound_to 10162
  156.2260  130.3678  149.8500 LP  0  0  0  0  0  0  0  0  0  0  0  0  # atno 17370 bound_to 10713
  156.6340  130.8677  151.3501 LP  0  0  0  0  0  0  0  0  0  0  0  0  # atno 17371 bound_to 10713
  140.5538  134.0601  155.7377 LP  0  0  0  0  0  0  0  0  0  0  0  0  # atno 17394 bound_to 11000
  141.1268  133.9370  157.2619 LP  0  0  0  0  0  0  0  0  0  0  0  0  # atno 17395 bound_to 11000

$$$$
