AV-unprocessed.smi:1019|AV-procd|sdf|4452|dock9
  -GOLD-   22720 2423D 1   1.00000     0.00000
 Structure written by MMmdl.
 43 45  0  0  0  0  0  0  0  0  1 V2000
  147.2886  141.5975  153.9446 C   0  0  0  0  0  0  0  0  0  0  0  0
  148.2805  140.8182  154.6803 N   0  0  0  0  0  0  0  0  0  0  0  0
  148.4649  139.4956  154.0758 C   0  0  0  0  0  0  0  0  0  0  0  0
  149.3191  138.5535  154.9070 C   0  0  0  0  0  0  0  0  0  0  0  0
  148.9919  138.3073  156.2571 C   0  0  0  0  0  0  0  0  0  0  0  0
  149.7818  137.4330  157.0288 C   0  0  0  0  0  0  0  0  0  0  0  0
  150.9022  136.8028  156.4535 C   0  0  0  0  0  0  0  0  0  0  0  0
  151.2328  137.0478  155.1066 C   0  0  0  0  0  0  0  0  0  0  0  0
  150.4434  137.9223  154.3344 C   0  0  0  0  0  0  0  0  0  0  0  0
  149.5384  141.5628  154.7654 C   0  0  0  0  0  0  0  0  0  0  0  0
  150.4749  141.1496  155.9216 C   0  0  1  0  0  0  0  0  0  0  0  0
  151.6054  140.4861  155.3880 O   0  0  0  0  0  0  0  0  0  0  0  0
  150.9613  142.3673  156.7321 C   0  0  0  0  0  0  0  0  0  0  0  0
  151.5557  141.9897  158.0023 N   0  0  0  0  0  0  0  0  0  0  0  0
  152.0050  140.7719  158.3623 C   0  0  0  0  0  0  0  0  0  0  0  0
  152.5162  140.6480  159.5839 N   0  0  0  0  0  0  0  0  0  0  0  0
  152.3884  141.9368  160.0727 C   0  0  0  0  0  0  0  0  0  0  0  0
  152.7467  142.4833  161.3259 C   0  0  0  0  0  0  0  0  0  0  0  0
  152.5162  143.8470  161.6028 C   0  0  0  0  0  0  0  0  0  0  0  0
  151.9255  144.6839  160.6337 C   0  0  0  0  0  0  0  0  0  0  0  0
  151.5605  144.1624  159.3777 C   0  0  0  0  0  0  0  0  0  0  0  0
  151.7916  142.8013  159.1059 C   0  0  0  0  0  0  0  0  0  0  0  0
  147.1404  142.5735  154.4078 H   0  0  0  0  0  0  0  0  0  0  0  0
  146.3198  141.0976  153.9343 H   0  0  0  0  0  0  0  0  0  0  0  0
  147.6000  141.7566  152.9114 H   0  0  0  0  0  0  0  0  0  0  0  0
  147.4961  139.0362  153.8741 H   0  0  0  0  0  0  0  0  0  0  0  0
  148.9662  139.5882  153.1130 H   0  0  0  0  0  0  0  0  0  0  0  0
  148.1326  138.7877  156.7017 H   0  0  0  0  0  0  0  0  0  0  0  0
  149.5277  137.2457  158.0617 H   0  0  0  0  0  0  0  0  0  0  0  0
  151.5074  136.1319  157.0451 H   0  0  0  0  0  0  0  0  0  0  0  0
  152.0921  136.5648  154.6653 H   0  0  0  0  0  0  0  0  0  0  0  0
  150.7018  138.1043  153.3016 H   0  0  0  0  0  0  0  0  0  0  0  0
  150.0681  141.5291  153.8118 H   0  0  0  0  0  0  0  0  0  0  0  0
  149.2870  142.6137  154.9145 H   0  0  0  0  0  0  0  0  0  0  0  0
  149.9532  140.4667  156.5942 H   0  0  0  0  0  0  0  0  0  0  0  0
  152.2968  140.5086  156.0323 H   0  0  0  0  0  0  0  0  0  0  0  0
  151.6911  142.9415  156.1589 H   0  0  0  0  0  0  0  0  0  0  0  0
  150.1279  143.0400  156.9388 H   0  0  0  0  0  0  0  0  0  0  0  0
  151.9498  139.9276  157.6908 H   0  0  0  0  0  0  0  0  0  0  0  0
  153.2001  141.8522  162.0758 H   0  0  0  0  0  0  0  0  0  0  0  0
  152.7945  144.2532  162.5642 H   0  0  0  0  0  0  0  0  0  0  0  0
  151.7526  145.7268  160.8553 H   0  0  0  0  0  0  0  0  0  0  0  0
  151.1078  144.7998  158.6327 H   0  0  0  0  0  0  0  0  0  0  0  0
  1  2  1  0  0  0  0
  1 23  1  0  0  0  0
  1 24  1  0  0  0  0
  1 25  1  0  0  0  0
  2  3  1  0  0  0  0
  2 10  1  0  0  0  0
  3  4  1  0  0  0  0
  3 26  1  0  0  0  0
  3 27  1  0  0  0  0
  4  9  1  0  0  0  0
  4  5  2  0  0  0  0
  5  6  1  0  0  0  0
  5 28  1  0  0  0  0
  6  7  2  0  0  0  0
  6 29  1  0  0  0  0
  7  8  1  0  0  0  0
  7 30  1  0  0  0  0
  8  9  2  0  0  0  0
  8 31  1  0  0  0  0
  9 32  1  0  0  0  0
 10 11  1  0  0  0  0
 10 33  1  0  0  0  0
 10 34  1  0  0  0  0
 11 12  1  0  0  0  0
 11 13  1  0  0  0  0
 11 35  1  0  0  0  0
 12 36  1  0  0  0  0
 13 14  1  0  0  0  0
 13 37  1  0  0  0  0
 13 38  1  0  0  0  0
 14 22  1  0  0  0  0
 14 15  1  0  0  0  0
 15 16  2  0  0  0  0
 15 39  1  0  0  0  0
 16 17  1  0  0  0  0
 17 22  2  0  0  0  0
 17 18  1  0  0  0  0
 18 19  2  0  0  0  0
 18 40  1  0  0  0  0
 19 20  1  0  0  0  0
 19 41  1  0  0  0  0
 20 21  2  0  0  0  0
 20 42  1  0  0  0  0
 21 22  1  0  0  0  0
 21 43  1  0  0  0  0
M  END
> <s_m_source_file>
AV-unprocessed.smi

> <i_m_source_file_index>
1019

> <i_lp_mmshare_version>
43012

> <i_f3d_flags>
0

> <s_epik_input>
W2NIXTFbY0hdW2NIXVtjSF1bY0hdYzFbQ0gyXU4oW0NIM10pW0NIMl1bQ0BIXShbT0hdKVtDSDJdbihbY0hdbjIpYyhjMjMpW2NIXVtjSF1bY0hdW2NIXTM=

> <s_epik_cmdline>
J2VwaWtfcHl0aG9uJywgJy1waCcsICc3LjAnLCAnLXRuJywgJzgnLCAnLW1hJywgJzIwMCcsICctbWV0YWxfYmluZGluZycsICctaW1hZScsICc8aW5maWxlLm1hZT4nLCAnLW9tYWUnLCAnPG91dGZpbGUubWFlPic=

> <r_epik_Ionization_Penalty>
1.56741

> <r_epik_Ionization_Penalty_Charging>
0

> <r_epik_Ionization_Penalty_Neutral>
1.56741

> <r_epik_State_Penalty>
1.62466

> <r_epik_Charging_Adjusted_Penalty>
1.62466

> <i_epik_Tot_Q>
0

> <i_epik_Tot_abs_Q>
0

> <r_epik_Metal_State_Penalty>
1.58486

> <b_epik_Metal_Only>
0

> <s_lp_Force_Field>
OPLS_2005

> <r_lp_Energy>
22.9091

> <b_lp_Chiralities_Consistent>
1

> <s_lp_Variant>
AV-unprocessed.smi:1019-10

> <Gold.Version>
5.8.1

> <Gold.Id.Protein>
6NUR|6NUR_protein|mol2

> <Gold.PLP.Fitness>
45.9775

> <Gold.PLP.PLP>
-45.9622

> <Gold.PLP.part.hbond>
-1.0000

> <Gold.PLP.part.metal>
0.0000

> <Gold.PLP.part.buried>
-4.2806

> <Gold.PLP.part.nonpolar>
-40.3089

> <Gold.PLP.part.repulsive>
0.1094

> <Gold.PLP.ligand.clash>
0.0000

> <Gold.PLP.ligand.torsion>
1.2894

> <Gold.PLP.Chemscore.Hbond>
0.8000

> <Gold.PLP.Chemscore.CHOScore>
0.0000

> <Gold.PLP.Chemscore.Metal>
0.0000

> <Gold.Chemscore.Hbonds>
donor molecule, donor type, donor heavy atom, donor atom, acceptor molecule, acceptor atom, score
      P1  H  7989  7998       L1    12  0.80

> <Gold.PLP.Chemscore.Internal.Correction>
0.1942

> <Gold.Rescore>
     Score         DG    S(hbond)    S(metal)    S(lipo)     H(rot)  DE(clash)    DE(int)     intcor
     15.60     -17.06       0.75        0.00     127.01       2.27       0.05       1.40       ----

> <Gold.Chemscore.Fitness>
15.5978

> <Gold.Chemscore.DG>
-17.0560

> <Gold.Chemscore.ZeroCoef>
-5.4800

> <Gold.Chemscore.Hbond>
0.7541

> <Gold.Chemscore.Metal>
0.0000

> <Gold.Chemscore.Lipo>
127.0094

> <Gold.Chemscore.Internal_Hbond>
0.0000

> <Gold.Chemscore.DEClash>
0.0543

> <Gold.Chemscore.DEInternal>
1.4040

> <Gold.Chemscore.Rot>
2.2667

> <Gold.Chemscore.Internal.Correction>
   9.000000E+99

> <Gold.Chemscore.Hbonds>
donor molecule, donor type, donor heavy atom, donor atom, acceptor molecule, acceptor atom, score
      P1  H  7989  7998       L1    12  0.48

> <Gold.Chemscore.Hbond.Weighted>
-2.5188

> <Gold.Chemscore.Metal.Weighted>
-0.0000

> <Gold.Chemscore.Lipo.Weighted>
-14.8601

> <Gold.Chemscore.Internal_Hbond.Weighted>
0.0000

> <Gold.Chemscore.DEClash.Weighted>
0.0543

> <Gold.Chemscore.DEInternal.Weighted>
1.4040

> <Gold.Chemscore.Rot.Weighted>
5.8028

> <Gold.Chemscore.Internal.Correction.Weighted>
   9.000000E+99

> <Gold.Protein.RotatedTorsions>
[ 6907 6896 6895 6894 ] final  -97.34 input  -60.11 | X-H torsion
[ 7974 7965 7964 7962 ] final  165.51 input  175.53 | X-H torsion
[ 8008 7997 7996 7995 ] final -139.21 input   59.86 | X-H torsion
[ 10167 10162 10161 10158 ] final  -67.10 input  -65.29 | X-H torsion
[ 10718 10713 10712 10709 ] final -146.91 input   66.30 | X-H torsion
[ 10763 10752 10751 10750 ] final   37.92 input  -60.55 | X-H torsion
[ 11005 11000 10999 10996 ] final   61.49 input  -57.11 | X-H torsion

> <Gold.Protein.ActiveResidues>
 VAL166  LYS551  ARG553  GLY616  TRP617  ASP618  TYR619  PRO620  LYS621  CYS622 
 ASP623  PHE694  ASN695  SER759  ASP760  ASP761  ALA762  ILE779  LEU786  VAL792 
 PHE793  MET794  SER795  GLU796  ALA797  LYS798  CYS799  TRP800  GLU811  SER814 

> <Gold.Protein.RotatedAtoms>
  150.7013  134.1364  159.4088 H   0  0  0  0  0  0  0  0  0  0  0  0  # atno 6907 bound_to 6896
  151.9349  135.0237  160.0541 H   0  0  0  0  0  0  0  0  0  0  0  0  # atno 6908 bound_to 6896
  152.2144  133.4900  159.5164 H   0  0  0  0  0  0  0  0  0  0  0  0  # atno 6909 bound_to 6896
  144.7500  139.8480  143.6369 H   0  0  0  0  0  0  0  0  0  0  0  0  # atno 7974 bound_to 7965
  155.4411  140.0532  157.3010 H   0  0  0  0  0  0  0  0  0  0  0  0  # atno 8008 bound_to 7997
  154.4818  140.2084  155.9704 H   0  0  0  0  0  0  0  0  0  0  0  0  # atno 8009 bound_to 7997
  156.1216  140.3187  155.8222 H   0  0  0  0  0  0  0  0  0  0  0  0  # atno 8010 bound_to 7997
  140.5608  143.2313  151.6731 H   0  0  0  0  0  0  0  0  0  0  0  0  # atno 10167 bound_to 10162
  156.4008  130.7933  151.2143 H   0  0  0  0  0  0  0  0  0  0  0  0  # atno 10718 bound_to 10713
  153.0019  135.6264  154.2222 H   0  0  0  0  0  0  0  0  0  0  0  0  # atno 10763 bound_to 10752
  154.1965  135.2806  155.3006 H   0  0  0  0  0  0  0  0  0  0  0  0  # atno 10764 bound_to 10752
  154.5718  135.5674  153.7161 H   0  0  0  0  0  0  0  0  0  0  0  0  # atno 10765 bound_to 10752
  140.0157  134.6228  155.9713 H   0  0  0  0  0  0  0  0  0  0  0  0  # atno 11005 bound_to 11000
  146.1436  139.4499  143.0093 LP  0  0  0  0  0  0  0  0  0  0  0  0  # atno 17320 bound_to 7965
  145.6980  141.0144  143.1519 LP  0  0  0  0  0  0  0  0  0  0  0  0  # atno 17321 bound_to 7965
  139.5069  144.3665  152.0512 LP  0  0  0  0  0  0  0  0  0  0  0  0  # atno 17342 bound_to 10162
  140.2791  144.3880  150.6125 LP  0  0  0  0  0  0  0  0  0  0  0  0  # atno 17343 bound_to 10162
  157.7504  131.0287  150.4061 LP  0  0  0  0  0  0  0  0  0  0  0  0  # atno 17370 bound_to 10713
  156.4341  130.3978  149.6741 LP  0  0  0  0  0  0  0  0  0  0  0  0  # atno 17371 bound_to 10713
  141.1741  133.6539  156.4763 LP  0  0  0  0  0  0  0  0  0  0  0  0  # atno 17394 bound_to 11000
  140.4475  134.6959  157.5023 LP  0  0  0  0  0  0  0  0  0  0  0  0  # atno 17395 bound_to 11000

$$$$
