AV-unprocessed.smi:1917|AV-procd|sdf|7768|dock9
  -GOLD-   22720 9513D 1   1.00000     0.00000
 Structure written by MMmdl.
 44 45  0  0  0  0  0  0  0  0  1 V2000
  151.1267  144.6747  160.5283 C   0  0  0  0  0  0  0  0  0  0  0  0
  151.9051  143.4297  160.9634 C   0  0  0  0  0  0  0  0  0  0  0  0
  151.5975  142.8970  162.0305 O   0  0  0  0  0  0  0  0  0  0  0  0
  152.8980  142.9538  160.1726 N   0  0  0  0  0  0  0  0  0  0  0  0
  153.1947  143.6198  158.9007 C   0  0  0  0  0  0  0  0  0  0  0  0
  153.7119  141.7686  160.4864 C   0  0  0  0  0  0  0  0  0  0  0  0
  153.3572  140.5597  159.6106 C   0  0  0  0  0  0  0  0  0  0  0  0
  154.2323  139.9385  159.0065 O   0  0  0  0  0  0  0  0  0  0  0  0
  152.0564  140.2359  159.5525 N   0  0  0  0  0  0  0  0  0  0  0  0
  151.5108  139.0906  158.8295 C   0  0  0  0  0  0  0  0  0  0  0  0
  151.3960  139.2720  157.3191 C   0  0  0  0  0  0  0  0  0  0  0  0
  152.4820  138.9139  156.4976 C   0  0  0  0  0  0  0  0  0  0  0  0
  152.3597  139.0887  155.1075 C   0  0  0  0  0  0  0  0  0  0  0  0
  151.2508  139.5816  154.5185 N   0  0  0  0  0  0  0  0  0  0  0  0
  150.1955  139.9328  155.2921 C   0  0  0  0  0  0  0  0  0  0  0  0
  149.0521  140.4194  154.6196 N   0  0  0  0  0  0  0  0  0  0  0  0
  148.0860  139.4603  154.0899 C   0  0  0  0  0  0  0  0  0  0  0  0
  147.1232  140.1500  153.1091 C   0  0  0  0  0  0  0  0  0  0  0  0
  146.5105  141.2676  153.7424 O   0  0  0  0  0  0  0  0  0  0  0  0
  147.4705  142.2459  154.1272 C   0  0  0  0  0  0  0  0  0  0  0  0
  148.4514  141.6433  155.1477 C   0  0  0  0  0  0  0  0  0  0  0  0
  150.2378  139.8005  156.7032 C   0  0  0  0  0  0  0  0  0  0  0  0
  151.7991  145.5070  160.3203 H   0  0  0  0  0  0  0  0  0  0  0  0
  150.4424  144.9925  161.3156 H   0  0  0  0  0  0  0  0  0  0  0  0
  150.5344  144.4668  159.6371 H   0  0  0  0  0  0  0  0  0  0  0  0
  153.5475  144.6376  159.0728 H   0  0  0  0  0  0  0  0  0  0  0  0
  152.3040  143.6668  158.2720 H   0  0  0  0  0  0  0  0  0  0  0  0
  153.9626  143.0959  158.3306 H   0  0  0  0  0  0  0  0  0  0  0  0
  154.7654  142.0163  160.3469 H   0  0  0  0  0  0  0  0  0  0  0  0
  153.6316  141.4794  161.5340 H   0  0  0  0  0  0  0  0  0  0  0  0
  151.4011  140.8017  160.0720 H   0  0  0  0  0  0  0  0  0  0  0  0
  152.1562  138.2332  159.0208 H   0  0  0  0  0  0  0  0  0  0  0  0
  150.5311  138.8356  159.2374 H   0  0  0  0  0  0  0  0  0  0  0  0
  153.3907  138.5116  156.9211 H   0  0  0  0  0  0  0  0  0  0  0  0
  153.1739  138.8234  154.4493 H   0  0  0  0  0  0  0  0  0  0  0  0
  148.6008  138.6534  153.5677 H   0  0  0  0  0  0  0  0  0  0  0  0
  147.5270  139.0178  154.9154 H   0  0  0  0  0  0  0  0  0  0  0  0
  147.6495  140.4707  152.2085 H   0  0  0  0  0  0  0  0  0  0  0  0
  146.3487  139.4515  152.7918 H   0  0  0  0  0  0  0  0  0  0  0  0
  148.0025  142.6145  153.2485 H   0  0  0  0  0  0  0  0  0  0  0  0
  146.9522  143.0989  154.5653 H   0  0  0  0  0  0  0  0  0  0  0  0
  147.9275  141.4049  156.0741 H   0  0  0  0  0  0  0  0  0  0  0  0
  149.2067  142.3904  155.3917 H   0  0  0  0  0  0  0  0  0  0  0  0
  149.3999  140.0990  157.3131 H   0  0  0  0  0  0  0  0  0  0  0  0
  1  2  1  0  0  0  0
  1 23  1  0  0  0  0
  1 24  1  0  0  0  0
  1 25  1  0  0  0  0
  2  3  2  0  0  0  0
  2  4  1  0  0  0  0
  4  5  1  0  0  0  0
  4  6  1  0  0  0  0
  5 26  1  0  0  0  0
  5 27  1  0  0  0  0
  5 28  1  0  0  0  0
  6  7  1  0  0  0  0
  6 29  1  0  0  0  0
  6 30  1  0  0  0  0
  7  8  2  0  0  0  0
  7  9  1  0  0  0  0
  9 10  1  0  0  0  0
  9 31  1  0  0  0  0
 10 11  1  0  0  0  0
 10 32  1  0  0  0  0
 10 33  1  0  0  0  0
 11 22  1  0  0  0  0
 11 12  2  0  0  0  0
 12 13  1  0  0  0  0
 12 34  1  0  0  0  0
 13 14  2  0  0  0  0
 13 35  1  0  0  0  0
 14 15  1  0  0  0  0
 15 16  1  0  0  0  0
 15 22  2  0  0  0  0
 16 21  1  0  0  0  0
 16 17  1  0  0  0  0
 17 18  1  0  0  0  0
 17 36  1  0  0  0  0
 17 37  1  0  0  0  0
 18 19  1  0  0  0  0
 18 38  1  0  0  0  0
 18 39  1  0  0  0  0
 19 20  1  0  0  0  0
 20 21  1  0  0  0  0
 20 40  1  0  0  0  0
 20 41  1  0  0  0  0
 21 42  1  0  0  0  0
 21 43  1  0  0  0  0
 22 44  1  0  0  0  0
M  END
> <s_m_source_file>
AV-unprocessed.smi

> <i_m_source_file_index>
1917

> <i_lp_mmshare_version>
43012

> <i_f3d_flags>
0

> <s_epik_input>
W0NIM11DKD1PKU4oW0NIM10pW0NIMl1DKD1PKVtOSF1bQ0gyXWMxW2NIXVtjSF1uYyhbY0hdMSlOMltDSDJdW0NIMl1PW0NIMl1bQ0gyXTI=

> <s_epik_cmdline>
J2VwaWtfcHl0aG9uJywgJy1waCcsICc3LjAnLCAnLXRuJywgJzgnLCAnLW1hJywgJzIwMCcsICctbWV0YWxfYmluZGluZycsICctaW1hZScsICc8aW5maWxlLm1hZT4nLCAnLW9tYWUnLCAnPG91dGZpbGUubWFlPic=

> <r_lp_tautomer_probability>
1

> <r_epik_Ionization_Penalty>
0.00469141

> <r_epik_Ionization_Penalty_Charging>
0

> <r_epik_Ionization_Penalty_Neutral>
0.00469141

> <r_epik_State_Penalty>
0.00339539

> <r_epik_Charging_Adjusted_Penalty>
0.00339539

> <i_epik_Tot_Q>
0

> <i_epik_Tot_abs_Q>
0

> <r_epik_Metal_State_Penalty>
-0

> <b_epik_Metal_Only>
0

> <s_lp_Force_Field>
OPLS_2005

> <r_lp_Energy>
17.0747

> <b_lp_Chiralities_Consistent>
1

> <s_lp_Variant>
AV-unprocessed.smi:1917-1

> <Gold.Version>
5.8.1

> <Gold.Id.Protein>
6NUR|6NUR_protein|mol2

> <Gold.PLP.Fitness>
47.0816

> <Gold.PLP.PLP>
-40.6945

> <Gold.PLP.part.hbond>
-3.0000

> <Gold.PLP.part.metal>
0.0000

> <Gold.PLP.part.buried>
-3.5554

> <Gold.PLP.part.nonpolar>
-35.9381

> <Gold.PLP.part.repulsive>
1.9052

> <Gold.PLP.ligand.clash>
0.0000

> <Gold.PLP.ligand.torsion>
1.1908

> <Gold.PLP.Chemscore.Hbond>
2.7517

> <Gold.PLP.Chemscore.CHOScore>
0.0000

> <Gold.PLP.Chemscore.Metal>
0.0000

> <Gold.Chemscore.Hbonds>
donor molecule, donor type, donor heavy atom, donor atom, acceptor molecule, acceptor atom, score
      P1  H  6933  6945       L1     3  0.80
      P1  H  7989  7998       L1    14  1.00
      P1  H  7997  8010       L1     8  1.00

> <Gold.PLP.Chemscore.Internal.Correction>
0.5137

> <Gold.Rescore>
     Score         DG    S(hbond)    S(metal)    S(lipo)     H(rot)  DE(clash)    DE(int)     intcor
     16.80     -18.24       2.20        0.00      89.85       2.00       0.32       1.12       ----

> <Gold.Chemscore.Fitness>
16.7961

> <Gold.Chemscore.DG>
-18.2363

> <Gold.Chemscore.ZeroCoef>
-5.4800

> <Gold.Chemscore.Hbond>
2.2012

> <Gold.Chemscore.Metal>
0.0000

> <Gold.Chemscore.Lipo>
89.8549

> <Gold.Chemscore.Internal_Hbond>
0.0000

> <Gold.Chemscore.DEClash>
0.3168

> <Gold.Chemscore.DEInternal>
1.1234

> <Gold.Chemscore.Rot>
1.9956

> <Gold.Chemscore.Internal.Correction>
   9.000000E+99

> <Gold.Chemscore.Hbonds>
donor molecule, donor type, donor heavy atom, donor atom, acceptor molecule, acceptor atom, score
      P1  H  6933  6945       L1     3  0.79
      P1  H  7989  7998       L1    14  0.55
      P1  H  7997  8010       L1     8  0.96

> <Gold.Chemscore.Hbond.Weighted>
-7.3519

> <Gold.Chemscore.Metal.Weighted>
-0.0000

> <Gold.Chemscore.Lipo.Weighted>
-10.5130

> <Gold.Chemscore.Internal_Hbond.Weighted>
0.0000

> <Gold.Chemscore.DEClash.Weighted>
0.3168

> <Gold.Chemscore.DEInternal.Weighted>
1.1234

> <Gold.Chemscore.Rot.Weighted>
5.1087

> <Gold.Chemscore.Internal.Correction.Weighted>
   9.000000E+99

> <Gold.Protein.RotatedTorsions>
[ 6907 6896 6895 6894 ] final  -40.27 input  -60.11 | X-H torsion
[ 7974 7965 7964 7962 ] final -117.07 input  175.53 | X-H torsion
[ 8008 7997 7996 7995 ] final    2.85 input   59.86 | X-H torsion
[ 10167 10162 10161 10158 ] final -178.17 input  -65.29 | X-H torsion
[ 10718 10713 10712 10709 ] final   -8.21 input   66.30 | X-H torsion
[ 10763 10752 10751 10750 ] final   38.94 input  -60.55 | X-H torsion
[ 11005 11000 10999 10996 ] final  -61.13 input  -57.11 | X-H torsion

> <Gold.Protein.ActiveResidues>
 VAL166  LYS551  ARG553  GLY616  TRP617  ASP618  TYR619  PRO620  LYS621  CYS622 
 ASP623  PHE694  ASN695  SER759  ASP760  ASP761  ALA762  ILE779  LEU786  VAL792 
 PHE793  MET794  SER795  GLU796  ALA797  LYS798  CYS799  TRP800  GLU811  SER814 

> <Gold.Protein.RotatedAtoms>
  150.9804  134.9160  159.7840 H   0  0  0  0  0  0  0  0  0  0  0  0  # atno 6907 bound_to 6896
  152.5220  134.3418  159.9230 H   0  0  0  0  0  0  0  0  0  0  0  0  # atno 6908 bound_to 6896
  151.3426  133.3915  159.2707 H   0  0  0  0  0  0  0  0  0  0  0  0  # atno 6909 bound_to 6896
  145.0894  140.8480  143.3991 H   0  0  0  0  0  0  0  0  0  0  0  0  # atno 7974 bound_to 7965
  154.6965  140.2664  155.6761 H   0  0  0  0  0  0  0  0  0  0  0  0  # atno 8008 bound_to 7997
  156.2750  140.2780  156.1485 H   0  0  0  0  0  0  0  0  0  0  0  0  # atno 8009 bound_to 7997
  155.0823  140.0372  157.2633 H   0  0  0  0  0  0  0  0  0  0  0  0  # atno 8010 bound_to 7997
  139.5445  144.2273  152.0960 H   0  0  0  0  0  0  0  0  0  0  0  0  # atno 10167 bound_to 10162
  156.7060  130.5107  149.5904 H   0  0  0  0  0  0  0  0  0  0  0  0  # atno 10718 bound_to 10713
  152.9984  135.6235  154.2385 H   0  0  0  0  0  0  0  0  0  0  0  0  # atno 10763 bound_to 10752
  154.2126  135.2799  155.2955 H   0  0  0  0  0  0  0  0  0  0  0  0  # atno 10764 bound_to 10752
  154.5594  135.5709  153.7052 H   0  0  0  0  0  0  0  0  0  0  0  0  # atno 10765 bound_to 10752
  141.1313  133.6627  156.5328 H   0  0  0  0  0  0  0  0  0  0  0  0  # atno 11005 bound_to 11000
  145.1083  139.2774  143.5650 LP  0  0  0  0  0  0  0  0  0  0  0  0  # atno 17320 bound_to 7965
  146.3531  140.0671  142.8625 LP  0  0  0  0  0  0  0  0  0  0  0  0  # atno 17321 bound_to 7965
  140.1757  144.4892  150.6555 LP  0  0  0  0  0  0  0  0  0  0  0  0  # atno 17342 bound_to 10162
  140.6688  143.2278  151.5677 LP  0  0  0  0  0  0  0  0  0  0  0  0  # atno 17343 bound_to 10162
  156.1695  130.6427  151.0819 LP  0  0  0  0  0  0  0  0  0  0  0  0  # atno 17370 bound_to 10713
  157.6955  131.0795  150.6982 LP  0  0  0  0  0  0  0  0  0  0  0  0  # atno 17371 bound_to 10713
  140.4202  134.7194  157.4885 LP  0  0  0  0  0  0  0  0  0  0  0  0  # atno 17394 bound_to 11000
  140.0365  134.6329  155.9036 LP  0  0  0  0  0  0  0  0  0  0  0  0  # atno 17395 bound_to 11000

$$$$
