AV-unprocessed.smi:1768|AV-procd|sdf|7147|dock7
  -GOLD-   22720 8383D 1   1.00000     0.00000
 Structure written by MMmdl.
 32 33  0  0  0  0  0  0  0  0  2 V2000
  146.6481  141.2954  153.5295 C   0  0  0  0  0  0  0  0  0  0  0  0
  147.9482  140.7708  154.0343 C   0  0  0  0  0  0  0  0  0  0  0  0
  149.1042  141.4139  153.8539 N   0  0  0  0  0  0  0  0  0  0  0  0
  150.1747  140.7323  154.4149 N   0  0  0  0  0  0  0  0  0  0  0  0
  149.8135  139.5907  155.0177 C   0  0  0  0  0  0  0  0  0  0  0  0
  150.7018  138.7824  155.6196 N   0  5  0  0  0  0  0  0  0  0  0  0
  151.7530  139.3101  156.2875 C   0  0  0  0  0  0  0  0  0  0  0  0
  152.9369  138.9956  156.1474 O   0  0  0  0  0  0  0  0  0  0  0  0
  151.4058  140.2632  157.1649 N   0  0  0  0  0  0  0  0  0  0  0  0
  152.3030  141.0387  158.0213 C   0  0  2  0  0  0  0  0  0  0  0  0
  152.4307  140.3367  159.3809 C   0  0  0  0  0  0  0  0  0  0  0  0
  151.7753  142.4793  158.1627 C   0  0  2  0  0  0  0  0  0  0  0  0
  152.7350  143.4474  158.8537 C   0  0  0  0  0  0  0  0  0  0  0  0
  151.8107  144.5532  159.3282 C   0  0  0  0  0  0  0  0  0  0  0  0
  150.4461  143.8658  159.4438 C   0  0  0  0  0  0  0  0  0  0  0  0
  150.6466  142.5210  159.0233 O   0  0  0  0  0  0  0  0  0  0  0  0
  148.0846  139.2573  154.9135 S   0  0  0  0  0  0  0  0  0  0  0  0
  146.4167  142.2454  154.0115 H   0  0  0  0  0  0  0  0  0  0  0  0
  145.8451  140.5901  153.7438 H   0  0  0  0  0  0  0  0  0  0  0  0
  146.6985  141.4504  152.4516 H   0  0  0  0  0  0  0  0  0  0  0  0
  150.4221  140.4784  157.2351 H   0  0  0  0  0  0  0  0  0  0  0  0
  153.2996  141.0893  157.5802 H   0  0  0  0  0  0  0  0  0  0  0  0
  153.1089  140.8779  160.0413 H   0  0  0  0  0  0  0  0  0  0  0  0
  152.8242  139.3266  159.2636 H   0  0  0  0  0  0  0  0  0  0  0  0
  151.4655  140.2628  159.8827 H   0  0  0  0  0  0  0  0  0  0  0  0
  151.4896  142.8790  157.1875 H   0  0  0  0  0  0  0  0  0  0  0  0
  153.2044  142.9636  159.7114 H   0  0  0  0  0  0  0  0  0  0  0  0
  153.5253  143.8077  158.1943 H   0  0  0  0  0  0  0  0  0  0  0  0
  152.1433  144.9839  160.2730 H   0  0  0  0  0  0  0  0  0  0  0  0
  151.7644  145.3550  158.5902 H   0  0  0  0  0  0  0  0  0  0  0  0
  150.0597  143.8856  160.4632 H   0  0  0  0  0  0  0  0  0  0  0  0
  149.7148  144.3482  158.7943 H   0  0  0  0  0  0  0  0  0  0  0  0
  1  2  1  0  0  0  0
  1 18  1  0  0  0  0
  1 19  1  0  0  0  0
  1 20  1  0  0  0  0
  2 17  1  0  0  0  0
  2  3  2  0  0  0  0
  3  4  1  0  0  0  0
  4  5  2  0  0  0  0
  5  6  1  0  0  0  0
  5 17  1  0  0  0  0
  6  7  1  0  0  0  0
  7  8  2  0  0  0  0
  7  9  1  0  0  0  0
  9 10  1  0  0  0  0
  9 21  1  0  0  0  0
 10 11  1  0  0  0  0
 10 12  1  0  0  0  0
 10 22  1  0  0  0  0
 11 23  1  0  0  0  0
 11 24  1  0  0  0  0
 11 25  1  0  0  0  0
 12 16  1  0  0  0  0
 12 13  1  0  0  0  0
 12 26  1  0  0  0  0
 13 14  1  0  0  0  0
 13 27  1  0  0  0  0
 13 28  1  0  0  0  0
 14 15  1  0  0  0  0
 14 29  1  0  0  0  0
 14 30  1  0  0  0  0
 15 16  1  0  0  0  0
 15 31  1  0  0  0  0
 15 32  1  0  0  0  0
M  CHG  1   6  -1
M  END
> <s_m_source_file>
AV-unprocessed.smi

> <i_m_source_file_index>
1768

> <i_lp_mmshare_version>
43012

> <i_f3d_flags>
0

> <s_epik_input>
W0NIM11jMW5uYyhzMSlbTkhdQyg9TylbTkhdW0NASF0oW0NIM10pW0NAQEhdMltDSDJdW0NIMl1bQ0gyXU8y

> <s_epik_cmdline>
J2VwaWtfcHl0aG9uJywgJy1waCcsICc3LjAnLCAnLXRuJywgJzgnLCAnLW1hJywgJzIwMCcsICctbWV0YWxfYmluZGluZycsICctaW1hZScsICc8aW5maWxlLm1hZT4nLCAnLW9tYWUnLCAnPG91dGZpbGUubWFlPic=

> <r_lp_tautomer_probability>
1

> <r_epik_Ionization_Penalty>
4.3376

> <r_epik_Ionization_Penalty_Charging>
4.19392

> <r_epik_Ionization_Penalty_Neutral>
0.143681

> <r_epik_State_Penalty>
4.19342

> <r_epik_Charging_Adjusted_Penalty>
8.38735

> <i_epik_Tot_Q>
-1

> <i_epik_Tot_abs_Q>
1

> <r_epik_Metal_State_Penalty>
0.686065

> <b_epik_Metal_Only>
1

> <s_lp_Force_Field>
OPLS_2005

> <r_lp_Energy>
15.5769

> <b_lp_Chiralities_Consistent>
1

> <s_lp_Variant>
AV-unprocessed.smi:1768-5

> <Gold.Version>
5.8.1

> <Gold.Id.Protein>
6NUR|6NUR_protein|mol2

> <Gold.PLP.Fitness>
35.1941

> <Gold.PLP.PLP>
-29.7285

> <Gold.PLP.part.hbond>
-4.1220

> <Gold.PLP.part.metal>
0.0000

> <Gold.PLP.part.buried>
-5.2612

> <Gold.PLP.part.nonpolar>
-21.3368

> <Gold.PLP.part.repulsive>
0.8785

> <Gold.PLP.ligand.clash>
0.0000

> <Gold.PLP.ligand.torsion>
1.1875

> <Gold.PLP.Chemscore.Hbond>
2.6000

> <Gold.PLP.Chemscore.CHOScore>
0.0000

> <Gold.PLP.Chemscore.Metal>
0.0000

> <Gold.Chemscore.Hbonds>
donor molecule, donor type, donor heavy atom, donor atom, acceptor molecule, acceptor atom, score
      P1  H  7989  7998       L1     4  0.77
      P1  H  7997  8009       L1     8  1.00
      P1  H  8011  8017       L1     3  0.77

> <Gold.PLP.Chemscore.Internal.Correction>
0.0406

> <Gold.Rescore>
     Score         DG    S(hbond)    S(metal)    S(lipo)     H(rot)  DE(clash)    DE(int)     intcor
     16.84     -18.00       2.04        0.00      76.58       1.28       0.08       1.08       ----

> <Gold.Chemscore.Fitness>
16.8417

> <Gold.Chemscore.DG>
-17.9981

> <Gold.Chemscore.ZeroCoef>
-5.4800

> <Gold.Chemscore.Hbond>
2.0444

> <Gold.Chemscore.Metal>
0.0000

> <Gold.Chemscore.Lipo>
76.5839

> <Gold.Chemscore.Internal_Hbond>
0.0000

> <Gold.Chemscore.DEClash>
0.0764

> <Gold.Chemscore.DEInternal>
1.0800

> <Gold.Chemscore.Rot>
1.2776

> <Gold.Chemscore.Internal.Correction>
   9.000000E+99

> <Gold.Chemscore.Hbonds>
donor molecule, donor type, donor heavy atom, donor atom, acceptor molecule, acceptor atom, score
      P1  H  7989  7998       L1     4  0.62
      P1  H  7997  8009       L1     8  0.94
      P1  H  8011  8017       L1     3  0.45

> <Gold.Chemscore.Hbond.Weighted>
-6.8284

> <Gold.Chemscore.Metal.Weighted>
-0.0000

> <Gold.Chemscore.Lipo.Weighted>
-8.9603

> <Gold.Chemscore.Internal_Hbond.Weighted>
0.0000

> <Gold.Chemscore.DEClash.Weighted>
0.0764

> <Gold.Chemscore.DEInternal.Weighted>
1.0800

> <Gold.Chemscore.Rot.Weighted>
3.2706

> <Gold.Chemscore.Internal.Correction.Weighted>
   9.000000E+99

> <Gold.Protein.RotatedTorsions>
[ 6907 6896 6895 6894 ] final   -7.11 input  -60.11 | X-H torsion
[ 7974 7965 7964 7962 ] final   96.11 input  175.53 | X-H torsion
[ 8008 7997 7996 7995 ] final  179.01 input   59.86 | X-H torsion
[ 10167 10162 10161 10158 ] final  140.51 input  -65.29 | X-H torsion
[ 10718 10713 10712 10709 ] final  113.68 input   66.30 | X-H torsion
[ 10763 10752 10751 10750 ] final  123.40 input  -60.55 | X-H torsion
[ 11005 11000 10999 10996 ] final -121.74 input  -57.11 | X-H torsion

> <Gold.Protein.ActiveResidues>
 VAL166  LYS551  ARG553  GLY616  TRP617  ASP618  TYR619  PRO620  LYS621  CYS622 
 ASP623  PHE694  ASN695  SER759  ASP760  ASP761  ALA762  ILE779  LEU786  VAL792 
 PHE793  MET794  SER795  GLU796  ALA797  LYS798  CYS799  TRP800  GLU811  SER814 

> <Gold.Protein.RotatedAtoms>
  151.4548  135.1033  159.9707 H   0  0  0  0  0  0  0  0  0  0  0  0  # atno 6907 bound_to 6896
  152.4875  133.8407  159.7161 H   0  0  0  0  0  0  0  0  0  0  0  0  # atno 6908 bound_to 6896
  150.8997  133.7074  159.2909 H   0  0  0  0  0  0  0  0  0  0  0  0  # atno 6909 bound_to 6896
  145.4432  139.2299  143.3080 H   0  0  0  0  0  0  0  0  0  0  0  0  # atno 7974 bound_to 7965
  156.0482  140.1319  157.0080 H   0  0  0  0  0  0  0  0  0  0  0  0  # atno 8008 bound_to 7997
  154.4422  140.1016  156.6407 H   0  0  0  0  0  0  0  0  0  0  0  0  # atno 8009 bound_to 7997
  155.5564  140.3464  155.4483 H   0  0  0  0  0  0  0  0  0  0  0  0  # atno 8010 bound_to 7997
  139.5046  144.6229  151.6007 H   0  0  0  0  0  0  0  0  0  0  0  0  # atno 10167 bound_to 10162
  157.6325  131.0987  150.7075 H   0  0  0  0  0  0  0  0  0  0  0  0  # atno 10718 bound_to 10713
  153.6450  135.3372  155.3083 H   0  0  0  0  0  0  0  0  0  0  0  0  # atno 10763 bound_to 10752
  154.8551  135.4327  154.1964 H   0  0  0  0  0  0  0  0  0  0  0  0  # atno 10764 bound_to 10752
  153.2893  135.7015  153.7383 H   0  0  0  0  0  0  0  0  0  0  0  0  # atno 10765 bound_to 10752
  141.0047  134.0351  157.3492 H   0  0  0  0  0  0  0  0  0  0  0  0  # atno 11005 bound_to 11000
  146.2545  140.5183  142.8879 LP  0  0  0  0  0  0  0  0  0  0  0  0  # atno 17320 bound_to 7965
  144.8108  140.6382  143.6416 LP  0  0  0  0  0  0  0  0  0  0  0  0  # atno 17321 bound_to 7965
  140.5937  143.9734  150.6341 LP  0  0  0  0  0  0  0  0  0  0  0  0  # atno 17342 bound_to 10162
  140.2923  143.3316  152.1051 LP  0  0  0  0  0  0  0  0  0  0  0  0  # atno 17343 bound_to 10162
  156.7412  130.4740  149.5477 LP  0  0  0  0  0  0  0  0  0  0  0  0  # atno 17370 bound_to 10713
  156.1538  130.6328  151.0630 LP  0  0  0  0  0  0  0  0  0  0  0  0  # atno 17371 bound_to 10713
  139.9057  135.0178  156.7475 LP  0  0  0  0  0  0  0  0  0  0  0  0  # atno 17394 bound_to 11000
  140.6832  133.9456  155.7922 LP  0  0  0  0  0  0  0  0  0  0  0  0  # atno 17395 bound_to 11000

$$$$
