AV-unprocessed.smi:3321|AV-procd|sdf|12771|dock5
  -GOLD-   2272019113D 1   1.00000     0.00000
 Structure written by MMmdl.
 40 41  0  0  0  0  0  0  0  0  1 V2000
  149.3336  143.1778  158.5940 C   0  0  0  0  0  0  0  0  0  0  0  0
  150.6456  143.0279  157.8081 C   0  0  2  0  0  0  0  0  0  0  0  0
  150.3545  142.5015  156.4610 N   0  0  0  0  0  0  0  0  0  0  0  0
  149.5762  141.2672  156.4711 C   0  0  0  0  0  0  0  0  0  0  0  0
  149.4225  140.7495  155.0345 C   0  0  0  0  0  0  0  0  0  0  0  0
  150.2952  139.6194  154.7822 N   0  0  0  0  0  0  0  0  0  0  0  0
  149.9538  138.2945  154.6108 C   0  0  0  0  0  0  0  0  0  0  0  0
  151.1120  137.5998  154.4090 C   0  0  0  0  0  0  0  0  0  0  0  0
  152.1222  138.6000  154.4768 C   0  0  0  0  0  0  0  0  0  0  0  0
  151.6302  139.8078  154.7012 N   0  0  0  0  0  0  0  0  0  0  0  0
  151.6434  142.1565  158.6077 C   0  0  0  0  0  0  0  0  0  0  0  0
  151.6147  140.9365  158.4320 O   0  0  0  0  0  0  0  0  0  0  0  0
  152.5206  142.7346  159.4669 N   0  0  0  0  0  0  0  0  0  0  0  0
  152.4502  144.1582  159.8224 C   0  0  0  0  0  0  0  0  0  0  0  0
  151.9359  144.2715  161.2705 C   0  0  0  0  0  0  0  0  0  0  0  0
  152.8218  143.4637  162.2408 C   0  0  0  0  0  0  0  0  0  0  0  0
  153.0686  142.0278  161.7361 C   0  0  0  0  0  0  0  0  0  0  0  0
  153.5379  142.0439  160.2706 C   0  0  0  0  0  0  0  0  0  0  0  0
  149.5057  143.6038  159.5831 H   0  0  0  0  0  0  0  0  0  0  0  0
  148.8368  142.2160  158.7296 H   0  0  0  0  0  0  0  0  0  0  0  0
  148.6393  143.8377  158.0729 H   0  0  0  0  0  0  0  0  0  0  0  0
  151.0655  144.0203  157.6532 H   0  0  0  0  0  0  0  0  0  0  0  0
  149.9002  143.1936  155.8823 H   0  0  0  0  0  0  0  0  0  0  0  0
  150.0799  140.5196  157.0858 H   0  0  0  0  0  0  0  0  0  0  0  0
  148.5890  141.4327  156.9032 H   0  0  0  0  0  0  0  0  0  0  0  0
  148.3934  140.4382  154.8490 H   0  0  0  0  0  0  0  0  0  0  0  0
  149.6511  141.5364  154.3137 H   0  0  0  0  0  0  0  0  0  0  0  0
  148.9272  137.9602  154.6478 H   0  0  0  0  0  0  0  0  0  0  0  0
  151.2213  136.5388  154.2401 H   0  0  0  0  0  0  0  0  0  0  0  0
  153.1911  138.4850  154.3712 H   0  0  0  0  0  0  0  0  0  0  0  0
  153.4408  144.6071  159.7373 H   0  0  0  0  0  0  0  0  0  0  0  0
  151.8080  144.7345  159.1554 H   0  0  0  0  0  0  0  0  0  0  0  0
  151.9024  145.3172  161.5774 H   0  0  0  0  0  0  0  0  0  0  0  0
  150.9107  143.9015  161.3199 H   0  0  0  0  0  0  0  0  0  0  0  0
  153.7815  143.9708  162.3480 H   0  0  0  0  0  0  0  0  0  0  0  0
  152.3727  143.4430  163.2340 H   0  0  0  0  0  0  0  0  0  0  0  0
  153.8099  141.5335  162.3645 H   0  0  0  0  0  0  0  0  0  0  0  0
  152.1505  141.4443  161.8197 H   0  0  0  0  0  0  0  0  0  0  0  0
  153.7712  141.0392  159.9243 H   0  0  0  0  0  0  0  0  0  0  0  0
  154.4817  142.5858  160.1944 H   0  0  0  0  0  0  0  0  0  0  0  0
  1  2  1  0  0  0  0
  1 19  1  0  0  0  0
  1 20  1  0  0  0  0
  1 21  1  0  0  0  0
  2  3  1  0  0  0  0
  2 11  1  0  0  0  0
  2 22  1  0  0  0  0
  3  4  1  0  0  0  0
  3 23  1  0  0  0  0
  4  5  1  0  0  0  0
  4 24  1  0  0  0  0
  4 25  1  0  0  0  0
  5  6  1  0  0  0  0
  5 26  1  0  0  0  0
  5 27  1  0  0  0  0
  6 10  1  0  0  0  0
  6  7  1  0  0  0  0
  7  8  2  0  0  0  0
  7 28  1  0  0  0  0
  8  9  1  0  0  0  0
  8 29  1  0  0  0  0
  9 10  2  0  0  0  0
  9 30  1  0  0  0  0
 11 12  2  0  0  0  0
 11 13  1  0  0  0  0
 13 18  1  0  0  0  0
 13 14  1  0  0  0  0
 14 15  1  0  0  0  0
 14 31  1  0  0  0  0
 14 32  1  0  0  0  0
 15 16  1  0  0  0  0
 15 33  1  0  0  0  0
 15 34  1  0  0  0  0
 16 17  1  0  0  0  0
 16 35  1  0  0  0  0
 16 36  1  0  0  0  0
 17 18  1  0  0  0  0
 17 37  1  0  0  0  0
 17 38  1  0  0  0  0
 18 39  1  0  0  0  0
 18 40  1  0  0  0  0
M  END
> <s_m_source_file>
AV-unprocessed.smi

> <i_m_source_file_index>
3321

> <i_lp_mmshare_version>
43012

> <i_f3d_flags>
0

> <s_epik_input>
W0NIMl0xW0NIMl1bQ0gyXVtDSDJdW0NIMl1OMUMoPU8pW0NASF0oW0NIM10pW05IXVtDSDJdW0NIMl1uMltjSF1bY0hdW2NIXW4y

> <s_epik_cmdline>
J2VwaWtfcHl0aG9uJywgJy1waCcsICc3LjAnLCAnLXRuJywgJzgnLCAnLW1hJywgJzIwMCcsICctbWV0YWxfYmluZGluZycsICctaW1hZScsICc8aW5maWxlLm1hZT4nLCAnLW9tYWUnLCAnPG91dGZpbGUubWFlPic=

> <r_lp_tautomer_probability>
1

> <r_epik_Ionization_Penalty>
0.736446

> <r_epik_Ionization_Penalty_Charging>
0

> <r_epik_Ionization_Penalty_Neutral>
0.736446

> <r_epik_State_Penalty>
0.761204

> <r_epik_Charging_Adjusted_Penalty>
0.761204

> <i_epik_Tot_Q>
0

> <i_epik_Tot_abs_Q>
0

> <r_epik_Metal_State_Penalty>
0.760551

> <b_epik_Metal_Only>
0

> <s_lp_Force_Field>
OPLS_2005

> <r_lp_Energy>
27.234

> <b_lp_Chiralities_Consistent>
1

> <s_lp_Variant>
AV-unprocessed.smi:3321-3

> <Gold.Version>
5.8.1

> <Gold.Id.Protein>
6NUR|6NUR_protein|mol2

> <Gold.PLP.Fitness>
49.8135

> <Gold.PLP.PLP>
-46.2768

> <Gold.PLP.part.hbond>
-2.0000

> <Gold.PLP.part.metal>
0.0000

> <Gold.PLP.part.buried>
-5.8086

> <Gold.PLP.part.nonpolar>
-39.0712

> <Gold.PLP.part.repulsive>
0.0685

> <Gold.PLP.ligand.clash>
0.0000

> <Gold.PLP.ligand.torsion>
1.2067

> <Gold.PLP.Chemscore.Hbond>
1.9500

> <Gold.PLP.Chemscore.CHOScore>
0.0000

> <Gold.PLP.Chemscore.Metal>
0.0000

> <Gold.Chemscore.Hbonds>
donor molecule, donor type, donor heavy atom, donor atom, acceptor molecule, acceptor atom, score
      L1  H     3    23       P1  8028  1.00
      P1  H  7989  7998       L1    10  0.95

> <Gold.PLP.Chemscore.Internal.Correction>
0.1001

> <Gold.Rescore>
     Score         DG    S(hbond)    S(metal)    S(lipo)     H(rot)  DE(clash)    DE(int)     intcor
     16.46     -19.04       1.80        0.00     102.25       1.73       0.13       2.44       ----

> <Gold.Chemscore.Fitness>
16.4649

> <Gold.Chemscore.DG>
-19.0381

> <Gold.Chemscore.ZeroCoef>
-5.4800

> <Gold.Chemscore.Hbond>
1.8016

> <Gold.Chemscore.Metal>
0.0000

> <Gold.Chemscore.Lipo>
102.2521

> <Gold.Chemscore.Internal_Hbond>
0.0000

> <Gold.Chemscore.DEClash>
0.1347

> <Gold.Chemscore.DEInternal>
2.4385

> <Gold.Chemscore.Rot>
1.7277

> <Gold.Chemscore.Internal.Correction>
   9.000000E+99

> <Gold.Chemscore.Hbonds>
donor molecule, donor type, donor heavy atom, donor atom, acceptor molecule, acceptor atom, score
      L1  H     3    23       P1  8028  0.96
      P1  H  7989  7998       L1    10  0.20

> <Gold.Chemscore.Hbond.Weighted>
-6.0174

> <Gold.Chemscore.Metal.Weighted>
-0.0000

> <Gold.Chemscore.Lipo.Weighted>
-11.9635

> <Gold.Chemscore.Internal_Hbond.Weighted>
0.0000

> <Gold.Chemscore.DEClash.Weighted>
0.1347

> <Gold.Chemscore.DEInternal.Weighted>
2.4385

> <Gold.Chemscore.Rot.Weighted>
4.4228

> <Gold.Chemscore.Internal.Correction.Weighted>
   9.000000E+99

> <Gold.Protein.RotatedTorsions>
[ 6907 6896 6895 6894 ] final   75.62 input  -60.11 | X-H torsion
[ 7974 7965 7964 7962 ] final  -11.54 input  175.53 | X-H torsion
[ 8008 7997 7996 7995 ] final  -22.30 input   59.86 | X-H torsion
[ 10167 10162 10161 10158 ] final -102.42 input  -65.29 | X-H torsion
[ 10718 10713 10712 10709 ] final    2.38 input   66.30 | X-H torsion
[ 10763 10752 10751 10750 ] final -136.69 input  -60.55 | X-H torsion
[ 11005 11000 10999 10996 ] final -108.49 input  -57.11 | X-H torsion

> <Gold.Protein.ActiveResidues>
 VAL166  LYS551  ARG553  GLY616  TRP617  ASP618  TYR619  PRO620  LYS621  CYS622 
 ASP623  PHE694  ASN695  SER759  ASP760  ASP761  ALA762  ILE779  LEU786  VAL792 
 PHE793  MET794  SER795  GLU796  ALA797  LYS798  CYS799  TRP800  GLU811  SER814 

> <Gold.Protein.RotatedAtoms>
  152.5035  134.4092  159.9442 H   0  0  0  0  0  0  0  0  0  0  0  0  # atno 6907 bound_to 6896
  151.4059  133.3736  159.2746 H   0  0  0  0  0  0  0  0  0  0  0  0  # atno 6908 bound_to 6896
  150.9327  134.8762  159.7621 H   0  0  0  0  0  0  0  0  0  0  0  0  # atno 6909 bound_to 6896
  146.2184  140.2926  142.8369 H   0  0  0  0  0  0  0  0  0  0  0  0  # atno 7974 bound_to 7965
  154.4652  140.2011  156.0137 H   0  0  0  0  0  0  0  0  0  0  0  0  # atno 8008 bound_to 7997
  156.0914  140.3257  155.7792 H   0  0  0  0  0  0  0  0  0  0  0  0  # atno 8009 bound_to 7997
  155.4950  140.0549  157.2939 H   0  0  0  0  0  0  0  0  0  0  0  0  # atno 8010 bound_to 7997
  140.2308  143.3608  152.0888 H   0  0  0  0  0  0  0  0  0  0  0  0  # atno 10167 bound_to 10162
  156.8622  130.5591  149.5662 H   0  0  0  0  0  0  0  0  0  0  0  0  # atno 10718 bound_to 10713
  154.8678  135.3665  154.5102 H   0  0  0  0  0  0  0  0  0  0  0  0  # atno 10763 bound_to 10752
  153.5737  135.7020  153.5498 H   0  0  0  0  0  0  0  0  0  0  0  0  # atno 10764 bound_to 10752
  153.3519  135.4070  155.1615 H   0  0  0  0  0  0  0  0  0  0  0  0  # atno 10765 bound_to 10752
  141.0898  133.9074  157.2101 H   0  0  0  0  0  0  0  0  0  0  0  0  # atno 11005 bound_to 11000
  144.9116  140.7763  143.5804 LP  0  0  0  0  0  0  0  0  0  0  0  0  # atno 17320 bound_to 7965
  145.2857  139.1902  143.4767 LP  0  0  0  0  0  0  0  0  0  0  0  0  # atno 17321 bound_to 7965
  139.5110  144.6894  151.5800 LP  0  0  0  0  0  0  0  0  0  0  0  0  # atno 17342 bound_to 10162
  140.6186  143.9301  150.6508 LP  0  0  0  0  0  0  0  0  0  0  0  0  # atno 17343 bound_to 10162
  156.0770  130.5790  150.9493 LP  0  0  0  0  0  0  0  0  0  0  0  0  # atno 17370 bound_to 10713
  157.6243  131.0927  150.8563 LP  0  0  0  0  0  0  0  0  0  0  0  0  # atno 17371 bound_to 10713
  139.9722  135.0124  156.9542 LP  0  0  0  0  0  0  0  0  0  0  0  0  # atno 17394 bound_to 11000
  140.5277  134.0844  155.7308 LP  0  0  0  0  0  0  0  0  0  0  0  0  # atno 17395 bound_to 11000

$$$$
