AV-unprocessed.smi:72|AV-procd|sdf|710|dock10
  -GOLD-   2262017 33D 1   1.00000     0.00000
 Structure written by MMmdl.
 30 31  0  0  0  0  0  0  0  0  2 V2000
  148.7962  143.2454  158.4262 N   0  0  0  0  0  0  0  0  0  0  0  0
  149.5024  142.2687  157.7554 C   0  0  0  0  0  0  0  0  0  0  0  0
  149.8226  142.5031  156.4298 N   0  3  0  0  0  0  0  0  0  0  0  0
  150.4928  141.6548  155.6378 C   0  0  0  0  0  0  0  0  0  0  0  0
  150.8803  140.4949  156.1264 N   0  0  0  0  0  0  0  0  0  0  0  0
  151.6293  139.5126  155.2696 C   0  0  1  0  0  0  0  0  0  0  0  0
  152.8106  139.1859  155.9363 O   0  0  0  0  0  0  0  0  0  0  0  0
  152.9996  137.7748  155.9312 C   0  0  1  0  0  0  0  0  0  0  0  0
  153.8651  137.3577  157.1301 C   0  0  0  0  0  0  0  0  0  0  0  0
  154.2934  136.0221  156.9744 O   0  0  0  0  0  0  0  0  0  0  0  0
  151.5638  137.2536  155.9996 C   0  0  2  0  0  0  0  0  0  0  0  0
  151.4448  135.9039  155.5921 O   0  0  0  0  0  0  0  0  0  0  0  0
  150.8100  138.2247  155.0969 C   0  0  2  0  0  0  0  0  0  0  0  0
  150.7971  137.8116  153.7432 O   0  0  0  0  0  0  0  0  0  0  0  0
  150.6269  140.1769  157.4850 C   0  0  0  0  0  0  0  0  0  0  0  0
  151.0242  139.1153  157.9632 O   0  0  0  0  0  0  0  0  0  0  0  0
  149.9174  141.1279  158.2333 N   0  0  0  0  0  0  0  0  0  0  0  0
  151.8694  140.0241  154.3356 H   0  0  0  0  0  0  0  0  0  0  0  0
  153.4569  137.4736  154.9863 H   0  0  0  0  0  0  0  0  0  0  0  0
  151.1883  137.3500  157.0194 H   0  0  0  0  0  0  0  0  0  0  0  0
  149.7784  138.3635  155.4240 H   0  0  0  0  0  0  0  0  0  0  0  0
  148.5222  143.1633  159.3954 H   0  0  0  0  0  0  0  0  0  0  0  0
  148.4922  144.1119  158.0056 H   0  0  0  0  0  0  0  0  0  0  0  0
  150.7100  141.9348  154.6145 H   0  0  0  0  0  0  0  0  0  0  0  0
  154.7223  138.0201  157.2529 H   0  0  0  0  0  0  0  0  0  0  0  0
  153.2815  137.4082  158.0498 H   0  0  0  0  0  0  0  0  0  0  0  0
  155.0664  135.8892  157.5019 H   0  0  0  0  0  0  0  0  0  0  0  0
  150.5271  135.6832  155.5385 H   0  0  0  0  0  0  0  0  0  0  0  0
  150.0553  137.2413  153.6086 H   0  0  0  0  0  0  0  0  0  0  0  0
  149.5248  143.3824  156.0316 H   0  0  0  0  0  0  0  0  0  0  0  0
  1  2  1  0  0  0  0
  1 22  1  0  0  0  0
  1 23  1  0  0  0  0
  2 17  2  0  0  0  0
  2  3  1  0  0  0  0
  3  4  2  0  0  0  0
  3 30  1  0  0  0  0
  4  5  1  0  0  0  0
  4 24  1  0  0  0  0
  5  6  1  0  0  0  0
  5 15  1  0  0  0  0
  6 18  1  0  0  0  0
  6 13  1  0  0  0  0
  6  7  1  0  0  0  0
  7  8  1  0  0  0  0
  8 19  1  0  0  0  0
  8  9  1  0  0  0  0
  8 11  1  0  0  0  0
  9 10  1  0  0  0  0
  9 25  1  0  0  0  0
  9 26  1  0  0  0  0
 10 27  1  0  0  0  0
 11 20  1  0  0  0  0
 11 12  1  0  0  0  0
 11 13  1  0  0  0  0
 12 28  1  0  0  0  0
 13 21  1  0  0  0  0
 13 14  1  0  0  0  0
 14 29  1  0  0  0  0
 15 16  2  0  0  0  0
 15 17  1  0  0  0  0
M  CHG  1   3   1
M  END
> <s_m_source_file>
AV-unprocessed.smi

> <i_m_source_file_index>
72

> <i_lp_mmshare_version>
43012

> <i_f3d_flags>
0

> <s_epik_input>
W05IMl1jMW5bY0hdbihjKD1PKW4xKVtDQEBIXTJPW0NASF0oW0NIMl1bT0hdKVtDQEBIXShbT0hdKVtDQEhdMltPSF0=

> <s_epik_cmdline>
J2VwaWtfcHl0aG9uJywgJy1waCcsICc3LjAnLCAnLXRuJywgJzgnLCAnLW1hJywgJzIwMCcsICctbWV0YWxfYmluZGluZycsICctaW1hZScsICc8aW5maWxlLm1hZT4nLCAnLW9tYWUnLCAnPG91dGZpbGUubWFlPic=

> <r_lp_tautomer_probability>
4.77166e-05

> <r_epik_Ionization_Penalty>
0.104979

> <r_epik_Ionization_Penalty_Charging>
0.0999619

> <r_epik_Ionization_Penalty_Neutral>
0.00501745

> <r_epik_State_Penalty>
2.51541

> <r_epik_Charging_Adjusted_Penalty>
2.61537

> <i_epik_Tot_Q>
1

> <i_epik_Tot_abs_Q>
1

> <r_epik_Metal_State_Penalty>
3.53763

> <b_epik_Metal_Only>
0

> <s_epik_Chemistry_Notes>
This compound contains an acetal/aminal-like group ( X-CH(R)-Y where X, Y are N, S, or O) that may be acid/base labile, releasing an aldehyde.

> <s_lp_Force_Field>
OPLS_2005

> <r_lp_Energy>
34.5988

> <b_lp_Chiralities_Consistent>
1

> <s_lp_Variant>
AV-unprocessed.smi:72-48

> <Gold.Version>
5.8.1

> <Gold.Id.Protein>
6NUR|6NUR_protein|mol2

> <Gold.PLP.Fitness>
39.4526

> <Gold.PLP.PLP>
-22.9669

> <Gold.PLP.part.hbond>
-7.6106

> <Gold.PLP.part.metal>
0.0000

> <Gold.PLP.part.buried>
-1.9743

> <Gold.PLP.part.nonpolar>
-13.8023

> <Gold.PLP.part.repulsive>
0.1976

> <Gold.PLP.ligand.clash>
0.0000

> <Gold.PLP.ligand.torsion>
0.1836

> <Gold.PLP.Chemscore.Hbond>
5.6113

> <Gold.PLP.Chemscore.CHOScore>
0.0000

> <Gold.PLP.Chemscore.Metal>
0.0000

> <Gold.Chemscore.Hbonds>
donor molecule, donor type, donor heavy atom, donor atom, acceptor molecule, acceptor atom, score
      L1  H     1    23       P1  8029  0.66
      L1  H     3    30       P1  8028  1.98
      L1  H    14    29       P1  7948  0.32
      P1  H  7997  8009       L1     7  1.00
      P1  H 10752 10764       L1    12  0.58
      P1  H 10752 10765       L1    10  1.00

> <Gold.PLP.Chemscore.Internal.Correction>
0.0189

> <Gold.Rescore>
     Score         DG    S(hbond)    S(metal)    S(lipo)     H(rot)  DE(clash)    DE(int)     intcor
      5.47      -9.39       3.52        0.00      22.10       4.08       0.03       3.89       ----

> <Gold.Chemscore.Fitness>
5.4731

> <Gold.Chemscore.DG>
-9.3899

> <Gold.Chemscore.ZeroCoef>
-5.4800

> <Gold.Chemscore.Hbond>
3.5224

> <Gold.Chemscore.Metal>
0.0000

> <Gold.Chemscore.Lipo>
22.0999

> <Gold.Chemscore.Internal_Hbond>
0.0000

> <Gold.Chemscore.DEClash>
0.0306

> <Gold.Chemscore.DEInternal>
3.8862

> <Gold.Chemscore.Rot>
4.0783

> <Gold.Chemscore.Internal.Correction>
   9.000000E+99

> <Gold.Chemscore.Hbonds>
donor molecule, donor type, donor heavy atom, donor atom, acceptor molecule, acceptor atom, score
      L1  H     1    23       P1  8029  0.07
      L1  H     3    30       P1  8028  0.92
      L1  H    14    29       P1  7948  0.11
      P1  H  7997  8009       L1     7  0.88
      P1  H 10752 10764       L1    12  0.27
      P1  H 10752 10765       L1    10  0.92

> <Gold.Chemscore.Hbond.Weighted>
-11.7647

> <Gold.Chemscore.Metal.Weighted>
-0.0000

> <Gold.Chemscore.Lipo.Weighted>
-2.5857

> <Gold.Chemscore.Internal_Hbond.Weighted>
0.0000

> <Gold.Chemscore.DEClash.Weighted>
0.0306

> <Gold.Chemscore.DEInternal.Weighted>
3.8862

> <Gold.Chemscore.Rot.Weighted>
10.4404

> <Gold.Chemscore.Internal.Correction.Weighted>
   9.000000E+99

> <Gold.Protein.RotatedTorsions>
[ 6907 6896 6895 6894 ] final -167.81 input  -60.11 | X-H torsion
[ 7974 7965 7964 7962 ] final   45.28 input  175.53 | X-H torsion
[ 8008 7997 7996 7995 ] final -150.72 input   59.86 | X-H torsion
[ 10167 10162 10161 10158 ] final   65.52 input  -65.29 | X-H torsion
[ 10718 10713 10712 10709 ] final   64.68 input   66.30 | X-H torsion
[ 10763 10752 10751 10750 ] final  -81.67 input  -60.55 | X-H torsion
[ 11005 11000 10999 10996 ] final  -54.18 input  -57.11 | X-H torsion

> <Gold.Protein.ActiveResidues>
 VAL166  LYS551  ARG553  GLY616  TRP617  ASP618  TYR619  PRO620  LYS621  CYS622 
 ASP623  PHE694  ASN695  SER759  ASP760  ASP761  ALA762  ILE779  LEU786  VAL792 
 PHE793  MET794  SER795  GLU796  ALA797  LYS798  CYS799  TRP800  GLU811  SER814 

> <Gold.Protein.RotatedAtoms>
  151.4654  133.3582  159.2815 H   0  0  0  0  0  0  0  0  0  0  0  0  # atno 6907 bound_to 6896
  150.8997  134.8410  159.7362 H   0  0  0  0  0  0  0  0  0  0  0  0  # atno 6908 bound_to 6896
  152.4872  134.4573  159.9646 H   0  0  0  0  0  0  0  0  0  0  0  0  # atno 6909 bound_to 6896
  146.0494  139.4982  142.9728 H   0  0  0  0  0  0  0  0  0  0  0  0  # atno 7974 bound_to 7965
  155.6280  140.0688  157.2658 H   0  0  0  0  0  0  0  0  0  0  0  0  # atno 8008 bound_to 7997
  154.4213  140.1772  156.1491 H   0  0  0  0  0  0  0  0  0  0  0  0  # atno 8009 bound_to 7997
  155.9956  140.3341  155.6798 H   0  0  0  0  0  0  0  0  0  0  0  0  # atno 8010 bound_to 7997
  140.1104  144.4823  150.6981 H   0  0  0  0  0  0  0  0  0  0  0  0  # atno 10167 bound_to 10162
  157.6055  130.9173  149.9877 H   0  0  0  0  0  0  0  0  0  0  0  0  # atno 10718 bound_to 10713
  154.5664  135.5618  153.7054 H   0  0  0  0  0  0  0  0  0  0  0  0  # atno 10763 bound_to 10752
  153.0034  135.6286  154.2175 H   0  0  0  0  0  0  0  0  0  0  0  0  # atno 10764 bound_to 10752
  154.2114  135.2873  155.2937 H   0  0  0  0  0  0  0  0  0  0  0  0  # atno 10765 bound_to 10752
  141.1013  133.6618  156.4282 H   0  0  0  0  0  0  0  0  0  0  0  0  # atno 11005 bound_to 11000
  145.6750  141.0206  143.1637 LP  0  0  0  0  0  0  0  0  0  0  0  0  # atno 17320 bound_to 7965
  144.7115  139.8355  143.7413 LP  0  0  0  0  0  0  0  0  0  0  0  0  # atno 17321 bound_to 7965
  140.6928  143.2386  151.5083 LP  0  0  0  0  0  0  0  0  0  0  0  0  # atno 17342 bound_to 10162
  139.5622  144.2128  152.1709 LP  0  0  0  0  0  0  0  0  0  0  0  0  # atno 17343 bound_to 10162
  156.1141  130.3648  149.9999 LP  0  0  0  0  0  0  0  0  0  0  0  0  # atno 17370 bound_to 10713
  156.8091  130.9318  151.3644 LP  0  0  0  0  0  0  0  0  0  0  0  0  # atno 17371 bound_to 10713
  140.5014  134.6481  157.5250 LP  0  0  0  0  0  0  0  0  0  0  0  0  # atno 17394 bound_to 11000
  139.9866  134.7052  155.9764 LP  0  0  0  0  0  0  0  0  0  0  0  0  # atno 17395 bound_to 11000

$$$$
