AV-unprocessed.smi:1563|AV-procd|sdf|6291|dock7
  -GOLD-   22720 6493D 1   1.00000     0.00000
 Structure written by MMmdl.
 44 45  0  0  0  0  0  0  0  0  2 V2000
  146.6192  135.1759  162.1869 C   0  0  0  0  0  0  0  0  0  0  0  0
  146.9042  136.2752  161.1695 C   0  0  0  0  0  0  0  0  0  0  0  0
  146.6021  137.4423  161.4193 O   0  0  0  0  0  0  0  0  0  0  0  0
  147.4866  135.8861  160.0249 N   0  0  0  0  0  0  0  0  0  0  0  0
  147.8506  136.7753  158.9273 C   0  0  2  0  0  0  0  0  0  0  0  0
  147.0553  136.4144  157.6549 C   0  0  0  0  0  0  0  0  0  0  0  0
  147.5244  137.2358  156.4368 C   0  0  0  0  0  0  0  0  0  0  0  0
  149.0568  137.1840  156.2911 C   0  0  0  0  0  0  0  0  0  0  0  0
  149.6633  137.6388  157.5528 N   0  0  0  0  0  0  0  0  0  0  0  0
  150.2325  138.8476  157.7819 C   0  0  0  0  0  0  0  0  0  0  0  0
  150.3304  139.3440  158.9051 O   0  0  0  0  0  0  0  0  0  0  0  0
  150.5979  139.5146  156.6723 N   0  0  0  0  0  0  0  0  0  0  0  0
  151.0325  140.9095  156.6271 C   0  0  0  0  0  0  0  0  0  0  0  0
  150.0703  141.8485  157.3859 C   0  0  0  0  0  0  0  0  0  0  0  0
  150.7714  142.8769  158.2590 C   0  0  0  0  0  0  0  0  0  0  0  0
  151.6885  142.5066  159.2677 C   0  0  0  0  0  0  0  0  0  0  0  0
  152.3396  143.5132  160.0108 C   0  0  0  0  0  0  0  0  0  0  0  0
  152.0617  144.8668  159.7307 C   0  0  0  0  0  0  0  0  0  0  0  0
  151.1324  145.1802  158.7183 C   0  0  0  0  0  0  0  0  0  0  0  0
  150.5258  144.1876  158.0306 N   0  3  0  0  0  0  0  0  0  0  0  0
  149.3676  136.7101  158.6491 C   0  0  0  0  0  0  0  0  0  0  0  0
  147.5396  134.6556  162.4537 H   0  0  0  0  0  0  0  0  0  0  0  0
  145.9174  134.4498  161.7759 H   0  0  0  0  0  0  0  0  0  0  0  0
  146.1866  135.5920  163.0975 H   0  0  0  0  0  0  0  0  0  0  0  0
  147.6979  134.9055  159.9087 H   0  0  0  0  0  0  0  0  0  0  0  0
  147.5912  137.7998  159.1989 H   0  0  0  0  0  0  0  0  0  0  0  0
  147.1864  135.3538  157.4350 H   0  0  0  0  0  0  0  0  0  0  0  0
  145.9878  136.5658  157.8187 H   0  0  0  0  0  0  0  0  0  0  0  0
  147.0468  136.8644  155.5297 H   0  0  0  0  0  0  0  0  0  0  0  0
  147.2060  138.2727  156.5518 H   0  0  0  0  0  0  0  0  0  0  0  0
  149.3753  136.1601  156.0898 H   0  0  0  0  0  0  0  0  0  0  0  0
  149.3775  137.7591  155.4222 H   0  0  0  0  0  0  0  0  0  0  0  0
  150.4872  139.0445  155.7854 H   0  0  0  0  0  0  0  0  0  0  0  0
  152.0419  141.0054  157.0305 H   0  0  0  0  0  0  0  0  0  0  0  0
  151.0964  141.2166  155.5833 H   0  0  0  0  0  0  0  0  0  0  0  0
  149.4265  142.3677  156.6749 H   0  0  0  0  0  0  0  0  0  0  0  0
  149.4063  141.2531  158.0138 H   0  0  0  0  0  0  0  0  0  0  0  0
  151.9036  141.4656  159.4605 H   0  0  0  0  0  0  0  0  0  0  0  0
  153.0519  143.2502  160.7792 H   0  0  0  0  0  0  0  0  0  0  0  0
  152.5582  145.6531  160.2806 H   0  0  0  0  0  0  0  0  0  0  0  0
  150.8637  146.1872  158.4342 H   0  0  0  0  0  0  0  0  0  0  0  0
  149.9304  136.9382  159.5557 H   0  0  0  0  0  0  0  0  0  0  0  0
  149.6627  135.6987  158.3648 H   0  0  0  0  0  0  0  0  0  0  0  0
  149.8677  144.4390  157.2926 H   0  0  0  0  0  0  0  0  0  0  0  0
  1  2  1  0  0  0  0
  1 22  1  0  0  0  0
  1 23  1  0  0  0  0
  1 24  1  0  0  0  0
  2  3  2  0  0  0  0
  2  4  1  0  0  0  0
  4  5  1  0  0  0  0
  4 25  1  0  0  0  0
  5 21  1  0  0  0  0
  5  6  1  0  0  0  0
  5 26  1  0  0  0  0
  6  7  1  0  0  0  0
  6 27  1  0  0  0  0
  6 28  1  0  0  0  0
  7  8  1  0  0  0  0
  7 29  1  0  0  0  0
  7 30  1  0  0  0  0
  8  9  1  0  0  0  0
  8 31  1  0  0  0  0
  8 32  1  0  0  0  0
  9 10  1  0  0  0  0
  9 21  1  0  0  0  0
 10 11  2  0  0  0  0
 10 12  1  0  0  0  0
 12 13  1  0  0  0  0
 12 33  1  0  0  0  0
 13 14  1  0  0  0  0
 13 34  1  0  0  0  0
 13 35  1  0  0  0  0
 14 15  1  0  0  0  0
 14 36  1  0  0  0  0
 14 37  1  0  0  0  0
 15 20  1  0  0  0  0
 15 16  2  0  0  0  0
 16 17  1  0  0  0  0
 16 38  1  0  0  0  0
 17 18  2  0  0  0  0
 17 39  1  0  0  0  0
 18 19  1  0  0  0  0
 18 40  1  0  0  0  0
 19 20  2  0  0  0  0
 19 41  1  0  0  0  0
 20 44  1  0  0  0  0
 21 42  1  0  0  0  0
 21 43  1  0  0  0  0
M  CHG  1  20   1
M  END
> <s_m_source_file>
AV-unprocessed.smi

> <i_m_source_file_index>
1563

> <i_lp_mmshare_version>
43012

> <i_f3d_flags>
0

> <s_epik_input>
W0NIM11DKD1PKVtOSF1bQ0BASF0xW0NIMl1bQ0gyXVtDSDJdTihbQ0gyXTEpQyg9TylbTkhdW0NIMl1bQ0gyXWMyW2NIXVtjSF1bY0hdW2NIXW4y

> <s_epik_cmdline>
J2VwaWtfcHl0aG9uJywgJy1waCcsICc3LjAnLCAnLXRuJywgJzgnLCAnLW1hJywgJzIwMCcsICctbWV0YWxfYmluZGluZycsICctaW1hZScsICc8aW5maWxlLm1hZT4nLCAnLW9tYWUnLCAnPG91dGZpbGUubWFlPic=

> <r_epik_Ionization_Penalty>
1.56048

> <r_epik_Ionization_Penalty_Charging>
1.56043

> <r_epik_Ionization_Penalty_Neutral>
4.90601e-05

> <r_epik_State_Penalty>
1.65539

> <r_epik_Charging_Adjusted_Penalty>
3.21583

> <i_epik_Tot_Q>
1

> <i_epik_Tot_abs_Q>
1

> <r_epik_Metal_State_Penalty>
1.6969

> <b_epik_Metal_Only>
0

> <s_lp_Force_Field>
OPLS_2005

> <r_lp_Energy>
29.9669

> <b_lp_Chiralities_Consistent>
1

> <s_lp_Variant>
AV-unprocessed.smi:1563-3

> <Gold.Version>
5.8.1

> <Gold.Id.Protein>
6NUR|6NUR_protein|mol2

> <Gold.PLP.Fitness>
46.9933

> <Gold.PLP.PLP>
-36.8909

> <Gold.PLP.part.hbond>
-3.4182

> <Gold.PLP.part.metal>
0.0000

> <Gold.PLP.part.buried>
-5.3532

> <Gold.PLP.part.nonpolar>
-28.1748

> <Gold.PLP.part.repulsive>
0.2431

> <Gold.PLP.ligand.clash>
0.0000

> <Gold.PLP.ligand.torsion>
0.5115

> <Gold.PLP.Chemscore.Hbond>
3.6800

> <Gold.PLP.Chemscore.CHOScore>
0.0000

> <Gold.PLP.Chemscore.Metal>
0.0000

> <Gold.Chemscore.Hbonds>
donor molecule, donor type, donor heavy atom, donor atom, acceptor molecule, acceptor atom, score
      L1  H    20    44       P1  8028  2.00
      P1  H  6934  6947       L1     3  1.00

> <Gold.PLP.Chemscore.Internal.Correction>
0.0854

> <Gold.Rescore>
     Score         DG    S(hbond)    S(metal)    S(lipo)     H(rot)  DE(clash)    DE(int)     intcor
     18.66     -20.22       2.74        0.00      86.34       1.77       0.02       1.55       ----

> <Gold.Chemscore.Fitness>
18.6611

> <Gold.Chemscore.DG>
-20.2248

> <Gold.Chemscore.ZeroCoef>
-5.4800

> <Gold.Chemscore.Hbond>
2.7437

> <Gold.Chemscore.Metal>
0.0000

> <Gold.Chemscore.Lipo>
86.3409

> <Gold.Chemscore.Internal_Hbond>
0.0000

> <Gold.Chemscore.DEClash>
0.0158

> <Gold.Chemscore.DEInternal>
1.5480

> <Gold.Chemscore.Rot>
1.7661

> <Gold.Chemscore.Internal.Correction>
   9.000000E+99

> <Gold.Chemscore.Hbonds>
donor molecule, donor type, donor heavy atom, donor atom, acceptor molecule, acceptor atom, score
      L1  H    20    44       P1  8028  0.30
      P1  H  6934  6947       L1     3  0.99

> <Gold.Chemscore.Hbond.Weighted>
-9.1640

> <Gold.Chemscore.Metal.Weighted>
-0.0000

> <Gold.Chemscore.Lipo.Weighted>
-10.1019

> <Gold.Chemscore.Internal_Hbond.Weighted>
0.0000

> <Gold.Chemscore.DEClash.Weighted>
0.0158

> <Gold.Chemscore.DEInternal.Weighted>
1.5480

> <Gold.Chemscore.Rot.Weighted>
4.5211

> <Gold.Chemscore.Internal.Correction.Weighted>
   9.000000E+99

> <Gold.Protein.RotatedTorsions>
[ 6907 6896 6895 6894 ] final  -48.52 input  -60.11 | X-H torsion
[ 7974 7965 7964 7962 ] final   78.62 input  175.53 | X-H torsion
[ 8008 7997 7996 7995 ] final   24.15 input   59.86 | X-H torsion
[ 10167 10162 10161 10158 ] final  142.16 input  -65.29 | X-H torsion
[ 10718 10713 10712 10709 ] final  -80.36 input   66.30 | X-H torsion
[ 10763 10752 10751 10750 ] final   24.07 input  -60.55 | X-H torsion
[ 11005 11000 10999 10996 ] final   72.53 input  -57.11 | X-H torsion

> <Gold.Protein.ActiveResidues>
 VAL166  LYS551  ARG553  GLY616  TRP617  ASP618  TYR619  PRO620  LYS621  CYS622 
 ASP623  PHE694  ASN695  SER759  ASP760  ASP761  ALA762  ILE779  LEU786  VAL792 
 PHE793  MET794  SER795  GLU796  ALA797  LYS798  CYS799  TRP800  GLU811  SER814 

> <Gold.Protein.RotatedAtoms>
  150.8897  134.8299  159.7284 H   0  0  0  0  0  0  0  0  0  0  0  0  # atno 6907 bound_to 6896
  152.4829  134.4668  159.9632 H   0  0  0  0  0  0  0  0  0  0  0  0  # atno 6908 bound_to 6896
  151.4732  133.3525  159.2862 H   0  0  0  0  0  0  0  0  0  0  0  0  # atno 6909 bound_to 6896
  145.6747  139.2507  143.1848 H   0  0  0  0  0  0  0  0  0  0  0  0  # atno 7974 bound_to 7965
  154.9919  140.3115  155.4903 H   0  0  0  0  0  0  0  0  0  0  0  0  # atno 8008 bound_to 7997
  156.2938  140.2247  156.4964 H   0  0  0  0  0  0  0  0  0  0  0  0  # atno 8009 bound_to 7997
  154.7696  140.0453  157.1028 H   0  0  0  0  0  0  0  0  0  0  0  0  # atno 8010 bound_to 7997
  139.5001  144.6125  151.6239 H   0  0  0  0  0  0  0  0  0  0  0  0  # atno 10167 bound_to 10162
  156.0072  130.4572  150.3788 H   0  0  0  0  0  0  0  0  0  0  0  0  # atno 10718 bound_to 10713
  153.0791  135.6613  154.0083 H   0  0  0  0  0  0  0  0  0  0  0  0  # atno 10763 bound_to 10752
  153.9709  135.2964  155.3429 H   0  0  0  0  0  0  0  0  0  0  0  0  # atno 10764 bound_to 10752
  154.7186  135.5174  153.8848 H   0  0  0  0  0  0  0  0  0  0  0  0  # atno 10765 bound_to 10752
  139.9486  134.7267  156.0917 H   0  0  0  0  0  0  0  0  0  0  0  0  # atno 11005 bound_to 11000
  146.1015  140.7538  142.9547 LP  0  0  0  0  0  0  0  0  0  0  0  0  # atno 17320 bound_to 7965
  144.7045  140.3795  143.7129 LP  0  0  0  0  0  0  0  0  0  0  0  0  # atno 17321 bound_to 7965
  140.5804  143.9956  150.6265 LP  0  0  0  0  0  0  0  0  0  0  0  0  # atno 17342 bound_to 10162
  140.3103  143.3202  152.0885 LP  0  0  0  0  0  0  0  0  0  0  0  0  # atno 17343 bound_to 10162
  157.1869  131.0406  151.2720 LP  0  0  0  0  0  0  0  0  0  0  0  0  # atno 17370 bound_to 10713
  157.4096  130.7378  149.6829 LP  0  0  0  0  0  0  0  0  0  0  0  0  # atno 17371 bound_to 10713
  141.1143  133.6633  156.3056 LP  0  0  0  0  0  0  0  0  0  0  0  0  # atno 17394 bound_to 11000
  140.5773  134.5781  157.5471 LP  0  0  0  0  0  0  0  0  0  0  0  0  # atno 17395 bound_to 11000

$$$$
