AV-unprocessed.smi:203|AV-procd|sdf|1583|dock7
  -GOLD-   2262019473D 1   1.00000     0.00000
 Structure written by MMmdl.
 57 61  0  0  0  0  0  0  0  0  1 V2000
  156.1917  137.2234  158.2548 O   0  0  0  0  0  0  0  0  0  0  0  0
  155.4345  137.8475  158.9941 C   0  0  0  0  0  0  0  0  0  0  0  0
  153.9907  138.1625  158.6427 C   0  0  0  0  0  0  0  0  0  0  0  0
  153.5508  139.1399  159.7505 C   0  0  2  0  0  0  0  0  0  0  0  0
  153.2921  140.5950  159.2454 C   0  0  2  0  0  0  0  0  0  0  0  0
  153.4113  141.6530  160.3746 C   0  0  0  0  0  0  0  0  0  0  0  0
  153.1550  143.0732  159.8532 C   0  0  0  0  0  0  0  0  0  0  0  0
  151.7886  143.1370  159.1631 C   0  0  0  0  0  0  0  0  0  0  0  0
  151.7048  142.0863  158.0483 C   0  0  0  0  0  0  0  0  0  0  0  0
  151.9980  140.7461  158.5557 N   0  0  0  0  0  0  0  0  0  0  0  0
  151.7031  139.8188  157.6176 C   0  0  0  0  0  0  0  0  0  0  0  0
  152.4744  139.7990  156.5032 N   0  0  0  0  0  0  0  0  0  0  0  0
  152.2299  138.9059  155.5394 C   0  0  0  0  0  0  0  0  0  0  0  0
  151.2879  137.9611  155.4952 N   0  0  0  0  0  0  0  0  0  0  0  0
  150.5176  137.9745  156.6209 C   0  0  0  0  0  0  0  0  0  0  0  0
  150.6524  138.8645  157.7226 C   0  0  0  0  0  0  0  0  0  0  0  0
  149.6884  138.5823  158.6825 N   0  0  0  0  0  0  0  0  0  0  0  0
  149.0226  137.5800  158.1781 C   0  0  0  0  0  0  0  0  0  0  0  0
  149.4659  137.1383  156.9516 N   0  0  0  0  0  0  0  0  0  0  0  0
  148.9218  136.0383  156.1746 C   0  0  0  0  0  0  0  0  0  0  0  0
  150.0006  135.0738  155.6288 C   0  0  2  0  0  0  0  0  0  0  0  0
  150.6441  135.6939  154.5346 O   0  0  0  0  0  0  0  0  0  0  0  0
  149.5316  133.6641  155.1963 C   0  0  2  0  0  0  0  0  0  0  0  0
  150.6215  132.6700  154.7886 C   0  0  0  0  0  0  0  0  0  0  0  0
  149.8266  131.6823  153.9642 C   0  0  0  0  0  0  0  0  0  0  0  0
  148.8389  132.5930  153.2381 C   0  0  0  0  0  0  0  0  0  0  0  0
  148.6303  133.7140  154.0935 O   0  0  0  0  0  0  0  0  0  0  0  0
  154.6490  139.0366  160.8330 C   0  0  0  0  0  0  0  0  0  0  0  0
  155.7443  138.3334  160.1942 N   0  0  0  0  0  0  0  0  0  0  0  0
  153.9000  138.5752  157.6379 H   0  0  0  0  0  0  0  0  0  0  0  0
  153.4093  137.2405  158.6795 H   0  0  0  0  0  0  0  0  0  0  0  0
  152.6249  138.7391  160.1641 H   0  0  0  0  0  0  0  0  0  0  0  0
  154.0682  140.8258  158.5150 H   0  0  0  0  0  0  0  0  0  0  0  0
  152.6985  141.4394  161.1714 H   0  0  0  0  0  0  0  0  0  0  0  0
  154.3986  141.6222  160.8339 H   0  0  0  0  0  0  0  0  0  0  0  0
  153.1961  143.7892  160.6745 H   0  0  0  0  0  0  0  0  0  0  0  0
  153.9394  143.3559  159.1501 H   0  0  0  0  0  0  0  0  0  0  0  0
  150.9974  142.9621  159.8934 H   0  0  0  0  0  0  0  0  0  0  0  0
  151.6205  144.1328  158.7522 H   0  0  0  0  0  0  0  0  0  0  0  0
  150.7083  142.1078  157.6042 H   0  0  0  0  0  0  0  0  0  0  0  0
  152.4109  142.3357  157.2549 H   0  0  0  0  0  0  0  0  0  0  0  0
  152.8841  138.9537  154.6813 H   0  0  0  0  0  0  0  0  0  0  0  0
  148.1930  137.1243  158.6987 H   0  0  0  0  0  0  0  0  0  0  0  0
  148.2073  135.4979  156.7966 H   0  0  0  0  0  0  0  0  0  0  0  0
  148.3480  136.4606  155.3488 H   0  0  0  0  0  0  0  0  0  0  0  0
  150.7655  134.9448  156.3952 H   0  0  0  0  0  0  0  0  0  0  0  0
  149.9838  135.9932  153.9287 H   0  0  0  0  0  0  0  0  0  0  0  0
  148.9606  133.2221  156.0151 H   0  0  0  0  0  0  0  0  0  0  0  0
  151.3814  133.1369  154.1636 H   0  0  0  0  0  0  0  0  0  0  0  0
  151.1181  132.2101  155.6433 H   0  0  0  0  0  0  0  0  0  0  0  0
  150.4437  131.0947  153.2841 H   0  0  0  0  0  0  0  0  0  0  0  0
  149.2908  130.9948  154.6200 H   0  0  0  0  0  0  0  0  0  0  0  0
  149.2662  132.9486  152.3000 H   0  0  0  0  0  0  0  0  0  0  0  0
  147.9002  132.0878  153.0097 H   0  0  0  0  0  0  0  0  0  0  0  0
  154.9747  140.0055  161.2121 H   0  0  0  0  0  0  0  0  0  0  0  0
  154.3002  138.4510  161.6843 H   0  0  0  0  0  0  0  0  0  0  0  0
  156.6524  138.2370  160.6252 H   0  0  0  0  0  0  0  0  0  0  0  0
  1  2  2  0  0  0  0
  2 29  1  0  0  0  0
  2  3  1  0  0  0  0
  3  4  1  0  0  0  0
  3 30  1  0  0  0  0
  3 31  1  0  0  0  0
  4  5  1  0  0  0  0
  4 28  1  0  0  0  0
  4 32  1  0  0  0  0
  5 10  1  0  0  0  0
  5  6  1  0  0  0  0
  5 33  1  0  0  0  0
  6  7  1  0  0  0  0
  6 34  1  0  0  0  0
  6 35  1  0  0  0  0
  7  8  1  0  0  0  0
  7 36  1  0  0  0  0
  7 37  1  0  0  0  0
  8  9  1  0  0  0  0
  8 38  1  0  0  0  0
  8 39  1  0  0  0  0
  9 10  1  0  0  0  0
  9 40  1  0  0  0  0
  9 41  1  0  0  0  0
 10 11  1  0  0  0  0
 11 16  1  0  0  0  0
 11 12  2  0  0  0  0
 12 13  1  0  0  0  0
 13 14  2  0  0  0  0
 13 42  1  0  0  0  0
 14 15  1  0  0  0  0
 15 19  1  0  0  0  0
 15 16  2  0  0  0  0
 16 17  1  0  0  0  0
 17 18  2  0  0  0  0
 18 19  1  0  0  0  0
 18 43  1  0  0  0  0
 19 20  1  0  0  0  0
 20 21  1  0  0  0  0
 20 44  1  0  0  0  0
 20 45  1  0  0  0  0
 21 22  1  0  0  0  0
 21 23  1  0  0  0  0
 21 46  1  0  0  0  0
 22 47  1  0  0  0  0
 23 27  1  0  0  0  0
 23 24  1  0  0  0  0
 23 48  1  0  0  0  0
 24 25  1  0  0  0  0
 24 49  1  0  0  0  0
 24 50  1  0  0  0  0
 25 26  1  0  0  0  0
 25 51  1  0  0  0  0
 25 52  1  0  0  0  0
 26 27  1  0  0  0  0
 26 53  1  0  0  0  0
 26 54  1  0  0  0  0
 28 29  1  0  0  0  0
 28 55  1  0  0  0  0
 28 56  1  0  0  0  0
 29 57  1  0  0  0  0
M  END
> <s_m_source_file>
AV-unprocessed.smi

> <i_m_source_file_index>
203

> <i_lp_mmshare_version>
43012

> <i_f3d_flags>
0

> <s_epik_input>
Tz1DMVtDSDJdW0NASF0oW0NIMl1bTkhdMSlbQ0BASF0yW0NIMl1bQ0gyXVtDSDJdW0NIMl1OMmMobltjSF1uMyljKGMzNCluW2NIXW40W0NIMl1bQ0BIXShbT0hdKVtDQEBIXTVbQ0gyXVtDSDJdW0NIMl1PNQ==

> <s_epik_cmdline>
J2VwaWtfcHl0aG9uJywgJy1waCcsICc3LjAnLCAnLXRuJywgJzgnLCAnLW1hJywgJzIwMCcsICctbWV0YWxfYmluZGluZycsICctaW1hZScsICc8aW5maWxlLm1hZT4nLCAnLW9tYWUnLCAnPG91dGZpbGUubWFlPic=

> <r_lp_tautomer_probability>
1

> <r_epik_Ionization_Penalty>
0.00175146

> <r_epik_Ionization_Penalty_Charging>
0

> <r_epik_Ionization_Penalty_Neutral>
0.00175146

> <r_epik_State_Penalty>
0.00109045

> <r_epik_Charging_Adjusted_Penalty>
0.00109045

> <i_epik_Tot_Q>
0

> <i_epik_Tot_abs_Q>
0

> <r_epik_Metal_State_Penalty>
-0

> <b_epik_Metal_Only>
0

> <s_lp_Force_Field>
OPLS_2005

> <r_lp_Energy>
56.3505

> <b_lp_Chiralities_Consistent>
1

> <s_lp_Variant>
AV-unprocessed.smi:203-2

> <Gold.Version>
5.8.1

> <Gold.Id.Protein>
6NUR|6NUR_protein|mol2

> <Gold.PLP.Fitness>
44.6095

> <Gold.PLP.PLP>
-39.9136

> <Gold.PLP.part.hbond>
-3.0000

> <Gold.PLP.part.metal>
0.0000

> <Gold.PLP.part.buried>
-6.4079

> <Gold.PLP.part.nonpolar>
-31.0593

> <Gold.PLP.part.repulsive>
1.4797

> <Gold.PLP.ligand.clash>
0.0000

> <Gold.PLP.ligand.torsion>
0.7956

> <Gold.PLP.Chemscore.Hbond>
2.0000

> <Gold.PLP.Chemscore.CHOScore>
0.0000

> <Gold.PLP.Chemscore.Metal>
0.0000

> <Gold.Chemscore.Hbonds>
donor molecule, donor type, donor heavy atom, donor atom, acceptor molecule, acceptor atom, score
      L1  H    22    47       P1  7948  0.30
      P1  H  7997  8008       L1    12  1.00
      P1  H 10752 10765       L1    22  0.01

> <Gold.PLP.Chemscore.Internal.Correction>
0.2871

> <Gold.Rescore>
     Score         DG    S(hbond)    S(metal)    S(lipo)     H(rot)  DE(clash)    DE(int)     intcor
     13.20     -14.52       1.62        0.00      90.53       2.72       0.08       1.24       ----

> <Gold.Chemscore.Fitness>
13.1990

> <Gold.Chemscore.DG>
-14.5169

> <Gold.Chemscore.ZeroCoef>
-5.4800

> <Gold.Chemscore.Hbond>
1.6171

> <Gold.Chemscore.Metal>
0.0000

> <Gold.Chemscore.Lipo>
90.5250

> <Gold.Chemscore.Internal_Hbond>
0.0000

> <Gold.Chemscore.DEClash>
0.0754

> <Gold.Chemscore.DEInternal>
1.2425

> <Gold.Chemscore.Rot>
2.7171

> <Gold.Chemscore.Internal.Correction>
   9.000000E+99

> <Gold.Chemscore.Hbonds>
donor molecule, donor type, donor heavy atom, donor atom, acceptor molecule, acceptor atom, score
      L1  H    22    47       P1  7948  0.04
      P1  H  7997  8008       L1    12  0.50
      P1  H 10752 10765       L1    22  0.05

> <Gold.Chemscore.Hbond.Weighted>
-5.4011

> <Gold.Chemscore.Metal.Weighted>
-0.0000

> <Gold.Chemscore.Lipo.Weighted>
-10.5914

> <Gold.Chemscore.Internal_Hbond.Weighted>
0.0000

> <Gold.Chemscore.DEClash.Weighted>
0.0754

> <Gold.Chemscore.DEInternal.Weighted>
1.2425

> <Gold.Chemscore.Rot.Weighted>
6.9557

> <Gold.Chemscore.Internal.Correction.Weighted>
   9.000000E+99

> <Gold.Protein.RotatedTorsions>
[ 6907 6896 6895 6894 ] final  133.40 input  -60.11 | X-H torsion
[ 7974 7965 7964 7962 ] final  120.87 input  175.53 | X-H torsion
[ 8008 7997 7996 7995 ] final  -47.97 input   59.86 | X-H torsion
[ 10167 10162 10161 10158 ] final   13.65 input  -65.29 | X-H torsion
[ 10718 10713 10712 10709 ] final  107.04 input   66.30 | X-H torsion
[ 10763 10752 10751 10750 ] final  144.06 input  -60.55 | X-H torsion
[ 11005 11000 10999 10996 ] final  -80.20 input  -57.11 | X-H torsion

> <Gold.Protein.ActiveResidues>
 VAL166  LYS551  ARG553  GLY616  TRP617  ASP618  TYR619  PRO620  LYS621  CYS622 
 ASP623  PHE694  ASN695  SER759  ASP760  ASP761  ALA762  ILE779  LEU786  VAL792 
 PHE793  MET794  SER795  GLU796  ALA797  LYS798  CYS799  TRP800  GLU811  SER814 

> <Gold.Protein.RotatedAtoms>
  152.3223  133.5867  159.5752 H   0  0  0  0  0  0  0  0  0  0  0  0  # atno 6907 bound_to 6896
  150.7378  133.9992  159.3641 H   0  0  0  0  0  0  0  0  0  0  0  0  # atno 6908 bound_to 6896
  151.7875  135.0745  160.0433 H   0  0  0  0  0  0  0  0  0  0  0  0  # atno 6909 bound_to 6896
  145.1260  139.3358  143.4690 H   0  0  0  0  0  0  0  0  0  0  0  0  # atno 7974 bound_to 7965
  154.4023  140.1333  156.4262 H   0  0  0  0  0  0  0  0  0  0  0  0  # atno 8008 bound_to 7997
  155.7595  140.3486  155.5171 H   0  0  0  0  0  0  0  0  0  0  0  0  # atno 8009 bound_to 7997
  155.8872  140.0997  157.1434 H   0  0  0  0  0  0  0  0  0  0  0  0  # atno 8010 bound_to 7997
  140.5988  143.8646  150.6945 H   0  0  0  0  0  0  0  0  0  0  0  0  # atno 10167 bound_to 10162
  157.6644  131.0864  150.6096 H   0  0  0  0  0  0  0  0  0  0  0  0  # atno 10718 bound_to 10713
  153.9827  135.2939  155.3419 H   0  0  0  0  0  0  0  0  0  0  0  0  # atno 10763 bound_to 10752
  154.7260  135.5089  153.8889 H   0  0  0  0  0  0  0  0  0  0  0  0  # atno 10764 bound_to 10752
  153.0847  135.6689  154.0089 H   0  0  0  0  0  0  0  0  0  0  0  0  # atno 10765 bound_to 10752
  141.1668  133.7140  156.8238 H   0  0  0  0  0  0  0  0  0  0  0  0  # atno 11005 bound_to 11000
  146.3517  140.1239  142.8599 LP  0  0  0  0  0  0  0  0  0  0  0  0  # atno 17320 bound_to 7965
  145.0688  140.9140  143.4894 LP  0  0  0  0  0  0  0  0  0  0  0  0  # atno 17321 bound_to 7965
  140.2187  143.3826  152.1660 LP  0  0  0  0  0  0  0  0  0  0  0  0  # atno 17342 bound_to 10162
  139.5277  144.7122  151.5170 LP  0  0  0  0  0  0  0  0  0  0  0  0  # atno 17343 bound_to 10162
  156.6397  130.4455  149.5756 LP  0  0  0  0  0  0  0  0  0  0  0  0  # atno 17370 bound_to 10713
  156.2218  130.6742  151.1376 LP  0  0  0  0  0  0  0  0  0  0  0  0  # atno 17371 bound_to 10713
  140.2100  134.8834  157.3264 LP  0  0  0  0  0  0  0  0  0  0  0  0  # atno 17394 bound_to 11000
  140.2096  134.4154  155.7619 LP  0  0  0  0  0  0  0  0  0  0  0  0  # atno 17395 bound_to 11000

$$$$
