AV-unprocessed.smi:265|AV-procd|sdf|2024|dock3
  -GOLD-   2262021223D 1   1.00000     0.00000
 Structure written by MMmdl.
 52 56  0  0  0  0  0  0  0  0  1 V2000
  151.4709  140.9157  156.9166 C   0  0  0  0  0  0  0  0  0  0  0  0
  150.8195  140.2036  155.7198 C   0  0  1  0  0  0  0  0  0  0  0  0
  151.8011  139.8410  154.7490 O   0  0  0  0  0  0  0  0  0  0  0  0
  151.7219  138.4506  154.4658 C   0  0  0  0  0  0  0  0  0  0  0  0
  150.2871  138.0718  154.8085 C   0  0  0  0  0  0  0  0  0  0  0  0
  150.0043  138.9285  156.0339 C   0  0  1  0  0  0  0  0  0  0  0  0
  150.5248  138.2640  157.1751 O   0  0  0  0  0  0  0  0  0  0  0  0
  148.5028  139.2152  156.2715 C   0  0  0  0  0  0  0  0  0  0  0  0
  147.6184  138.3414  155.5160 N   0  0  0  0  0  0  0  0  0  0  0  0
  146.9591  137.2311  155.9928 C   0  0  0  0  0  0  0  0  0  0  0  0
  146.2225  136.6030  155.1180 N   0  0  0  0  0  0  0  0  0  0  0  0
  146.3729  137.3448  153.9523 C   0  0  0  0  0  0  0  0  0  0  0  0
  145.8573  137.2273  152.6309 C   0  0  0  0  0  0  0  0  0  0  0  0
  144.9994  136.2406  152.2678 N   0  0  0  0  0  0  0  0  0  0  0  0
  144.3205  135.5024  153.3323 C   0  0  0  0  0  0  0  0  0  0  0  0
  143.1195  134.7245  152.7727 C   0  0  0  0  0  0  0  0  0  0  0  0
  143.5177  133.8287  151.5881 C   0  0  2  0  0  0  0  0  0  0  0  0
  144.3455  132.7623  152.0341 O   0  0  0  0  0  0  0  0  0  0  0  0
  144.6109  131.7810  151.0304 C   0  0  0  0  0  0  0  0  0  0  0  0
  145.0794  132.4104  149.7052 C   0  0  0  0  0  0  0  0  0  0  0  0
  145.6221  131.7116  148.8526 O   0  0  0  0  0  0  0  0  0  0  0  0
  144.8367  133.7158  149.5046 N   0  0  0  0  0  0  0  0  0  0  0  0
  144.3079  134.6184  150.5218 C   0  0  2  0  0  0  0  0  0  0  0  0
  145.4652  135.4175  151.1537 C   0  0  0  0  0  0  0  0  0  0  0  0
  146.2527  138.1572  151.7205 N   0  0  0  0  0  0  0  0  0  0  0  0
  147.0832  139.1412  152.0779 C   0  0  0  0  0  0  0  0  0  0  0  0
  147.6320  139.3777  153.2709 N   0  0  0  0  0  0  0  0  0  0  0  0
  147.2497  138.4417  154.1857 C   0  0  0  0  0  0  0  0  0  0  0  0
  142.6097  133.4089  151.1510 H   0  0  0  0  0  0  0  0  0  0  0  0
  143.6309  135.3181  150.0296 H   0  0  0  0  0  0  0  0  0  0  0  0
  150.7259  141.1826  157.6666 H   0  0  0  0  0  0  0  0  0  0  0  0
  151.9639  141.8340  156.5978 H   0  0  0  0  0  0  0  0  0  0  0  0
  152.2247  140.2902  157.3957 H   0  0  0  0  0  0  0  0  0  0  0  0
  150.1673  140.9181  155.2159 H   0  0  0  0  0  0  0  0  0  0  0  0
  151.9780  138.2373  153.4279 H   0  0  0  0  0  0  0  0  0  0  0  0
  152.4239  137.9159  155.1069 H   0  0  0  0  0  0  0  0  0  0  0  0
  149.6363  138.3670  153.9845 H   0  0  0  0  0  0  0  0  0  0  0  0
  150.1522  137.0022  154.9749 H   0  0  0  0  0  0  0  0  0  0  0  0
  149.8239  138.1470  157.7979 H   0  0  0  0  0  0  0  0  0  0  0  0
  148.2643  139.1080  157.3306 H   0  0  0  0  0  0  0  0  0  0  0  0
  148.2668  140.2473  156.0095 H   0  0  0  0  0  0  0  0  0  0  0  0
  147.0479  136.8957  157.0160 H   0  0  0  0  0  0  0  0  0  0  0  0
  145.0258  134.8145  153.8008 H   0  0  0  0  0  0  0  0  0  0  0  0
  143.9766  136.1897  154.1066 H   0  0  0  0  0  0  0  0  0  0  0  0
  142.6607  134.1254  153.5598 H   0  0  0  0  0  0  0  0  0  0  0  0
  142.3590  135.4338  152.4435 H   0  0  0  0  0  0  0  0  0  0  0  0
  145.3694  131.0912  151.4008 H   0  0  0  0  0  0  0  0  0  0  0  0
  143.7074  131.1990  150.8447 H   0  0  0  0  0  0  0  0  0  0  0  0
  145.1076  134.1218  148.6208 H   0  0  0  0  0  0  0  0  0  0  0  0
  145.9476  136.0214  150.3858 H   0  0  0  0  0  0  0  0  0  0  0  0
  146.2275  134.7348  151.5321 H   0  0  0  0  0  0  0  0  0  0  0  0
  147.3445  139.8393  151.2963 H   0  0  0  0  0  0  0  0  0  0  0  0
  1  2  1  0  0  0  0
  1 31  1  0  0  0  0
  1 32  1  0  0  0  0
  1 33  1  0  0  0  0
  2  6  1  0  0  0  0
  2  3  1  0  0  0  0
  2 34  1  0  0  0  0
  3  4  1  0  0  0  0
  4  5  1  0  0  0  0
  4 35  1  0  0  0  0
  4 36  1  0  0  0  0
  5  6  1  0  0  0  0
  5 37  1  0  0  0  0
  5 38  1  0  0  0  0
  6  7  1  0  0  0  0
  6  8  1  0  0  0  0
  7 39  1  0  0  0  0
  8  9  1  0  0  0  0
  8 40  1  0  0  0  0
  8 41  1  0  0  0  0
  9 28  1  0  0  0  0
  9 10  1  0  0  0  0
 10 11  2  0  0  0  0
 10 42  1  0  0  0  0
 11 12  1  0  0  0  0
 12 28  2  0  0  0  0
 12 13  1  0  0  0  0
 13 14  1  0  0  0  0
 13 25  2  0  0  0  0
 14 24  1  0  0  0  0
 14 15  1  0  0  0  0
 15 16  1  0  0  0  0
 15 43  1  0  0  0  0
 15 44  1  0  0  0  0
 16 17  1  0  0  0  0
 16 45  1  0  0  0  0
 16 46  1  0  0  0  0
 17 29  1  0  0  0  0
 17 23  1  0  0  0  0
 17 18  1  0  0  0  0
 18 19  1  0  0  0  0
 19 20  1  0  0  0  0
 19 47  1  0  0  0  0
 19 48  1  0  0  0  0
 20 21  2  0  0  0  0
 20 22  1  0  0  0  0
 22 23  1  0  0  0  0
 22 49  1  0  0  0  0
 23 30  1  0  0  0  0
 23 24  1  0  0  0  0
 24 50  1  0  0  0  0
 24 51  1  0  0  0  0
 25 26  1  0  0  0  0
 26 27  2  0  0  0  0
 26 52  1  0  0  0  0
 27 28  1  0  0  0  0
M  END
> <s_m_source_file>
AV-unprocessed.smi

> <i_m_source_file_index>
265

> <i_lp_mmshare_version>
43012

> <i_f3d_flags>
0

> <s_epik_input>
W0NIMl0xW0NIMl1PW0NAQEhdKFtDSDNdKVtDQEBdMShbT0hdKVtDSDJdbihbY0hdbjIpYyhjMjMpbltjSF1uYzNOKFtDSDJdW0NIMl00KVtDSDJdW0NAQEhdKFtDQEhdNDUpW05IXUMoPU8pW0NIMl1PNQ==

> <s_epik_cmdline>
J2VwaWtfcHl0aG9uJywgJy1waCcsICc3LjAnLCAnLXRuJywgJzgnLCAnLW1hJywgJzIwMCcsICctbWV0YWxfYmluZGluZycsICctaW1hZScsICc8aW5maWxlLm1hZT4nLCAnLW9tYWUnLCAnPG91dGZpbGUubWFlPic=

> <r_lp_tautomer_probability>
1

> <r_epik_Ionization_Penalty>
0.00221504

> <r_epik_Ionization_Penalty_Charging>
0

> <r_epik_Ionization_Penalty_Neutral>
0.00221504

> <r_epik_State_Penalty>
-0

> <r_epik_Charging_Adjusted_Penalty>
0

> <i_epik_Tot_Q>
0

> <i_epik_Tot_abs_Q>
0

> <r_epik_Metal_State_Penalty>
-0

> <b_epik_Metal_Only>
0

> <s_lp_Force_Field>
OPLS_2005

> <r_lp_Energy>
44.7189

> <b_lp_Chiralities_Consistent>
1

> <s_lp_Variant>
AV-unprocessed.smi:265-10

> <Gold.Version>
5.8.1

> <Gold.Id.Protein>
6NUR|6NUR_protein|mol2

> <Gold.PLP.Fitness>
40.8541

> <Gold.PLP.PLP>
-35.6496

> <Gold.PLP.part.hbond>
-3.1915

> <Gold.PLP.part.metal>
0.0000

> <Gold.PLP.part.buried>
-5.9424

> <Gold.PLP.part.nonpolar>
-28.7706

> <Gold.PLP.part.repulsive>
2.3768

> <Gold.PLP.ligand.clash>
0.0000

> <Gold.PLP.ligand.torsion>
1.4862

> <Gold.PLP.Chemscore.Hbond>
1.9920

> <Gold.PLP.Chemscore.CHOScore>
0.6117

> <Gold.PLP.Chemscore.Metal>
0.0000

> <Gold.Chemscore.Hbonds>
donor molecule, donor type, donor heavy atom, donor atom, acceptor molecule, acceptor atom, score
      L1  H    22    49       P1  7921  1.00
      P1  H  7989  7998       L1     3  1.00
      L1  C    26    52       P1  7957  0.62

> <Gold.PLP.Chemscore.Internal.Correction>
0.3658

> <Gold.Rescore>
     Score         DG    S(hbond)    S(metal)    S(lipo)     H(rot)  DE(clash)    DE(int)     intcor
     10.00     -13.18       1.72        0.00      65.91       2.25       0.32       2.86       ----

> <Gold.Chemscore.Fitness>
10.0047

> <Gold.Chemscore.DG>
-13.1781

> <Gold.Chemscore.ZeroCoef>
-5.4800

> <Gold.Chemscore.Hbond>
1.7170

> <Gold.Chemscore.Metal>
0.0000

> <Gold.Chemscore.Lipo>
65.9069

> <Gold.Chemscore.Internal_Hbond>
0.0000

> <Gold.Chemscore.DEClash>
0.3181

> <Gold.Chemscore.DEInternal>
2.8553

> <Gold.Chemscore.Rot>
2.2453

> <Gold.Chemscore.Internal.Correction>
   9.000000E+99

> <Gold.Chemscore.Hbonds>
donor molecule, donor type, donor heavy atom, donor atom, acceptor molecule, acceptor atom, score
      L1  H    22    49       P1  7921  0.94
      P1  H  7989  7998       L1     3  0.58

> <Gold.Chemscore.Hbond.Weighted>
-5.7349

> <Gold.Chemscore.Metal.Weighted>
-0.0000

> <Gold.Chemscore.Lipo.Weighted>
-7.7111

> <Gold.Chemscore.Internal_Hbond.Weighted>
0.0000

> <Gold.Chemscore.DEClash.Weighted>
0.3181

> <Gold.Chemscore.DEInternal.Weighted>
2.8553

> <Gold.Chemscore.Rot.Weighted>
5.7479

> <Gold.Chemscore.Internal.Correction.Weighted>
   9.000000E+99

> <Gold.Protein.RotatedTorsions>
[ 6907 6896 6895 6894 ] final   18.17 input  -60.11 | X-H torsion
[ 7974 7965 7964 7962 ] final -177.26 input  175.53 | X-H torsion
[ 8008 7997 7996 7995 ] final -159.94 input   59.86 | X-H torsion
[ 10167 10162 10161 10158 ] final  137.42 input  -65.29 | X-H torsion
[ 10718 10713 10712 10709 ] final   76.64 input   66.30 | X-H torsion
[ 10763 10752 10751 10750 ] final -145.37 input  -60.55 | X-H torsion
[ 11005 11000 10999 10996 ] final   70.10 input  -57.11 | X-H torsion

> <Gold.Protein.ActiveResidues>
 VAL166  LYS551  ARG553  GLY616  TRP617  ASP618  TYR619  PRO620  LYS621  CYS622 
 ASP623  PHE694  ASN695  SER759  ASP760  ASP761  ALA762  ILE779  LEU786  VAL792 
 PHE793  MET794  SER795  GLU796  ALA797  LYS798  CYS799  TRP800  GLU811  SER814 

> <Gold.Protein.RotatedAtoms>
  151.8610  135.0524  160.0469 H   0  0  0  0  0  0  0  0  0  0  0  0  # atno 6907 bound_to 6896
  152.2662  133.5337  159.5420 H   0  0  0  0  0  0  0  0  0  0  0  0  # atno 6908 bound_to 6896
  150.7134  134.0677  159.3895 H   0  0  0  0  0  0  0  0  0  0  0  0  # atno 6909 bound_to 6896
  144.7127  140.1046  143.6414 H   0  0  0  0  0  0  0  0  0  0  0  0  # atno 7974 bound_to 7965
  155.7701  140.0851  157.2112 H   0  0  0  0  0  0  0  0  0  0  0  0  # atno 8008 bound_to 7997
  154.3997  140.1527  156.2989 H   0  0  0  0  0  0  0  0  0  0  0  0  # atno 8009 bound_to 7997
  155.8755  140.3423  155.5854 H   0  0  0  0  0  0  0  0  0  0  0  0  # atno 8010 bound_to 7997
  139.5145  144.6410  151.5567 H   0  0  0  0  0  0  0  0  0  0  0  0  # atno 10167 bound_to 10162
  157.6681  130.9784  150.1525 H   0  0  0  0  0  0  0  0  0  0  0  0  # atno 10718 bound_to 10713
  154.8386  135.3415  154.6494 H   0  0  0  0  0  0  0  0  0  0  0  0  # atno 10763 bound_to 10752
  153.7106  135.6964  153.5043 H   0  0  0  0  0  0  0  0  0  0  0  0  # atno 10764 bound_to 10752
  153.2454  135.4371  155.0696 H   0  0  0  0  0  0  0  0  0  0  0  0  # atno 10765 bound_to 10752
  139.9616  134.7051  156.0633 H   0  0  0  0  0  0  0  0  0  0  0  0  # atno 11005 bound_to 11000
  145.9508  139.2732  143.1213 LP  0  0  0  0  0  0  0  0  0  0  0  0  # atno 17320 bound_to 7965
  145.9325  140.9038  143.0349 LP  0  0  0  0  0  0  0  0  0  0  0  0  # atno 17321 bound_to 7965
  140.6177  143.9317  150.6502 LP  0  0  0  0  0  0  0  0  0  0  0  0  # atno 17342 bound_to 10162
  140.2580  143.3544  152.1348 LP  0  0  0  0  0  0  0  0  0  0  0  0  # atno 17343 bound_to 10162
  156.2321  130.3683  149.8433 LP  0  0  0  0  0  0  0  0  0  0  0  0  # atno 17370 bound_to 10713
  156.6256  130.8644  151.3485 LP  0  0  0  0  0  0  0  0  0  0  0  0  # atno 17371 bound_to 10713
  141.1294  133.6590  156.3422 LP  0  0  0  0  0  0  0  0  0  0  0  0  # atno 17394 bound_to 11000
  140.5487  134.6049  157.5401 LP  0  0  0  0  0  0  0  0  0  0  0  0  # atno 17395 bound_to 11000

$$$$
