#       Name:                AV-unprocessed.smi:1634
#       Creating user name   scv26
#       Creation time:       Fri Mar 27 07:22:05 2020


#       File generated by GOLD software.
#

@<TRIPOS>MOLECULE
AV-unprocessed.smi:1634
    44    44     1
SMALL
NO_CHARGES


@<TRIPOS>ATOM
      1 ****        -3.9276  -1.0652   0.4507 C.3            1 S1                 0.0000
      2 ****        -3.4306  -0.3421   1.7125 C.3            1 S1                 0.0000
      3 ****        -4.1216   1.0207   1.8673 C.3            1 S1                 0.0000
      4 ****        -1.9012  -0.1875   1.7080 C.3            1 S1                 0.0000
      5 ****        -1.2992  -1.4772   1.7506 O.3            1 S1                 0.0000
      6 ****         0.1255  -1.4891   1.7824 C.3            1 S1                 0.0000
      7 ****         0.5703  -2.9090   2.1636 C.3            1 S1                 0.0000
      8 ****         0.6925  -1.0732   0.4153 C.2            1 S1                 0.0000
      9 ****         0.5106  -1.8011  -0.5601 O.2            1 S1                 0.0000
     10 ****         1.3360   0.1110   0.3965 N.am           1 S1                 0.0000
     11 ****         1.9507   0.7875  -0.6712 C.2            1 S1                 0.0000
     12 ****         2.2013   0.2556  -1.8966 C.2            1 S1                 0.0000
     13 ****         2.8436   1.0196  -2.9530 C.2            1 S1                 0.0000
     14 ****         3.1693   0.3946  -4.3008 C.3            1 S1                 0.0000
     15 ****         4.2339   0.9724  -4.8589 F              1 S1                 0.0000
     16 ****         3.4185  -0.9091  -4.1754 F              1 S1                 0.0000
     17 ****         2.1358   0.5409  -5.1287 F              1 S1                 0.0000
     18 ****         3.2052   2.2794  -2.6483 C.2            1 S1                 0.0000
     19 ****         2.9492   2.8349  -1.3929 N.am           1 S1                 0.0000
     20 ****         2.3467   2.1753  -0.3785 C.2            1 S1                 0.0000
     21 ****         2.1606   2.7348   0.7016 O.2            1 S1                 0.0000
     22 ****         3.2415   3.7902  -1.2454 H              1 S1                 0.0000
     23 ****        -3.6744  -0.5075  -0.4516 H              1 S1                 0.0000
     24 ****        -5.0103  -1.1919   0.4712 H              1 S1                 0.0000
     25 ****        -3.4848  -2.0577   0.3627 H              1 S1                 0.0000
     26 ****        -3.7034  -0.9482   2.5774 H              1 S1                 0.0000
     27 ****        -3.8870   1.6813   1.0320 H              1 S1                 0.0000
     28 ****        -3.8073   1.5194   2.7846 H              1 S1                 0.0000
     29 ****        -5.2054   0.9092   1.9094 H              1 S1                 0.0000
     30 ****        -1.5908   0.3698   0.8235 H              1 S1                 0.0000
     31 ****        -1.5819   0.3850   2.5801 H              1 S1                 0.0000
     32 ****         0.4756  -0.8027   2.5559 H              1 S1                 0.0000
     33 ****         1.6576  -2.9921   2.1799 H              1 S1                 0.0000
     34 ****         0.1869  -3.6523   1.4634 H              1 S1                 0.0000
     35 ****         0.2055  -3.1743   3.1561 H              1 S1                 0.0000
     36 ****         1.3574   0.6131   1.2726 H              1 S1                 0.0000
     37 ****         1.9368  -0.7619  -2.1295 H              1 S1                 0.0000
     38 ****         3.7131   2.9483  -3.3275 H              1 S1                 0.0000
     39 ****        -1.5933  -1.9814   0.9387 LP             1 S1                 0.0000
     40 ****        -1.6294  -1.9443   2.5708 LP             1 S1                 0.0000
     41 ****        -0.0018  -2.6539  -0.4589 LP             1 S1                 0.0000
     42 ****         0.8752  -1.5399  -1.4538 LP             1 S1                 0.0000
     43 ****         1.7143   2.2429   1.4492 LP             1 S1                 0.0000
     44 ****         2.4557   3.6813   0.8318 LP             1 S1                 0.0000
@<TRIPOS>BOND
    1    1    2 1     
    2    1   23 1     
    3    1   24 1     
    4    1   25 1     
    5    2    3 1     
    6    2    4 1     
    7    2   26 1     
    8    3   27 1     
    9    3   28 1     
   10    3   29 1     
   11    4    5 1     
   12    4   30 1     
   13    4   31 1     
   14    5    6 1     
   15    6    7 1     
   16    6    8 1     
   17    6   32 1     
   18    7   33 1     
   19    7   34 1     
   20    7   35 1     
   21    8    9 2     
   22    8   10 am    
   23   10   11 1     
   24   10   36 1     
   25   11   20 1     
   26   11   12 2     
   27   12   13 1     
   28   12   37 1     
   29   13   14 1     
   30   13   18 2     
   31   14   15 1     
   32   14   16 1     
   33   14   17 1     
   34   18   19 1     
   35   18   38 1     
   36   19   22 1     
   37   19   20 am    
   38   20   21 2     
   39    5   39 1     
   40    5   40 1     
   41    9   41 1     
   42    9   42 1     
   43   21   43 1     
   44   21   44 1     
@<TRIPOS>SUBSTRUCTURE
      1 S1             1
@<TRIPOS>SET
LONE_PAIRS      STATIC     ATOMS    <user>   **** ""
6 39 40 41 42 43 44
DONOR_HYDROGENS      STATIC     ATOMS    <user>   **** ""
2 36 22
ATOM$BLUE        STATIC     ATOMS    COLORGROUP SYSTEM
6 39 40 41 42 43 44
ATOM$RED        STATIC     ATOMS    COLORGROUP SYSTEM
2 36 22
