AV-unprocessed.smi:3204|AV-procd|sdf|12251|dock3
  -GOLD-   2272018 83D 1   1.00000     0.00000
 Structure written by MMmdl.
 30 31  0  0  0  0  0  0  0  0  1 V2000
  153.0216  142.5328  159.6642 C   0  0  0  0  0  0  0  0  0  0  0  0
  152.4272  141.1219  159.5844 C   0  0  0  0  0  0  0  0  0  0  0  0
  151.9682  140.7674  158.1820 C   0  0  0  0  0  0  0  0  0  0  0  0
  152.5520  139.6928  157.6055 N   0  0  0  0  0  0  0  0  0  0  0  0
  152.1526  139.3817  156.3699 C   0  0  0  0  0  0  0  0  0  0  0  0
  151.2355  140.0239  155.6417 N   0  0  0  0  0  0  0  0  0  0  0  0
  150.6443  141.1053  156.2034 C   0  0  0  0  0  0  0  0  0  0  0  0
  149.6762  141.8182  155.4818 N   0  0  0  0  0  0  0  0  0  0  0  0
  148.9005  141.1890  154.4168 C   0  0  1  0  0  0  0  0  0  0  0  0
  148.2274  139.8887  154.8352 C   0  0  0  0  0  0  0  0  0  0  0  0
  147.2880  139.6686  153.7927 O   0  0  0  0  0  0  0  0  0  0  0  0
  146.8001  140.9233  153.3175 C   0  0  0  0  0  0  0  0  0  0  0  0
  147.7157  142.0050  153.9093 C   0  0  1  0  0  0  0  0  0  0  0  0
  147.0289  142.6644  154.9590 O   0  0  0  0  0  0  0  0  0  0  0  0
  150.9881  141.5267  157.5058 C   0  0  0  0  0  0  0  0  0  0  0  0
  150.4062  142.6097  158.0768 F   0  0  0  0  0  0  0  0  0  0  0  0
  153.3429  142.7613  160.6805 H   0  0  0  0  0  0  0  0  0  0  0  0
  152.2890  143.2846  159.3692 H   0  0  0  0  0  0  0  0  0  0  0  0
  153.8885  142.6335  159.0107 H   0  0  0  0  0  0  0  0  0  0  0  0
  153.1679  140.3906  159.9105 H   0  0  0  0  0  0  0  0  0  0  0  0
  151.5894  141.0352  160.2770 H   0  0  0  0  0  0  0  0  0  0  0  0
  152.6198  138.5232  155.9110 H   0  0  0  0  0  0  0  0  0  0  0  0
  149.5437  142.8024  155.6648 H   0  0  0  0  0  0  0  0  0  0  0  0
  149.5627  140.9652  153.5789 H   0  0  0  0  0  0  0  0  0  0  0  0
  148.9280  139.0586  154.9272 H   0  0  0  0  0  0  0  0  0  0  0  0
  147.6964  140.0009  155.7821 H   0  0  0  0  0  0  0  0  0  0  0  0
  146.8539  140.9221  152.2286 H   0  0  0  0  0  0  0  0  0  0  0  0
  145.7537  141.0596  153.5950 H   0  0  0  0  0  0  0  0  0  0  0  0
  148.0125  142.7428  153.1633 H   0  0  0  0  0  0  0  0  0  0  0  0
  147.6573  143.1643  155.4572 H   0  0  0  0  0  0  0  0  0  0  0  0
  1  2  1  0  0  0  0
  1 17  1  0  0  0  0
  1 18  1  0  0  0  0
  1 19  1  0  0  0  0
  2  3  1  0  0  0  0
  2 20  1  0  0  0  0
  2 21  1  0  0  0  0
  3 15  1  0  0  0  0
  3  4  2  0  0  0  0
  4  5  1  0  0  0  0
  5  6  2  0  0  0  0
  5 22  1  0  0  0  0
  6  7  1  0  0  0  0
  7  8  1  0  0  0  0
  7 15  2  0  0  0  0
  8  9  1  0  0  0  0
  8 23  1  0  0  0  0
  9 13  1  0  0  0  0
  9 10  1  0  0  0  0
  9 24  1  0  0  0  0
 10 11  1  0  0  0  0
 10 25  1  0  0  0  0
 10 26  1  0  0  0  0
 11 12  1  0  0  0  0
 12 13  1  0  0  0  0
 12 27  1  0  0  0  0
 12 28  1  0  0  0  0
 13 14  1  0  0  0  0
 13 29  1  0  0  0  0
 14 30  1  0  0  0  0
 15 16  1  0  0  0  0
M  END
> <s_m_source_file>
AV-unprocessed.smi

> <i_m_source_file_index>
3204

> <i_lp_mmshare_version>
43012

> <i_f3d_flags>
0

> <s_epik_input>
W0NIM11bQ0gyXWMxbltjSF1uYyhjMUYpW05IXVtDQEBIXTJbQ0gyXU9bQ0gyXVtDQEhdMltPSF0=

> <s_epik_cmdline>
J2VwaWtfcHl0aG9uJywgJy1waCcsICc3LjAnLCAnLXRuJywgJzgnLCAnLW1hJywgJzIwMCcsICctbWV0YWxfYmluZGluZycsICctaW1hZScsICc8aW5maWxlLm1hZT4nLCAnLW9tYWUnLCAnPG91dGZpbGUubWFlPic=

> <r_lp_tautomer_probability>
1

> <r_epik_Ionization_Penalty>
0.000484964

> <r_epik_Ionization_Penalty_Charging>
0

> <r_epik_Ionization_Penalty_Neutral>
0.000484964

> <r_epik_State_Penalty>
-0

> <r_epik_Charging_Adjusted_Penalty>
0

> <i_epik_Tot_Q>
0

> <i_epik_Tot_abs_Q>
0

> <r_epik_Metal_State_Penalty>
-0

> <b_epik_Metal_Only>
0

> <s_lp_Force_Field>
OPLS_2005

> <r_lp_Energy>
19.2614

> <b_lp_Chiralities_Consistent>
1

> <s_lp_Variant>
AV-unprocessed.smi:3204-2

> <Gold.Version>
5.8.1

> <Gold.Id.Protein>
6NUR|6NUR_protein|mol2

> <Gold.PLP.Fitness>
41.1705

> <Gold.PLP.PLP>
-30.2068

> <Gold.PLP.part.hbond>
-4.0000

> <Gold.PLP.part.metal>
0.0000

> <Gold.PLP.part.buried>
-3.0834

> <Gold.PLP.part.nonpolar>
-23.3539

> <Gold.PLP.part.repulsive>
0.3987

> <Gold.PLP.ligand.clash>
0.0000

> <Gold.PLP.ligand.torsion>
0.2207

> <Gold.PLP.Chemscore.Hbond>
3.8000

> <Gold.PLP.Chemscore.CHOScore>
0.0000

> <Gold.PLP.Chemscore.Metal>
0.0000

> <Gold.Chemscore.Hbonds>
donor molecule, donor type, donor heavy atom, donor atom, acceptor molecule, acceptor atom, score
      L1  H     8    23       P1  8028  1.00
      L1  H    14    30       P1  8028  1.00
      P1  H  7989  7998       L1     6  0.23
      P1  H  7997  8008       L1     4  0.04

> <Gold.PLP.Chemscore.Internal.Correction>
0.0052

> <Gold.Rescore>
     Score         DG    S(hbond)    S(metal)    S(lipo)     H(rot)  DE(clash)    DE(int)     intcor
     13.75     -14.09       1.87        0.00      60.35       1.83       0.11       0.23       ----

> <Gold.Chemscore.Fitness>
13.7532

> <Gold.Chemscore.DG>
-14.0901

> <Gold.Chemscore.ZeroCoef>
-5.4800

> <Gold.Chemscore.Hbond>
1.8693

> <Gold.Chemscore.Metal>
0.0000

> <Gold.Chemscore.Lipo>
60.3495

> <Gold.Chemscore.Internal_Hbond>
0.0000

> <Gold.Chemscore.DEClash>
0.1087

> <Gold.Chemscore.DEInternal>
0.2281

> <Gold.Chemscore.Rot>
1.8337

> <Gold.Chemscore.Internal.Correction>
   9.000000E+99

> <Gold.Chemscore.Hbonds>
donor molecule, donor type, donor heavy atom, donor atom, acceptor molecule, acceptor atom, score
      L1  H     8    23       P1  8028  0.93
      L1  H    14    30       P1  8028  0.32
      P1  H  7989  7998       L1     6  0.05

> <Gold.Chemscore.Hbond.Weighted>
-6.2434

> <Gold.Chemscore.Metal.Weighted>
-0.0000

> <Gold.Chemscore.Lipo.Weighted>
-7.0609

> <Gold.Chemscore.Internal_Hbond.Weighted>
0.0000

> <Gold.Chemscore.DEClash.Weighted>
0.1087

> <Gold.Chemscore.DEInternal.Weighted>
0.2281

> <Gold.Chemscore.Rot.Weighted>
4.6942

> <Gold.Chemscore.Internal.Correction.Weighted>
   9.000000E+99

> <Gold.Protein.RotatedTorsions>
[ 6907 6896 6895 6894 ] final  -32.51 input  -60.11 | X-H torsion
[ 7974 7965 7964 7962 ] final -122.75 input  175.53 | X-H torsion
[ 8008 7997 7996 7995 ] final  -55.00 input   59.86 | X-H torsion
[ 10167 10162 10161 10158 ] final  -66.06 input  -65.29 | X-H torsion
[ 10718 10713 10712 10709 ] final -147.96 input   66.30 | X-H torsion
[ 10763 10752 10751 10750 ] final   42.91 input  -60.55 | X-H torsion
[ 11005 11000 10999 10996 ] final   -6.83 input  -57.11 | X-H torsion

> <Gold.Protein.ActiveResidues>
 VAL166  LYS551  ARG553  GLY616  TRP617  ASP618  TYR619  PRO620  LYS621  CYS622 
 ASP623  PHE694  ASN695  SER759  ASP760  ASP761  ALA762  ILE779  LEU786  VAL792 
 PHE793  MET794  SER795  GLU796  ALA797  LYS798  CYS799  TRP800  GLU811  SER814 

> <Gold.Protein.RotatedAtoms>
  151.0778  134.9839  159.8340 H   0  0  0  0  0  0  0  0  0  0  0  0  # atno 6907 bound_to 6896
  152.5416  134.2219  159.8801 H   0  0  0  0  0  0  0  0  0  0  0  0  # atno 6908 bound_to 6896
  151.2248  133.4439  159.2635 H   0  0  0  0  0  0  0  0  0  0  0  0  # atno 6909 bound_to 6896
  145.0261  140.8028  143.4352 H   0  0  0  0  0  0  0  0  0  0  0  0  # atno 7974 bound_to 7965
  154.4180  140.1163  156.5406 H   0  0  0  0  0  0  0  0  0  0  0  0  # atno 8008 bound_to 7997
  155.6512  140.3496  155.4730 H   0  0  0  0  0  0  0  0  0  0  0  0  # atno 8009 bound_to 7997
  155.9791  140.1156  157.0733 H   0  0  0  0  0  0  0  0  0  0  0  0  # atno 8010 bound_to 7997
  140.5684  143.2316  151.6588 H   0  0  0  0  0  0  0  0  0  0  0  0  # atno 10167 bound_to 10162
  156.4142  130.7997  151.2216 H   0  0  0  0  0  0  0  0  0  0  0  0  # atno 10718 bound_to 10713
  152.9872  135.6117  154.3026 H   0  0  0  0  0  0  0  0  0  0  0  0  # atno 10763 bound_to 10752
  154.2745  135.2778  155.2725 H   0  0  0  0  0  0  0  0  0  0  0  0  # atno 10764 bound_to 10752
  154.5092  135.5845  153.6648 H   0  0  0  0  0  0  0  0  0  0  0  0  # atno 10765 bound_to 10752
  140.7062  133.8947  155.8718 H   0  0  0  0  0  0  0  0  0  0  0  0  # atno 11005 bound_to 11000
  145.1832  139.2340  143.5281 LP  0  0  0  0  0  0  0  0  0  0  0  0  # atno 17320 bound_to 7965
  146.3492  140.1611  142.8591 LP  0  0  0  0  0  0  0  0  0  0  0  0  # atno 17321 bound_to 7965
  139.5105  144.3541  152.0624 LP  0  0  0  0  0  0  0  0  0  0  0  0  # atno 17342 bound_to 10162
  140.2676  144.3999  150.6163 LP  0  0  0  0  0  0  0  0  0  0  0  0  # atno 17343 bound_to 10162
  157.7507  131.0248  150.3892 LP  0  0  0  0  0  0  0  0  0  0  0  0  # atno 17370 bound_to 10713
  156.4196  130.3950  149.6834 LP  0  0  0  0  0  0  0  0  0  0  0  0  # atno 17371 bound_to 10713
  141.0122  134.1004  157.4209 LP  0  0  0  0  0  0  0  0  0  0  0  0  # atno 17394 bound_to 11000
  139.8883  135.0097  156.6615 LP  0  0  0  0  0  0  0  0  0  0  0  0  # atno 17395 bound_to 11000

$$$$
