AV-unprocessed.smi:2562|AV-procd|sdf|10043|dock2
  -GOLD-   2272014 83D 1   1.00000     0.00000
 Structure written by MMmdl.
 31 32  0  0  0  0  0  0  0  0  2 V2000
  152.6349  143.4669  160.3635 C   0  0  0  0  0  0  0  0  0  0  0  0
  152.5696  142.5624  159.1280 C   0  0  0  0  0  0  0  0  0  0  0  0
  151.5939  143.0866  158.0647 C   0  0  0  0  0  0  0  0  0  0  0  0
  151.1722  142.0263  157.1012 C   0  0  0  0  0  0  0  0  0  0  0  0
  151.5846  140.7615  157.2069 N   0  0  0  0  0  0  0  0  0  0  0  0
  151.0257  140.0256  156.2228 N   0  0  0  0  0  0  0  0  0  0  0  0
  150.3067  140.9365  155.5680 C   0  0  0  0  0  0  0  0  0  0  0  0
  149.4602  140.5471  154.3965 C   0  0  1  0  0  0  0  0  0  0  0  0
  149.5180  139.0336  154.1135 C   0  0  0  0  0  0  0  0  0  0  0  0
  148.5891  138.6913  153.0190 N   0  3  0  0  0  0  0  0  0  0  0  0
  147.2181  139.1576  153.3077 C   0  0  0  0  0  0  0  0  0  0  0  0
  147.2256  140.6630  153.6281 C   0  0  0  0  0  0  0  0  0  0  0  0
  148.1195  140.9220  154.7058 O   0  0  0  0  0  0  0  0  0  0  0  0
  150.3395  142.2048  156.0815 N   0  0  0  0  0  0  0  0  0  0  0  0
  152.2067  140.3738  157.9023 H   0  0  0  0  0  0  0  0  0  0  0  0
  153.3327  143.0683  161.1000 H   0  0  0  0  0  0  0  0  0  0  0  0
  151.6588  143.5516  160.8418 H   0  0  0  0  0  0  0  0  0  0  0  0
  152.9679  144.4710  160.0996 H   0  0  0  0  0  0  0  0  0  0  0  0
  153.5672  142.4728  158.6962 H   0  0  0  0  0  0  0  0  0  0  0  0
  152.2732  141.5583  159.4338 H   0  0  0  0  0  0  0  0  0  0  0  0
  150.7023  143.4932  158.5436 H   0  0  0  0  0  0  0  0  0  0  0  0
  152.0499  143.9078  157.5099 H   0  0  0  0  0  0  0  0  0  0  0  0
  149.7955  141.1066  153.5205 H   0  0  0  0  0  0  0  0  0  0  0  0
  150.5283  138.7294  153.8389 H   0  0  0  0  0  0  0  0  0  0  0  0
  149.2410  138.4680  155.0048 H   0  0  0  0  0  0  0  0  0  0  0  0
  148.9103  139.1369  152.1712 H   0  0  0  0  0  0  0  0  0  0  0  0
  146.5770  138.9501  152.4508 H   0  0  0  0  0  0  0  0  0  0  0  0
  146.8183  138.5952  154.1526 H   0  0  0  0  0  0  0  0  0  0  0  0
  147.5173  141.2455  152.7526 H   0  0  0  0  0  0  0  0  0  0  0  0
  146.2258  140.9928  153.9108 H   0  0  0  0  0  0  0  0  0  0  0  0
  148.5825  137.6904  152.8829 H   0  0  0  0  0  0  0  0  0  0  0  0
  1  2  1  0  0  0  0
  1 16  1  0  0  0  0
  1 17  1  0  0  0  0
  1 18  1  0  0  0  0
  2  3  1  0  0  0  0
  2 19  1  0  0  0  0
  2 20  1  0  0  0  0
  3 21  1  0  0  0  0
  3 22  1  0  0  0  0
  3  4  1  0  0  0  0
  4 14  2  0  0  0  0
  4  5  1  0  0  0  0
  5  6  1  0  0  0  0
  5 15  1  0  0  0  0
  6  7  2  0  0  0  0
  7 14  1  0  0  0  0
  7  8  1  0  0  0  0
  8 13  1  0  0  0  0
  8  9  1  0  0  0  0
  8 23  1  0  0  0  0
  9 10  1  0  0  0  0
  9 24  1  0  0  0  0
  9 25  1  0  0  0  0
 10 11  1  0  0  0  0
 10 26  1  0  0  0  0
 10 31  1  0  0  0  0
 11 12  1  0  0  0  0
 11 27  1  0  0  0  0
 11 28  1  0  0  0  0
 12 13  1  0  0  0  0
 12 29  1  0  0  0  0
 12 30  1  0  0  0  0
M  CHG  1  10   1
M  END
> <s_m_source_file>
AV-unprocessed.smi

> <i_m_source_file_index>
2562

> <i_lp_mmshare_version>
43012

> <i_f3d_flags>
0

> <s_epik_input>
W0NIM11bQ0gyXVtDSDJdYzFuW25IXWMobjEpW0NAQEhdMltDSDJdW05IXVtDSDJdW0NIMl1PMg==

> <s_epik_cmdline>
J2VwaWtfcHl0aG9uJywgJy1waCcsICc3LjAnLCAnLXRuJywgJzgnLCAnLW1hJywgJzIwMCcsICctbWV0YWxfYmluZGluZycsICctaW1hZScsICc8aW5maWxlLm1hZT4nLCAnLW9tYWUnLCAnPG91dGZpbGUubWFlPic=

> <r_lp_tautomer_probability>
0.948284

> <r_epik_Ionization_Penalty>
0.10647

> <r_epik_Ionization_Penalty_Charging>
0.100865

> <r_epik_Ionization_Penalty_Neutral>
0.0056057

> <r_epik_State_Penalty>
0.375056

> <r_epik_Charging_Adjusted_Penalty>
0.47592

> <i_epik_Tot_Q>
1

> <i_epik_Tot_abs_Q>
1

> <r_epik_Metal_State_Penalty>
0.497514

> <b_epik_Metal_Only>
0

> <s_lp_Force_Field>
OPLS_2005

> <r_lp_Energy>
10.4144

> <b_lp_Chiralities_Consistent>
1

> <s_lp_Variant>
AV-unprocessed.smi:2562-2

> <Gold.Version>
5.8.1

> <Gold.Id.Protein>
6NUR|6NUR_protein|mol2

> <Gold.PLP.Fitness>
35.5909

> <Gold.PLP.PLP>
-27.0849

> <Gold.PLP.part.hbond>
-1.9506

> <Gold.PLP.part.metal>
0.0000

> <Gold.PLP.part.buried>
-2.9231

> <Gold.PLP.part.nonpolar>
-22.9807

> <Gold.PLP.part.repulsive>
1.5230

> <Gold.PLP.ligand.clash>
0.0000

> <Gold.PLP.ligand.torsion>
0.1226

> <Gold.PLP.Chemscore.Hbond>
2.9113

> <Gold.PLP.Chemscore.CHOScore>
0.0000

> <Gold.PLP.Chemscore.Metal>
0.0000

> <Gold.Chemscore.Hbonds>
donor molecule, donor type, donor heavy atom, donor atom, acceptor molecule, acceptor atom, score
      L1  H    10    26       P1  7957  0.94
      L1  H    10    31       P1  7948  1.95

> <Gold.PLP.Chemscore.Internal.Correction>
0.0175

> <Gold.Rescore>
     Score         DG    S(hbond)    S(metal)    S(lipo)     H(rot)  DE(clash)    DE(int)     intcor
     15.05     -15.18       1.92        0.00      61.07       1.51       0.04       0.09       ----

> <Gold.Chemscore.Fitness>
15.0539

> <Gold.Chemscore.DG>
-15.1804

> <Gold.Chemscore.ZeroCoef>
-5.4800

> <Gold.Chemscore.Hbond>
1.9235

> <Gold.Chemscore.Metal>
0.0000

> <Gold.Chemscore.Lipo>
61.0724

> <Gold.Chemscore.Internal_Hbond>
0.0000

> <Gold.Chemscore.DEClash>
0.0396

> <Gold.Chemscore.DEInternal>
0.0869

> <Gold.Chemscore.Rot>
1.5115

> <Gold.Chemscore.Internal.Correction>
   9.000000E+99

> <Gold.Chemscore.Hbonds>
donor molecule, donor type, donor heavy atom, donor atom, acceptor molecule, acceptor atom, score
      L1  H    10    26       P1  7957  0.89
      L1  H    10    31       P1  7948  0.93

> <Gold.Chemscore.Hbond.Weighted>
-6.4244

> <Gold.Chemscore.Metal.Weighted>
-0.0000

> <Gold.Chemscore.Lipo.Weighted>
-7.1455

> <Gold.Chemscore.Internal_Hbond.Weighted>
0.0000

> <Gold.Chemscore.DEClash.Weighted>
0.0396

> <Gold.Chemscore.DEInternal.Weighted>
0.0869

> <Gold.Chemscore.Rot.Weighted>
3.8695

> <Gold.Chemscore.Internal.Correction.Weighted>
   9.000000E+99

> <Gold.Protein.RotatedTorsions>
[ 6907 6896 6895 6894 ] final  -75.31 input  -60.11 | X-H torsion
[ 7974 7965 7964 7962 ] final   -5.08 input  175.53 | X-H torsion
[ 8008 7997 7996 7995 ] final  -79.90 input   59.86 | X-H torsion
[ 10167 10162 10161 10158 ] final  -25.92 input  -65.29 | X-H torsion
[ 10718 10713 10712 10709 ] final   20.94 input   66.30 | X-H torsion
[ 10763 10752 10751 10750 ] final -118.64 input  -60.55 | X-H torsion
[ 11005 11000 10999 10996 ] final  -41.32 input  -57.11 | X-H torsion

> <Gold.Protein.ActiveResidues>
 VAL166  LYS551  ARG553  GLY616  TRP617  ASP618  TYR619  PRO620  LYS621  CYS622 
 ASP623  PHE694  ASN695  SER759  ASP760  ASP761  ALA762  ILE779  LEU786  VAL792 
 PHE793  MET794  SER795  GLU796  ALA797  LYS798  CYS799  TRP800  GLU811  SER814 

> <Gold.Protein.RotatedAtoms>
  150.7063  134.4739  159.5438 H   0  0  0  0  0  0  0  0  0  0  0  0  # atno 6907 bound_to 6896
  152.2390  134.8244  160.0472 H   0  0  0  0  0  0  0  0  0  0  0  0  # atno 6908 bound_to 6896
  151.9033  133.3508  159.3875 H   0  0  0  0  0  0  0  0  0  0  0  0  # atno 6909 bound_to 6896
  146.2360  140.1967  142.8333 H   0  0  0  0  0  0  0  0  0  0  0  0  # atno 7974 bound_to 7965
  154.5830  140.0671  156.9131 H   0  0  0  0  0  0  0  0  0  0  0  0  # atno 8008 bound_to 7997
  155.2429  140.3346  155.4272 H   0  0  0  0  0  0  0  0  0  0  0  0  # atno 8009 bound_to 7997
  156.2203  140.1796  156.7478 H   0  0  0  0  0  0  0  0  0  0  0  0  # atno 8010 bound_to 7997
  140.7285  143.4223  151.0932 H   0  0  0  0  0  0  0  0  0  0  0  0  # atno 10167 bound_to 10162
  157.1315  130.6593  149.5953 H   0  0  0  0  0  0  0  0  0  0  0  0  # atno 10718 bound_to 10713
  154.8593  135.4267  154.2171 H   0  0  0  0  0  0  0  0  0  0  0  0  # atno 10763 bound_to 10752
  153.3184  135.6980  153.7058 H   0  0  0  0  0  0  0  0  0  0  0  0  # atno 10764 bound_to 10752
  153.6123  135.3517  155.2956 H   0  0  0  0  0  0  0  0  0  0  0  0  # atno 10765 bound_to 10752
  141.0237  133.6851  156.2441 H   0  0  0  0  0  0  0  0  0  0  0  0  # atno 11005 bound_to 11000
  144.9814  140.8463  143.5395 LP  0  0  0  0  0  0  0  0  0  0  0  0  # atno 17320 bound_to 7965
  145.1961  139.2276  143.5217 LP  0  0  0  0  0  0  0  0  0  0  0  0  # atno 17321 bound_to 7965
  139.7870  143.8273  152.3146 LP  0  0  0  0  0  0  0  0  0  0  0  0  # atno 17342 bound_to 10162
  139.8244  144.7281  150.9531 LP  0  0  0  0  0  0  0  0  0  0  0  0  # atno 17343 bound_to 10162
  155.9807  130.4809  150.6787 LP  0  0  0  0  0  0  0  0  0  0  0  0  # atno 17370 bound_to 10713
  157.4388  131.0858  151.0964 LP  0  0  0  0  0  0  0  0  0  0  0  0  # atno 17371 bound_to 10713
  140.6528  134.5049  157.5578 LP  0  0  0  0  0  0  0  0  0  0  0  0  # atno 17394 bound_to 11000
  139.9162  134.8241  156.1358 LP  0  0  0  0  0  0  0  0  0  0  0  0  # atno 17395 bound_to 11000

$$$$
