AV-unprocessed.smi:861|AV-procd|sdf|3974|dock9
  -GOLD-   22720 1453D 1   1.00000     0.00000
 Structure written by MMmdl.
 45 46  0  0  0  0  0  0  0  0  3 V2000
  145.0954  133.7499  151.2974 C   0  0  0  0  0  0  0  0  0  0  0  0
  145.0089  132.4561  150.4698 C   0  0  0  0  0  0  0  0  0  0  0  0
  143.8930  132.5713  149.4194 C   0  0  0  0  0  0  0  0  0  0  0  0
  144.8057  131.2027  151.3462 C   0  0  0  0  0  0  0  0  0  0  0  0
  145.8552  131.0385  152.4634 C   0  0  0  0  0  0  0  0  0  0  0  0
  145.7825  129.7008  153.1106 N   0  3  1  0  0  0  0  0  0  0  0  0
  145.7630  128.5545  152.1661 C   0  0  0  0  0  0  0  0  0  0  0  0
  147.1712  128.2454  151.6240 C   0  0  0  0  0  0  0  0  0  0  0  0
  148.0681  128.0370  152.7084 O   0  0  0  0  0  0  0  0  0  0  0  0
  148.1933  129.1841  153.5433 C   0  0  2  0  0  0  0  0  0  0  0  0
  149.2384  128.8757  154.6259 C   0  0  0  0  0  0  0  0  0  0  0  0
  150.5649  128.6879  154.0574 N   0  0  0  0  0  0  0  0  0  0  0  0
  151.6787  129.3275  154.6180 C   0  0  0  0  0  0  0  0  0  0  0  0
  151.6193  130.1813  155.7439 C   0  0  0  0  0  0  0  0  0  0  0  0
  152.8140  130.7603  156.2046 C   0  0  0  0  0  0  0  0  0  0  0  0
  153.9980  130.4500  155.5124 C   0  0  0  0  0  0  0  0  0  0  0  0
  154.0339  129.6309  154.4380 N   0  0  0  0  0  0  0  0  0  0  0  0
  152.8742  129.0931  154.0208 N   0  3  0  0  0  0  0  0  0  0  0  0
  146.8108  129.4876  154.1597 C   0  0  0  0  0  0  0  0  0  0  0  0
  144.1975  133.8972  151.8983 H   0  0  0  0  0  0  0  0  0  0  0  0
  145.2050  134.6203  150.6498 H   0  0  0  0  0  0  0  0  0  0  0  0
  145.9523  133.7452  151.9702 H   0  0  0  0  0  0  0  0  0  0  0  0
  145.9484  132.3414  149.9275 H   0  0  0  0  0  0  0  0  0  0  0  0
  142.9163  132.6917  149.8896 H   0  0  0  0  0  0  0  0  0  0  0  0
  143.8511  131.6837  148.7874 H   0  0  0  0  0  0  0  0  0  0  0  0
  144.0546  133.4287  148.7653 H   0  0  0  0  0  0  0  0  0  0  0  0
  143.8057  131.2199  151.7820 H   0  0  0  0  0  0  0  0  0  0  0  0
  144.8339  130.3285  150.6966 H   0  0  0  0  0  0  0  0  0  0  0  0
  146.8579  131.2278  152.0802 H   0  0  0  0  0  0  0  0  0  0  0  0
  145.6699  131.7991  153.2213 H   0  0  0  0  0  0  0  0  0  0  0  0
  145.3895  127.6810  152.7023 H   0  0  0  0  0  0  0  0  0  0  0  0
  145.0667  128.7249  151.3460 H   0  0  0  0  0  0  0  0  0  0  0  0
  147.1445  127.3423  151.0142 H   0  0  0  0  0  0  0  0  0  0  0  0
  147.5373  129.0459  150.9802 H   0  0  0  0  0  0  0  0  0  0  0  0
  148.5318  130.0382  152.9536 H   0  0  0  0  0  0  0  0  0  0  0  0
  149.2825  129.7052  155.3326 H   0  0  0  0  0  0  0  0  0  0  0  0
  148.9475  127.9866  155.1869 H   0  0  0  0  0  0  0  0  0  0  0  0
  150.6952  127.9829  153.3457 H   0  0  0  0  0  0  0  0  0  0  0  0
  150.6903  130.3970  156.2501 H   0  0  0  0  0  0  0  0  0  0  0  0
  152.8244  131.4206  157.0593 H   0  0  0  0  0  0  0  0  0  0  0  0
  154.9422  130.8695  155.8276 H   0  0  0  0  0  0  0  0  0  0  0  0
  146.8603  130.3499  154.8257 H   0  0  0  0  0  0  0  0  0  0  0  0
  146.4959  128.6455  154.7781 H   0  0  0  0  0  0  0  0  0  0  0  0
  144.8945  129.6925  153.5925 H   0  0  0  0  0  0  0  0  0  0  0  0
  152.8950  128.4741  153.2100 H   0  0  0  0  0  0  0  0  0  0  0  0
  1  2  1  0  0  0  0
  1 20  1  0  0  0  0
  1 21  1  0  0  0  0
  1 22  1  0  0  0  0
  2  3  1  0  0  0  0
  2  4  1  0  0  0  0
  2 23  1  0  0  0  0
  3 24  1  0  0  0  0
  3 25  1  0  0  0  0
  3 26  1  0  0  0  0
  4  5  1  0  0  0  0
  4 27  1  0  0  0  0
  4 28  1  0  0  0  0
  5  6  1  0  0  0  0
  5 29  1  0  0  0  0
  5 30  1  0  0  0  0
  6 19  1  0  0  0  0
  6  7  1  0  0  0  0
  6 44  1  0  0  0  0
  7  8  1  0  0  0  0
  7 31  1  0  0  0  0
  7 32  1  0  0  0  0
  8  9  1  0  0  0  0
  8 33  1  0  0  0  0
  8 34  1  0  0  0  0
  9 10  1  0  0  0  0
 10 11  1  0  0  0  0
 10 19  1  0  0  0  0
 10 35  1  0  0  0  0
 11 12  1  0  0  0  0
 11 36  1  0  0  0  0
 11 37  1  0  0  0  0
 12 13  1  0  0  0  0
 12 38  1  0  0  0  0
 13 18  1  0  0  0  0
 13 14  2  0  0  0  0
 14 15  1  0  0  0  0
 14 39  1  0  0  0  0
 15 16  2  0  0  0  0
 15 40  1  0  0  0  0
 16 17  1  0  0  0  0
 16 41  1  0  0  0  0
 17 18  2  0  0  0  0
 18 45  1  0  0  0  0
 19 42  1  0  0  0  0
 19 43  1  0  0  0  0
M  CHG  1   6   1
M  CHG  1  18   1
M  END
> <s_m_source_file>
AV-unprocessed.smi

> <i_m_source_file_index>
861

> <i_lp_mmshare_version>
43012

> <i_f3d_flags>
0

> <s_epik_input>
W0NIM11bQ0hdKFtDSDNdKVtDSDJdW0NIMl1OMVtDSDJdW0NIMl1PW0NASF0oW0NIMl0xKVtDSDJdW05IXWMyW2NIXVtjSF1bY0hdbm4y

> <s_epik_cmdline>
J2VwaWtfcHl0aG9uJywgJy1waCcsICc3LjAnLCAnLXRuJywgJzgnLCAnLW1hJywgJzIwMCcsICctbWV0YWxfYmluZGluZycsICctaW1hZScsICc8aW5maWxlLm1hZT4nLCAnLW9tYWUnLCAnPG91dGZpbGUubWFlPic=

> <r_lp_tautomer_probability>
0.966961

> <r_epik_Ionization_Penalty>
2.478

> <r_epik_Ionization_Penalty_Charging>
2.47799

> <r_epik_Ionization_Penalty_Neutral>
3.15286e-06

> <r_epik_State_Penalty>
2.10794

> <r_epik_Charging_Adjusted_Penalty>
4.58594

> <i_epik_Tot_Q>
2

> <i_epik_Tot_abs_Q>
2

> <r_epik_Metal_State_Penalty>
2.11378

> <b_epik_Metal_Only>
0

> <s_lp_Force_Field>
OPLS_2005

> <r_lp_Energy>
35.7333

> <b_lp_Chiralities_Consistent>
1

> <s_lp_Variant>
AV-unprocessed.smi:861-9

> <Gold.Version>
5.8.1

> <Gold.Id.Protein>
6NUR|6NUR_protein|mol2

> <Gold.PLP.Fitness>
44.2451

> <Gold.PLP.PLP>
-35.1532

> <Gold.PLP.part.hbond>
-2.9679

> <Gold.PLP.part.metal>
0.0000

> <Gold.PLP.part.buried>
-6.1258

> <Gold.PLP.part.nonpolar>
-28.0018

> <Gold.PLP.part.repulsive>
0.3039

> <Gold.PLP.ligand.clash>
0.0000

> <Gold.PLP.ligand.torsion>
0.1524

> <Gold.PLP.Chemscore.Hbond>
3.1090

> <Gold.PLP.Chemscore.CHOScore>
0.0000

> <Gold.PLP.Chemscore.Metal>
0.0000

> <Gold.Chemscore.Hbonds>
donor molecule, donor type, donor heavy atom, donor atom, acceptor molecule, acceptor atom, score
      L1  H     6    44       P1 10956  2.00
      L1  H    12    38       P1 10737  0.53
      L1  H    18    45       P1 10737  0.55

> <Gold.PLP.Chemscore.Internal.Correction>
0.0697

> <Gold.Rescore>
     Score         DG    S(hbond)    S(metal)    S(lipo)     H(rot)  DE(clash)    DE(int)     intcor
     16.66     -16.89       1.72        0.00      87.25       1.78       0.02       0.21       ----

> <Gold.Chemscore.Fitness>
16.6622

> <Gold.Chemscore.DG>
-16.8930

> <Gold.Chemscore.ZeroCoef>
-5.4800

> <Gold.Chemscore.Hbond>
1.7218

> <Gold.Chemscore.Metal>
0.0000

> <Gold.Chemscore.Lipo>
87.2501

> <Gold.Chemscore.Internal_Hbond>
0.0000

> <Gold.Chemscore.DEClash>
0.0212

> <Gold.Chemscore.DEInternal>
0.2096

> <Gold.Chemscore.Rot>
1.7759

> <Gold.Chemscore.Internal.Correction>
   9.000000E+99

> <Gold.Chemscore.Hbonds>
donor molecule, donor type, donor heavy atom, donor atom, acceptor molecule, acceptor atom, score
      L1  H     6    44       P1 10956  0.29
      L1  H    12    38       P1 10737  0.52
      L1  H    18    45       P1 10737  0.03

> <Gold.Chemscore.Hbond.Weighted>
-5.7509

> <Gold.Chemscore.Metal.Weighted>
-0.0000

> <Gold.Chemscore.Lipo.Weighted>
-10.2083

> <Gold.Chemscore.Internal_Hbond.Weighted>
0.0000

> <Gold.Chemscore.DEClash.Weighted>
0.0212

> <Gold.Chemscore.DEInternal.Weighted>
0.2096

> <Gold.Chemscore.Rot.Weighted>
4.5462

> <Gold.Chemscore.Internal.Correction.Weighted>
   9.000000E+99

> <Gold.Protein.RotatedTorsions>
[ 6907 6896 6895 6894 ] final -132.63 input  -60.11 | X-H torsion
[ 7974 7965 7964 7962 ] final  170.19 input  175.53 | X-H torsion
[ 8008 7997 7996 7995 ] final  -81.70 input   59.86 | X-H torsion
[ 10167 10162 10161 10158 ] final -151.48 input  -65.29 | X-H torsion
[ 10718 10713 10712 10709 ] final  -37.49 input   66.30 | X-H torsion
[ 10763 10752 10751 10750 ] final  169.44 input  -60.55 | X-H torsion
[ 11005 11000 10999 10996 ] final   18.43 input  -57.11 | X-H torsion

> <Gold.Protein.ActiveResidues>
 VAL166  LYS551  ARG553  GLY616  TRP617  ASP618  TYR619  PRO620  LYS621  CYS622 
 ASP623  PHE694  ASN695  SER759  ASP760  ASP761  ALA762  ILE779  LEU786  VAL792 
 PHE793  MET794  SER795  GLU796  ALA797  LYS798  CYS799  TRP800  GLU811  SER814 

> <Gold.Protein.RotatedAtoms>
  150.9646  133.6408  159.2748 H   0  0  0  0  0  0  0  0  0  0  0  0  # atno 6907 bound_to 6896
  151.3719  135.0923  159.9478 H   0  0  0  0  0  0  0  0  0  0  0  0  # atno 6908 bound_to 6896
  152.5160  133.9198  159.7583 H   0  0  0  0  0  0  0  0  0  0  0  0  # atno 6909 bound_to 6896
  144.7331  139.9165  143.6418 H   0  0  0  0  0  0  0  0  0  0  0  0  # atno 7974 bound_to 7965
  154.6010  140.0644  156.9368 H   0  0  0  0  0  0  0  0  0  0  0  0  # atno 8008 bound_to 7997
  155.2132  140.3324  155.4307 H   0  0  0  0  0  0  0  0  0  0  0  0  # atno 8009 bound_to 7997
  156.2318  140.1844  156.7206 H   0  0  0  0  0  0  0  0  0  0  0  0  # atno 8010 bound_to 7997
  139.7264  143.8877  152.2520 H   0  0  0  0  0  0  0  0  0  0  0  0  # atno 10167 bound_to 10162
  156.3146  130.4257  149.8018 H   0  0  0  0  0  0  0  0  0  0  0  0  # atno 10718 bound_to 10713
  154.3832  135.2753  155.2199 H   0  0  0  0  0  0  0  0  0  0  0  0  # atno 10763 bound_to 10752
  154.4297  135.5980  153.6064 H   0  0  0  0  0  0  0  0  0  0  0  0  # atno 10764 bound_to 10752
  152.9834  135.5992  154.4077 H   0  0  0  0  0  0  0  0  0  0  0  0  # atno 10765 bound_to 10752
  140.4249  134.1480  155.7675 H   0  0  0  0  0  0  0  0  0  0  0  0  # atno 11005 bound_to 11000
  146.0961  139.3954  143.0375 LP  0  0  0  0  0  0  0  0  0  0  0  0  # atno 17320 bound_to 7965
  145.7643  140.9922  143.1183 LP  0  0  0  0  0  0  0  0  0  0  0  0  # atno 17321 bound_to 7965
  139.8787  144.7029  150.8902 LP  0  0  0  0  0  0  0  0  0  0  0  0  # atno 17342 bound_to 10162
  140.7763  143.3678  151.1705 LP  0  0  0  0  0  0  0  0  0  0  0  0  # atno 17343 bound_to 10162
  156.5348  130.8274  151.3249 LP  0  0  0  0  0  0  0  0  0  0  0  0  # atno 17370 bound_to 10713
  157.7398  130.9839  150.2340 LP  0  0  0  0  0  0  0  0  0  0  0  0  # atno 17371 bound_to 10713
  141.1769  133.8495  157.1390 LP  0  0  0  0  0  0  0  0  0  0  0  0  # atno 17394 bound_to 11000
  140.0174  134.9961  157.0522 LP  0  0  0  0  0  0  0  0  0  0  0  0  # atno 17395 bound_to 11000

$$$$
