#       Name:                AV-unprocessed.smi:40
#       Creating user name   scv26
#       Creation time:       Thu Mar 26 16:22:49 2020


#       File generated by GOLD software.
#

@<TRIPOS>MOLECULE
AV-unprocessed.smi:40
    58    59     1
SMALL
NO_CHARGES


@<TRIPOS>ATOM
      1 ****        -7.2726   2.7712   1.8551 C.3            1 S1                 0.0000
      2 ****        -5.7483   2.7363   1.7004 C.3            1 S1                 0.0000
      3 ****        -5.1397   1.4043   2.1619 C.3            1 S1                 0.0000
      4 ****        -3.6125   1.3715   2.0164 C.3            1 S1                 0.0000
      5 ****        -3.0101   0.0436   2.5014 C.3            1 S1                 0.0000
      6 ****        -1.6012   0.0285   2.3161 O.3            1 S1                 0.0000
      7 ****        -0.7738   0.5620   3.2414 C.2            1 S1                 0.0000
      8 ****        -1.1551   1.0857   4.2881 O.2            1 S1                 0.0000
      9 ****         0.6157   0.4838   2.8248 N.am           1 S1                 0.0000
     10 ****         1.7227   0.9092   3.4793 C.2            1 S1                 0.0000
     11 ****         1.7188   1.9807   4.2574 N.2            1 S1                 0.0000
     12 ****         2.8218   2.4482   4.9208 C.2            1 S1                 0.0000
     13 ****         2.7448   3.4367   5.6487 O.2            1 S1                 0.0000
     14 ****         4.0340   1.7414   4.7400 N.am           1 S1                 0.0000
     15 ****         5.2877   2.2070   5.4476 C.3            1 S1                 0.0000
     16 ****         6.3523   2.0976   4.5498 O.3            1 S1                 0.0000
     17 ****         7.4910   1.5632   5.2116 C.3            1 S1                 0.0000
     18 ****         8.3296   2.7345   5.7586 C.3            1 S1                 0.0000
     19 ****         6.8840   0.6322   6.2704 C.3            1 S1                 0.0000
     20 ****         7.7622   0.4078   7.3561 O.3            1 S1                 0.0000
     21 ****         5.6217   1.3666   6.7028 C.3            1 S1                 0.0000
     22 ****         4.6089   0.4533   7.0881 O.3            1 S1                 0.0000
     23 ****         4.0633   0.6261   3.9171 C.2            1 S1                 0.0000
     24 ****         2.9595   0.1858   3.2768 C.2            1 S1                 0.0000
     25 ****         3.0128  -0.8970   2.4818 F              1 S1                 0.0000
     26 ****         5.1522   3.2640   5.6797 H              1 S1                 0.0000
     27 ****         8.0939   0.9975   4.5006 H              1 S1                 0.0000
     28 ****         6.6278  -0.3198   5.8026 H              1 S1                 0.0000
     29 ****         5.8310   2.0557   7.5224 H              1 S1                 0.0000
     30 ****        -7.6745   3.7290   1.5237 H              1 S1                 0.0000
     31 ****        -7.5657   2.6295   2.8958 H              1 S1                 0.0000
     32 ****        -7.7468   1.9882   1.2627 H              1 S1                 0.0000
     33 ****        -5.4886   2.9163   0.6566 H              1 S1                 0.0000
     34 ****        -5.3120   3.5559   2.2725 H              1 S1                 0.0000
     35 ****        -5.4069   1.2260   3.2043 H              1 S1                 0.0000
     36 ****        -5.5755   0.5864   1.5868 H              1 S1                 0.0000
     37 ****        -3.3423   1.5309   0.9719 H              1 S1                 0.0000
     38 ****        -3.1785   2.1995   2.5782 H              1 S1                 0.0000
     39 ****        -3.2663  -0.1420   3.5457 H              1 S1                 0.0000
     40 ****        -3.4333  -0.7805   1.9270 H              1 S1                 0.0000
     41 ****         0.7572   0.0102   1.9444 H              1 S1                 0.0000
     42 ****         9.2354   2.3786   6.2497 H              1 S1                 0.0000
     43 ****         7.7717   3.3319   6.4802 H              1 S1                 0.0000
     44 ****         8.6384   3.3971   4.9498 H              1 S1                 0.0000
     45 ****         8.5354  -0.0284   7.0319 H              1 S1                 0.0000
     46 ****         4.3900  -0.0831   6.3419 H              1 S1                 0.0000
     47 ****         4.9877   0.0845   3.7787 H              1 S1                 0.0000
     48 ****        -2.1321   1.1349   4.4956 LP             1 S1                 0.0000
     49 ****        -0.4879   1.4620   4.9310 LP             1 S1                 0.0000
     50 ****         0.8585   2.4785   4.3672 LP             1 S1                 0.0000
     51 ****         1.8700   3.9080   5.7610 LP             1 S1                 0.0000
     52 ****         3.5570   3.7691   6.1281 LP             1 S1                 0.0000
     53 ****         6.5742   3.0027   4.1868 LP             1 S1                 0.0000
     54 ****         6.0911   1.4920   3.7981 LP             1 S1                 0.0000
     55 ****         7.3128  -0.1667   8.0401 LP             1 S1                 0.0000
     56 ****         8.0167   1.2818   7.7701 LP             1 S1                 0.0000
     57 ****         3.7993   0.9556   7.3917 LP             1 S1                 0.0000
     58 ****         4.9415  -0.1248   7.8332 LP             1 S1                 0.0000
@<TRIPOS>BOND
    1    1    2 1     
    2    1   30 1     
    3    1   31 1     
    4    1   32 1     
    5    2    3 1     
    6    2   33 1     
    7    2   34 1     
    8    3    4 1     
    9    3   35 1     
   10    3   36 1     
   11    4    5 1     
   12    4   37 1     
   13    4   38 1     
   14    5    6 1     
   15    5   39 1     
   16    5   40 1     
   17    6    7 1     
   18    7    8 2     
   19    7    9 am    
   20    9   10 1     
   21    9   41 1     
   22   10   24 1     
   23   10   11 2     
   24   11   12 1     
   25   12   13 2     
   26   12   14 am    
   27   14   15 1     
   28   14   23 1     
   29   15   26 1     
   30   15   21 1     
   31   15   16 1     
   32   16   17 1     
   33   17   27 1     
   34   17   18 1     
   35   17   19 1     
   36   18   42 1     
   37   18   43 1     
   38   18   44 1     
   39   19   28 1     
   40   19   20 1     
   41   19   21 1     
   42   20   45 1     
   43   21   29 1     
   44   21   22 1     
   45   22   46 1     
   46   23   24 2     
   47   23   47 1     
   48   24   25 1     
   49    8   48 1     
   50    8   49 1     
   51   11   50 1     
   52   13   51 1     
   53   13   52 1     
   54   16   53 1     
   55   16   54 1     
   56   20   55 1     
   57   20   56 1     
   58   22   57 1     
   59   22   58 1     
@<TRIPOS>SUBSTRUCTURE
      1 S1             1
@<TRIPOS>SET
LONE_PAIRS      STATIC     ATOMS    <user>   **** ""
11 48 49 50 51 52 53 54 55 56 57 58
DONOR_HYDROGENS      STATIC     ATOMS    <user>   **** ""
3 41 45 46
ATOM$BLUE        STATIC     ATOMS    COLORGROUP SYSTEM
11 48 49 50 51 52 53 54 55 56 57 58
ATOM$RED        STATIC     ATOMS    COLORGROUP SYSTEM
3 41 45 46
