#       Name:                AV-unprocessed.smi:2415
#       Creating user name   scv26
#       Creation time:       Fri Mar 27 13:17:42 2020


#       File generated by GOLD software.
#

@<TRIPOS>MOLECULE
AV-unprocessed.smi:2415
    40    41     1
SMALL
NO_CHARGES


@<TRIPOS>ATOM
      1 ****        -2.7460   2.8154  -1.3855 C.3            1 S1                 0.0000
      2 ****        -2.1919   1.5057  -0.8674 C.ar           1 S1                 0.0000
      3 ****        -3.0397   0.4503  -0.4726 C.ar           1 S1                 0.0000
      4 ****        -2.3996  -0.7177  -0.0103 C.ar           1 S1                 0.0000
      5 ****        -3.1889  -1.9269   0.4430 C.3            1 S1                 0.0000
      6 ****        -1.0539  -0.8160   0.0487 N.ar           1 S1                 0.0000
      7 ****        -0.3422   0.2516  -0.3387 C.ar           1 S1                 0.0000
      8 ****         1.0484   0.1650  -0.2929 N.3            1 S1                 0.0000
      9 ****         1.6873   0.0735  -1.6055 C.3            1 S1                 0.0000
     10 ****         3.1945   0.3441  -1.5120 C.3            1 S1                 0.0000
     11 ****         3.7689  -0.5649  -0.5854 O.3            1 S1                 0.0000
     12 ****         3.2463  -0.3652   0.7209 C.3            1 S1                 0.0000
     13 ****         1.7212  -0.6273   0.7515 C.3            1 S1                 0.0000
     14 ****         1.2310  -0.3592   2.1874 C.2            1 S1                 0.0000
     15 ****         1.1181  -1.4152   2.9971 N.am           1 S1                 0.0000
     16 ****         0.9718   0.7828   2.5637 O.2            1 S1                 0.0000
     17 ****        -0.8466   1.4011  -0.8019 N.ar           1 S1                 0.0000
     18 ****        -3.8280   2.7632  -1.5090 H              1 S1                 0.0000
     19 ****        -2.3045   3.0601  -2.3519 H              1 S1                 0.0000
     20 ****        -2.5201   3.6230  -0.6887 H              1 S1                 0.0000
     21 ****        -4.1157   0.5314  -0.5218 H              1 S1                 0.0000
     22 ****        -4.2456  -1.6847   0.5589 H              1 S1                 0.0000
     23 ****        -2.8159  -2.2890   1.4017 H              1 S1                 0.0000
     24 ****        -3.0994  -2.7309  -0.2877 H              1 S1                 0.0000
     25 ****         1.5127  -0.9231  -2.0137 H              1 S1                 0.0000
     26 ****         1.2434   0.7816  -2.3064 H              1 S1                 0.0000
     27 ****         3.6630   0.2013  -2.4858 H              1 S1                 0.0000
     28 ****         3.3918   1.3741  -1.2101 H              1 S1                 0.0000
     29 ****         3.7619  -1.0460   1.3994 H              1 S1                 0.0000
     30 ****         3.4820   0.6474   1.0551 H              1 S1                 0.0000
     31 ****         1.5509  -1.6801   0.5177 H              1 S1                 0.0000
     32 ****         0.8080  -1.2891   3.9495 H              1 S1                 0.0000
     33 ****         1.3512  -2.3358   2.6542 H              1 S1                 0.0000
     34 ****        -0.6067  -1.6514   0.3684 LP             1 S1                 0.0000
     35 ****         1.2246   1.0753   0.0817 LP             1 S1                 0.0000
     36 ****         4.7593  -0.4279  -0.5651 LP             1 S1                 0.0000
     37 ****         3.5677  -1.4998  -0.8779 LP             1 S1                 0.0000
     38 ****         1.0783   1.5528   1.9346 LP             1 S1                 0.0000
     39 ****         0.6546   0.9412   3.4987 LP             1 S1                 0.0000
     40 ****        -0.2518   2.1523  -1.0880 LP             1 S1                 0.0000
@<TRIPOS>BOND
    1    1    2 1     
    2    1   18 1     
    3    1   19 1     
    4    1   20 1     
    5    2   17 ar    
    6    2    3 ar    
    7    3    4 ar    
    8    3   21 1     
    9    4    5 1     
   10    4    6 ar    
   11    5   22 1     
   12    5   23 1     
   13    5   24 1     
   14    6    7 ar    
   15    7    8 1     
   16    7   17 ar    
   17    8   13 1     
   18    8    9 1     
   19    9   10 1     
   20    9   25 1     
   21    9   26 1     
   22   10   11 1     
   23   10   27 1     
   24   10   28 1     
   25   11   12 1     
   26   12   13 1     
   27   12   29 1     
   28   12   30 1     
   29   13   14 1     
   30   13   31 1     
   31   14   15 am    
   32   14   16 2     
   33   15   32 1     
   34   15   33 1     
   35    6   34 1     
   36    8   35 1     
   37   11   36 1     
   38   11   37 1     
   39   16   38 1     
   40   16   39 1     
   41   17   40 1     
@<TRIPOS>SUBSTRUCTURE
      1 S1             1
@<TRIPOS>SET
LONE_PAIRS      STATIC     ATOMS    <user>   **** ""
7 34 35 36 37 38 39 40
DONOR_HYDROGENS      STATIC     ATOMS    <user>   **** ""
2 32 33
ATOM$BLUE        STATIC     ATOMS    COLORGROUP SYSTEM
7 34 35 36 37 38 39 40
ATOM$RED        STATIC     ATOMS    COLORGROUP SYSTEM
2 32 33
