AV-unprocessed.smi:1673|AV-procd|sdf|6712|dock2
  -GOLD-   22720 7453D 1   1.00000     0.00000
 Structure written by MMmdl.
 39 40  0  0  0  0  0  0  0  0  1 V2000
  149.3202  131.9035  156.1421 C   0  0  0  0  0  0  0  0  0  0  0  0
  149.9222  133.2812  156.1599 C   0  0  0  0  0  0  0  0  0  0  0  0
  150.7991  133.5881  157.1044 N   0  0  0  0  0  0  0  0  0  0  0  0
  151.2423  134.8924  156.8356 O   0  0  0  0  0  0  0  0  0  0  0  0
  150.6137  135.3494  155.7213 C   0  0  0  0  0  0  0  0  0  0  0  0
  150.9687  136.7215  155.2573 C   0  0  0  0  0  0  0  0  0  0  0  0
  149.7538  134.3886  155.2773 C   0  0  0  0  0  0  0  0  0  0  0  0
  148.9448  134.5023  154.1190 N   0  0  0  0  0  0  0  0  0  0  0  0
  147.8184  133.8225  153.8567 C   0  0  0  0  0  0  0  0  0  0  0  0
  147.2912  133.0161  154.6223 O   0  0  0  0  0  0  0  0  0  0  0  0
  147.3231  134.1458  152.6532 N   0  0  0  0  0  0  0  0  0  0  0  0
  146.1037  133.6035  152.0551 C   0  0  1  0  0  0  0  0  0  0  0  0
  145.6499  134.5436  150.9210 C   0  0  0  0  0  0  0  0  0  0  0  0
  144.4021  134.0090  150.2036 C   0  0  0  0  0  0  0  0  0  0  0  0
  144.6405  132.5895  149.6722 C   0  0  0  0  0  0  0  0  0  0  0  0
  145.0769  131.6446  150.8020 C   0  0  0  0  0  0  0  0  0  0  0  0
  146.3335  132.1613  151.5322 C   0  0  2  0  0  0  0  0  0  0  0  0
  146.7492  131.1804  152.6434 C   0  0  0  0  0  0  0  0  0  0  0  0
  149.1288  131.5694  155.1223 H   0  0  0  0  0  0  0  0  0  0  0  0
  148.3766  131.8814  156.6871 H   0  0  0  0  0  0  0  0  0  0  0  0
  149.9846  131.1719  156.6028 H   0  0  0  0  0  0  0  0  0  0  0  0
  150.4902  136.9505  154.3051 H   0  0  0  0  0  0  0  0  0  0  0  0
  152.0464  136.8170  155.1245 H   0  0  0  0  0  0  0  0  0  0  0  0
  150.6493  137.4687  155.9839 H   0  0  0  0  0  0  0  0  0  0  0  0
  149.2028  135.2280  153.4666 H   0  0  0  0  0  0  0  0  0  0  0  0
  147.8303  134.8226  152.1023 H   0  0  0  0  0  0  0  0  0  0  0  0
  145.3041  133.5752  152.7980 H   0  0  0  0  0  0  0  0  0  0  0  0
  145.4424  135.5370  151.3208 H   0  0  0  0  0  0  0  0  0  0  0  0
  146.4562  134.6656  150.1960 H   0  0  0  0  0  0  0  0  0  0  0  0
  143.5560  134.0062  150.8922 H   0  0  0  0  0  0  0  0  0  0  0  0
  144.1313  134.6733  149.3824 H   0  0  0  0  0  0  0  0  0  0  0  0
  143.7328  132.2119  149.2007 H   0  0  0  0  0  0  0  0  0  0  0  0
  145.4065  132.6119  148.8959 H   0  0  0  0  0  0  0  0  0  0  0  0
  144.2585  131.5313  151.5147 H   0  0  0  0  0  0  0  0  0  0  0  0
  145.2655  130.6522  150.3911 H   0  0  0  0  0  0  0  0  0  0  0  0
  147.1462  132.1915  150.8046 H   0  0  0  0  0  0  0  0  0  0  0  0
  145.9973  131.1358  153.4320 H   0  0  0  0  0  0  0  0  0  0  0  0
  147.6959  131.4668  153.1016 H   0  0  0  0  0  0  0  0  0  0  0  0
  146.8767  130.1723  152.2483 H   0  0  0  0  0  0  0  0  0  0  0  0
  1  2  1  0  0  0  0
  1 19  1  0  0  0  0
  1 20  1  0  0  0  0
  1 21  1  0  0  0  0
  2  7  1  0  0  0  0
  2  3  2  0  0  0  0
  3  4  1  0  0  0  0
  4  5  1  0  0  0  0
  5  6  1  0  0  0  0
  5  7  2  0  0  0  0
  6 22  1  0  0  0  0
  6 23  1  0  0  0  0
  6 24  1  0  0  0  0
  7  8  1  0  0  0  0
  8  9  1  0  0  0  0
  8 25  1  0  0  0  0
  9 10  2  0  0  0  0
  9 11  1  0  0  0  0
 11 12  1  0  0  0  0
 11 26  1  0  0  0  0
 12 17  1  0  0  0  0
 12 13  1  0  0  0  0
 12 27  1  0  0  0  0
 13 14  1  0  0  0  0
 13 28  1  0  0  0  0
 13 29  1  0  0  0  0
 14 15  1  0  0  0  0
 14 30  1  0  0  0  0
 14 31  1  0  0  0  0
 15 16  1  0  0  0  0
 15 32  1  0  0  0  0
 15 33  1  0  0  0  0
 16 17  1  0  0  0  0
 16 34  1  0  0  0  0
 16 35  1  0  0  0  0
 17 18  1  0  0  0  0
 17 36  1  0  0  0  0
 18 37  1  0  0  0  0
 18 38  1  0  0  0  0
 18 39  1  0  0  0  0
M  END
> <s_m_source_file>
AV-unprocessed.smi

> <i_m_source_file_index>
1673

> <i_lp_mmshare_version>
43012

> <i_f3d_flags>
0

> <s_epik_input>
W0NIM11jMW5vYyhbQ0gzXSljMVtOSF1DKD1PKVtOSF1bQ0BASF0yW0NIMl1bQ0gyXVtDSDJdW0NIMl1bQ0BIXTJbQ0gzXQ==

> <s_epik_cmdline>
J2VwaWtfcHl0aG9uJywgJy1waCcsICc3LjAnLCAnLXRuJywgJzgnLCAnLW1hJywgJzIwMCcsICctbWV0YWxfYmluZGluZycsICctaW1hZScsICc8aW5maWxlLm1hZT4nLCAnLW9tYWUnLCAnPG91dGZpbGUubWFlPic=

> <r_lp_tautomer_probability>
1

> <r_epik_Ionization_Penalty>
4.01865e-05

> <r_epik_Ionization_Penalty_Charging>
0

> <r_epik_Ionization_Penalty_Neutral>
4.01865e-05

> <r_epik_State_Penalty>
-0

> <r_epik_Charging_Adjusted_Penalty>
0

> <i_epik_Tot_Q>
0

> <i_epik_Tot_abs_Q>
0

> <r_epik_Metal_State_Penalty>
-0

> <b_epik_Metal_Only>
0

> <s_lp_Force_Field>
OPLS_2005

> <r_lp_Energy>
12.0286

> <b_lp_Chiralities_Consistent>
1

> <s_lp_Variant>
AV-unprocessed.smi:1673-4

> <Gold.Version>
5.8.1

> <Gold.Id.Protein>
6NUR|6NUR_protein|mol2

> <Gold.PLP.Fitness>
37.6165

> <Gold.PLP.PLP>
-30.3086

> <Gold.PLP.part.hbond>
-3.5049

> <Gold.PLP.part.metal>
0.0000

> <Gold.PLP.part.buried>
-3.4390

> <Gold.PLP.part.nonpolar>
-22.5629

> <Gold.PLP.part.repulsive>
0.0370

> <Gold.PLP.ligand.clash>
0.0000

> <Gold.PLP.ligand.torsion>
0.3579

> <Gold.PLP.Chemscore.Hbond>
2.5866

> <Gold.PLP.Chemscore.CHOScore>
0.0000

> <Gold.PLP.Chemscore.Metal>
0.0000

> <Gold.Chemscore.Hbonds>
donor molecule, donor type, donor heavy atom, donor atom, acceptor molecule, acceptor atom, score
      L1  H     8    25       P1  7948  1.00
      L1  H    11    26       P1  7948  1.00
      P1  H  6896  6908       L1     3  0.59

> <Gold.PLP.Chemscore.Internal.Correction>
0.2639

> <Gold.Rescore>
     Score         DG    S(hbond)    S(metal)    S(lipo)     H(rot)  DE(clash)    DE(int)     intcor
     14.73     -18.50       2.21        0.00      70.08       1.00       0.01       3.76       ----

> <Gold.Chemscore.Fitness>
14.7304

> <Gold.Chemscore.DG>
-18.4960

> <Gold.Chemscore.ZeroCoef>
-5.4800

> <Gold.Chemscore.Hbond>
2.2086

> <Gold.Chemscore.Metal>
0.0000

> <Gold.Chemscore.Lipo>
70.0806

> <Gold.Chemscore.Internal_Hbond>
0.0000

> <Gold.Chemscore.DEClash>
0.0053

> <Gold.Chemscore.DEInternal>
3.7604

> <Gold.Chemscore.Rot>
1.0000

> <Gold.Chemscore.Internal.Correction>
   9.000000E+99

> <Gold.Chemscore.Hbonds>
donor molecule, donor type, donor heavy atom, donor atom, acceptor molecule, acceptor atom, score
      L1  H     8    25       P1  7948  0.25
      L1  H    11    26       P1  7948  0.59
      P1  H  6896  6908       L1     3  0.15

> <Gold.Chemscore.Hbond.Weighted>
-7.3766

> <Gold.Chemscore.Metal.Weighted>
-0.0000

> <Gold.Chemscore.Lipo.Weighted>
-8.1994

> <Gold.Chemscore.Internal_Hbond.Weighted>
0.0000

> <Gold.Chemscore.DEClash.Weighted>
0.0053

> <Gold.Chemscore.DEInternal.Weighted>
3.7604

> <Gold.Chemscore.Rot.Weighted>
2.5600

> <Gold.Chemscore.Internal.Correction.Weighted>
   9.000000E+99

> <Gold.Protein.RotatedTorsions>
[ 6907 6896 6895 6894 ] final   95.42 input  -60.11 | X-H torsion
[ 7974 7965 7964 7962 ] final  165.26 input  175.53 | X-H torsion
[ 8008 7997 7996 7995 ] final  -86.08 input   59.86 | X-H torsion
[ 10167 10162 10161 10158 ] final   91.98 input  -65.29 | X-H torsion
[ 10718 10713 10712 10709 ] final   85.36 input   66.30 | X-H torsion
[ 10763 10752 10751 10750 ] final   97.36 input  -60.55 | X-H torsion
[ 11005 11000 10999 10996 ] final  -17.72 input  -57.11 | X-H torsion

> <Gold.Protein.ActiveResidues>
 VAL166  LYS551  ARG553  GLY616  TRP617  ASP618  TYR619  PRO620  LYS621  CYS622 
 ASP623  PHE694  ASN695  SER759  ASP760  ASP761  ALA762  ILE779  LEU786  VAL792 
 PHE793  MET794  SER795  GLU796  ALA797  LYS798  CYS799  TRP800  GLU811  SER814 

> <Gold.Protein.RotatedAtoms>
  152.5443  134.1042  159.8330 H   0  0  0  0  0  0  0  0  0  0  0  0  # atno 6907 bound_to 6896
  151.1116  133.5161  159.2613 H   0  0  0  0  0  0  0  0  0  0  0  0  # atno 6908 bound_to 6896
  151.1878  135.0398  159.8874 H   0  0  0  0  0  0  0  0  0  0  0  0  # atno 6909 bound_to 6896
  144.7510  139.8445  143.6366 H   0  0  0  0  0  0  0  0  0  0  0  0  # atno 7974 bound_to 7965
  154.6479  140.0583  156.9921 H   0  0  0  0  0  0  0  0  0  0  0  0  # atno 8008 bound_to 7997
  155.1417  140.3266  155.4432 H   0  0  0  0  0  0  0  0  0  0  0  0  # atno 8009 bound_to 7997
  156.2562  140.1963  156.6532 H   0  0  0  0  0  0  0  0  0  0  0  0  # atno 8010 bound_to 7997
  139.8321  144.6682  150.9387 H   0  0  0  0  0  0  0  0  0  0  0  0  # atno 10167 bound_to 10162
  157.6913  131.0171  150.2811 H   0  0  0  0  0  0  0  0  0  0  0  0  # atno 10718 bound_to 10713
  153.2760  135.4186  155.1033 H   0  0  0  0  0  0  0  0  0  0  0  0  # atno 10763 bound_to 10752
  154.8473  135.3483  154.6179 H   0  0  0  0  0  0  0  0  0  0  0  0  # atno 10764 bound_to 10752
  153.6599  135.7049  153.5238 H   0  0  0  0  0  0  0  0  0  0  0  0  # atno 10765 bound_to 10752
  140.8196  133.8078  155.9646 H   0  0  0  0  0  0  0  0  0  0  0  0  # atno 11005 bound_to 11000
  146.1459  139.4529  143.0079 LP  0  0  0  0  0  0  0  0  0  0  0  0  # atno 17320 bound_to 7965
  145.6945  141.0154  143.1537 LP  0  0  0  0  0  0  0  0  0  0  0  0  # atno 17321 bound_to 7965
  140.7806  143.3991  151.1179 LP  0  0  0  0  0  0  0  0  0  0  0  0  # atno 17342 bound_to 10162
  139.7644  143.8587  152.3107 LP  0  0  0  0  0  0  0  0  0  0  0  0  # atno 17343 bound_to 10162
  156.3357  130.3807  149.7452 LP  0  0  0  0  0  0  0  0  0  0  0  0  # atno 17370 bound_to 10713
  156.4977  130.8114  151.3120 LP  0  0  0  0  0  0  0  0  0  0  0  0  # atno 17371 bound_to 10713
  140.9113  134.2257  157.4984 LP  0  0  0  0  0  0  0  0  0  0  0  0  # atno 17394 bound_to 11000
  139.8709  134.9751  156.4871 LP  0  0  0  0  0  0  0  0  0  0  0  0  # atno 17395 bound_to 11000

$$$$
