#       Name:                AV-unprocessed.smi:932
#       Creating user name   scv26
#       Creation time:       Fri Mar 27 02:10:38 2020


#       File generated by GOLD software.
#

@<TRIPOS>MOLECULE
AV-unprocessed.smi:932
    46    47     1
SMALL
NO_CHARGES


@<TRIPOS>ATOM
      1 ****         1.4627   2.6123  -0.2326 O.2            1 S1                 0.0000
      2 ****         1.0828   1.4814   0.0655 C.2            1 S1                 0.0000
      3 ****         1.9205   0.4491   0.2641 N.am           1 S1                 0.0000
      4 ****         3.3738   0.5023   0.1386 C.3            1 S1                 0.0000
      5 ****         3.8490   0.0952  -1.2691 C.3            1 S1                 0.0000
      6 ****         3.4660   1.0605  -2.3037 N.pl3          1 S1                 0.0000
      7 ****         2.4806   0.9218  -3.2476 C.2            1 S1                 0.0000
      8 ****         2.4807   2.0778  -3.9846 C.2            1 S1                 0.0000
      9 ****         3.4689   2.8698  -3.4639 N.pl3          1 S1                 1.0000
     10 ****         4.0694   2.2478  -2.4442 C.2            1 S1                 0.0000
     11 ****        -0.2216   1.1893   0.2167 N.am           1 S1                 0.0000
     12 ****        -1.3836   2.0722   0.0743 C.3            1 S1                 0.0000
     13 ****        -2.4481   1.6082   1.0967 C.3            1 S1                 0.0000
     14 ****        -3.6491   2.5589   1.2761 C.3            1 S1                 0.0000
     15 ****        -4.9500   2.1281   0.5711 C.3            1 S1                 0.0000
     16 ****        -4.8193   1.5874  -0.8642 C.3            1 S1                 0.0000
     17 ****        -4.3319   2.5840  -1.9309 C.3            1 S1                 0.0000
     18 ****        -2.8993   3.1289  -1.7724 C.3            1 S1                 0.0000
     19 ****        -1.8266   2.0815  -1.4111 C.3            1 S1                 0.0000
     20 ****         1.5181  -0.4413   0.5192 H              1 S1                 0.0000
     21 ****         3.7556   1.4885   0.4086 H              1 S1                 0.0000
     22 ****         3.7890  -0.1914   0.8700 H              1 S1                 0.0000
     23 ****         4.9359   0.0064  -1.2885 H              1 S1                 0.0000
     24 ****         3.4468  -0.8803  -1.5460 H              1 S1                 0.0000
     25 ****         1.8639   0.0375  -3.3173 H              1 S1                 0.0000
     26 ****         1.8673   2.3881  -4.8180 H              1 S1                 0.0000
     27 ****         4.8755   2.6330  -1.8455 H              1 S1                 0.0000
     28 ****        -0.4336   0.2422   0.4963 H              1 S1                 0.0000
     29 ****        -1.0941   3.0855   0.3574 H              1 S1                 0.0000
     30 ****        -2.7801   0.5918   0.8843 H              1 S1                 0.0000
     31 ****        -1.9542   1.5408   2.0677 H              1 S1                 0.0000
     32 ****        -3.8741   2.6241   2.3413 H              1 S1                 0.0000
     33 ****        -3.3782   3.5770   1.0026 H              1 S1                 0.0000
     34 ****        -5.4113   1.3438   1.1727 H              1 S1                 0.0000
     35 ****        -5.6555   2.9594   0.5856 H              1 S1                 0.0000
     36 ****        -4.2062   0.6876  -0.8772 H              1 S1                 0.0000
     37 ****        -5.8078   1.2439  -1.1710 H              1 S1                 0.0000
     38 ****        -4.3941   2.0823  -2.8975 H              1 S1                 0.0000
     39 ****        -5.0276   3.4218  -1.9915 H              1 S1                 0.0000
     40 ****        -2.6257   3.5789  -2.7276 H              1 S1                 0.0000
     41 ****        -2.8753   3.9620  -1.0725 H              1 S1                 0.0000
     42 ****        -0.9489   2.3131  -2.0161 H              1 S1                 0.0000
     43 ****        -2.1277   1.0849  -1.7348 H              1 S1                 0.0000
     44 ****         3.7102   3.7944  -3.7983 H              1 S1                 0.0000
     45 ****         2.4391   2.8000  -0.3388 LP             1 S1                 0.0000
     46 ****         0.7951   3.3443  -0.3689 LP             1 S1                 0.0000
@<TRIPOS>BOND
    1    1    2 2     
    2    2    3 am    
    3    2   11 am    
    4    3    4 1     
    5    3   20 1     
    6    4    5 1     
    7    4   21 1     
    8    4   22 1     
    9    5    6 1     
   10    5   23 1     
   11    5   24 1     
   12    6   10 1     
   13    6    7 1     
   14    7    8 2     
   15    7   25 1     
   16    8    9 1     
   17    8   26 1     
   18    9   10 2     
   19    9   44 1     
   20   10   27 1     
   21   11   12 1     
   22   11   28 1     
   23   12   19 1     
   24   12   13 1     
   25   12   29 1     
   26   13   14 1     
   27   13   30 1     
   28   13   31 1     
   29   14   15 1     
   30   14   32 1     
   31   14   33 1     
   32   15   16 1     
   33   15   34 1     
   34   15   35 1     
   35   16   17 1     
   36   16   36 1     
   37   16   37 1     
   38   17   18 1     
   39   17   38 1     
   40   17   39 1     
   41   18   19 1     
   42   18   40 1     
   43   18   41 1     
   44   19   42 1     
   45   19   43 1     
   46    1   45 1     
   47    1   46 1     
@<TRIPOS>SUBSTRUCTURE
      1 S1             1
@<TRIPOS>SET
LONE_PAIRS      STATIC     ATOMS    <user>   **** ""
2 45 46
DONOR_HYDROGENS      STATIC     ATOMS    <user>   **** ""
3 20 44 28
ATOM$BLUE        STATIC     ATOMS    COLORGROUP SYSTEM
2 45 46
ATOM$RED        STATIC     ATOMS    COLORGROUP SYSTEM
3 20 44 28
