AV-unprocessed.smi:3017|AV-procd|sdf|11477|dock7
  -GOLD-   2272016413D 1   1.00000     0.00000
 Structure written by MMmdl.
 37 38  0  0  0  0  0  0  0  0  1 V2000
  152.9083  142.4668  161.8086 C   0  0  0  0  0  0  0  0  0  0  0  0
  152.7761  143.2829  160.5149 C   0  0  2  0  0  0  0  0  0  0  0  0
  152.0823  144.6346  160.7710 C   0  0  0  0  0  0  0  0  0  0  0  0
  151.9440  145.4506  159.4763 C   0  0  0  0  0  0  0  0  0  0  0  0
  151.2018  144.6513  158.3949 C   0  0  0  0  0  0  0  0  0  0  0  0
  151.8941  143.3063  158.1188 C   0  0  2  0  0  0  0  0  0  0  0  0
  151.0984  142.6118  157.1679 O   0  0  0  0  0  0  0  0  0  0  0  0
  151.5977  141.3316  156.8012 C   0  0  0  0  0  0  0  0  0  0  0  0
  150.6567  140.6999  155.7753 C   0  0  0  0  0  0  0  0  0  0  0  0
  151.1109  140.3151  154.6978 O   0  0  0  0  0  0  0  0  0  0  0  0
  149.3598  140.6261  156.1290 N   0  0  0  0  0  0  0  0  0  0  0  0
  148.2773  140.0805  155.3909 C   0  0  0  0  0  0  0  0  0  0  0  0
  148.4121  140.1210  153.9830 C   0  0  0  0  0  0  0  0  0  0  0  0
  147.4646  139.6438  153.1454 N   0  0  0  0  0  0  0  0  0  0  0  0
  146.3622  139.1164  153.7190 C   0  0  0  0  0  0  0  0  0  0  0  0
  146.2110  139.0668  155.1192 C   0  0  0  0  0  0  0  0  0  0  0  0
  147.1620  139.5455  155.9507 N   0  0  0  0  0  0  0  0  0  0  0  0
  152.0315  142.4906  159.4217 C   0  0  0  0  0  0  0  0  0  0  0  0
  151.9307  142.2217  162.2247 H   0  0  0  0  0  0  0  0  0  0  0  0
  153.4635  143.0202  162.5666 H   0  0  0  0  0  0  0  0  0  0  0  0
  153.4387  141.5310  161.6303 H   0  0  0  0  0  0  0  0  0  0  0  0
  153.7847  143.4876  160.1526 H   0  0  0  0  0  0  0  0  0  0  0  0
  151.0941  144.4665  161.2017 H   0  0  0  0  0  0  0  0  0  0  0  0
  152.6449  145.2104  161.5067 H   0  0  0  0  0  0  0  0  0  0  0  0
  151.4146  146.3820  159.6788 H   0  0  0  0  0  0  0  0  0  0  0  0
  152.9332  145.7296  159.1114 H   0  0  0  0  0  0  0  0  0  0  0  0
  150.1731  144.4769  158.7136 H   0  0  0  0  0  0  0  0  0  0  0  0
  151.1457  145.2359  157.4760 H   0  0  0  0  0  0  0  0  0  0  0  0
  152.8825  143.5083  157.7017 H   0  0  0  0  0  0  0  0  0  0  0  0
  152.5913  141.4216  156.3596 H   0  0  0  0  0  0  0  0  0  0  0  0
  151.6756  140.6781  157.6705 H   0  0  0  0  0  0  0  0  0  0  0  0
  149.1276  140.9882  157.0426 H   0  0  0  0  0  0  0  0  0  0  0  0
  149.2919  140.5431  153.5191 H   0  0  0  0  0  0  0  0  0  0  0  0
  145.5981  138.7328  153.0591 H   0  0  0  0  0  0  0  0  0  0  0  0
  145.3271  138.6434  155.5723 H   0  0  0  0  0  0  0  0  0  0  0  0
  152.5617  141.5582  159.2294 H   0  0  0  0  0  0  0  0  0  0  0  0
  151.0400  142.2123  159.7816 H   0  0  0  0  0  0  0  0  0  0  0  0
  1  2  1  0  0  0  0
  1 19  1  0  0  0  0
  1 20  1  0  0  0  0
  1 21  1  0  0  0  0
  2 18  1  0  0  0  0
  2  3  1  0  0  0  0
  2 22  1  0  0  0  0
  3  4  1  0  0  0  0
  3 23  1  0  0  0  0
  3 24  1  0  0  0  0
  4  5  1  0  0  0  0
  4 25  1  0  0  0  0
  4 26  1  0  0  0  0
  5  6  1  0  0  0  0
  5 27  1  0  0  0  0
  5 28  1  0  0  0  0
  6  7  1  0  0  0  0
  6 18  1  0  0  0  0
  6 29  1  0  0  0  0
  7  8  1  0  0  0  0
  8  9  1  0  0  0  0
  8 30  1  0  0  0  0
  8 31  1  0  0  0  0
  9 10  2  0  0  0  0
  9 11  1  0  0  0  0
 11 12  1  0  0  0  0
 11 32  1  0  0  0  0
 12 17  1  0  0  0  0
 12 13  2  0  0  0  0
 13 14  1  0  0  0  0
 13 33  1  0  0  0  0
 14 15  2  0  0  0  0
 15 16  1  0  0  0  0
 15 34  1  0  0  0  0
 16 17  2  0  0  0  0
 16 35  1  0  0  0  0
 18 36  1  0  0  0  0
 18 37  1  0  0  0  0
M  END
> <s_m_source_file>
AV-unprocessed.smi

> <i_m_source_file_index>
3017

> <i_lp_mmshare_version>
43012

> <i_f3d_flags>
0

> <s_epik_input>
W0NIM11bQ0BASF0xW0NIMl1bQ0gyXVtDSDJdW0NASF0oW0NIMl0xKU9bQ0gyXUMoPU8pW05IXWMyW2NIXW5bY0hdW2NIXW4y

> <s_epik_cmdline>
J2VwaWtfcHl0aG9uJywgJy1waCcsICc3LjAnLCAnLXRuJywgJzgnLCAnLW1hJywgJzIwMCcsICctbWV0YWxfYmluZGluZycsICctaW1hZScsICc8aW5maWxlLm1hZT4nLCAnLW9tYWUnLCAnPG91dGZpbGUubWFlPic=

> <r_lp_tautomer_probability>
1

> <r_epik_Ionization_Penalty>
2.89243e-06

> <r_epik_Ionization_Penalty_Charging>
0

> <r_epik_Ionization_Penalty_Neutral>
2.89243e-06

> <r_epik_State_Penalty>
-0

> <r_epik_Charging_Adjusted_Penalty>
0

> <i_epik_Tot_Q>
0

> <i_epik_Tot_abs_Q>
0

> <r_epik_Metal_State_Penalty>
-0

> <b_epik_Metal_Only>
0

> <s_lp_Force_Field>
OPLS_2005

> <r_lp_Energy>
19.9912

> <b_lp_Chiralities_Consistent>
1

> <s_lp_Variant>
AV-unprocessed.smi:3017-3

> <Gold.Version>
5.8.1

> <Gold.Id.Protein>
6NUR|6NUR_protein|mol2

> <Gold.PLP.Fitness>
42.0659

> <Gold.PLP.PLP>
-34.8985

> <Gold.PLP.part.hbond>
-1.0000

> <Gold.PLP.part.metal>
0.0000

> <Gold.PLP.part.buried>
-4.9971

> <Gold.PLP.part.nonpolar>
-29.2485

> <Gold.PLP.part.repulsive>
0.6621

> <Gold.PLP.ligand.clash>
0.0000

> <Gold.PLP.ligand.torsion>
0.2003

> <Gold.PLP.Chemscore.Hbond>
1.0000

> <Gold.PLP.Chemscore.CHOScore>
1.5209

> <Gold.PLP.Chemscore.Metal>
0.0000

> <Gold.Chemscore.Hbonds>
donor molecule, donor type, donor heavy atom, donor atom, acceptor molecule, acceptor atom, score
      P1  H  7989  7998       L1    10  0.71
      L1  C    13    33       P1  7957  0.73
      L1  C    15    34       P1 10175  0.49

> <Gold.PLP.Chemscore.Internal.Correction>
0.0054

> <Gold.Rescore>
     Score         DG    S(hbond)    S(metal)    S(lipo)     H(rot)  DE(clash)    DE(int)     intcor
     14.95     -16.70       1.00        0.00     100.41       1.51       0.16       1.58       ----

> <Gold.Chemscore.Fitness>
14.9515

> <Gold.Chemscore.DG>
-16.6955

> <Gold.Chemscore.ZeroCoef>
-5.4800

> <Gold.Chemscore.Hbond>
0.9994

> <Gold.Chemscore.Metal>
0.0000

> <Gold.Chemscore.Lipo>
100.4123

> <Gold.Chemscore.Internal_Hbond>
0.0000

> <Gold.Chemscore.DEClash>
0.1613

> <Gold.Chemscore.DEInternal>
1.5827

> <Gold.Chemscore.Rot>
1.5119

> <Gold.Chemscore.Internal.Correction>
   9.000000E+99

> <Gold.Chemscore.Hbonds>
donor molecule, donor type, donor heavy atom, donor atom, acceptor molecule, acceptor atom, score
      P1  H  7989  7998       L1    10  0.73

> <Gold.Chemscore.Hbond.Weighted>
-3.3379

> <Gold.Chemscore.Metal.Weighted>
-0.0000

> <Gold.Chemscore.Lipo.Weighted>
-11.7482

> <Gold.Chemscore.Internal_Hbond.Weighted>
0.0000

> <Gold.Chemscore.DEClash.Weighted>
0.1613

> <Gold.Chemscore.DEInternal.Weighted>
1.5827

> <Gold.Chemscore.Rot.Weighted>
3.8706

> <Gold.Chemscore.Internal.Correction.Weighted>
   9.000000E+99

> <Gold.Protein.RotatedTorsions>
[ 6907 6896 6895 6894 ] final  120.43 input  -60.11 | X-H torsion
[ 7974 7965 7964 7962 ] final -147.51 input  175.53 | X-H torsion
[ 8008 7997 7996 7995 ] final -111.17 input   59.86 | X-H torsion
[ 10167 10162 10161 10158 ] final  164.16 input  -65.29 | X-H torsion
[ 10718 10713 10712 10709 ] final  113.55 input   66.30 | X-H torsion
[ 10763 10752 10751 10750 ] final  -60.40 input  -60.55 | X-H torsion
[ 11005 11000 10999 10996 ] final  169.08 input  -57.11 | X-H torsion

> <Gold.Protein.ActiveResidues>
 VAL166  LYS551  ARG553  GLY616  TRP617  ASP618  TYR619  PRO620  LYS621  CYS622 
 ASP623  PHE694  ASN695  SER759  ASP760  ASP761  ALA762  ILE779  LEU786  VAL792 
 PHE793  MET794  SER795  GLU796  ALA797  LYS798  CYS799  TRP800  GLU811  SER814 

> <Gold.Protein.RotatedAtoms>
  152.4398  133.7428  159.6649 H   0  0  0  0  0  0  0  0  0  0  0  0  # atno 6907 bound_to 6896
  150.8287  133.8117  159.3113 H   0  0  0  0  0  0  0  0  0  0  0  0  # atno 6908 bound_to 6896
  151.5777  135.1062  160.0061 H   0  0  0  0  0  0  0  0  0  0  0  0  # atno 6909 bound_to 6896
  144.8089  140.5317  143.5656 H   0  0  0  0  0  0  0  0  0  0  0  0  # atno 7974 bound_to 7965
  154.9858  140.0395  157.2298 H   0  0  0  0  0  0  0  0  0  0  0  0  # atno 8008 bound_to 7997
  154.7673  140.2795  155.6143 H   0  0  0  0  0  0  0  0  0  0  0  0  # atno 8009 bound_to 7997
  156.2915  140.2617  156.2467 H   0  0  0  0  0  0  0  0  0  0  0  0  # atno 8010 bound_to 7997
  139.4884  144.4264  151.9124 H   0  0  0  0  0  0  0  0  0  0  0  0  # atno 10167 bound_to 10162
  157.6331  131.0985  150.7057 H   0  0  0  0  0  0  0  0  0  0  0  0  # atno 10718 bound_to 10713
  154.2686  135.6294  153.5302 H   0  0  0  0  0  0  0  0  0  0  0  0  # atno 10763 bound_to 10752
  152.9884  135.5605  154.5625 H   0  0  0  0  0  0  0  0  0  0  0  0  # atno 10764 bound_to 10752
  154.5190  135.2881  155.1254 H   0  0  0  0  0  0  0  0  0  0  0  0  # atno 10765 bound_to 10752
  140.2940  134.7650  157.3862 H   0  0  0  0  0  0  0  0  0  0  0  0  # atno 11005 bound_to 11000
  145.5372  139.1475  143.3467 LP  0  0  0  0  0  0  0  0  0  0  0  0  # atno 17320 bound_to 7965
  146.2384  140.5512  142.8944 LP  0  0  0  0  0  0  0  0  0  0  0  0  # atno 17321 bound_to 7965
  140.3710  144.2855  150.5920 LP  0  0  0  0  0  0  0  0  0  0  0  0  # atno 17342 bound_to 10162
  140.5319  143.2241  151.8225 LP  0  0  0  0  0  0  0  0  0  0  0  0  # atno 17343 bound_to 10162
  156.7393  130.4734  149.5481 LP  0  0  0  0  0  0  0  0  0  0  0  0  # atno 17370 bound_to 10713
  156.1550  130.6336  151.0645 LP  0  0  0  0  0  0  0  0  0  0  0  0  # atno 17371 bound_to 10713
  140.1169  134.5271  155.8217 LP  0  0  0  0  0  0  0  0  0  0  0  0  # atno 17394 bound_to 11000
  141.2141  133.6743  156.6794 LP  0  0  0  0  0  0  0  0  0  0  0  0  # atno 17395 bound_to 11000

$$$$
