AV-unprocessed.smi:2320|AV-procd|sdf|9279|dock6
  -GOLD-   2272012503D 1   1.00000     0.00000
 Structure written by MMmdl.
 41 42  0  0  0  0  0  0  0  0  1 V2000
  152.0221  145.1620  159.1370 C   0  0  0  0  0  0  0  0  0  0  0  0
  151.8972  143.6539  159.0684 C   0  0  0  0  0  0  0  0  0  0  0  0
  152.8691  142.8288  159.6681 C   0  0  0  0  0  0  0  0  0  0  0  0
  152.7467  141.4278  159.5974 C   0  0  0  0  0  0  0  0  0  0  0  0
  151.6579  140.8299  158.9300 C   0  0  0  0  0  0  0  0  0  0  0  0
  151.6182  139.4524  158.9087 O   0  0  0  0  0  0  0  0  0  0  0  0
  150.5144  138.8181  158.2730 C   0  0  0  0  0  0  0  0  0  0  0  0
  150.0312  137.6281  159.1197 C   0  0  2  0  0  0  0  0  0  0  0  0
  151.0319  136.6305  159.0759 O   0  0  0  0  0  0  0  0  0  0  0  0
  148.6763  137.0582  158.6427 C   0  0  0  0  0  0  0  0  0  0  0  0
  148.2396  135.9066  159.4497 N   0  0  0  0  0  0  0  0  0  0  0  0
  148.2607  134.6558  158.8114 C   0  0  0  0  0  0  0  0  0  0  0  0
  147.8982  133.5756  159.4222 N   0  0  0  0  0  0  0  0  0  0  0  0
  147.4721  133.6359  160.7522 C   0  0  0  0  0  0  0  0  0  0  0  0
  147.0681  132.3102  161.3724 C   0  0  0  0  0  0  0  0  0  0  0  0
  147.4314  134.8163  161.4286 C   0  0  0  0  0  0  0  0  0  0  0  0
  146.9781  134.9427  162.8777 C   0  0  0  0  0  0  0  0  0  0  0  0
  147.8469  136.0536  160.7482 C   0  0  0  0  0  0  0  0  0  0  0  0
  147.8478  137.1540  161.3033 O   0  0  0  0  0  0  0  0  0  0  0  0
  150.6836  141.6660  158.3284 C   0  0  0  0  0  0  0  0  0  0  0  0
  150.8056  143.0676  158.3983 C   0  0  0  0  0  0  0  0  0  0  0  0
  152.7637  145.4647  159.8767 H   0  0  0  0  0  0  0  0  0  0  0  0
  151.0675  145.6117  159.4114 H   0  0  0  0  0  0  0  0  0  0  0  0
  152.3233  145.5589  158.1674 H   0  0  0  0  0  0  0  0  0  0  0  0
  153.7118  143.2654  160.1839 H   0  0  0  0  0  0  0  0  0  0  0  0
  153.4976  140.8046  160.0605 H   0  0  0  0  0  0  0  0  0  0  0  0
  149.6983  139.5231  158.1038 H   0  0  0  0  0  0  0  0  0  0  0  0
  150.8343  138.4426  157.2996 H   0  0  0  0  0  0  0  0  0  0  0  0
  149.9576  137.9673  160.1536 H   0  0  0  0  0  0  0  0  0  0  0  0
  151.4801  136.6893  158.2462 H   0  0  0  0  0  0  0  0  0  0  0  0
  147.9139  137.8360  158.7159 H   0  0  0  0  0  0  0  0  0  0  0  0
  148.7155  136.8227  157.5769 H   0  0  0  0  0  0  0  0  0  0  0  0
  148.6049  134.6620  157.7757 H   0  0  0  0  0  0  0  0  0  0  0  0
  146.0214  132.3340  161.6765 H   0  0  0  0  0  0  0  0  0  0  0  0
  147.6816  132.0945  162.2474 H   0  0  0  0  0  0  0  0  0  0  0  0
  147.1925  131.4875  160.6671 H   0  0  0  0  0  0  0  0  0  0  0  0
  147.7958  135.3147  163.4956 H   0  0  0  0  0  0  0  0  0  0  0  0
  146.6440  133.9998  163.3070 H   0  0  0  0  0  0  0  0  0  0  0  0
  146.1491  135.6471  162.9533 H   0  0  0  0  0  0  0  0  0  0  0  0
  149.8324  141.2572  157.8060 H   0  0  0  0  0  0  0  0  0  0  0  0
  150.0567  143.6928  157.9345 H   0  0  0  0  0  0  0  0  0  0  0  0
  1  2  1  0  0  0  0
  1 22  1  0  0  0  0
  1 23  1  0  0  0  0
  1 24  1  0  0  0  0
  2 21  1  0  0  0  0
  2  3  2  0  0  0  0
  3  4  1  0  0  0  0
  3 25  1  0  0  0  0
  4  5  2  0  0  0  0
  4 26  1  0  0  0  0
  5  6  1  0  0  0  0
  5 20  1  0  0  0  0
  6  7  1  0  0  0  0
  7  8  1  0  0  0  0
  7 27  1  0  0  0  0
  7 28  1  0  0  0  0
  8  9  1  0  0  0  0
  8 10  1  0  0  0  0
  8 29  1  0  0  0  0
  9 30  1  0  0  0  0
 10 11  1  0  0  0  0
 10 31  1  0  0  0  0
 10 32  1  0  0  0  0
 11 18  1  0  0  0  0
 11 12  1  0  0  0  0
 12 13  2  0  0  0  0
 12 33  1  0  0  0  0
 13 14  1  0  0  0  0
 14 15  1  0  0  0  0
 14 16  2  0  0  0  0
 15 34  1  0  0  0  0
 15 35  1  0  0  0  0
 15 36  1  0  0  0  0
 16 17  1  0  0  0  0
 16 18  1  0  0  0  0
 17 37  1  0  0  0  0
 17 38  1  0  0  0  0
 17 39  1  0  0  0  0
 18 19  2  0  0  0  0
 20 21  2  0  0  0  0
 20 40  1  0  0  0  0
 21 41  1  0  0  0  0
M  END
> <s_m_source_file>
AV-unprocessed.smi

> <i_m_source_file_index>
2320

> <i_lp_mmshare_version>
43012

> <i_f3d_flags>
0

> <s_epik_input>
W0NIM11jMVtjSF1bY0hdYyhbY0hdW2NIXTEpT1tDSDJdW0NASF0oW09IXSlbQ0gyXW4yW2NIXW5jKFtDSDNdKWMoW0NIM10pYzI9Tw==

> <s_epik_cmdline>
J2VwaWtfcHl0aG9uJywgJy1waCcsICc3LjAnLCAnLXRuJywgJzgnLCAnLW1hJywgJzIwMCcsICctbWV0YWxfYmluZGluZycsICctaW1hZScsICc8aW5maWxlLm1hZT4nLCAnLW9tYWUnLCAnPG91dGZpbGUubWFlPic=

> <r_lp_tautomer_probability>
1

> <r_epik_Ionization_Penalty>
3.74127e-05

> <r_epik_Ionization_Penalty_Charging>
8.43242e-08

> <r_epik_Ionization_Penalty_Neutral>
3.73284e-05

> <r_epik_State_Penalty>
-0

> <r_epik_Charging_Adjusted_Penalty>
8.43242e-08

> <i_epik_Tot_Q>
0

> <i_epik_Tot_abs_Q>
0

> <r_epik_Metal_State_Penalty>
-0

> <b_epik_Metal_Only>
0

> <s_lp_Force_Field>
OPLS_2005

> <r_lp_Energy>
24.611

> <b_lp_Chiralities_Consistent>
1

> <s_lp_Variant>
AV-unprocessed.smi:2320-1

> <Gold.Version>
5.8.1

> <Gold.Id.Protein>
6NUR|6NUR_protein|mol2

> <Gold.PLP.Fitness>
51.4368

> <Gold.PLP.PLP>
-44.0777

> <Gold.PLP.part.hbond>
-3.0000

> <Gold.PLP.part.metal>
0.0000

> <Gold.PLP.part.buried>
-4.9817

> <Gold.PLP.part.nonpolar>
-36.5462

> <Gold.PLP.part.repulsive>
0.0000

> <Gold.PLP.ligand.clash>
0.0000

> <Gold.PLP.ligand.torsion>
0.4389

> <Gold.PLP.Chemscore.Hbond>
2.7200

> <Gold.PLP.Chemscore.CHOScore>
0.0000

> <Gold.PLP.Chemscore.Metal>
0.0000

> <Gold.Chemscore.Hbonds>
donor molecule, donor type, donor heavy atom, donor atom, acceptor molecule, acceptor atom, score
      P1  H  6896  6908       L1     9  1.00
      P1  H  6931  6943       L1    19  1.00
      P1  H  6934  6947       L1    19  0.77

> <Gold.PLP.Chemscore.Internal.Correction>
0.0770

> <Gold.Rescore>
     Score         DG    S(hbond)    S(metal)    S(lipo)     H(rot)  DE(clash)    DE(int)     intcor
     20.63     -21.13       2.65        0.00     109.64       2.35       0.03       0.47       ----

> <Gold.Chemscore.Fitness>
20.6305

> <Gold.Chemscore.DG>
-21.1329

> <Gold.Chemscore.ZeroCoef>
-5.4800

> <Gold.Chemscore.Hbond>
2.6462

> <Gold.Chemscore.Metal>
0.0000

> <Gold.Chemscore.Lipo>
109.6425

> <Gold.Chemscore.Internal_Hbond>
0.0000

> <Gold.Chemscore.DEClash>
0.0274

> <Gold.Chemscore.DEInternal>
0.4749

> <Gold.Chemscore.Rot>
2.3490

> <Gold.Chemscore.Internal.Correction>
   9.000000E+99

> <Gold.Chemscore.Hbonds>
donor molecule, donor type, donor heavy atom, donor atom, acceptor molecule, acceptor atom, score
      P1  H  6896  6908       L1     9  0.86
      P1  H  6931  6943       L1    19  0.96
      P1  H  6934  6947       L1    19  0.72

> <Gold.Chemscore.Hbond.Weighted>
-8.8383

> <Gold.Chemscore.Metal.Weighted>
-0.0000

> <Gold.Chemscore.Lipo.Weighted>
-12.8282

> <Gold.Chemscore.Internal_Hbond.Weighted>
0.0000

> <Gold.Chemscore.DEClash.Weighted>
0.0274

> <Gold.Chemscore.DEInternal.Weighted>
0.4749

> <Gold.Chemscore.Rot.Weighted>
6.0136

> <Gold.Chemscore.Internal.Correction.Weighted>
   9.000000E+99

> <Gold.Protein.RotatedTorsions>
[ 6907 6896 6895 6894 ] final -144.90 input  -60.11 | X-H torsion
[ 7974 7965 7964 7962 ] final  -59.38 input  175.53 | X-H torsion
[ 8008 7997 7996 7995 ] final   75.97 input   59.86 | X-H torsion
[ 10167 10162 10161 10158 ] final -128.10 input  -65.29 | X-H torsion
[ 10718 10713 10712 10709 ] final  -31.77 input   66.30 | X-H torsion
[ 10763 10752 10751 10750 ] final   89.92 input  -60.55 | X-H torsion
[ 11005 11000 10999 10996 ] final  149.22 input  -57.11 | X-H torsion

> <Gold.Protein.ActiveResidues>
 VAL166  LYS551  ARG553  GLY616  TRP617  ASP618  TYR619  PRO620  LYS621  CYS622 
 ASP623  PHE694  ASN695  SER759  ASP760  ASP761  ALA762  ILE779  LEU786  VAL792 
 PHE793  MET794  SER795  GLU796  ALA797  LYS798  CYS799  TRP800  GLU811  SER814 

> <Gold.Protein.RotatedAtoms>
  151.1203  133.5108  159.2602 H   0  0  0  0  0  0  0  0  0  0  0  0  # atno 6907 bound_to 6896
  151.1868  135.0385  159.8826 H   0  0  0  0  0  0  0  0  0  0  0  0  # atno 6908 bound_to 6896
  152.5455  134.1049  159.8387 H   0  0  0  0  0  0  0  0  0  0  0  0  # atno 6909 bound_to 6896
  145.8281  140.8497  143.0097 H   0  0  0  0  0  0  0  0  0  0  0  0  # atno 7974 bound_to 7965
  155.8206  140.3470  155.5512 H   0  0  0  0  0  0  0  0  0  0  0  0  # atno 8008 bound_to 7997
  155.8346  140.0932  157.1792 H   0  0  0  0  0  0  0  0  0  0  0  0  # atno 8009 bound_to 7997
  154.4004  140.1406  156.3642 H   0  0  0  0  0  0  0  0  0  0  0  0  # atno 8010 bound_to 7997
  139.9538  143.6026  152.2467 H   0  0  0  0  0  0  0  0  0  0  0  0  # atno 10167 bound_to 10162
  156.3831  130.4359  149.7453 H   0  0  0  0  0  0  0  0  0  0  0  0  # atno 10718 bound_to 10713
  153.1921  135.4453  155.0162 H   0  0  0  0  0  0  0  0  0  0  0  0  # atno 10763 bound_to 10752
  154.8096  135.3289  154.7342 H   0  0  0  0  0  0  0  0  0  0  0  0  # atno 10764 bound_to 10752
  153.7795  135.6978  153.4946 H   0  0  0  0  0  0  0  0  0  0  0  0  # atno 10765 bound_to 10752
  140.1026  134.8974  157.1818 H   0  0  0  0  0  0  0  0  0  0  0  0  # atno 11005 bound_to 11000
  144.6742  140.0632  143.7475 LP  0  0  0  0  0  0  0  0  0  0  0  0  # atno 17320 bound_to 7965
  145.9601  139.2794  143.1161 LP  0  0  0  0  0  0  0  0  0  0  0  0  # atno 17321 bound_to 7965
  139.6607  144.7662  151.1968 LP  0  0  0  0  0  0  0  0  0  0  0  0  # atno 17342 bound_to 10162
  140.7574  143.6014  150.8696 LP  0  0  0  0  0  0  0  0  0  0  0  0  # atno 17343 bound_to 10162
  156.4536  130.7918  151.2939 LP  0  0  0  0  0  0  0  0  0  0  0  0  # atno 17370 bound_to 10713
  157.7494  131.0088  150.3241 LP  0  0  0  0  0  0  0  0  0  0  0  0  # atno 17371 bound_to 10713
  140.3199  134.2928  155.7248 LP  0  0  0  0  0  0  0  0  0  0  0  0  # atno 17394 bound_to 11000
  141.2109  133.7703  156.9897 LP  0  0  0  0  0  0  0  0  0  0  0  0  # atno 17395 bound_to 11000

$$$$
