AV-unprocessed.smi:1965|AV-procd|sdf|7933|dock4
  -GOLD-   2272010103D 1   1.00000     0.00000
 Structure written by MMmdl.
 37 39  0  0  0  0  0  0  0  0  2 V2000
  145.6439  138.1411  154.7063 O   0  0  0  0  0  0  0  0  0  0  0  0
  146.4120  137.5549  153.9456 C   0  0  0  0  0  0  0  0  0  0  0  0
  147.6100  138.0816  153.6159 N   0  0  0  0  0  0  0  0  0  0  0  0
  148.2344  139.3026  154.0038 C   0  0  0  0  0  0  0  0  0  0  0  0
  149.4728  139.4088  154.5029 N   0  0  0  0  0  0  0  0  0  0  0  0
  149.8033  140.7292  154.8180 C   0  0  0  0  0  0  0  0  0  0  0  0
  148.7947  141.6230  154.5599 C   0  0  0  0  0  0  0  0  0  0  0  0
  147.3817  140.8370  153.9089 S   0  0  0  0  0  0  0  0  0  0  0  0
  146.1197  136.3639  153.3977 N   0  0  0  0  0  0  0  0  0  0  0  0
  144.9190  135.5831  153.6759 C   0  0  1  0  0  0  0  0  0  0  0  0
  143.6279  136.3402  153.3932 C   0  0  0  0  0  0  0  0  0  0  0  0
  142.5907  135.2188  153.2758 C   0  0  0  0  0  0  0  0  0  0  0  0
  143.3184  134.0058  152.8281 N   0  3  1  0  0  0  0  0  0  0  0  0
  142.7798  133.4049  151.5784 C   0  0  0  0  0  0  0  0  0  0  0  0
  143.7850  132.4190  150.9649 C   0  0  0  0  0  0  0  0  0  0  0  0
  145.0967  133.1234  150.5701 C   0  0  0  0  0  0  0  0  0  0  0  0
  145.3356  134.4173  151.3714 C   0  0  0  0  0  0  0  0  0  0  0  0
  144.7766  134.3150  152.8129 C   0  0  1  0  0  0  0  0  0  0  0  0
  148.1169  137.5621  152.9139 H   0  0  0  0  0  0  0  0  0  0  0  0
  150.7805  140.9440  155.2249 H   0  0  0  0  0  0  0  0  0  0  0  0
  148.7963  142.6917  154.7153 H   0  0  0  0  0  0  0  0  0  0  0  0
  146.8032  135.9515  152.7783 H   0  0  0  0  0  0  0  0  0  0  0  0
  144.9114  135.2966  154.7300 H   0  0  0  0  0  0  0  0  0  0  0  0
  143.3802  137.0642  154.1702 H   0  0  0  0  0  0  0  0  0  0  0  0
  143.7025  136.8759  152.4454 H   0  0  0  0  0  0  0  0  0  0  0  0
  142.1592  135.0059  154.2546 H   0  0  0  0  0  0  0  0  0  0  0  0
  141.7700  135.4984  152.6139 H   0  0  0  0  0  0  0  0  0  0  0  0
  141.8377  132.9039  151.8025 H   0  0  0  0  0  0  0  0  0  0  0  0
  142.5560  134.1867  150.8506 H   0  0  0  0  0  0  0  0  0  0  0  0
  143.9967  131.6320  151.6902 H   0  0  0  0  0  0  0  0  0  0  0  0
  143.3532  131.9225  150.0954 H   0  0  0  0  0  0  0  0  0  0  0  0
  145.9283  132.4332  150.7179 H   0  0  0  0  0  0  0  0  0  0  0  0
  145.0880  133.3636  149.5063 H   0  0  0  0  0  0  0  0  0  0  0  0
  146.4037  134.6369  151.3762 H   0  0  0  0  0  0  0  0  0  0  0  0
  144.8584  135.2535  150.8582 H   0  0  0  0  0  0  0  0  0  0  0  0
  145.2987  133.4950  153.3083 H   0  0  0  0  0  0  0  0  0  0  0  0
  143.1931  133.3169  153.5561 H   0  0  0  0  0  0  0  0  0  0  0  0
  1  2  2  0  0  0  0
  2  3  1  0  0  0  0
  2  9  1  0  0  0  0
  3  4  1  0  0  0  0
  3 19  1  0  0  0  0
  4  8  1  0  0  0  0
  4  5  2  0  0  0  0
  5  6  1  0  0  0  0
  6  7  2  0  0  0  0
  6 20  1  0  0  0  0
  7  8  1  0  0  0  0
  7 21  1  0  0  0  0
  9 10  1  0  0  0  0
  9 22  1  0  0  0  0
 10 18  1  0  0  0  0
 10 11  1  0  0  0  0
 10 23  1  0  0  0  0
 11 12  1  0  0  0  0
 11 24  1  0  0  0  0
 11 25  1  0  0  0  0
 12 13  1  0  0  0  0
 12 26  1  0  0  0  0
 12 27  1  0  0  0  0
 13 18  1  0  0  0  0
 13 14  1  0  0  0  0
 13 37  1  0  0  0  0
 14 15  1  0  0  0  0
 14 28  1  0  0  0  0
 14 29  1  0  0  0  0
 15 16  1  0  0  0  0
 15 30  1  0  0  0  0
 15 31  1  0  0  0  0
 16 17  1  0  0  0  0
 16 32  1  0  0  0  0
 16 33  1  0  0  0  0
 17 18  1  0  0  0  0
 17 34  1  0  0  0  0
 17 35  1  0  0  0  0
 18 36  1  0  0  0  0
M  CHG  1  13   1
M  END
> <s_m_source_file>
AV-unprocessed.smi

> <i_m_source_file_index>
1965

> <i_lp_mmshare_version>
43012

> <i_f3d_flags>
0

> <s_epik_input>
czFbY0hdW2NIXW5jMVtOSF1DKD1PKVtOSF1bQ0BIXShbQ0gyXVtDSDJdMilbQ0BASF0oTjIzKVtDSDJdW0NIMl1bQ0gyXVtDSDJdMw==

> <s_epik_cmdline>
J2VwaWtfcHl0aG9uJywgJy1waCcsICc3LjAnLCAnLXRuJywgJzgnLCAnLW1hJywgJzIwMCcsICctbWV0YWxfYmluZGluZycsICctaW1hZScsICc8aW5maWxlLm1hZT4nLCAnLW9tYWUnLCAnPG91dGZpbGUubWFlPic=

> <r_lp_tautomer_probability>
1

> <r_epik_Ionization_Penalty>
0.00125962

> <r_epik_Ionization_Penalty_Charging>
0.00107044

> <r_epik_Ionization_Penalty_Neutral>
0.000189176

> <r_epik_State_Penalty>
-0

> <r_epik_Charging_Adjusted_Penalty>
0.00107044

> <i_epik_Tot_Q>
1

> <i_epik_Tot_abs_Q>
1

> <r_epik_Metal_State_Penalty>
0.0179285

> <b_epik_Metal_Only>
0

> <s_lp_Force_Field>
OPLS_2005

> <r_lp_Energy>
41.2924

> <b_lp_Chiralities_Consistent>
1

> <s_lp_Variant>
AV-unprocessed.smi:1965-2

> <Gold.Version>
5.8.1

> <Gold.Id.Protein>
6NUR|6NUR_protein|mol2

> <Gold.PLP.Fitness>
42.8942

> <Gold.PLP.PLP>
-29.4736

> <Gold.PLP.part.hbond>
-3.0000

> <Gold.PLP.part.metal>
0.0000

> <Gold.PLP.part.buried>
-3.5538

> <Gold.PLP.part.nonpolar>
-23.7522

> <Gold.PLP.part.repulsive>
0.2522

> <Gold.PLP.ligand.clash>
0.0000

> <Gold.PLP.ligand.torsion>
0.4656

> <Gold.PLP.Chemscore.Hbond>
3.7828

> <Gold.PLP.Chemscore.CHOScore>
1.0000

> <Gold.PLP.Chemscore.Metal>
0.0000

> <Gold.Chemscore.Hbonds>
donor molecule, donor type, donor heavy atom, donor atom, acceptor molecule, acceptor atom, score
      L1  H     3    19       P1  7948  1.00
      L1  H     9    22       P1  7948  0.20
      L1  H    13    37       P1 10957  1.95
      L1  C     7    21       P1  8028  1.00

> <Gold.PLP.Chemscore.Internal.Correction>
0.0034

> <Gold.Rescore>
     Score         DG    S(hbond)    S(metal)    S(lipo)     H(rot)  DE(clash)    DE(int)     intcor
     18.56     -19.05       2.58        0.00      64.13       1.00       0.01       0.48       ----

> <Gold.Chemscore.Fitness>
18.5559

> <Gold.Chemscore.DG>
-19.0451

> <Gold.Chemscore.ZeroCoef>
-5.4800

> <Gold.Chemscore.Hbond>
2.5814

> <Gold.Chemscore.Metal>
0.0000

> <Gold.Chemscore.Lipo>
64.1308

> <Gold.Chemscore.Internal_Hbond>
0.0000

> <Gold.Chemscore.DEClash>
0.0060

> <Gold.Chemscore.DEInternal>
0.4832

> <Gold.Chemscore.Rot>
1.0000

> <Gold.Chemscore.Internal.Correction>
   9.000000E+99

> <Gold.Chemscore.Hbonds>
donor molecule, donor type, donor heavy atom, donor atom, acceptor molecule, acceptor atom, score
      L1  H     3    19       P1  7948  1.00
      L1  H     9    22       P1  7948  0.20
      L1  H    13    37       P1 10957  0.90

> <Gold.Chemscore.Hbond.Weighted>
-8.6218

> <Gold.Chemscore.Metal.Weighted>
-0.0000

> <Gold.Chemscore.Lipo.Weighted>
-7.5033

> <Gold.Chemscore.Internal_Hbond.Weighted>
0.0000

> <Gold.Chemscore.DEClash.Weighted>
0.0060

> <Gold.Chemscore.DEInternal.Weighted>
0.4832

> <Gold.Chemscore.Rot.Weighted>
2.5600

> <Gold.Chemscore.Internal.Correction.Weighted>
   9.000000E+99

> <Gold.Protein.RotatedTorsions>
[ 6907 6896 6895 6894 ] final  -37.95 input  -60.11 | X-H torsion
[ 7974 7965 7964 7962 ] final  -17.57 input  175.53 | X-H torsion
[ 8008 7997 7996 7995 ] final  -85.61 input   59.86 | X-H torsion
[ 10167 10162 10161 10158 ] final  105.43 input  -65.29 | X-H torsion
[ 10718 10713 10712 10709 ] final  168.80 input   66.30 | X-H torsion
[ 10763 10752 10751 10750 ] final   12.40 input  -60.55 | X-H torsion
[ 11005 11000 10999 10996 ] final  122.75 input  -57.11 | X-H torsion

> <Gold.Protein.ActiveResidues>
 VAL166  LYS551  ARG553  GLY616  TRP617  ASP618  TYR619  PRO620  LYS621  CYS622 
 ASP623  PHE694  ASN695  SER759  ASP760  ASP761  ALA762  ILE779  LEU786  VAL792 
 PHE793  MET794  SER795  GLU796  ALA797  LYS798  CYS799  TRP800  GLU811  SER814 

> <Gold.Protein.RotatedAtoms>
  151.0084  134.9377  159.7993 H   0  0  0  0  0  0  0  0  0  0  0  0  # atno 6907 bound_to 6896
  152.5296  134.3061  159.9106 H   0  0  0  0  0  0  0  0  0  0  0  0  # atno 6908 bound_to 6896
  151.3067  133.4057  159.2678 H   0  0  0  0  0  0  0  0  0  0  0  0  # atno 6909 bound_to 6896
  146.1935  140.3798  142.8449 H   0  0  0  0  0  0  0  0  0  0  0  0  # atno 7974 bound_to 7965
  154.6427  140.0589  156.9864 H   0  0  0  0  0  0  0  0  0  0  0  0  # atno 8008 bound_to 7997
  155.1492  140.3272  155.4416 H   0  0  0  0  0  0  0  0  0  0  0  0  # atno 8009 bound_to 7997
  156.2538  140.1950  156.6605 H   0  0  0  0  0  0  0  0  0  0  0  0  # atno 8010 bound_to 7997
  139.7093  144.7080  151.1053 H   0  0  0  0  0  0  0  0  0  0  0  0  # atno 10167 bound_to 10162
  157.0319  131.0262  151.2742 H   0  0  0  0  0  0  0  0  0  0  0  0  # atno 10718 bound_to 10713
  153.1827  135.6830  153.8457 H   0  0  0  0  0  0  0  0  0  0  0  0  # atno 10763 bound_to 10752
  153.7783  135.3186  155.3363 H   0  0  0  0  0  0  0  0  0  0  0  0  # atno 10764 bound_to 10752
  154.8069  135.4742  154.0512 H   0  0  0  0  0  0  0  0  0  0  0  0  # atno 10765 bound_to 10752
  139.9282  134.9641  156.8155 H   0  0  0  0  0  0  0  0  0  0  0  0  # atno 11005 bound_to 11000
  144.8532  140.7032  143.6154 LP  0  0  0  0  0  0  0  0  0  0  0  0  # atno 17320 bound_to 7965
  145.3719  139.1656  143.4327 LP  0  0  0  0  0  0  0  0  0  0  0  0  # atno 17321 bound_to 7965
  140.7729  143.5315  150.9418 LP  0  0  0  0  0  0  0  0  0  0  0  0  # atno 17342 bound_to 10162
  139.8999  143.6849  152.3133 LP  0  0  0  0  0  0  0  0  0  0  0  0  # atno 17343 bound_to 10162
  157.5171  130.7975  149.7768 LP  0  0  0  0  0  0  0  0  0  0  0  0  # atno 17370 bound_to 10713
  156.0067  130.3852  150.2407 LP  0  0  0  0  0  0  0  0  0  0  0  0  # atno 17371 bound_to 10713
  140.6277  133.9935  155.7647 LP  0  0  0  0  0  0  0  0  0  0  0  0  # atno 17394 bound_to 11000
  141.0853  133.9999  157.3322 LP  0  0  0  0  0  0  0  0  0  0  0  0  # atno 17395 bound_to 11000

$$$$
