AV-unprocessed.smi:3047|AV-procd|sdf|11623|dock1
  -GOLD-   2272017 13D 1   1.00000     0.00000
 Structure written by MMmdl.
 37 38  0  0  0  0  0  0  0  0  1 V2000
  153.7902  138.4510  158.5662 C   0  0  0  0  0  0  0  0  0  0  0  0
  153.1504  136.8215  158.0049 S   0  0  0  0  0  0  0  0  0  0  0  0
  154.1525  136.2166  157.1139 O   0  0  0  0  0  0  0  0  0  0  0  0
  152.6532  136.0698  159.1673 O   0  0  0  0  0  0  0  0  0  0  0  0
  151.7865  137.2593  157.0344 N   0  0  0  0  0  0  0  0  0  0  0  0
  150.7123  136.2765  156.8346 C   0  0  0  0  0  0  0  0  0  0  0  0
  150.0288  136.6720  155.5279 C   0  0  0  0  0  0  0  0  0  0  0  0
  151.1552  137.3154  154.7305 C   0  0  0  0  0  0  0  0  0  0  0  0
  152.0146  138.0191  155.7950 C   0  0  1  0  0  0  0  0  0  0  0  0
  151.6865  139.5104  155.9529 C   0  0  0  0  0  0  0  0  0  0  0  0
  151.5148  140.2243  154.9639 O   0  0  0  0  0  0  0  0  0  0  0  0
  151.5852  139.9654  157.2112 N   0  0  0  0  0  0  0  0  0  0  0  0
  151.2485  141.3343  157.5817 C   0  0  0  0  0  0  0  0  0  0  0  0
  152.2476  141.9122  158.5978 C   0  0  0  0  0  0  0  0  0  0  0  0
  151.9734  143.3076  158.8742 N   0  0  0  0  0  0  0  0  0  0  0  0
  152.4267  144.0494  159.9570 C   0  0  0  0  0  0  0  0  0  0  0  0
  151.9205  145.3201  159.8017 C   0  0  0  0  0  0  0  0  0  0  0  0
  151.1573  145.3819  158.6377 N   0  0  0  0  0  0  0  0  0  0  0  0
  151.2351  144.1534  158.1425 C   0  0  0  0  0  0  0  0  0  0  0  0
  154.6833  138.2993  159.1716 H   0  0  0  0  0  0  0  0  0  0  0  0
  153.0329  138.9591  159.1627 H   0  0  0  0  0  0  0  0  0  0  0  0
  154.0405  139.0616  157.6988 H   0  0  0  0  0  0  0  0  0  0  0  0
  151.1438  135.2790  156.7433 H   0  0  0  0  0  0  0  0  0  0  0  0
  150.0241  136.2757  157.6800 H   0  0  0  0  0  0  0  0  0  0  0  0
  149.5770  135.8236  155.0132 H   0  0  0  0  0  0  0  0  0  0  0  0
  149.2440  137.4037  155.7244 H   0  0  0  0  0  0  0  0  0  0  0  0
  151.7461  136.5423  154.2374 H   0  0  0  0  0  0  0  0  0  0  0  0
  150.7824  137.9831  153.9524 H   0  0  0  0  0  0  0  0  0  0  0  0
  153.0623  137.9281  155.5024 H   0  0  0  0  0  0  0  0  0  0  0  0
  151.7277  139.3090  157.9655 H   0  0  0  0  0  0  0  0  0  0  0  0
  151.2036  141.9594  156.6880 H   0  0  0  0  0  0  0  0  0  0  0  0
  150.2447  141.3311  158.0075 H   0  0  0  0  0  0  0  0  0  0  0  0
  152.2070  141.3544  159.5344 H   0  0  0  0  0  0  0  0  0  0  0  0
  153.2696  141.8335  158.2247 H   0  0  0  0  0  0  0  0  0  0  0  0
  153.0551  143.6239  160.7257 H   0  0  0  0  0  0  0  0  0  0  0  0
  152.0458  146.1878  160.4326 H   0  0  0  0  0  0  0  0  0  0  0  0
  150.7436  143.8629  157.2254 H   0  0  0  0  0  0  0  0  0  0  0  0
  1  2  1  0  0  0  0
  1 20  1  0  0  0  0
  1 21  1  0  0  0  0
  1 22  1  0  0  0  0
  2  3  2  0  0  0  0
  2  4  2  0  0  0  0
  2  5  1  0  0  0  0
  5  9  1  0  0  0  0
  5  6  1  0  0  0  0
  6  7  1  0  0  0  0
  6 23  1  0  0  0  0
  6 24  1  0  0  0  0
  7  8  1  0  0  0  0
  7 25  1  0  0  0  0
  7 26  1  0  0  0  0
  8  9  1  0  0  0  0
  8 27  1  0  0  0  0
  8 28  1  0  0  0  0
  9 10  1  0  0  0  0
  9 29  1  0  0  0  0
 10 11  2  0  0  0  0
 10 12  1  0  0  0  0
 12 13  1  0  0  0  0
 12 30  1  0  0  0  0
 13 14  1  0  0  0  0
 13 31  1  0  0  0  0
 13 32  1  0  0  0  0
 14 15  1  0  0  0  0
 14 33  1  0  0  0  0
 14 34  1  0  0  0  0
 15 19  1  0  0  0  0
 15 16  1  0  0  0  0
 16 17  2  0  0  0  0
 16 35  1  0  0  0  0
 17 18  1  0  0  0  0
 17 36  1  0  0  0  0
 18 19  2  0  0  0  0
 19 37  1  0  0  0  0
M  END
> <s_m_source_file>
AV-unprocessed.smi

> <i_m_source_file_index>
3047

> <i_lp_mmshare_version>
43012

> <i_f3d_flags>
0

> <s_epik_input>
W0NIM11TKD1PKSg9TylOMVtDSDJdW0NIMl1bQ0gyXVtDQEhdMUMoPU8pW05IXVtDSDJdW0NIMl1uMltjSF1bY0hdbltjSF0y

> <s_epik_cmdline>
J2VwaWtfcHl0aG9uJywgJy1waCcsICc3LjAnLCAnLXRuJywgJzgnLCAnLW1hJywgJzIwMCcsICctbWV0YWxfYmluZGluZycsICctaW1hZScsICc8aW5maWxlLm1hZT4nLCAnLW9tYWUnLCAnPG91dGZpbGUubWFlPic=

> <r_lp_tautomer_probability>
1

> <r_epik_Ionization_Penalty>
0.575721

> <r_epik_Ionization_Penalty_Charging>
0.575721

> <r_epik_Ionization_Penalty_Neutral>
1.33078e-07

> <r_epik_State_Penalty>
0.588056

> <r_epik_Charging_Adjusted_Penalty>
1.16378

> <i_epik_Tot_Q>
0

> <i_epik_Tot_abs_Q>
0

> <r_epik_Metal_State_Penalty>
0.294357

> <b_epik_Metal_Only>
0

> <s_lp_Force_Field>
OPLS_2005

> <r_lp_Energy>
8.50144

> <b_lp_Chiralities_Consistent>
1

> <s_lp_Variant>
AV-unprocessed.smi:3047-3

> <Gold.Version>
5.8.1

> <Gold.Id.Protein>
6NUR|6NUR_protein|mol2

> <Gold.PLP.Fitness>
41.5063

> <Gold.PLP.PLP>
-31.9497

> <Gold.PLP.part.hbond>
-3.5205

> <Gold.PLP.part.metal>
0.0000

> <Gold.PLP.part.buried>
-2.7445

> <Gold.PLP.part.nonpolar>
-26.1072

> <Gold.PLP.part.repulsive>
0.2982

> <Gold.PLP.ligand.clash>
0.0466

> <Gold.PLP.ligand.torsion>
1.2781

> <Gold.PLP.Chemscore.Hbond>
2.8480

> <Gold.PLP.Chemscore.CHOScore>
0.9975

> <Gold.PLP.Chemscore.Metal>
0.0000

> <Gold.Chemscore.Hbonds>
donor molecule, donor type, donor heavy atom, donor atom, acceptor molecule, acceptor atom, score
      P1  H  6896  6908       L1     4  0.66
      P1  H  7989  7998       L1    11  1.00
      P1  H 10752 10765       L1     3  1.00
      L1  C    19    37       P1  8028  0.94

> <Gold.PLP.Chemscore.Internal.Correction>
0.6229

> <Gold.Rescore>
     Score         DG    S(hbond)    S(metal)    S(lipo)     H(rot)  DE(clash)    DE(int)     intcor
     14.61     -16.47       2.92        0.00      62.76       2.39       0.91       0.94       ----

> <Gold.Chemscore.Fitness>
14.6121

> <Gold.Chemscore.DG>
-16.4666

> <Gold.Chemscore.ZeroCoef>
-5.4800

> <Gold.Chemscore.Hbond>
2.9196

> <Gold.Chemscore.Metal>
0.0000

> <Gold.Chemscore.Lipo>
62.7574

> <Gold.Chemscore.Internal_Hbond>
0.0000

> <Gold.Chemscore.DEClash>
0.9122

> <Gold.Chemscore.DEInternal>
0.9423

> <Gold.Chemscore.Rot>
2.3857

> <Gold.Chemscore.Internal.Correction>
   9.000000E+99

> <Gold.Chemscore.Hbonds>
donor molecule, donor type, donor heavy atom, donor atom, acceptor molecule, acceptor atom, score
      P1  H  6896  6908       L1     4  0.63
      P1  H  7989  7998       L1    11  0.95
      P1  H 10752 10765       L1     3  0.93

> <Gold.Chemscore.Hbond.Weighted>
-9.7514

> <Gold.Chemscore.Metal.Weighted>
-0.0000

> <Gold.Chemscore.Lipo.Weighted>
-7.3426

> <Gold.Chemscore.Internal_Hbond.Weighted>
0.0000

> <Gold.Chemscore.DEClash.Weighted>
0.9122

> <Gold.Chemscore.DEInternal.Weighted>
0.9423

> <Gold.Chemscore.Rot.Weighted>
6.1074

> <Gold.Chemscore.Internal.Correction.Weighted>
   9.000000E+99

> <Gold.Protein.RotatedTorsions>
[ 6907 6896 6895 6894 ] final  -75.66 input  -60.11 | X-H torsion
[ 7974 7965 7964 7962 ] final   89.47 input  175.53 | X-H torsion
[ 8008 7997 7996 7995 ] final  -28.51 input   59.86 | X-H torsion
[ 10167 10162 10161 10158 ] final  179.84 input  -65.29 | X-H torsion
[ 10718 10713 10712 10709 ] final   54.90 input   66.30 | X-H torsion
[ 10763 10752 10751 10750 ] final  -80.41 input  -60.55 | X-H torsion
[ 11005 11000 10999 10996 ] final   18.66 input  -57.11 | X-H torsion

> <Gold.Protein.ActiveResidues>
 VAL166  LYS551  ARG553  GLY616  TRP617  ASP618  TYR619  PRO620  LYS621  CYS622 
 ASP623  PHE694  ASN695  SER759  ASP760  ASP761  ALA762  ILE779  LEU786  VAL792 
 PHE793  MET794  SER795  GLU796  ALA797  LYS798  CYS799  TRP800  GLU811  SER814 

> <Gold.Protein.RotatedAtoms>
  150.7052  134.4688  159.5415 H   0  0  0  0  0  0  0  0  0  0  0  0  # atno 6907 bound_to 6896
  152.2348  134.8283  160.0477 H   0  0  0  0  0  0  0  0  0  0  0  0  # atno 6908 bound_to 6896
  151.9086  133.3520  159.3892 H   0  0  0  0  0  0  0  0  0  0  0  0  # atno 6909 bound_to 6896
  145.5319  139.2284  143.2614 H   0  0  0  0  0  0  0  0  0  0  0  0  # atno 7974 bound_to 7965
  154.4329  140.1843  156.1101 H   0  0  0  0  0  0  0  0  0  0  0  0  # atno 8008 bound_to 7997
  156.0224  140.3339  155.7027 H   0  0  0  0  0  0  0  0  0  0  0  0  # atno 8009 bound_to 7997
  155.5957  140.0635  157.2737 H   0  0  0  0  0  0  0  0  0  0  0  0  # atno 8010 bound_to 7997
  139.5354  144.2512  152.0782 H   0  0  0  0  0  0  0  0  0  0  0  0  # atno 10167 bound_to 10162
  157.5297  130.8622  149.8671 H   0  0  0  0  0  0  0  0  0  0  0  0  # atno 10718 bound_to 10713
  154.5508  135.5662  153.6921 H   0  0  0  0  0  0  0  0  0  0  0  0  # atno 10763 bound_to 10752
  152.9989  135.6250  154.2376 H   0  0  0  0  0  0  0  0  0  0  0  0  # atno 10764 bound_to 10752
  154.2311  135.2866  155.2869 H   0  0  0  0  0  0  0  0  0  0  0  0  # atno 10765 bound_to 10752
  140.4223  134.1506  155.7674 H   0  0  0  0  0  0  0  0  0  0  0  0  # atno 11005 bound_to 11000
  146.2038  140.6136  142.9090 LP  0  0  0  0  0  0  0  0  0  0  0  0  # atno 17320 bound_to 7965
  144.7621  140.5447  143.6728 LP  0  0  0  0  0  0  0  0  0  0  0  0  # atno 17321 bound_to 7965
  140.1982  144.4684  150.6444 LP  0  0  0  0  0  0  0  0  0  0  0  0  # atno 17342 bound_to 10162
  140.6557  143.2237  151.5973 LP  0  0  0  0  0  0  0  0  0  0  0  0  # atno 17343 bound_to 10162
  156.0413  130.3738  150.1427 LP  0  0  0  0  0  0  0  0  0  0  0  0  # atno 17370 bound_to 10713
  156.9613  130.9805  151.3478 LP  0  0  0  0  0  0  0  0  0  0  0  0  # atno 17371 bound_to 10713
  141.1779  133.8475  157.1359 LP  0  0  0  0  0  0  0  0  0  0  0  0  # atno 17394 bound_to 11000
  140.0191  134.9954  157.0556 LP  0  0  0  0  0  0  0  0  0  0  0  0  # atno 17395 bound_to 11000

$$$$
