AV-unprocessed.smi:3057|AV-procd|sdf|11668|dock4
  -GOLD-   2272017 73D 1   1.00000     0.00000
 Structure written by MMmdl.
 41 43  0  0  0  0  0  0  0  0  2 V2000
  145.3635  134.0209  161.9073 C   0  0  0  0  0  0  0  0  0  0  0  0
  146.8930  134.1929  161.8357 C   0  0  2  0  0  0  0  0  0  0  0  0
  147.4421  134.8961  163.0902 C   0  0  0  0  0  0  0  0  0  0  0  0
  147.5272  136.3776  162.6938 C   0  0  0  0  0  0  0  0  0  0  0  0
  147.6134  136.3054  161.1777 C   0  0  0  0  0  0  0  0  0  0  0  0
  148.0056  137.2367  160.4765 O   0  0  0  0  0  0  0  0  0  0  0  0
  147.2709  135.0822  160.7543 N   0  0  0  0  0  0  0  0  0  0  0  0
  147.5491  134.4923  159.4420 C   0  0  2  0  0  0  0  0  0  0  0  0
  146.4842  134.9016  158.4100 C   0  0  0  0  0  0  0  0  0  0  0  0
  145.3181  134.5182  158.5100 O   0  0  0  0  0  0  0  0  0  0  0  0
  146.9174  135.6712  157.4001 N   0  0  0  0  0  0  0  0  0  0  0  0
  146.0927  136.1702  156.3033 C   0  0  0  0  0  0  0  0  0  0  0  0
  146.7605  136.0263  154.9198 C   0  0  0  0  0  0  0  0  0  0  0  0
  145.7739  135.9141  153.7702 C   0  0  0  0  0  0  0  0  0  0  0  0
  144.3774  135.9497  153.9756 C   0  0  0  0  0  0  0  0  0  0  0  0
  143.5136  135.8316  152.8672 C   0  0  0  0  0  0  0  0  0  0  0  0
  144.0638  135.6832  151.5773 C   0  0  0  0  0  0  0  0  0  0  0  0
  145.4656  135.6569  151.4287 C   0  0  0  0  0  0  0  0  0  0  0  0
  146.2600  135.7720  152.5159 N   0  3  0  0  0  0  0  0  0  0  0  0
  147.5217  132.9554  159.6374 C   0  0  0  0  0  0  0  0  0  0  0  0
  147.7090  132.6439  161.4143 S   0  0  0  0  0  0  0  0  0  0  0  0
  144.8615  134.9755  162.0685 H   0  0  0  0  0  0  0  0  0  0  0  0
  145.0848  133.3598  162.7282 H   0  0  0  0  0  0  0  0  0  0  0  0
  144.9613  133.5886  160.9911 H   0  0  0  0  0  0  0  0  0  0  0  0
  146.8175  134.7380  163.9702 H   0  0  0  0  0  0  0  0  0  0  0  0
  148.4407  134.5280  163.3309 H   0  0  0  0  0  0  0  0  0  0  0  0
  146.6249  136.9202  162.9776 H   0  0  0  0  0  0  0  0  0  0  0  0
  148.3931  136.8763  163.1298 H   0  0  0  0  0  0  0  0  0  0  0  0
  148.5408  134.8093  159.1136 H   0  0  0  0  0  0  0  0  0  0  0  0
  147.8901  135.9424  157.3979 H   0  0  0  0  0  0  0  0  0  0  0  0
  145.1203  135.6753  156.3099 H   0  0  0  0  0  0  0  0  0  0  0  0
  145.9009  137.2247  156.5026 H   0  0  0  0  0  0  0  0  0  0  0  0
  147.4130  136.8811  154.7370 H   0  0  0  0  0  0  0  0  0  0  0  0
  147.4114  135.1511  154.9160 H   0  0  0  0  0  0  0  0  0  0  0  0
  143.9713  136.0600  154.9710 H   0  0  0  0  0  0  0  0  0  0  0  0
  142.4425  135.8540  153.0052 H   0  0  0  0  0  0  0  0  0  0  0  0
  143.4200  135.5919  150.7147 H   0  0  0  0  0  0  0  0  0  0  0  0
  145.9709  135.5479  150.4801 H   0  0  0  0  0  0  0  0  0  0  0  0
  146.5692  132.5201  159.3316 H   0  0  0  0  0  0  0  0  0  0  0  0
  148.3081  132.4546  159.0725 H   0  0  0  0  0  0  0  0  0  0  0  0
  147.2715  135.7502  152.3841 H   0  0  0  0  0  0  0  0  0  0  0  0
  1  2  1  0  0  0  0
  1 22  1  0  0  0  0
  1 23  1  0  0  0  0
  1 24  1  0  0  0  0
  2  7  1  0  0  0  0
  2 21  1  0  0  0  0
  2  3  1  0  0  0  0
  3  4  1  0  0  0  0
  3 25  1  0  0  0  0
  3 26  1  0  0  0  0
  4  5  1  0  0  0  0
  4 27  1  0  0  0  0
  4 28  1  0  0  0  0
  5  6  2  0  0  0  0
  5  7  1  0  0  0  0
  7  8  1  0  0  0  0
  8  9  1  0  0  0  0
  8 20  1  0  0  0  0
  8 29  1  0  0  0  0
  9 10  2  0  0  0  0
  9 11  1  0  0  0  0
 11 12  1  0  0  0  0
 11 30  1  0  0  0  0
 12 13  1  0  0  0  0
 12 31  1  0  0  0  0
 12 32  1  0  0  0  0
 13 14  1  0  0  0  0
 13 33  1  0  0  0  0
 13 34  1  0  0  0  0
 14 19  1  0  0  0  0
 14 15  2  0  0  0  0
 15 16  1  0  0  0  0
 15 35  1  0  0  0  0
 16 17  2  0  0  0  0
 16 36  1  0  0  0  0
 17 18  1  0  0  0  0
 17 37  1  0  0  0  0
 18 19  2  0  0  0  0
 18 38  1  0  0  0  0
 19 41  1  0  0  0  0
 20 21  1  0  0  0  0
 20 39  1  0  0  0  0
 20 40  1  0  0  0  0
M  CHG  1  19   1
M  END
> <s_m_source_file>
AV-unprocessed.smi

> <i_m_source_file_index>
3057

> <i_lp_mmshare_version>
43012

> <i_f3d_flags>
0

> <s_epik_input>
W0NIMl0xW0NIMl1DKD1PKU4oW0NAQF0xMltDSDNdKVtDQEhdKFtDSDJdUzIpQyg9TylbTkhdW0NIMl1bQ0gyXWMzW2NIXVtjSF1bY0hdW2NIXW4z

> <s_epik_cmdline>
J2VwaWtfcHl0aG9uJywgJy1waCcsICc3LjAnLCAnLXRuJywgJzgnLCAnLW1hJywgJzIwMCcsICctbWV0YWxfYmluZGluZycsICctaW1hZScsICc8aW5maWxlLm1hZT4nLCAnLW9tYWUnLCAnPG91dGZpbGUubWFlPic=

> <r_epik_Ionization_Penalty>
1.8888

> <r_epik_Ionization_Penalty_Charging>
1.8888

> <r_epik_Ionization_Penalty_Neutral>
1.66252e-07

> <r_epik_State_Penalty>
2.00916

> <r_epik_Charging_Adjusted_Penalty>
3.89796

> <i_epik_Tot_Q>
1

> <i_epik_Tot_abs_Q>
1

> <r_epik_Metal_State_Penalty>
2.03343

> <b_epik_Metal_Only>
0

> <s_lp_Force_Field>
OPLS_2005

> <r_lp_Energy>
33.0381

> <b_lp_Chiralities_Consistent>
1

> <s_lp_Variant>
AV-unprocessed.smi:3057-8

> <Gold.Version>
5.8.1

> <Gold.Id.Protein>
6NUR|6NUR_protein|mol2

> <Gold.PLP.Fitness>
43.1039

> <Gold.PLP.PLP>
-33.3163

> <Gold.PLP.part.hbond>
-3.0000

> <Gold.PLP.part.metal>
0.0000

> <Gold.PLP.part.buried>
-4.5514

> <Gold.PLP.part.nonpolar>
-26.1679

> <Gold.PLP.part.repulsive>
0.0088

> <Gold.PLP.ligand.clash>
0.0000

> <Gold.PLP.ligand.torsion>
0.3612

> <Gold.PLP.Chemscore.Hbond>
3.4974

> <Gold.PLP.Chemscore.CHOScore>
0.0000

> <Gold.PLP.Chemscore.Metal>
0.0000

> <Gold.Chemscore.Hbonds>
donor molecule, donor type, donor heavy atom, donor atom, acceptor molecule, acceptor atom, score
      L1  H    19    41       P1  7948  2.00
      P1  H  6931  6943       L1     6  0.70
      P1  H  6934  6947       L1     6  0.75

> <Gold.PLP.Chemscore.Internal.Correction>
0.0177

> <Gold.Rescore>
     Score         DG    S(hbond)    S(metal)    S(lipo)     H(rot)  DE(clash)    DE(int)     intcor
     17.55     -17.91       2.65        0.00      66.16       1.62       0.03       0.33       ----

> <Gold.Chemscore.Fitness>
17.5454

> <Gold.Chemscore.DG>
-17.9100

> <Gold.Chemscore.ZeroCoef>
-5.4800

> <Gold.Chemscore.Hbond>
2.6481

> <Gold.Chemscore.Metal>
0.0000

> <Gold.Chemscore.Lipo>
66.1650

> <Gold.Chemscore.Internal_Hbond>
0.0000

> <Gold.Chemscore.DEClash>
0.0310

> <Gold.Chemscore.DEInternal>
0.3337

> <Gold.Chemscore.Rot>
1.6234

> <Gold.Chemscore.Internal.Correction>
   9.000000E+99

> <Gold.Chemscore.Hbonds>
donor molecule, donor type, donor heavy atom, donor atom, acceptor molecule, acceptor atom, score
      L1  H    19    41       P1  7948  1.00
      P1  H  6931  6943       L1     6  0.15
      P1  H  6934  6947       L1     6  0.64

> <Gold.Chemscore.Hbond.Weighted>
-8.8445

> <Gold.Chemscore.Metal.Weighted>
-0.0000

> <Gold.Chemscore.Lipo.Weighted>
-7.7413

> <Gold.Chemscore.Internal_Hbond.Weighted>
0.0000

> <Gold.Chemscore.DEClash.Weighted>
0.0310

> <Gold.Chemscore.DEInternal.Weighted>
0.3337

> <Gold.Chemscore.Rot.Weighted>
4.1558

> <Gold.Chemscore.Internal.Correction.Weighted>
   9.000000E+99

> <Gold.Protein.RotatedTorsions>
[ 6907 6896 6895 6894 ] final   94.10 input  -60.11 | X-H torsion
[ 7974 7965 7964 7962 ] final   59.58 input  175.53 | X-H torsion
[ 8008 7997 7996 7995 ] final  154.28 input   59.86 | X-H torsion
[ 10167 10162 10161 10158 ] final  179.32 input  -65.29 | X-H torsion
[ 10718 10713 10712 10709 ] final  126.18 input   66.30 | X-H torsion
[ 10763 10752 10751 10750 ] final  -17.69 input  -60.55 | X-H torsion
[ 11005 11000 10999 10996 ] final  172.73 input  -57.11 | X-H torsion

> <Gold.Protein.ActiveResidues>
 VAL166  LYS551  ARG553  GLY616  TRP617  ASP618  TYR619  PRO620  LYS621  CYS622 
 ASP623  PHE694  ASN695  SER759  ASP760  ASP761  ALA762  ILE779  LEU786  VAL792 
 PHE793  MET794  SER795  GLU796  ALA797  LYS798  CYS799  TRP800  GLU811  SER814 

> <Gold.Protein.RotatedAtoms>
  152.5451  134.1246  159.8413 H   0  0  0  0  0  0  0  0  0  0  0  0  # atno 6907 bound_to 6896
  151.1298  133.5038  159.2607 H   0  0  0  0  0  0  0  0  0  0  0  0  # atno 6908 bound_to 6896
  151.1688  135.0318  159.8797 H   0  0  0  0  0  0  0  0  0  0  0  0  # atno 6909 bound_to 6896
  145.9056  139.3614  143.0566 H   0  0  0  0  0  0  0  0  0  0  0  0  # atno 7974 bound_to 7965
  156.2539  140.1971  156.6622 H   0  0  0  0  0  0  0  0  0  0  0  0  # atno 8008 bound_to 7997
  154.6456  140.0578  156.9922 H   0  0  0  0  0  0  0  0  0  0  0  0  # atno 8009 bound_to 7997
  155.1496  140.3250  155.4437 H   0  0  0  0  0  0  0  0  0  0  0  0  # atno 8010 bound_to 7997
  139.5331  144.2576  152.0734 H   0  0  0  0  0  0  0  0  0  0  0  0  # atno 10167 bound_to 10162
  157.5440  131.1096  150.8811 H   0  0  0  0  0  0  0  0  0  0  0  0  # atno 10718 bound_to 10713
  153.5777  135.7006  153.5477 H   0  0  0  0  0  0  0  0  0  0  0  0  # atno 10763 bound_to 10752
  153.3288  135.4053  155.1478 H   0  0  0  0  0  0  0  0  0  0  0  0  # atno 10764 bound_to 10752
  154.8622  135.3713  154.5303 H   0  0  0  0  0  0  0  0  0  0  0  0  # atno 10765 bound_to 10752
  140.3328  134.7342  157.4147 H   0  0  0  0  0  0  0  0  0  0  0  0  # atno 11005 bound_to 11000
  145.8736  140.9405  143.0637 LP  0  0  0  0  0  0  0  0  0  0  0  0  # atno 17320 bound_to 7965
  144.6739  140.0688  143.7473 LP  0  0  0  0  0  0  0  0  0  0  0  0  # atno 17321 bound_to 7965
  140.2042  144.4627  150.6417 LP  0  0  0  0  0  0  0  0  0  0  0  0  # atno 17342 bound_to 10162
  140.6522  143.2228  151.6052 LP  0  0  0  0  0  0  0  0  0  0  0  0  # atno 17343 bound_to 10162
  156.9356  130.5365  149.5279 LP  0  0  0  0  0  0  0  0  0  0  0  0  # atno 17370 bound_to 10713
  156.0520  130.5588  150.9011 LP  0  0  0  0  0  0  0  0  0  0  0  0  # atno 17371 bound_to 10713
  140.0846  134.5684  155.8505 LP  0  0  0  0  0  0  0  0  0  0  0  0  # atno 17394 bound_to 11000
  141.2059  133.6650  156.6208 LP  0  0  0  0  0  0  0  0  0  0  0  0  # atno 17395 bound_to 11000

$$$$
