AV-unprocessed.smi:3092|AV-procd|sdf|11784|dock1
  -GOLD-   2272017163D 1   1.00000     0.00000
 Structure written by MMmdl.
 26 27  0  0  0  0  0  0  0  0  3 V2000
  152.4521  144.6404  158.5700 C   0  0  0  0  0  0  0  0  0  0  0  0
  152.5041  143.3155  159.1916 N   0  0  0  0  0  0  0  0  0  0  0  0
  153.3825  142.9130  160.1649 C   0  0  0  0  0  0  0  0  0  0  0  0
  153.0769  141.6102  160.4567 C   0  0  0  0  0  0  0  0  0  0  0  0
  152.0257  141.2707  159.6496 N   0  3  0  0  0  0  0  0  0  0  0  0
  151.6738  142.3056  158.8750 C   0  0  0  0  0  0  0  0  0  0  0  0
  150.5572  142.3005  157.8675 C   0  0  2  0  0  0  0  0  0  0  0  0
  149.7193  141.0250  157.8221 C   0  0  0  0  0  0  0  0  0  0  0  0
  149.0262  141.1078  156.4542 C   0  0  0  0  0  0  0  0  0  0  0  0
  149.8396  142.0194  155.6197 N   0  3  0  0  0  0  0  0  0  0  0  0
  151.0070  142.4433  156.4137 C   0  0  0  0  0  0  0  0  0  0  0  0
  153.2233  145.2781  159.0032 H   0  0  0  0  0  0  0  0  0  0  0  0
  151.4737  145.0872  158.7504 H   0  0  0  0  0  0  0  0  0  0  0  0
  152.6263  144.5438  157.4979 H   0  0  0  0  0  0  0  0  0  0  0  0
  154.1417  143.5671  160.5697 H   0  0  0  0  0  0  0  0  0  0  0  0
  153.5167  140.9179  161.1600 H   0  0  0  0  0  0  0  0  0  0  0  0
  149.8978  143.1355  158.1049 H   0  0  0  0  0  0  0  0  0  0  0  0
  150.3663  140.1467  157.8423 H   0  0  0  0  0  0  0  0  0  0  0  0
  149.0199  140.9432  158.6547 H   0  0  0  0  0  0  0  0  0  0  0  0
  148.9336  140.1264  155.9879 H   0  0  0  0  0  0  0  0  0  0  0  0
  148.0249  141.5285  156.5522 H   0  0  0  0  0  0  0  0  0  0  0  0
  150.1337  141.5662  154.7658 H   0  0  0  0  0  0  0  0  0  0  0  0
  151.3268  143.4551  156.1631 H   0  0  0  0  0  0  0  0  0  0  0  0
  151.8309  141.7625  156.1945 H   0  0  0  0  0  0  0  0  0  0  0  0
  149.2803  142.8307  155.3964 H   0  0  0  0  0  0  0  0  0  0  0  0
  151.5752  140.3642  159.6419 H   0  0  0  0  0  0  0  0  0  0  0  0
  1  2  1  0  0  0  0
  1 12  1  0  0  0  0
  1 13  1  0  0  0  0
  1 14  1  0  0  0  0
  2  6  1  0  0  0  0
  2  3  1  0  0  0  0
  3  4  2  0  0  0  0
  3 15  1  0  0  0  0
  4  5  1  0  0  0  0
  4 16  1  0  0  0  0
  5  6  2  0  0  0  0
  5 26  1  0  0  0  0
  6  7  1  0  0  0  0
  7 11  1  0  0  0  0
  7  8  1  0  0  0  0
  7 17  1  0  0  0  0
  8  9  1  0  0  0  0
  8 18  1  0  0  0  0
  8 19  1  0  0  0  0
  9 10  1  0  0  0  0
  9 20  1  0  0  0  0
  9 21  1  0  0  0  0
 10 11  1  0  0  0  0
 10 22  1  0  0  0  0
 10 25  1  0  0  0  0
 11 23  1  0  0  0  0
 11 24  1  0  0  0  0
M  CHG  1   5   1
M  CHG  1  10   1
M  END
> <s_m_source_file>
AV-unprocessed.smi

> <i_m_source_file_index>
3092

> <i_lp_mmshare_version>
43012

> <i_f3d_flags>
0

> <s_epik_input>
W0NIM11uMVtjSF1bY0hdbmMxW0NAQEhdMltDSDJdW0NIMl1bTkhdW0NIMl0y

> <s_epik_cmdline>
J2VwaWtfcHl0aG9uJywgJy1waCcsICc3LjAnLCAnLXRuJywgJzgnLCAnLW1hJywgJzIwMCcsICctbWV0YWxfYmluZGluZycsICctaW1hZScsICc8aW5maWxlLm1hZT4nLCAnLW9tYWUnLCAnPG91dGZpbGUubWFlPic=

> <r_lp_tautomer_probability>
1

> <r_epik_Ionization_Penalty>
0.803493

> <r_epik_Ionization_Penalty_Charging>
0.000689375

> <r_epik_Ionization_Penalty_Neutral>
0.802804

> <r_epik_State_Penalty>
0.834355

> <r_epik_Charging_Adjusted_Penalty>
0.835044

> <i_epik_Tot_Q>
2

> <i_epik_Tot_abs_Q>
2

> <r_epik_Metal_State_Penalty>
4.76097

> <b_epik_Metal_Only>
0

> <s_lp_Force_Field>
OPLS_2005

> <r_lp_Energy>
35.9538

> <b_lp_Chiralities_Consistent>
1

> <s_lp_Variant>
AV-unprocessed.smi:3092-3

> <Gold.Version>
5.8.1

> <Gold.Id.Protein>
6NUR|6NUR_protein|mol2

> <Gold.PLP.Fitness>
32.1901

> <Gold.PLP.PLP>
-26.3045

> <Gold.PLP.part.hbond>
-1.0000

> <Gold.PLP.part.metal>
0.0000

> <Gold.PLP.part.buried>
-3.3889

> <Gold.PLP.part.nonpolar>
-21.7119

> <Gold.PLP.part.repulsive>
0.3078

> <Gold.PLP.ligand.clash>
0.0000

> <Gold.PLP.ligand.torsion>
0.0586

> <Gold.PLP.Chemscore.Hbond>
2.0000

> <Gold.PLP.Chemscore.CHOScore>
0.0000

> <Gold.PLP.Chemscore.Metal>
0.0000

> <Gold.Chemscore.Hbonds>
donor molecule, donor type, donor heavy atom, donor atom, acceptor molecule, acceptor atom, score
      L1  H    10    25       P1  8028  2.00

> <Gold.PLP.Chemscore.Internal.Correction>
0.0027

> <Gold.Rescore>
     Score         DG    S(hbond)    S(metal)    S(lipo)     H(rot)  DE(clash)    DE(int)     intcor
     13.25     -13.26       0.99        0.00      60.18       1.00       0.01       0.00       ----

> <Gold.Chemscore.Fitness>
13.2547

> <Gold.Chemscore.DG>
-13.2634

> <Gold.Chemscore.ZeroCoef>
-5.4800

> <Gold.Chemscore.Hbond>
0.9886

> <Gold.Chemscore.Metal>
0.0000

> <Gold.Chemscore.Lipo>
60.1842

> <Gold.Chemscore.Internal_Hbond>
0.0000

> <Gold.Chemscore.DEClash>
0.0075

> <Gold.Chemscore.DEInternal>
0.0012

> <Gold.Chemscore.Rot>
1.0000

> <Gold.Chemscore.Internal.Correction>
   9.000000E+99

> <Gold.Chemscore.Hbonds>
donor molecule, donor type, donor heavy atom, donor atom, acceptor molecule, acceptor atom, score
      L1  H    10    25       P1  8028  0.94

> <Gold.Chemscore.Hbond.Weighted>
-3.3019

> <Gold.Chemscore.Metal.Weighted>
-0.0000

> <Gold.Chemscore.Lipo.Weighted>
-7.0415

> <Gold.Chemscore.Internal_Hbond.Weighted>
0.0000

> <Gold.Chemscore.DEClash.Weighted>
0.0075

> <Gold.Chemscore.DEInternal.Weighted>
0.0012

> <Gold.Chemscore.Rot.Weighted>
2.5600

> <Gold.Chemscore.Internal.Correction.Weighted>
   9.000000E+99

> <Gold.Protein.RotatedTorsions>
[ 6907 6896 6895 6894 ] final -152.71 input  -60.11 | X-H torsion
[ 7974 7965 7964 7962 ] final   48.00 input  175.53 | X-H torsion
[ 8008 7997 7996 7995 ] final  -50.33 input   59.86 | X-H torsion
[ 10167 10162 10161 10158 ] final  101.50 input  -65.29 | X-H torsion
[ 10718 10713 10712 10709 ] final  -24.55 input   66.30 | X-H torsion
[ 10763 10752 10751 10750 ] final  -76.47 input  -60.55 | X-H torsion
[ 11005 11000 10999 10996 ] final  -83.89 input  -57.11 | X-H torsion

> <Gold.Protein.ActiveResidues>
 VAL166  LYS551  ARG553  GLY616  TRP617  ASP618  TYR619  PRO620  LYS621  CYS622 
 ASP623  PHE694  ASN695  SER759  ASP760  ASP761  ALA762  ILE779  LEU786  VAL792 
 PHE793  MET794  SER795  GLU796  ALA797  LYS798  CYS799  TRP800  GLU811  SER814 

> <Gold.Protein.RotatedAtoms>
  151.2318  133.4446  159.2603 H   0  0  0  0  0  0  0  0  0  0  0  0  # atno 6907 bound_to 6896
  151.0787  134.9844  159.8355 H   0  0  0  0  0  0  0  0  0  0  0  0  # atno 6908 bound_to 6896
  152.5421  134.2259  159.8859 H   0  0  0  0  0  0  0  0  0  0  0  0  # atno 6909 bound_to 6896
  146.0245  139.4690  142.9876 H   0  0  0  0  0  0  0  0  0  0  0  0  # atno 7974 bound_to 7965
  154.4060  140.1275  156.4648 H   0  0  0  0  0  0  0  0  0  0  0  0  # atno 8008 bound_to 7997
  155.7238  140.3492  155.5008 H   0  0  0  0  0  0  0  0  0  0  0  0  # atno 8009 bound_to 7997
  155.9190  140.1049  157.1211 H   0  0  0  0  0  0  0  0  0  0  0  0  # atno 8010 bound_to 7997
  139.7432  144.7005  151.0543 H   0  0  0  0  0  0  0  0  0  0  0  0  # atno 10167 bound_to 10162
  156.4761  130.4535  149.6839 H   0  0  0  0  0  0  0  0  0  0  0  0  # atno 10718 bound_to 10713
  154.5003  135.5796  153.6526 H   0  0  0  0  0  0  0  0  0  0  0  0  # atno 10763 bound_to 10752
  152.9877  135.6134  154.3011 H   0  0  0  0  0  0  0  0  0  0  0  0  # atno 10764 bound_to 10752
  154.2918  135.2848  155.2630 H   0  0  0  0  0  0  0  0  0  0  0  0  # atno 10765 bound_to 10752
  141.1654  133.7317  156.8787 H   0  0  0  0  0  0  0  0  0  0  0  0  # atno 11005 bound_to 11000
  145.7140  141.0097  143.1438 LP  0  0  0  0  0  0  0  0  0  0  0  0  # atno 17320 bound_to 7965
  144.7003  139.8791  143.7446 LP  0  0  0  0  0  0  0  0  0  0  0  0  # atno 17321 bound_to 7965
  140.7789  143.4898  150.9908 LP  0  0  0  0  0  0  0  0  0  0  0  0  # atno 17342 bound_to 10162
  139.8586  143.7343  152.3174 LP  0  0  0  0  0  0  0  0  0  0  0  0  # atno 17343 bound_to 10162
  156.3568  130.7461  151.2428 LP  0  0  0  0  0  0  0  0  0  0  0  0  # atno 17370 bound_to 10713
  157.7487  131.0361  150.4395 LP  0  0  0  0  0  0  0  0  0  0  0  0  # atno 17371 bound_to 10713
  140.1730  134.9087  157.2856 LP  0  0  0  0  0  0  0  0  0  0  0  0  # atno 17394 bound_to 11000
  140.2480  134.3716  155.7453 LP  0  0  0  0  0  0  0  0  0  0  0  0  # atno 17395 bound_to 11000

$$$$
