#       Name:                AV-unprocessed.smi:1635
#       Creating user name   scv26
#       Creation time:       Fri Mar 27 07:22:29 2020


#       File generated by GOLD software.
#

@<TRIPOS>MOLECULE
AV-unprocessed.smi:1635
    42    43     1
SMALL
NO_CHARGES


@<TRIPOS>ATOM
      1 ****        -2.8818  -3.4060  -0.1860 C.3            1 S1                 0.0000
      2 ****        -3.6503  -2.1148  -0.4158 C.ar           1 S1                 0.0000
      3 ****        -5.0354  -2.1736  -0.6792 C.ar           1 S1                 0.0000
      4 ****        -5.7448  -0.9787  -0.8886 C.ar           1 S1                 0.0000
      5 ****        -5.0338   0.2320  -0.8260 C.ar           1 S1                 0.0000
      6 ****        -3.7100   0.2973  -0.5764 N.ar           1 S1                 0.0000
      7 ****        -3.0103  -0.8470  -0.3720 C.ar           1 S1                 0.0000
      8 ****        -1.6120  -0.8560  -0.1049 N.am           1 S1                 0.0000
      9 ****        -0.7696   0.1879  -0.0097 C.2            1 S1                 0.0000
     10 ****        -1.0802   1.3715  -0.1479 O.2            1 S1                 0.0000
     11 ****         0.4788  -0.2236   0.2565 N.am           1 S1                 0.0000
     12 ****         1.6443   0.6412   0.4423 C.3            1 S1                 0.0000
     13 ****         2.2158   1.0902  -0.9281 C.3            1 S1                 0.0000
     14 ****         3.7167   1.4478  -0.9568 C.3            1 S1                 0.0000
     15 ****         4.1692   2.5071   0.0686 C.3            1 S1                 0.0000
     16 ****         3.8163   2.2335   1.5498 C.3            1 S1                 0.0000
     17 ****         3.6510   0.8179   1.8759 N.am           1 S1                 0.0000
     18 ****         2.6654   0.0260   1.4193 C.2            1 S1                 0.0000
     19 ****         2.5872  -1.1563   1.7510 O.2            1 S1                 0.0000
     20 ****        -3.5376  -4.2749  -0.2462 H              1 S1                 0.0000
     21 ****        -2.4189  -3.4037   0.8012 H              1 S1                 0.0000
     22 ****        -2.0994  -3.5235  -0.9361 H              1 S1                 0.0000
     23 ****        -5.5509  -3.1218  -0.7204 H              1 S1                 0.0000
     24 ****        -6.8055  -0.9898  -1.0914 H              1 S1                 0.0000
     25 ****        -5.5403   1.1733  -0.9804 H              1 S1                 0.0000
     26 ****        -1.2057  -1.7699   0.0299 H              1 S1                 0.0000
     27 ****         0.6400  -1.2150   0.3593 H              1 S1                 0.0000
     28 ****         1.2758   1.5344   0.9485 H              1 S1                 0.0000
     29 ****         2.0571   0.2982  -1.6616 H              1 S1                 0.0000
     30 ****         1.6373   1.9417  -1.2887 H              1 S1                 0.0000
     31 ****         4.3071   0.5406  -0.8207 H              1 S1                 0.0000
     32 ****         3.9715   1.8008  -1.9566 H              1 S1                 0.0000
     33 ****         5.2525   2.6008  -0.0145 H              1 S1                 0.0000
     34 ****         3.7709   3.4821  -0.2140 H              1 S1                 0.0000
     35 ****         4.5960   2.6456   2.1908 H              1 S1                 0.0000
     36 ****         2.9079   2.7717   1.8228 H              1 S1                 0.0000
     37 ****         4.3266   0.4128   2.5074 H              1 S1                 0.0000
     38 ****        -3.2473   1.1832  -0.5423 LP             1 S1                 0.0000
     39 ****        -2.0280   1.6196  -0.3485 LP             1 S1                 0.0000
     40 ****        -0.3847   2.0846  -0.0596 LP             1 S1                 0.0000
     41 ****         1.8545  -1.7306   1.3858 LP             1 S1                 0.0000
     42 ****         3.2563  -1.5428   2.3857 LP             1 S1                 0.0000
@<TRIPOS>BOND
    1    1    2 1     
    2    1   20 1     
    3    1   21 1     
    4    1   22 1     
    5    2    7 ar    
    6    2    3 ar    
    7    3    4 ar    
    8    3   23 1     
    9    4    5 ar    
   10    4   24 1     
   11    5    6 ar    
   12    5   25 1     
   13    6    7 ar    
   14    7    8 1     
   15    8    9 am    
   16    8   26 1     
   17    9   10 2     
   18    9   11 am    
   19   11   12 1     
   20   11   27 1     
   21   12   18 1     
   22   12   13 1     
   23   12   28 1     
   24   13   14 1     
   25   13   29 1     
   26   13   30 1     
   27   14   15 1     
   28   14   31 1     
   29   14   32 1     
   30   15   16 1     
   31   15   33 1     
   32   15   34 1     
   33   16   17 1     
   34   16   35 1     
   35   16   36 1     
   36   17   18 am    
   37   17   37 1     
   38   18   19 2     
   39    6   38 1     
   40   10   39 1     
   41   10   40 1     
   42   19   41 1     
   43   19   42 1     
@<TRIPOS>SUBSTRUCTURE
      1 S1             1
@<TRIPOS>SET
LONE_PAIRS      STATIC     ATOMS    <user>   **** ""
5 38 39 40 41 42
DONOR_HYDROGENS      STATIC     ATOMS    <user>   **** ""
3 26 27 37
ATOM$BLUE        STATIC     ATOMS    COLORGROUP SYSTEM
5 38 39 40 41 42
ATOM$RED        STATIC     ATOMS    COLORGROUP SYSTEM
3 26 27 37
