AV-unprocessed.smi:1634|AV-procd|sdf|6536|dock6
  -GOLD-   22720 7223D 1   1.00000     0.00000
 Structure written by MMmdl.
 38 38  0  0  0  0  0  0  0  0  1 V2000
  146.4050  143.0878  153.7756 C   0  0  0  0  0  0  0  0  0  0  0  0
  146.7228  141.8414  154.6149 C   0  0  0  0  0  0  0  0  0  0  0  0
  146.7205  142.1785  156.1143 C   0  0  0  0  0  0  0  0  0  0  0  0
  148.0554  141.2096  154.1817 C   0  0  0  0  0  0  0  0  0  0  0  0
  148.2519  139.9939  154.8970 O   0  0  0  0  0  0  0  0  0  0  0  0
  149.4841  139.3244  154.6441 C   0  0  2  0  0  0  0  0  0  0  0  0
  149.3180  137.8629  155.0862 C   0  0  0  0  0  0  0  0  0  0  0  0
  150.6300  140.0116  155.4043 C   0  0  0  0  0  0  0  0  0  0  0  0
  151.7496  140.0582  154.8955 O   0  0  0  0  0  0  0  0  0  0  0  0
  150.3060  140.4921  156.6213 N   0  0  0  0  0  0  0  0  0  0  0  0
  151.1047  141.1531  157.5698 C   0  0  0  0  0  0  0  0  0  0  0  0
  150.8184  142.3572  158.1311 C   0  0  0  0  0  0  0  0  0  0  0  0
  151.6913  142.9780  159.1134 C   0  0  0  0  0  0  0  0  0  0  0  0
  151.4026  144.3624  159.6728 C   0  0  0  0  0  0  0  0  0  0  0  0
  152.2079  145.2791  159.1347 F   0  0  0  0  0  0  0  0  0  0  0  0
  150.1411  144.7216  159.4346 F   0  0  0  0  0  0  0  0  0  0  0  0
  151.5922  144.3663  160.9915 F   0  0  0  0  0  0  0  0  0  0  0  0
  152.8091  142.3016  159.4357 C   0  0  0  0  0  0  0  0  0  0  0  0
  153.0999  141.0536  158.8803 N   0  0  0  0  0  0  0  0  0  0  0  0
  152.3237  140.4288  157.9670 C   0  0  0  0  0  0  0  0  0  0  0  0
  152.6511  139.3292  157.5223 O   0  0  0  0  0  0  0  0  0  0  0  0
  153.9494  140.6017  159.1865 H   0  0  0  0  0  0  0  0  0  0  0  0
  147.1624  143.8608  153.9103 H   0  0  0  0  0  0  0  0  0  0  0  0
  145.4410  143.5140  154.0548 H   0  0  0  0  0  0  0  0  0  0  0  0
  146.3612  142.8462  152.7131 H   0  0  0  0  0  0  0  0  0  0  0  0
  145.9320  141.1127  154.4322 H   0  0  0  0  0  0  0  0  0  0  0  0
  147.5002  142.9003  156.3598 H   0  0  0  0  0  0  0  0  0  0  0  0
  146.8896  141.2880  156.7205 H   0  0  0  0  0  0  0  0  0  0  0  0
  145.7643  142.6042  156.4199 H   0  0  0  0  0  0  0  0  0  0  0  0
  148.0363  140.9960  153.1119 H   0  0  0  0  0  0  0  0  0  0  0  0
  148.8705  141.9127  154.3571 H   0  0  0  0  0  0  0  0  0  0  0  0
  149.6881  139.3354  153.5717 H   0  0  0  0  0  0  0  0  0  0  0  0
  150.2392  137.2978  154.9397 H   0  0  0  0  0  0  0  0  0  0  0  0
  148.5354  137.3713  154.5080 H   0  0  0  0  0  0  0  0  0  0  0  0
  149.0429  137.7896  156.1390 H   0  0  0  0  0  0  0  0  0  0  0  0
  149.3563  140.3246  156.9220 H   0  0  0  0  0  0  0  0  0  0  0  0
  149.9178  142.8909  157.8782 H   0  0  0  0  0  0  0  0  0  0  0  0
  153.5581  142.6585  160.1271 H   0  0  0  0  0  0  0  0  0  0  0  0
  1  2  1  0  0  0  0
  1 23  1  0  0  0  0
  1 24  1  0  0  0  0
  1 25  1  0  0  0  0
  2  3  1  0  0  0  0
  2  4  1  0  0  0  0
  2 26  1  0  0  0  0
  3 27  1  0  0  0  0
  3 28  1  0  0  0  0
  3 29  1  0  0  0  0
  4  5  1  0  0  0  0
  4 30  1  0  0  0  0
  4 31  1  0  0  0  0
  5  6  1  0  0  0  0
  6  7  1  0  0  0  0
  6  8  1  0  0  0  0
  6 32  1  0  0  0  0
  7 33  1  0  0  0  0
  7 34  1  0  0  0  0
  7 35  1  0  0  0  0
  8  9  2  0  0  0  0
  8 10  1  0  0  0  0
 10 11  1  0  0  0  0
 10 36  1  0  0  0  0
 11 20  1  0  0  0  0
 11 12  2  0  0  0  0
 12 13  1  0  0  0  0
 12 37  1  0  0  0  0
 13 14  1  0  0  0  0
 13 18  2  0  0  0  0
 14 15  1  0  0  0  0
 14 16  1  0  0  0  0
 14 17  1  0  0  0  0
 18 19  1  0  0  0  0
 18 38  1  0  0  0  0
 19 22  1  0  0  0  0
 19 20  1  0  0  0  0
 20 21  2  0  0  0  0
M  END
> <s_m_source_file>
AV-unprocessed.smi

> <i_m_source_file_index>
1634

> <i_lp_mmshare_version>
43012

> <i_f3d_flags>
0

> <s_epik_input>
W0NIM11bQ0hdKFtDSDNdKVtDSDJdT1tDQEhdKFtDSDNdKUMoPU8pW05IXWMxW2NIXWMoQyhGKShGKUYpW2NIXVtuSF1jMT1P

> <s_epik_cmdline>
J2VwaWtfcHl0aG9uJywgJy1waCcsICc3LjAnLCAnLXRuJywgJzgnLCAnLW1hJywgJzIwMCcsICctbWV0YWxfYmluZGluZycsICctaW1hZScsICc8aW5maWxlLm1hZT4nLCAnLW9tYWUnLCAnPG91dGZpbGUubWFlPic=

> <r_lp_tautomer_probability>
0.999

> <r_epik_Ionization_Penalty>
0.00884964

> <r_epik_Ionization_Penalty_Charging>
0.00884955

> <r_epik_Ionization_Penalty_Neutral>
9.33956e-08

> <r_epik_State_Penalty>
0.00669049

> <r_epik_Charging_Adjusted_Penalty>
0.01554

> <i_epik_Tot_Q>
0

> <i_epik_Tot_abs_Q>
0

> <r_epik_Metal_State_Penalty>
0.320763

> <b_epik_Metal_Only>
0

> <s_lp_Force_Field>
OPLS_2005

> <r_lp_Energy>
19.4514

> <b_lp_Chiralities_Consistent>
1

> <s_lp_Variant>
AV-unprocessed.smi:1634-1

> <Gold.Version>
5.8.1

> <Gold.Id.Protein>
6NUR|6NUR_protein|mol2

> <Gold.PLP.Fitness>
44.3923

> <Gold.PLP.PLP>
-43.0855

> <Gold.PLP.part.hbond>
-2.0000

> <Gold.PLP.part.metal>
0.0000

> <Gold.PLP.part.buried>
-5.2741

> <Gold.PLP.part.nonpolar>
-35.7226

> <Gold.PLP.part.repulsive>
0.2366

> <Gold.PLP.ligand.clash>
0.0000

> <Gold.PLP.ligand.torsion>
1.8555

> <Gold.PLP.Chemscore.Hbond>
1.6480

> <Gold.PLP.Chemscore.CHOScore>
0.0000

> <Gold.PLP.Chemscore.Metal>
0.0000

> <Gold.Chemscore.Hbonds>
donor molecule, donor type, donor heavy atom, donor atom, acceptor molecule, acceptor atom, score
      P1  H  7989  7998       L1     9  0.98
      P1  H  7997  8009       L1    21  0.37

> <Gold.PLP.Chemscore.Internal.Correction>
0.0738

> <Gold.Rescore>
     Score         DG    S(hbond)    S(metal)    S(lipo)     H(rot)  DE(clash)    DE(int)     intcor
     11.15     -12.57       0.94        0.00      72.88       1.79       0.01       1.41       ----

> <Gold.Chemscore.Fitness>
11.1512

> <Gold.Chemscore.DG>
-12.5701

> <Gold.Chemscore.ZeroCoef>
-5.4800

> <Gold.Chemscore.Hbond>
0.9396

> <Gold.Chemscore.Metal>
0.0000

> <Gold.Chemscore.Lipo>
72.8838

> <Gold.Chemscore.Internal_Hbond>
0.0000

> <Gold.Chemscore.DEClash>
0.0082

> <Gold.Chemscore.DEInternal>
1.4106

> <Gold.Chemscore.Rot>
1.7873

> <Gold.Chemscore.Internal.Correction>
   9.000000E+99

> <Gold.Chemscore.Hbonds>
donor molecule, donor type, donor heavy atom, donor atom, acceptor molecule, acceptor atom, score
      P1  H  7989  7998       L1     9  0.65
      P1  H  7997  8009       L1    21  0.02

> <Gold.Chemscore.Hbond.Weighted>
-3.1381

> <Gold.Chemscore.Metal.Weighted>
-0.0000

> <Gold.Chemscore.Lipo.Weighted>
-8.5274

> <Gold.Chemscore.Internal_Hbond.Weighted>
0.0000

> <Gold.Chemscore.DEClash.Weighted>
0.0082

> <Gold.Chemscore.DEInternal.Weighted>
1.4106

> <Gold.Chemscore.Rot.Weighted>
4.5755

> <Gold.Chemscore.Internal.Correction.Weighted>
   9.000000E+99

> <Gold.Protein.RotatedTorsions>
[ 6907 6896 6895 6894 ] final  -89.01 input  -60.11 | X-H torsion
[ 7974 7965 7964 7962 ] final -147.37 input  175.53 | X-H torsion
[ 8008 7997 7996 7995 ] final  147.89 input   59.86 | X-H torsion
[ 10167 10162 10161 10158 ] final -163.84 input  -65.29 | X-H torsion
[ 10718 10713 10712 10709 ] final  127.41 input   66.30 | X-H torsion
[ 10763 10752 10751 10750 ] final -104.30 input  -60.55 | X-H torsion
[ 11005 11000 10999 10996 ] final -158.95 input  -57.11 | X-H torsion

> <Gold.Protein.ActiveResidues>
 VAL166  LYS551  ARG553  GLY616  TRP617  ASP618  TYR619  PRO620  LYS621  CYS622 
 ASP623  PHE694  ASN695  SER759  ASP760  ASP761  ALA762  ILE779  LEU786  VAL792 
 PHE793  MET794  SER795  GLU796  ALA797  LYS798  CYS799  TRP800  GLU811  SER814 

> <Gold.Protein.RotatedAtoms>
  150.6871  134.2653  159.4565 H   0  0  0  0  0  0  0  0  0  0  0  0  # atno 6907 bound_to 6896
  152.0579  134.9610  160.0584 H   0  0  0  0  0  0  0  0  0  0  0  0  # atno 6908 bound_to 6896
  152.1048  133.4234  159.4641 H   0  0  0  0  0  0  0  0  0  0  0  0  # atno 6909 bound_to 6896
  144.8098  140.5336  143.5650 H   0  0  0  0  0  0  0  0  0  0  0  0  # atno 7974 bound_to 7965
  156.2810  140.2143  156.5610 H   0  0  0  0  0  0  0  0  0  0  0  0  # atno 8008 bound_to 7997
  154.7213  140.0503  157.0664 H   0  0  0  0  0  0  0  0  0  0  0  0  # atno 8009 bound_to 7997
  155.0475  140.3152  155.4706 H   0  0  0  0  0  0  0  0  0  0  0  0  # atno 8010 bound_to 7997
  139.6292  144.0473  152.2001 H   0  0  0  0  0  0  0  0  0  0  0  0  # atno 10167 bound_to 10162
  157.5335  131.1098  150.8971 H   0  0  0  0  0  0  0  0  0  0  0  0  # atno 10718 bound_to 10713
  154.7869  135.4791  153.9965 H   0  0  0  0  0  0  0  0  0  0  0  0  # atno 10763 bound_to 10752
  153.1573  135.6802  153.8801 H   0  0  0  0  0  0  0  0  0  0  0  0  # atno 10764 bound_to 10752
  153.8426  135.3177  155.3405 H   0  0  0  0  0  0  0  0  0  0  0  0  # atno 10765 bound_to 10752
  140.6479  134.4482  157.5234 H   0  0  0  0  0  0  0  0  0  0  0  0  # atno 11005 bound_to 11000
  145.5351  139.1475  143.3478 LP  0  0  0  0  0  0  0  0  0  0  0  0  # atno 17320 bound_to 7965
  146.2395  140.5491  142.8940 LP  0  0  0  0  0  0  0  0  0  0  0  0  # atno 17321 bound_to 7965
  140.0134  144.6207  150.7628 LP  0  0  0  0  0  0  0  0  0  0  0  0  # atno 17342 bound_to 10162
  140.7429  143.2838  151.3521 LP  0  0  0  0  0  0  0  0  0  0  0  0  # atno 17343 bound_to 10162
  156.9545  130.5432  149.5283 LP  0  0  0  0  0  0  0  0  0  0  0  0  # atno 17370 bound_to 10713
  156.0441  130.5519  150.8839 LP  0  0  0  0  0  0  0  0  0  0  0  0  # atno 17371 bound_to 10713
  139.9056  134.8456  156.1719 LP  0  0  0  0  0  0  0  0  0  0  0  0  # atno 17394 bound_to 11000
  141.0558  133.6866  156.1858 LP  0  0  0  0  0  0  0  0  0  0  0  0  # atno 17395 bound_to 11000

$$$$
