AV-unprocessed.smi:2822|AV-procd|sdf|10877|dock6
  -GOLD-   2272015323D 1   1.00000     0.00000
 Structure written by MMmdl.
 40 42  0  0  0  0  0  0  0  0  2 V2000
  147.7157  141.7158  154.6272 Cl  0  0  0  0  0  0  0  0  0  0  0  0
  148.8827  140.4476  154.4868 C   0  0  0  0  0  0  0  0  0  0  0  0
  148.7776  139.5300  153.4211 C   0  0  0  0  0  0  0  0  0  0  0  0
  149.6796  138.5336  153.2954 N   0  3  0  0  0  0  0  0  0  0  0  0
  150.7028  138.3638  154.1591 C   0  0  0  0  0  0  0  0  0  0  0  0
  150.8605  139.2483  155.2451 C   0  0  0  0  0  0  0  0  0  0  0  0
  149.9409  140.3129  155.4193 C   0  0  0  0  0  0  0  0  0  0  0  0
  150.0443  141.2271  156.4787 N   0  0  0  0  0  0  0  0  0  0  0  0
  150.7552  140.8834  157.7006 C   0  0  0  0  0  0  0  0  0  0  0  0
  152.1898  141.4440  157.6931 C   0  0  1  0  0  0  0  0  0  0  0  0
  152.2671  142.8955  158.2027 C   0  0  0  0  0  0  0  0  0  0  0  0
  152.0512  143.0010  159.6408 N   0  0  0  0  0  0  0  0  0  0  0  0
  152.1538  144.3906  160.0856 C   0  0  0  0  0  0  0  0  0  0  0  0
  151.9071  144.5472  161.5942 C   0  0  0  0  0  0  0  0  0  0  0  0
  152.8780  143.6613  162.3871 C   0  0  0  0  0  0  0  0  0  0  0  0
  152.7986  142.2126  161.8828 C   0  0  0  0  0  0  0  0  0  0  0  0
  153.0046  142.1468  160.3549 C   0  0  1  0  0  0  0  0  0  0  0  0
  152.9173  140.6885  159.8629 C   0  0  0  0  0  0  0  0  0  0  0  0
  153.0863  140.6272  158.4487 O   0  0  0  0  0  0  0  0  0  0  0  0
  148.0026  139.5635  152.6693 H   0  0  0  0  0  0  0  0  0  0  0  0
  151.3604  137.5306  153.9581 H   0  0  0  0  0  0  0  0  0  0  0  0
  151.6830  139.0947  155.9276 H   0  0  0  0  0  0  0  0  0  0  0  0
  149.8185  142.1985  156.3154 H   0  0  0  0  0  0  0  0  0  0  0  0
  150.2091  141.3061  158.5447 H   0  0  0  0  0  0  0  0  0  0  0  0
  150.7617  139.8022  157.8384 H   0  0  0  0  0  0  0  0  0  0  0  0
  152.5445  141.4363  156.6617 H   0  0  0  0  0  0  0  0  0  0  0  0
  153.2490  143.3013  157.9539 H   0  0  0  0  0  0  0  0  0  0  0  0
  151.5389  143.5095  157.6714 H   0  0  0  0  0  0  0  0  0  0  0  0
  153.1401  144.7866  159.8382 H   0  0  0  0  0  0  0  0  0  0  0  0
  151.4319  145.0025  159.5432 H   0  0  0  0  0  0  0  0  0  0  0  0
  152.0245  145.5904  161.8883 H   0  0  0  0  0  0  0  0  0  0  0  0
  150.8786  144.2698  161.8286 H   0  0  0  0  0  0  0  0  0  0  0  0
  153.8959  144.0347  162.2678 H   0  0  0  0  0  0  0  0  0  0  0  0
  152.6499  143.7065  163.4521 H   0  0  0  0  0  0  0  0  0  0  0  0
  153.5466  141.6037  162.3919 H   0  0  0  0  0  0  0  0  0  0  0  0
  151.8264  141.7916  162.1430 H   0  0  0  0  0  0  0  0  0  0  0  0
  154.0135  142.5037  160.1409 H   0  0  0  0  0  0  0  0  0  0  0  0
  153.6992  140.0873  160.3272 H   0  0  0  0  0  0  0  0  0  0  0  0
  151.9681  140.2346  160.1486 H   0  0  0  0  0  0  0  0  0  0  0  0
  149.5833  137.8821  152.5159 H   0  0  0  0  0  0  0  0  0  0  0  0
  1  2  1  0  0  0  0
  2  7  1  0  0  0  0
  2  3  2  0  0  0  0
  3  4  1  0  0  0  0
  3 20  1  0  0  0  0
  4  5  2  0  0  0  0
  4 40  1  0  0  0  0
  5  6  1  0  0  0  0
  5 21  1  0  0  0  0
  6  7  2  0  0  0  0
  6 22  1  0  0  0  0
  7  8  1  0  0  0  0
  8  9  1  0  0  0  0
  8 23  1  0  0  0  0
  9 10  1  0  0  0  0
  9 24  1  0  0  0  0
  9 25  1  0  0  0  0
 10 19  1  0  0  0  0
 10 11  1  0  0  0  0
 10 26  1  0  0  0  0
 11 12  1  0  0  0  0
 11 27  1  0  0  0  0
 11 28  1  0  0  0  0
 12 17  1  0  0  0  0
 12 13  1  0  0  0  0
 13 14  1  0  0  0  0
 13 29  1  0  0  0  0
 13 30  1  0  0  0  0
 14 15  1  0  0  0  0
 14 31  1  0  0  0  0
 14 32  1  0  0  0  0
 15 16  1  0  0  0  0
 15 33  1  0  0  0  0
 15 34  1  0  0  0  0
 16 17  1  0  0  0  0
 16 35  1  0  0  0  0
 16 36  1  0  0  0  0
 17 18  1  0  0  0  0
 17 37  1  0  0  0  0
 18 19  1  0  0  0  0
 18 38  1  0  0  0  0
 18 39  1  0  0  0  0
M  CHG  1   4   1
M  END
> <s_m_source_file>
AV-unprocessed.smi

> <i_m_source_file_index>
2822

> <i_lp_mmshare_version>
43012

> <i_f3d_flags>
0

> <s_epik_input>
Q2xjMVtjSF1uW2NIXVtjSF1jMVtOSF1bQ0gyXVtDQEhdKFtDSDJdMilPW0NIMl1bQ0BASF0oTjIzKVtDSDJdW0NIMl1bQ0gyXVtDSDJdMw==

> <s_epik_cmdline>
J2VwaWtfcHl0aG9uJywgJy1waCcsICc3LjAnLCAnLXRuJywgJzgnLCAnLW1hJywgJzIwMCcsICctbWV0YWxfYmluZGluZycsICctaW1hZScsICc8aW5maWxlLm1hZT4nLCAnLW9tYWUnLCAnPG91dGZpbGUubWFlPic=

> <r_epik_Ionization_Penalty>
1.37653

> <r_epik_Ionization_Penalty_Charging>
0.152973

> <r_epik_Ionization_Penalty_Neutral>
1.22356

> <r_epik_State_Penalty>
1.42693

> <r_epik_Charging_Adjusted_Penalty>
1.5799

> <i_epik_Tot_Q>
1

> <i_epik_Tot_abs_Q>
1

> <r_epik_Metal_State_Penalty>
4.59822

> <b_epik_Metal_Only>
0

> <s_lp_Force_Field>
OPLS_2005

> <r_lp_Energy>
45.6855

> <b_lp_Chiralities_Consistent>
1

> <s_lp_Variant>
AV-unprocessed.smi:2822-18

> <Gold.Version>
5.8.1

> <Gold.Id.Protein>
6NUR|6NUR_protein|mol2

> <Gold.PLP.Fitness>
44.6036

> <Gold.PLP.PLP>
-38.1531

> <Gold.PLP.part.hbond>
-3.0000

> <Gold.PLP.part.metal>
0.0000

> <Gold.PLP.part.buried>
1.0350

> <Gold.PLP.part.nonpolar>
-35.1819

> <Gold.PLP.part.repulsive>
0.1425

> <Gold.PLP.ligand.clash>
0.0000

> <Gold.PLP.ligand.torsion>
0.6021

> <Gold.PLP.Chemscore.Hbond>
2.5499

> <Gold.PLP.Chemscore.CHOScore>
0.0000

> <Gold.PLP.Chemscore.Metal>
0.0000

> <Gold.Chemscore.Hbonds>
donor molecule, donor type, donor heavy atom, donor atom, acceptor molecule, acceptor atom, score
      L1  H     4    40       P1  7948  2.00
      P1  H  7997  8008       L1    19  0.55

> <Gold.PLP.Chemscore.Internal.Correction>
0.0051

> <Gold.Rescore>
     Score         DG    S(hbond)    S(metal)    S(lipo)     H(rot)  DE(clash)    DE(int)     intcor
     19.36     -21.60       1.33        0.00     125.56       1.18       1.64       0.60       ----

> <Gold.Chemscore.Fitness>
19.3635

> <Gold.Chemscore.DG>
-21.6038

> <Gold.Chemscore.ZeroCoef>
-5.4800

> <Gold.Chemscore.Hbond>
1.3326

> <Gold.Chemscore.Metal>
0.0000

> <Gold.Chemscore.Lipo>
125.5601

> <Gold.Chemscore.Internal_Hbond>
0.0000

> <Gold.Chemscore.DEClash>
1.6448

> <Gold.Chemscore.DEInternal>
0.5955

> <Gold.Chemscore.Rot>
1.1788

> <Gold.Chemscore.Internal.Correction>
   9.000000E+99

> <Gold.Chemscore.Hbonds>
donor molecule, donor type, donor heavy atom, donor atom, acceptor molecule, acceptor atom, score
      L1  H     4    40       P1  7948  0.53
      P1  H  7997  8008       L1    19  0.21

> <Gold.Chemscore.Hbond.Weighted>
-4.4509

> <Gold.Chemscore.Metal.Weighted>
-0.0000

> <Gold.Chemscore.Lipo.Weighted>
-14.6905

> <Gold.Chemscore.Internal_Hbond.Weighted>
0.0000

> <Gold.Chemscore.DEClash.Weighted>
1.6448

> <Gold.Chemscore.DEInternal.Weighted>
0.5955

> <Gold.Chemscore.Rot.Weighted>
3.0177

> <Gold.Chemscore.Internal.Correction.Weighted>
   9.000000E+99

> <Gold.Protein.RotatedTorsions>
[ 6907 6896 6895 6894 ] final  -71.58 input  -60.11 | X-H torsion
[ 7974 7965 7964 7962 ] final -149.37 input  175.53 | X-H torsion
[ 8008 7997 7996 7995 ] final  -83.54 input   59.86 | X-H torsion
[ 10167 10162 10161 10158 ] final   57.79 input  -65.29 | X-H torsion
[ 10718 10713 10712 10709 ] final   52.26 input   66.30 | X-H torsion
[ 10763 10752 10751 10750 ] final  -36.16 input  -60.55 | X-H torsion
[ 11005 11000 10999 10996 ] final  129.53 input  -57.11 | X-H torsion

> <Gold.Protein.ActiveResidues>
 VAL166  LYS551  ARG553  GLY616  TRP617  ASP618  TYR619  PRO620  LYS621  CYS622 
 ASP623  PHE694  ASN695  SER759  ASP760  ASP761  ALA762  ILE779  LEU786  VAL792 
 PHE793  MET794  SER795  GLU796  ALA797  LYS798  CYS799  TRP800  GLU811  SER814 

> <Gold.Protein.RotatedAtoms>
  150.7206  134.5288  159.5689 H   0  0  0  0  0  0  0  0  0  0  0  0  # atno 6907 bound_to 6896
  152.2826  134.7809  160.0402 H   0  0  0  0  0  0  0  0  0  0  0  0  # atno 6908 bound_to 6896
  151.8450  133.3394  159.3692 H   0  0  0  0  0  0  0  0  0  0  0  0  # atno 6909 bound_to 6896
  144.7971  140.5073  143.5732 H   0  0  0  0  0  0  0  0  0  0  0  0  # atno 7974 bound_to 7965
  154.6201  140.0617  156.9604 H   0  0  0  0  0  0  0  0  0  0  0  0  # atno 8008 bound_to 7997
  155.1831  140.3301  155.4353 H   0  0  0  0  0  0  0  0  0  0  0  0  # atno 8009 bound_to 7997
  156.2427  140.1894  156.6926 H   0  0  0  0  0  0  0  0  0  0  0  0  # atno 8010 bound_to 7997
  140.1942  144.4054  150.6557 H   0  0  0  0  0  0  0  0  0  0  0  0  # atno 10167 bound_to 10162
  157.5058  130.8468  149.8373 H   0  0  0  0  0  0  0  0  0  0  0  0  # atno 10718 bound_to 10713
  153.8751  135.6827  153.4771 H   0  0  0  0  0  0  0  0  0  0  0  0  # atno 10763 bound_to 10752
  153.1265  135.4716  154.9278 H   0  0  0  0  0  0  0  0  0  0  0  0  # atno 10764 bound_to 10752
  154.7696  135.3234  154.8168 H   0  0  0  0  0  0  0  0  0  0  0  0  # atno 10765 bound_to 10752
  139.9621  134.9600  156.9162 H   0  0  0  0  0  0  0  0  0  0  0  0  # atno 11005 bound_to 11000
  145.5645  139.1480  143.3323 LP  0  0  0  0  0  0  0  0  0  0  0  0  # atno 17320 bound_to 7965
  146.2243  140.5780  142.9003 LP  0  0  0  0  0  0  0  0  0  0  0  0  # atno 17321 bound_to 7965
  140.6435  143.2208  151.6238 LP  0  0  0  0  0  0  0  0  0  0  0  0  # atno 17342 bound_to 10162
  139.5243  144.3107  152.0995 LP  0  0  0  0  0  0  0  0  0  0  0  0  # atno 17343 bound_to 10162
  156.0257  130.3780  150.1829 LP  0  0  0  0  0  0  0  0  0  0  0  0  # atno 17370 bound_to 10713
  157.0019  130.9925  151.3388 LP  0  0  0  0  0  0  0  0  0  0  0  0  # atno 17371 bound_to 10713
  140.5478  134.0657  155.7360 LP  0  0  0  0  0  0  0  0  0  0  0  0  # atno 17394 bound_to 11000
  141.1298  133.9321  157.2559 LP  0  0  0  0  0  0  0  0  0  0  0  0  # atno 17395 bound_to 11000

$$$$
