#       Name:                AV-unprocessed.smi:1610
#       Creating user name   scv26
#       Creation time:       Fri Mar 27 07:12:53 2020


#       File generated by GOLD software.
#

@<TRIPOS>MOLECULE
AV-unprocessed.smi:1610
    47    48     1
SMALL
NO_CHARGES


@<TRIPOS>ATOM
      1 ****        -5.6640   0.3061  -2.2192 C.3            1 S1                 0.0000
      2 ****        -5.8767   1.4092  -0.7630 S.o2           1 S1                 0.0000
      3 ****        -6.0467   2.7912  -1.2371 O.2            1 S1                 0.0000
      4 ****        -6.8726   0.8032   0.1333 O.2            1 S1                 0.0000
      5 ****        -4.3470   1.3056   0.0291 N.pl3          1 S1                 0.0000
      6 ****        -3.1239   1.7958  -0.6096 C.3            1 S1                 0.0000
      7 ****        -2.2380   0.6091  -1.0441 C.3            1 S1                 0.0000
      8 ****        -0.8686   1.1020  -1.5437 C.3            1 S1                 0.0000
      9 ****        -0.2364   1.8998  -0.4789 N.am           1 S1                 0.0000
     10 ****         0.8098   1.5205   0.2985 C.2            1 S1                 0.0000
     11 ****         1.2507   2.2066   1.2216 O.2            1 S1                 0.0000
     12 ****         1.3383   0.3256  -0.0124 N.am           1 S1                 0.0000
     13 ****         2.4624  -0.2888   0.6796 C.3            1 S1                 0.0000
     14 ****         2.6598  -1.7357   0.2090 C.3            1 S1                 0.0000
     15 ****         3.8380  -2.4014   0.8930 C.ar           1 S1                 0.0000
     16 ****         3.6748  -3.0497   2.1373 C.ar           1 S1                 0.0000
     17 ****         4.7901  -3.6555   2.7526 C.ar           1 S1                 0.0000
     18 ****         6.0439  -3.5988   2.1100 C.ar           1 S1                 0.0000
     19 ****         6.1617  -2.9689   0.9204 N.pl3          1 S1                 1.0000
     20 ****         5.1184  -2.3765   0.2989 C.ar           1 S1                 0.0000
     21 ****        -0.9962   3.1290  -0.2165 C.3            1 S1                 0.0000
     22 ****        -2.3772   2.7473   0.3481 C.3            1 S1                 0.0000
     23 ****        -6.6025   0.2525  -2.7702 H              1 S1                 0.0000
     24 ****        -5.3837  -0.6923  -1.8847 H              1 S1                 0.0000
     25 ****        -4.8882   0.7049  -2.8721 H              1 S1                 0.0000
     26 ****        -4.2345   0.4910   0.6323 H              1 S1                 0.0000
     27 ****        -3.3959   2.3650  -1.4996 H              1 S1                 0.0000
     28 ****        -2.0896  -0.0721  -0.2047 H              1 S1                 0.0000
     29 ****        -2.7322   0.0330  -1.8263 H              1 S1                 0.0000
     30 ****        -0.2691   0.2564  -1.8808 H              1 S1                 0.0000
     31 ****        -1.0011   1.7276  -2.4278 H              1 S1                 0.0000
     32 ****         0.9308  -0.1890  -0.7796 H              1 S1                 0.0000
     33 ****         3.3617   0.2980   0.4868 H              1 S1                 0.0000
     34 ****         2.2871  -0.2681   1.7568 H              1 S1                 0.0000
     35 ****         1.7594  -2.3196   0.4057 H              1 S1                 0.0000
     36 ****         2.8134  -1.7614  -0.8708 H              1 S1                 0.0000
     37 ****         2.7071  -3.0814   2.6170 H              1 S1                 0.0000
     38 ****         4.6852  -4.1555   3.7044 H              1 S1                 0.0000
     39 ****         6.9491  -4.0339   2.5084 H              1 S1                 0.0000
     40 ****         5.3394  -1.9031  -0.6469 H              1 S1                 0.0000
     41 ****        -0.4868   3.8029   0.4737 H              1 S1                 0.0000
     42 ****        -1.1119   3.6906  -1.1447 H              1 S1                 0.0000
     43 ****        -2.9711   3.6455   0.5217 H              1 S1                 0.0000
     44 ****        -2.2464   2.2699   1.3206 H              1 S1                 0.0000
     45 ****         7.0781  -2.9387   0.4725 H              1 S1                 0.0000
     46 ****         0.8347   3.0919   1.4295 LP             1 S1                 0.0000
     47 ****         2.0247   1.8784   1.7632 LP             1 S1                 0.0000
@<TRIPOS>BOND
    1    1    2 1     
    2    1   23 1     
    3    1   24 1     
    4    1   25 1     
    5    2    3 2     
    6    2    4 2     
    7    2    5 1     
    8    5    6 1     
    9    5   26 1     
   10    6   22 1     
   11    6    7 1     
   12    6   27 1     
   13    7    8 1     
   14    7   28 1     
   15    7   29 1     
   16    8    9 1     
   17    8   30 1     
   18    8   31 1     
   19    9   10 am    
   20    9   21 1     
   21   10   11 2     
   22   10   12 am    
   23   12   13 1     
   24   12   32 1     
   25   13   14 1     
   26   13   33 1     
   27   13   34 1     
   28   14   15 1     
   29   14   35 1     
   30   14   36 1     
   31   15   20 ar    
   32   15   16 ar    
   33   16   17 ar    
   34   16   37 1     
   35   17   18 ar    
   36   17   38 1     
   37   18   19 ar    
   38   18   39 1     
   39   19   20 ar    
   40   19   45 1     
   41   20   40 1     
   42   21   22 1     
   43   21   41 1     
   44   21   42 1     
   45   22   43 1     
   46   22   44 1     
   47   11   46 1     
   48   11   47 1     
@<TRIPOS>SUBSTRUCTURE
      1 S1             1
@<TRIPOS>SET
LONE_PAIRS      STATIC     ATOMS    <user>   **** ""
4 3 4 46 47
DONOR_HYDROGENS      STATIC     ATOMS    <user>   **** ""
3 26 32 45
ATOM$BLUE        STATIC     ATOMS    COLORGROUP SYSTEM
4 3 4 46 47
ATOM$RED        STATIC     ATOMS    COLORGROUP SYSTEM
3 26 32 45
