AV-unprocessed.smi:3187|AV-procd|sdf|12179|dock3
  -GOLD-   2272018 13D 1   1.00000     0.00000
 Structure written by MMmdl.
 42 43  0  0  0  0  0  0  0  0  3 V2000
  151.7739  144.9173  158.7952 C   0  0  0  0  0  0  0  0  0  0  0  0
  152.2935  143.9005  159.7983 C   0  0  0  0  0  0  0  0  0  0  0  0
  152.2486  144.1539  161.1214 C   0  0  0  0  0  0  0  0  0  0  0  0
  152.7888  143.2309  162.1996 C   0  0  0  0  0  0  0  0  0  0  0  0
  153.2301  141.8621  161.6564 C   0  0  0  0  0  0  0  0  0  0  0  0
  153.8930  141.9948  160.2746 C   0  0  1  0  0  0  0  0  0  0  0  0
  154.5578  140.6834  159.8217 C   0  0  0  0  0  0  0  0  0  0  0  0
  152.9075  142.6091  159.2403 C   0  0  1  0  0  0  0  0  0  0  0  0
  151.8259  141.6049  158.7619 C   0  0  0  0  0  0  0  0  0  0  0  0
  151.2023  142.0010  157.4837 N   0  3  0  0  0  0  0  0  0  0  0  0
  150.1356  141.0912  157.0228 C   0  0  0  0  0  0  0  0  0  0  0  0
  150.0638  141.0572  155.4895 C   0  0  0  0  0  0  0  0  0  0  0  0
  150.4895  139.7626  154.9523 N   0  0  0  0  0  0  0  0  0  0  0  0
  151.7320  139.1904  155.0519 C   0  0  0  0  0  0  0  0  0  0  0  0
  151.6618  137.9873  154.3976 C   0  0  0  0  0  0  0  0  0  0  0  0
  150.3807  137.8755  153.9277 N   0  3  0  0  0  0  0  0  0  0  0  0
  149.6689  138.9557  154.2664 C   0  0  0  0  0  0  0  0  0  0  0  0
  152.5043  145.0826  158.0027 H   0  0  0  0  0  0  0  0  0  0  0  0
  151.5852  145.8784  159.2750 H   0  0  0  0  0  0  0  0  0  0  0  0
  150.8369  144.5933  158.3459 H   0  0  0  0  0  0  0  0  0  0  0  0
  151.8307  145.0864  161.4725 H   0  0  0  0  0  0  0  0  0  0  0  0
  153.6394  143.7330  162.6617 H   0  0  0  0  0  0  0  0  0  0  0  0
  152.0379  143.1023  162.9798 H   0  0  0  0  0  0  0  0  0  0  0  0
  153.9145  141.3966  162.3666 H   0  0  0  0  0  0  0  0  0  0  0  0
  152.3682  141.1978  161.5906 H   0  0  0  0  0  0  0  0  0  0  0  0
  154.7092  142.7110  160.3873 H   0  0  0  0  0  0  0  0  0  0  0  0
  153.8575  139.8481  159.8201 H   0  0  0  0  0  0  0  0  0  0  0  0
  155.3742  140.4140  160.4925 H   0  0  0  0  0  0  0  0  0  0  0  0
  154.9774  140.7787  158.8199 H   0  0  0  0  0  0  0  0  0  0  0  0
  153.5075  142.8889  158.3729 H   0  0  0  0  0  0  0  0  0  0  0  0
  152.2565  140.6164  158.6076 H   0  0  0  0  0  0  0  0  0  0  0  0
  151.0491  141.4986  159.5201 H   0  0  0  0  0  0  0  0  0  0  0  0
  150.8091  142.9246  157.5982 H   0  0  0  0  0  0  0  0  0  0  0  0
  150.3242  140.0894  157.4116 H   0  0  0  0  0  0  0  0  0  0  0  0
  149.1810  141.4234  157.4336 H   0  0  0  0  0  0  0  0  0  0  0  0
  149.0438  141.2396  155.1477 H   0  0  0  0  0  0  0  0  0  0  0  0
  150.6937  141.8335  155.0519 H   0  0  0  0  0  0  0  0  0  0  0  0
  152.5534  139.6672  155.5672 H   0  0  0  0  0  0  0  0  0  0  0  0
  152.4077  137.2225  154.2358 H   0  0  0  0  0  0  0  0  0  0  0  0
  148.6354  139.1378  154.0302 H   0  0  0  0  0  0  0  0  0  0  0  0
  151.9235  142.0430  156.7775 H   0  0  0  0  0  0  0  0  0  0  0  0
  150.0212  137.0893  153.4006 H   0  0  0  0  0  0  0  0  0  0  0  0
  1  2  1  0  0  0  0
  1 18  1  0  0  0  0
  1 19  1  0  0  0  0
  1 20  1  0  0  0  0
  2  8  1  0  0  0  0
  2  3  2  0  0  0  0
  3  4  1  0  0  0  0
  3 21  1  0  0  0  0
  4  5  1  0  0  0  0
  4 22  1  0  0  0  0
  4 23  1  0  0  0  0
  5  6  1  0  0  0  0
  5 24  1  0  0  0  0
  5 25  1  0  0  0  0
  6  7  1  0  0  0  0
  6  8  1  0  0  0  0
  6 26  1  0  0  0  0
  7 27  1  0  0  0  0
  7 28  1  0  0  0  0
  7 29  1  0  0  0  0
  8  9  1  0  0  0  0
  8 30  1  0  0  0  0
  9 10  1  0  0  0  0
  9 31  1  0  0  0  0
  9 32  1  0  0  0  0
 10 11  1  0  0  0  0
 10 33  1  0  0  0  0
 10 41  1  0  0  0  0
 11 12  1  0  0  0  0
 11 34  1  0  0  0  0
 11 35  1  0  0  0  0
 12 13  1  0  0  0  0
 12 36  1  0  0  0  0
 12 37  1  0  0  0  0
 13 17  1  0  0  0  0
 13 14  1  0  0  0  0
 14 15  2  0  0  0  0
 14 38  1  0  0  0  0
 15 16  1  0  0  0  0
 15 39  1  0  0  0  0
 16 17  2  0  0  0  0
 16 42  1  0  0  0  0
 17 40  1  0  0  0  0
M  CHG  1  10   1
M  CHG  1  16   1
M  END
> <s_m_source_file>
AV-unprocessed.smi

> <i_m_source_file_index>
3187

> <i_lp_mmshare_version>
43012

> <i_f3d_flags>
0

> <s_epik_input>
W0NIM11DMT1bQ0hdW0NIMl1bQ0gyXVtDQEBIXShbQ0gzXSlbQ0BIXTFbQ0gyXVtOSF1bQ0gyXVtDSDJdbjJbY0hdW2NIXW5bY0hdMg==

> <s_epik_cmdline>
J2VwaWtfcHl0aG9uJywgJy1waCcsICc3LjAnLCAnLXRuJywgJzgnLCAnLW1hJywgJzIwMCcsICctbWV0YWxfYmluZGluZycsICctaW1hZScsICc8aW5maWxlLm1hZT4nLCAnLW9tYWUnLCAnPG91dGZpbGUubWFlPic=

> <r_lp_tautomer_probability>
1

> <r_epik_Ionization_Penalty>
1.51066

> <r_epik_Ionization_Penalty_Charging>
0.0026721

> <r_epik_Ionization_Penalty_Neutral>
1.50798

> <r_epik_State_Penalty>
1.12593

> <r_epik_Charging_Adjusted_Penalty>
1.12861

> <i_epik_Tot_Q>
2

> <i_epik_Tot_abs_Q>
2

> <r_epik_Metal_State_Penalty>
5.12155

> <b_epik_Metal_Only>
0

> <s_lp_Force_Field>
OPLS_2005

> <r_lp_Energy>
24.2531

> <b_lp_Chiralities_Consistent>
1

> <s_lp_Variant>
AV-unprocessed.smi:3187-5

> <Gold.Version>
5.8.1

> <Gold.Id.Protein>
6NUR|6NUR_protein|mol2

> <Gold.PLP.Fitness>
54.9707

> <Gold.PLP.PLP>
-50.3076

> <Gold.PLP.part.hbond>
-1.5072

> <Gold.PLP.part.metal>
0.0000

> <Gold.PLP.part.buried>
-4.7787

> <Gold.PLP.part.nonpolar>
-43.9220

> <Gold.PLP.part.repulsive>
0.1237

> <Gold.PLP.ligand.clash>
0.0000

> <Gold.PLP.ligand.torsion>
0.7071

> <Gold.PLP.Chemscore.Hbond>
2.0000

> <Gold.PLP.Chemscore.CHOScore>
0.0000

> <Gold.PLP.Chemscore.Metal>
0.0000

> <Gold.Chemscore.Hbonds>
donor molecule, donor type, donor heavy atom, donor atom, acceptor molecule, acceptor atom, score
      L1  H    16    42       P1  7948  2.00

> <Gold.PLP.Chemscore.Internal.Correction>
0.0774

> <Gold.Rescore>
     Score         DG    S(hbond)    S(metal)    S(lipo)     H(rot)  DE(clash)    DE(int)     intcor
     17.95     -18.70       0.98        0.00     128.24       1.97       0.11       0.64       ----

> <Gold.Chemscore.Fitness>
17.9534

> <Gold.Chemscore.DG>
-18.6982

> <Gold.Chemscore.ZeroCoef>
-5.4800

> <Gold.Chemscore.Hbond>
0.9779

> <Gold.Chemscore.Metal>
0.0000

> <Gold.Chemscore.Lipo>
128.2353

> <Gold.Chemscore.Internal_Hbond>
0.0000

> <Gold.Chemscore.DEClash>
0.1070

> <Gold.Chemscore.DEInternal>
0.6378

> <Gold.Chemscore.Rot>
1.9732

> <Gold.Chemscore.Internal.Correction>
   9.000000E+99

> <Gold.Chemscore.Hbonds>
donor molecule, donor type, donor heavy atom, donor atom, acceptor molecule, acceptor atom, score
      L1  H    16    42       P1  7948  0.24

> <Gold.Chemscore.Hbond.Weighted>
-3.2660

> <Gold.Chemscore.Metal.Weighted>
-0.0000

> <Gold.Chemscore.Lipo.Weighted>
-15.0035

> <Gold.Chemscore.Internal_Hbond.Weighted>
0.0000

> <Gold.Chemscore.DEClash.Weighted>
0.1070

> <Gold.Chemscore.DEInternal.Weighted>
0.6378

> <Gold.Chemscore.Rot.Weighted>
5.0514

> <Gold.Chemscore.Internal.Correction.Weighted>
   9.000000E+99

> <Gold.Protein.RotatedTorsions>
[ 6907 6896 6895 6894 ] final  -55.85 input  -60.11 | X-H torsion
[ 7974 7965 7964 7962 ] final -108.18 input  175.53 | X-H torsion
[ 8008 7997 7996 7995 ] final  150.36 input   59.86 | X-H torsion
[ 10167 10162 10161 10158 ] final -122.70 input  -65.29 | X-H torsion
[ 10718 10713 10712 10709 ] final   51.93 input   66.30 | X-H torsion
[ 10763 10752 10751 10750 ] final   93.87 input  -60.55 | X-H torsion
[ 11005 11000 10999 10996 ] final   14.28 input  -57.11 | X-H torsion

> <Gold.Protein.ActiveResidues>
 VAL166  LYS551  ARG553  GLY616  TRP617  ASP618  TYR619  PRO620  LYS621  CYS622 
 ASP623  PHE694  ASN695  SER759  ASP760  ASP761  ALA762  ILE779  LEU786  VAL792 
 PHE793  MET794  SER795  GLU796  ALA797  LYS798  CYS799  TRP800  GLU811  SER814 

> <Gold.Protein.RotatedAtoms>
  150.8217  134.7428  159.6777 H   0  0  0  0  0  0  0  0  0  0  0  0  # atno 6907 bound_to 6896
  152.4332  134.5735  159.9937 H   0  0  0  0  0  0  0  0  0  0  0  0  # atno 6908 bound_to 6896
  151.5917  133.3328  159.3065 H   0  0  0  0  0  0  0  0  0  0  0  0  # atno 6909 bound_to 6896
  145.1961  140.9036  143.3396 H   0  0  0  0  0  0  0  0  0  0  0  0  # atno 7974 bound_to 7965
  156.2719  140.2077  156.6005 H   0  0  0  0  0  0  0  0  0  0  0  0  # atno 8008 bound_to 7997
  154.6910  140.0530  157.0387 H   0  0  0  0  0  0  0  0  0  0  0  0  # atno 8009 bound_to 7997
  155.0866  140.3192  155.4589 H   0  0  0  0  0  0  0  0  0  0  0  0  # atno 8010 bound_to 7997
  140.0115  143.5437  152.2261 H   0  0  0  0  0  0  0  0  0  0  0  0  # atno 10167 bound_to 10162
  157.5027  130.8448  149.8336 H   0  0  0  0  0  0  0  0  0  0  0  0  # atno 10718 bound_to 10713
  153.2352  135.4310  155.0638 H   0  0  0  0  0  0  0  0  0  0  0  0  # atno 10763 bound_to 10752
  154.8315  135.3389  154.6730 H   0  0  0  0  0  0  0  0  0  0  0  0  # atno 10764 bound_to 10752
  153.7155  135.7020  153.5082 H   0  0  0  0  0  0  0  0  0  0  0  0  # atno 10765 bound_to 10752
  140.4713  134.1028  155.7733 H   0  0  0  0  0  0  0  0  0  0  0  0  # atno 11005 bound_to 11000
  144.9993  139.3613  143.6175 LP  0  0  0  0  0  0  0  0  0  0  0  0  # atno 17320 bound_to 7965
  146.3427  139.9210  142.8767 LP  0  0  0  0  0  0  0  0  0  0  0  0  # atno 17321 bound_to 7965
  139.6202  144.7627  151.2757 LP  0  0  0  0  0  0  0  0  0  0  0  0  # atno 17342 bound_to 10162
  140.7379  143.6663  150.8120 LP  0  0  0  0  0  0  0  0  0  0  0  0  # atno 17343 bound_to 10162
  156.0239  130.3786  150.1880 LP  0  0  0  0  0  0  0  0  0  0  0  0  # atno 17370 bound_to 10713
  157.0070  130.9939  151.3376 LP  0  0  0  0  0  0  0  0  0  0  0  0  # atno 17371 bound_to 10713
  141.1575  133.8854  157.1937 LP  0  0  0  0  0  0  0  0  0  0  0  0  # atno 17394 bound_to 11000
  139.9883  135.0074  156.9916 LP  0  0  0  0  0  0  0  0  0  0  0  0  # atno 17395 bound_to 11000

$$$$
