AV-unprocessed.smi:325|AV-procd|sdf|2342|dock5
  -GOLD-   2262022253D 1   1.00000     0.00000
 Structure written by MMmdl.
 46 47  0  0  0  0  0  0  0  0  1 V2000
  152.2875  138.2251  156.5177 C   0  0  0  0  0  0  0  0  0  0  0  0
  151.5900  139.5474  156.2512 C   0  0  0  0  0  0  0  0  0  0  0  0
  151.8356  140.5271  157.1956 N   0  0  0  0  0  0  0  0  0  0  0  0
  151.2363  141.7729  157.0545 C   0  0  0  0  0  0  0  0  0  0  0  0
  151.5428  142.6806  158.0681 N   0  0  0  0  0  0  0  0  0  0  0  0
  151.7958  144.0834  157.7373 C   0  0  0  0  0  0  0  0  0  0  0  0
  151.6230  144.9872  158.9698 C   0  0  0  0  0  0  0  0  0  0  0  0
  152.4686  144.5334  160.0181 O   0  0  0  0  0  0  0  0  0  0  0  0
  152.1389  143.2090  160.4151 C   0  0  0  0  0  0  0  0  0  0  0  0
  152.3256  142.2507  159.2269 C   0  0  0  0  0  0  0  0  0  0  0  0
  150.4624  142.0772  156.0525 N   0  0  0  0  0  0  0  0  0  0  0  0
  150.1870  141.1316  155.0535 C   0  0  0  0  0  0  0  0  0  0  0  0
  149.4643  141.4223  154.1017 O   0  0  0  0  0  0  0  0  0  0  0  0
  150.7946  139.7907  155.1825 C   0  0  0  0  0  0  0  0  0  0  0  0
  150.4818  138.7420  154.1188 C   0  0  0  0  0  0  0  0  0  0  0  0
  149.1260  138.0524  154.3626 C   0  0  0  0  0  0  0  0  0  0  0  0
  149.2300  136.8332  155.2840 C   0  0  0  0  0  0  0  0  0  0  0  0
  149.3152  136.9743  156.5044 O   0  0  0  0  0  0  0  0  0  0  0  0
  149.2180  135.6337  154.6811 N   0  0  0  0  0  0  0  0  0  0  0  0
  149.2936  134.3431  155.3604 C   0  0  0  0  0  0  0  0  0  0  0  0
  150.5142  134.2935  156.2936 C   0  0  0  0  0  0  0  0  0  0  0  0
  149.3336  133.2187  154.3168 C   0  0  0  0  0  0  0  0  0  0  0  0
  152.4440  140.2975  157.9680 H   0  0  0  0  0  0  0  0  0  0  0  0
  152.8979  137.9376  155.6614 H   0  0  0  0  0  0  0  0  0  0  0  0
  151.5546  137.4389  156.6999 H   0  0  0  0  0  0  0  0  0  0  0  0
  152.9402  138.2827  157.3899 H   0  0  0  0  0  0  0  0  0  0  0  0
  151.1294  144.4301  156.9468 H   0  0  0  0  0  0  0  0  0  0  0  0
  152.8122  144.1741  157.3517 H   0  0  0  0  0  0  0  0  0  0  0  0
  151.8883  146.0150  158.7213 H   0  0  0  0  0  0  0  0  0  0  0  0
  150.5835  144.9975  159.3018 H   0  0  0  0  0  0  0  0  0  0  0  0
  152.7877  142.9141  161.2398 H   0  0  0  0  0  0  0  0  0  0  0  0
  151.1138  143.1716  160.7875 H   0  0  0  0  0  0  0  0  0  0  0  0
  153.3790  142.2056  158.9468 H   0  0  0  0  0  0  0  0  0  0  0  0
  152.0329  141.2441  159.5292 H   0  0  0  0  0  0  0  0  0  0  0  0
  151.2873  138.0061  154.0938 H   0  0  0  0  0  0  0  0  0  0  0  0
  150.4861  139.2022  153.1307 H   0  0  0  0  0  0  0  0  0  0  0  0
  148.4224  138.7562  154.8088 H   0  0  0  0  0  0  0  0  0  0  0  0
  148.6973  137.7453  153.4074 H   0  0  0  0  0  0  0  0  0  0  0  0
  149.1425  135.6129  153.6744 H   0  0  0  0  0  0  0  0  0  0  0  0
  148.3918  134.2067  155.9600 H   0  0  0  0  0  0  0  0  0  0  0  0
  150.5762  133.3329  156.8055 H   0  0  0  0  0  0  0  0  0  0  0  0
  150.4599  135.0681  157.0593 H   0  0  0  0  0  0  0  0  0  0  0  0
  151.4433  134.4357  155.7407 H   0  0  0  0  0  0  0  0  0  0  0  0
  149.3505  132.2401  154.7971 H   0  0  0  0  0  0  0  0  0  0  0  0
  150.2195  133.2936  153.6847 H   0  0  0  0  0  0  0  0  0  0  0  0
  148.4569  133.2513  153.6687 H   0  0  0  0  0  0  0  0  0  0  0  0
  1 24  1  0  0  0  0
  1 25  1  0  0  0  0
  1 26  1  0  0  0  0
  1  2  1  0  0  0  0
  2 14  2  0  0  0  0
  2  3  1  0  0  0  0
  3 23  1  0  0  0  0
  3  4  1  0  0  0  0
  4  5  1  0  0  0  0
  4 11  2  0  0  0  0
  5 10  1  0  0  0  0
  5  6  1  0  0  0  0
  6  7  1  0  0  0  0
  6 27  1  0  0  0  0
  6 28  1  0  0  0  0
  7  8  1  0  0  0  0
  7 29  1  0  0  0  0
  7 30  1  0  0  0  0
  8  9  1  0  0  0  0
  9 10  1  0  0  0  0
  9 31  1  0  0  0  0
  9 32  1  0  0  0  0
 10 33  1  0  0  0  0
 10 34  1  0  0  0  0
 11 12  1  0  0  0  0
 12 13  2  0  0  0  0
 12 14  1  0  0  0  0
 14 15  1  0  0  0  0
 15 16  1  0  0  0  0
 15 35  1  0  0  0  0
 15 36  1  0  0  0  0
 16 17  1  0  0  0  0
 16 37  1  0  0  0  0
 16 38  1  0  0  0  0
 17 18  2  0  0  0  0
 17 19  1  0  0  0  0
 19 20  1  0  0  0  0
 19 39  1  0  0  0  0
 20 21  1  0  0  0  0
 20 22  1  0  0  0  0
 20 40  1  0  0  0  0
 21 41  1  0  0  0  0
 21 42  1  0  0  0  0
 21 43  1  0  0  0  0
 22 44  1  0  0  0  0
 22 45  1  0  0  0  0
 22 46  1  0  0  0  0
M  END
> <s_m_source_file>
AV-unprocessed.smi

> <i_m_source_file_index>
325

> <i_lp_mmshare_version>
43012

> <i_f3d_flags>
0

> <s_epik_input>
W0NIMl0xW0NIMl1PW0NIMl1bQ0gyXU4xYyhuYzJbQ0gzXSlbbkhdYyg9TyljMltDSDJdW0NIMl1DKD1PKVtOSF1bQ0hdKFtDSDNdKVtDSDNd

> <s_epik_cmdline>
J2VwaWtfcHl0aG9uJywgJy1waCcsICc3LjAnLCAnLXRuJywgJzgnLCAnLW1hJywgJzIwMCcsICctbWV0YWxfYmluZGluZycsICctaW1hZScsICc8aW5maWxlLm1hZT4nLCAnLW9tYWUnLCAnPG91dGZpbGUubWFlPic=

> <r_lp_tautomer_probability>
0.108306

> <r_epik_Ionization_Penalty>
0.0738532

> <r_epik_Ionization_Penalty_Charging>
0.0614224

> <r_epik_Ionization_Penalty_Neutral>
0.0124309

> <r_epik_State_Penalty>
1.70966

> <r_epik_Charging_Adjusted_Penalty>
1.77108

> <i_epik_Tot_Q>
0

> <i_epik_Tot_abs_Q>
0

> <r_epik_Metal_State_Penalty>
2.67951

> <b_epik_Metal_Only>
0

> <s_lp_Force_Field>
OPLS_2005

> <r_lp_Energy>
25.9906

> <b_lp_Chiralities_Consistent>
1

> <s_lp_Variant>
AV-unprocessed.smi:325-2

> <Gold.Version>
5.8.1

> <Gold.Id.Protein>
6NUR|6NUR_protein|mol2

> <Gold.PLP.Fitness>
42.0967

> <Gold.PLP.PLP>
-40.9282

> <Gold.PLP.part.hbond>
-3.0000

> <Gold.PLP.part.metal>
0.0000

> <Gold.PLP.part.buried>
-1.7028

> <Gold.PLP.part.nonpolar>
-36.3398

> <Gold.PLP.part.repulsive>
0.8088

> <Gold.PLP.ligand.clash>
1.4917

> <Gold.PLP.ligand.torsion>
1.0763

> <Gold.PLP.Chemscore.Hbond>
1.4919

> <Gold.PLP.Chemscore.CHOScore>
0.0000

> <Gold.PLP.Chemscore.Metal>
0.0000

> <Gold.Chemscore.Hbonds>
donor molecule, donor type, donor heavy atom, donor atom, acceptor molecule, acceptor atom, score
      L1  H    19    39       P1  7948  1.00
      P1  H  8011  8017       L1    13  0.65

> <Gold.PLP.Chemscore.Internal.Correction>
0.3371

> <Gold.Rescore>
     Score         DG    S(hbond)    S(metal)    S(lipo)     H(rot)  DE(clash)    DE(int)     intcor
     13.79     -16.99       1.45        0.00      94.38       1.71       1.07       2.13       ----

> <Gold.Chemscore.Fitness>
13.7903

> <Gold.Chemscore.DG>
-16.9903

> <Gold.Chemscore.ZeroCoef>
-5.4800

> <Gold.Chemscore.Hbond>
1.4492

> <Gold.Chemscore.Metal>
0.0000

> <Gold.Chemscore.Lipo>
94.3792

> <Gold.Chemscore.Internal_Hbond>
0.0000

> <Gold.Chemscore.DEClash>
1.0746

> <Gold.Chemscore.DEInternal>
2.1254

> <Gold.Chemscore.Rot>
1.7080

> <Gold.Chemscore.Internal.Correction>
   9.000000E+99

> <Gold.Chemscore.Hbonds>
donor molecule, donor type, donor heavy atom, donor atom, acceptor molecule, acceptor atom, score
      L1  H    19    39       P1  7948  0.70
      P1  H  8011  8017       L1    13  0.61

> <Gold.Chemscore.Hbond.Weighted>
-4.8403

> <Gold.Chemscore.Metal.Weighted>
-0.0000

> <Gold.Chemscore.Lipo.Weighted>
-11.0424

> <Gold.Chemscore.Internal_Hbond.Weighted>
0.0000

> <Gold.Chemscore.DEClash.Weighted>
1.0746

> <Gold.Chemscore.DEInternal.Weighted>
2.1254

> <Gold.Chemscore.Rot.Weighted>
4.3724

> <Gold.Chemscore.Internal.Correction.Weighted>
   9.000000E+99

> <Gold.Protein.RotatedTorsions>
[ 6907 6896 6895 6894 ] final   64.98 input  -60.11 | X-H torsion
[ 7974 7965 7964 7962 ] final -121.19 input  175.53 | X-H torsion
[ 8008 7997 7996 7995 ] final  -95.06 input   59.86 | X-H torsion
[ 10167 10162 10161 10158 ] final  -77.29 input  -65.29 | X-H torsion
[ 10718 10713 10712 10709 ] final  -38.66 input   66.30 | X-H torsion
[ 10763 10752 10751 10750 ] final  -43.88 input  -60.55 | X-H torsion
[ 11005 11000 10999 10996 ] final  175.31 input  -57.11 | X-H torsion

> <Gold.Protein.ActiveResidues>
 VAL166  LYS551  ARG553  GLY616  TRP617  ASP618  TYR619  PRO620  LYS621  CYS622 
 ASP623  PHE694  ASN695  SER759  ASP760  ASP761  ALA762  ILE779  LEU786  VAL792 
 PHE793  MET794  SER795  GLU796  ALA797  LYS798  CYS799  TRP800  GLU811  SER814 

> <Gold.Protein.RotatedAtoms>
  152.4373  134.5661  159.9907 H   0  0  0  0  0  0  0  0  0  0  0  0  # atno 6907 bound_to 6896
  151.5768  133.3377  159.3008 H   0  0  0  0  0  0  0  0  0  0  0  0  # atno 6908 bound_to 6896
  150.8273  134.7545  159.6888 H   0  0  0  0  0  0  0  0  0  0  0  0  # atno 6909 bound_to 6896
  145.0430  140.8159  143.4255 H   0  0  0  0  0  0  0  0  0  0  0  0  # atno 7974 bound_to 7965
  154.7564  140.0483  157.0937 H   0  0  0  0  0  0  0  0  0  0  0  0  # atno 8008 bound_to 7997
  154.9992  140.3122  155.4855 H   0  0  0  0  0  0  0  0  0  0  0  0  # atno 8009 bound_to 7997
  156.2895  140.2204  156.5101 H   0  0  0  0  0  0  0  0  0  0  0  0  # atno 8010 bound_to 7997
  140.4783  143.2408  151.8098 H   0  0  0  0  0  0  0  0  0  0  0  0  # atno 10167 bound_to 10162
  156.3012  130.4240  149.8141 H   0  0  0  0  0  0  0  0  0  0  0  0  # atno 10718 bound_to 10713
  154.0028  135.6691  153.4760 H   0  0  0  0  0  0  0  0  0  0  0  0  # atno 10763 bound_to 10752
  153.0655  135.5003  154.8186 H   0  0  0  0  0  0  0  0  0  0  0  0  # atno 10764 bound_to 10752
  154.7042  135.3085  154.9258 H   0  0  0  0  0  0  0  0  0  0  0  0  # atno 10765 bound_to 10752
  140.3608  134.7115  157.4329 H   0  0  0  0  0  0  0  0  0  0  0  0  # atno 11005 bound_to 11000
  145.1623  139.2451  143.5385 LP  0  0  0  0  0  0  0  0  0  0  0  0  # atno 17320 bound_to 7965
  146.3511  140.1353  142.8596 LP  0  0  0  0  0  0  0  0  0  0  0  0  # atno 17321 bound_to 7965
  139.4829  144.4805  151.9312 LP  0  0  0  0  0  0  0  0  0  0  0  0  # atno 17342 bound_to 10162
  140.3890  144.2639  150.5901 LP  0  0  0  0  0  0  0  0  0  0  0  0  # atno 17343 bound_to 10162
  156.5518  130.8345  151.3302 LP  0  0  0  0  0  0  0  0  0  0  0  0  # atno 17370 bound_to 10713
  157.7368  130.9785  150.2159 LP  0  0  0  0  0  0  0  0  0  0  0  0  # atno 17371 bound_to 10713
  140.0628  134.5971  155.8729 LP  0  0  0  0  0  0  0  0  0  0  0  0  # atno 17394 bound_to 11000
  141.1985  133.6601  156.5794 LP  0  0  0  0  0  0  0  0  0  0  0  0  # atno 17395 bound_to 11000

$$$$
