#       Name:                AV-unprocessed.smi:3323
#       Creating user name   scv26
#       Creation time:       Fri Mar 27 19:12:32 2020


#       File generated by GOLD software.
#

@<TRIPOS>MOLECULE
AV-unprocessed.smi:3323
    42    43     1
SMALL
NO_CHARGES


@<TRIPOS>ATOM
      1 ****        -3.8446  -1.1053  -4.0073 C.3            1 S1                 0.0000
      2 ****        -3.2218  -0.5105  -2.7396 C.3            1 S1                 0.0000
      3 ****        -1.6907  -0.3831  -2.8487 C.3            1 S1                 0.0000
      4 ****        -1.0865   0.1543  -1.5409 C.3            1 S1                 0.0000
      5 ****         0.4503   0.2429  -1.6333 C.3            1 S1                 0.0000
      6 ****         1.0358   0.8877  -0.4611 N.am           1 S1                 0.0000
      7 ****         1.6803   0.2622   0.5346 C.2            1 S1                 0.0000
      8 ****         1.8558  -0.9552   0.5709 O.2            1 S1                 0.0000
      9 ****         2.1033   1.1409   1.4598 N.am           1 S1                 0.0000
     10 ****         2.8203   0.9028   2.6644 C.ar           1 S1                 0.0000
     11 ****         2.9744  -0.3662   3.2750 C.ar           1 S1                 0.0000
     12 ****         3.7016  -0.4580   4.4776 C.ar           1 S1                 0.0000
     13 ****         4.2421   0.7192   5.0297 C.ar           1 S1                 0.0000
     14 ****         4.0943   1.9360   4.4654 N.ar           1 S1                 0.0000
     15 ****         3.3966   2.0162   3.3125 C.ar           1 S1                 0.0000
     16 ****        -1.5760  -0.7256  -0.3756 C.3            1 S1                 0.0000
     17 ****        -3.1079  -0.8506  -0.3898 C.3            1 S1                 0.0000
     18 ****        -3.5466  -1.3608  -1.6441 O.3            1 S1                 0.0000
     19 ****        -3.6341  -0.4826  -4.8771 H              1 S1                 0.0000
     20 ****        -4.9277  -1.1827  -3.9093 H              1 S1                 0.0000
     21 ****        -3.4555  -2.1040  -4.2080 H              1 S1                 0.0000
     22 ****        -3.6606   0.4743  -2.5691 H              1 S1                 0.0000
     23 ****        -1.2584  -1.3578  -3.0811 H              1 S1                 0.0000
     24 ****        -1.4327   0.2775  -3.6773 H              1 S1                 0.0000
     25 ****        -1.4722   1.1633  -1.3866 H              1 S1                 0.0000
     26 ****         0.8793  -0.7473  -1.7967 H              1 S1                 0.0000
     27 ****         0.7299   0.8382  -2.5029 H              1 S1                 0.0000
     28 ****         0.9422   1.8914  -0.4056 H              1 S1                 0.0000
     29 ****         1.9241   2.1131   1.2552 H              1 S1                 0.0000
     30 ****         2.5465  -1.2650   2.8607 H              1 S1                 0.0000
     31 ****         3.8388  -1.4101   4.9685 H              1 S1                 0.0000
     32 ****         4.8041   0.6834   5.9512 H              1 S1                 0.0000
     33 ****         3.2978   3.0064   2.8917 H              1 S1                 0.0000
     34 ****        -1.1298  -1.7182  -0.4491 H              1 S1                 0.0000
     35 ****        -1.2576  -0.3106   0.5809 H              1 S1                 0.0000
     36 ****        -3.4348  -1.5291   0.3982 H              1 S1                 0.0000
     37 ****        -3.5787   0.1138  -0.1930 H              1 S1                 0.0000
     38 ****         1.5097  -1.5326  -0.1686 LP             1 S1                 0.0000
     39 ****         2.3445  -1.3672   1.3399 LP             1 S1                 0.0000
     40 ****         4.4889   2.7521   4.8877 LP             1 S1                 0.0000
     41 ****        -3.1157  -2.2507  -1.7937 LP             1 S1                 0.0000
     42 ****        -4.5398  -1.4727  -1.6120 LP             1 S1                 0.0000
@<TRIPOS>BOND
    1    1    2 1     
    2    1   19 1     
    3    1   20 1     
    4    1   21 1     
    5    2   18 1     
    6    2    3 1     
    7    2   22 1     
    8    3    4 1     
    9    3   23 1     
   10    3   24 1     
   11    4    5 1     
   12    4   16 1     
   13    4   25 1     
   14    5    6 1     
   15    5   26 1     
   16    5   27 1     
   17    6    7 am    
   18    6   28 1     
   19    7    8 2     
   20    7    9 am    
   21    9   10 1     
   22    9   29 1     
   23   10   15 ar    
   24   10   11 ar    
   25   11   12 ar    
   26   11   30 1     
   27   12   13 ar    
   28   12   31 1     
   29   13   14 ar    
   30   13   32 1     
   31   14   15 ar    
   32   15   33 1     
   33   16   17 1     
   34   16   34 1     
   35   16   35 1     
   36   17   18 1     
   37   17   36 1     
   38   17   37 1     
   39    8   38 1     
   40    8   39 1     
   41   14   40 1     
   42   18   41 1     
   43   18   42 1     
@<TRIPOS>SUBSTRUCTURE
      1 S1             1
@<TRIPOS>SET
LONE_PAIRS      STATIC     ATOMS    <user>   **** ""
5 38 39 40 41 42
DONOR_HYDROGENS      STATIC     ATOMS    <user>   **** ""
2 28 29
ATOM$BLUE        STATIC     ATOMS    COLORGROUP SYSTEM
5 38 39 40 41 42
ATOM$RED        STATIC     ATOMS    COLORGROUP SYSTEM
2 28 29
