#       Name:                AV-unprocessed.smi:1347
#       Creating user name   scv26
#       Creation time:       Fri Mar 27 05:10:14 2020


#       File generated by GOLD software.
#

@<TRIPOS>MOLECULE
AV-unprocessed.smi:1347
    46    47     1
SMALL
NO_CHARGES


@<TRIPOS>ATOM
      1 ****        -3.6535   4.0304  -0.1004 C.3            1 S1                 0.0000
      2 ****        -2.2529   3.8184  -0.0927 O.3            1 S1                 0.0000
      3 ****        -1.9152   2.4409  -0.0989 C.3            1 S1                 0.0000
      4 ****        -0.3941   2.3001  -0.0712 C.2            1 S1                 0.0000
      5 ****         0.2817   3.0085   0.6748 O.2            1 S1                 0.0000
      6 ****         0.1313   1.3706  -0.8827 N.am           1 S1                 0.0000
      7 ****         1.5478   1.0316  -0.9670 C.3            1 S1                 0.0000
      8 ****         2.0647   0.2546   0.2397 C.ar           1 S1                 0.0000
      9 ****         3.1002   0.8031   1.0258 C.ar           1 S1                 0.0000
     10 ****         3.5723   0.0845   2.1391 C.ar           1 S1                 0.0000
     11 ****         2.9886  -1.1634   2.4242 C.ar           1 S1                 0.0000
     12 ****         1.9995  -1.7035   1.6820 N.ar           1 S1                 0.0000
     13 ****         1.5421  -1.0121   0.6101 C.ar           1 S1                 0.0000
     14 ****         0.5113  -1.5982  -0.1411 N.3            1 S1                 0.0000
     15 ****         0.8997  -2.8099  -0.8493 C.3            1 S1                 0.0000
     16 ****        -0.2465  -3.2623  -1.7709 C.3            1 S1                 0.0000
     17 ****        -1.4388  -3.4301  -1.0078 O.3            1 S1                 0.0000
     18 ****        -1.8464  -2.2212  -0.3721 C.3            1 S1                 0.0000
     19 ****        -0.7420  -1.7470   0.5871 C.3            1 S1                 0.0000
     20 ****        -3.8625   5.1001  -0.0902 H              1 S1                 0.0000
     21 ****        -4.1242   3.5870   0.7780 H              1 S1                 0.0000
     22 ****        -4.1113   3.6064  -0.9951 H              1 S1                 0.0000
     23 ****        -2.3309   1.9413   0.7774 H              1 S1                 0.0000
     24 ****        -2.3248   1.9548  -0.9864 H              1 S1                 0.0000
     25 ****        -0.4993   0.8372  -1.4632 H              1 S1                 0.0000
     26 ****         1.7013   0.4254  -1.8601 H              1 S1                 0.0000
     27 ****         2.1327   1.9411  -1.1123 H              1 S1                 0.0000
     28 ****         3.5268   1.7654   0.7835 H              1 S1                 0.0000
     29 ****         4.3616   0.4813   2.7600 H              1 S1                 0.0000
     30 ****         3.3254  -1.7438   3.2703 H              1 S1                 0.0000
     31 ****         1.8013  -2.6240  -1.4341 H              1 S1                 0.0000
     32 ****         1.1339  -3.5977  -0.1321 H              1 S1                 0.0000
     33 ****        -0.4132  -2.5363  -2.5683 H              1 S1                 0.0000
     34 ****         0.0059  -4.2087  -2.2493 H              1 S1                 0.0000
     35 ****        -2.0632  -1.4580  -1.1214 H              1 S1                 0.0000
     36 ****        -2.7708  -2.4011   0.1771 H              1 S1                 0.0000
     37 ****        -0.6168  -2.4694   1.3948 H              1 S1                 0.0000
     38 ****        -1.0220  -0.7962   1.0424 H              1 S1                 0.0000
     39 ****        -1.8687   4.2397   0.7289 LP             1 S1                 0.0000
     40 ****        -1.8582   4.2496  -0.9041 LP             1 S1                 0.0000
     41 ****        -0.1645   3.6800   1.2664 LP             1 S1                 0.0000
     42 ****         1.2770   2.9125   0.6893 LP             1 S1                 0.0000
     43 ****         1.6124  -2.5948   1.9179 LP             1 S1                 0.0000
     44 ****         0.3275  -0.9243  -0.8567 LP             1 S1                 0.0000
     45 ****        -1.2770  -4.1241  -0.3062 LP             1 S1                 0.0000
     46 ****        -2.1705  -3.7361  -1.6169 LP             1 S1                 0.0000
@<TRIPOS>BOND
    1    1    2 1     
    2    1   20 1     
    3    1   21 1     
    4    1   22 1     
    5    2    3 1     
    6    3    4 1     
    7    3   23 1     
    8    3   24 1     
    9    4    5 2     
   10    4    6 am    
   11    6    7 1     
   12    6   25 1     
   13    7    8 1     
   14    7   26 1     
   15    7   27 1     
   16    8   13 ar    
   17    8    9 ar    
   18    9   10 ar    
   19    9   28 1     
   20   10   11 ar    
   21   10   29 1     
   22   11   12 ar    
   23   11   30 1     
   24   12   13 ar    
   25   13   14 1     
   26   14   19 1     
   27   14   15 1     
   28   15   16 1     
   29   15   31 1     
   30   15   32 1     
   31   16   17 1     
   32   16   33 1     
   33   16   34 1     
   34   17   18 1     
   35   18   19 1     
   36   18   35 1     
   37   18   36 1     
   38   19   37 1     
   39   19   38 1     
   40    2   39 1     
   41    2   40 1     
   42    5   41 1     
   43    5   42 1     
   44   12   43 1     
   45   14   44 1     
   46   17   45 1     
   47   17   46 1     
@<TRIPOS>SUBSTRUCTURE
      1 S1             1
@<TRIPOS>SET
LONE_PAIRS      STATIC     ATOMS    <user>   **** ""
8 39 40 41 42 43 44 45 46
DONOR_HYDROGENS      STATIC     ATOMS    <user>   **** ""
1 25
ATOM$BLUE        STATIC     ATOMS    COLORGROUP SYSTEM
8 39 40 41 42 43 44 45 46
ATOM$RED        STATIC     ATOMS    COLORGROUP SYSTEM
1 25
