AV-unprocessed.smi:1736|AV-procd|sdf|6991|dock4
  -GOLD-   22720 8203D 1   1.00000     0.00000
 Structure written by MMmdl.
 45 46  0  0  0  0  0  0  0  0  2 V2000
  151.1806  139.7075  155.8221 C   0  0  0  0  0  0  0  0  0  0  0  0
  150.8851  139.2781  154.4595 N   0  0  0  0  0  0  0  0  0  0  0  0
  151.5454  138.0272  154.0893 C   0  0  0  0  0  0  0  0  0  0  0  0
  150.9333  136.8121  154.8152 C   0  0  0  0  0  0  0  0  0  0  0  0
  149.4757  136.6925  154.5193 N   0  3  0  0  0  0  0  0  0  0  0  0
  148.8208  135.4182  154.9978 C   0  0  0  0  0  0  0  0  0  0  0  0
  149.4775  134.1772  154.3439 C   0  0  0  0  0  0  0  0  0  0  0  0
  148.9532  135.2651  156.5369 C   0  0  0  0  0  0  0  0  0  0  0  0
  147.2989  135.4859  154.6573 C   0  0  0  0  0  0  0  0  0  0  0  0
  146.9472  134.9105  153.3586 N   0  0  0  0  0  0  0  0  0  0  0  0
  145.8178  134.2454  153.0759 C   0  0  0  0  0  0  0  0  0  0  0  0
  144.9286  134.0326  153.9000 O   0  0  0  0  0  0  0  0  0  0  0  0
  145.7892  133.8602  151.7898 N   0  0  0  0  0  0  0  0  0  0  0  0
  144.7455  133.1737  151.1197 C   0  0  0  0  0  0  0  0  0  0  0  0
  144.7927  132.7597  149.7608 C   0  0  0  0  0  0  0  0  0  0  0  0
  143.6750  132.1435  149.4039 N   0  0  0  0  0  0  0  0  0  0  0  0
  142.9149  132.1602  150.5222 N   0  0  0  0  0  0  0  0  0  0  0  0
  143.5258  132.7770  151.5916 C   0  0  0  0  0  0  0  0  0  0  0  0
  148.8007  137.9677  154.8994 C   0  0  0  0  0  0  0  0  0  0  0  0
  149.4527  139.1731  154.1884 C   0  0  0  0  0  0  0  0  0  0  0  0
  141.9917  131.7506  150.5398 H   0  0  0  0  0  0  0  0  0  0  0  0
  152.2568  139.8187  155.9575 H   0  0  0  0  0  0  0  0  0  0  0  0
  150.8172  139.0064  156.5727 H   0  0  0  0  0  0  0  0  0  0  0  0
  150.7223  140.6773  156.0189 H   0  0  0  0  0  0  0  0  0  0  0  0
  151.4574  137.8914  153.0104 H   0  0  0  0  0  0  0  0  0  0  0  0
  152.6120  138.1008  154.3049 H   0  0  0  0  0  0  0  0  0  0  0  0
  151.4764  135.9286  154.4884 H   0  0  0  0  0  0  0  0  0  0  0  0
  151.1026  136.8939  155.8887 H   0  0  0  0  0  0  0  0  0  0  0  0
  149.1098  133.2515  154.7868 H   0  0  0  0  0  0  0  0  0  0  0  0
  150.5598  134.1769  154.4727 H   0  0  0  0  0  0  0  0  0  0  0  0
  149.2690  134.1178  153.2755 H   0  0  0  0  0  0  0  0  0  0  0  0
  148.3988  134.4060  156.9141 H   0  0  0  0  0  0  0  0  0  0  0  0
  148.5791  136.1457  157.0605 H   0  0  0  0  0  0  0  0  0  0  0  0
  149.9846  135.0960  156.8469 H   0  0  0  0  0  0  0  0  0  0  0  0
  146.7342  134.9386  155.4130 H   0  0  0  0  0  0  0  0  0  0  0  0
  146.9194  136.5060  154.6934 H   0  0  0  0  0  0  0  0  0  0  0  0
  147.6185  135.0330  152.6144 H   0  0  0  0  0  0  0  0  0  0  0  0
  146.5920  134.0959  151.2247 H   0  0  0  0  0  0  0  0  0  0  0  0
  145.5844  132.8843  149.0366 H   0  0  0  0  0  0  0  0  0  0  0  0
  143.0473  132.8712  152.5552 H   0  0  0  0  0  0  0  0  0  0  0  0
  147.7575  137.9693  154.5900 H   0  0  0  0  0  0  0  0  0  0  0  0
  148.8093  138.0971  155.9817 H   0  0  0  0  0  0  0  0  0  0  0  0
  148.9567  140.0996  154.4802 H   0  0  0  0  0  0  0  0  0  0  0  0
  149.3123  139.0770  153.1110 H   0  0  0  0  0  0  0  0  0  0  0  0
  149.4051  136.6565  153.5125 H   0  0  0  0  0  0  0  0  0  0  0  0
  1  2  1  0  0  0  0
  1 22  1  0  0  0  0
  1 23  1  0  0  0  0
  1 24  1  0  0  0  0
  2 20  1  0  0  0  0
  2  3  1  0  0  0  0
  3  4  1  0  0  0  0
  3 25  1  0  0  0  0
  3 26  1  0  0  0  0
  4  5  1  0  0  0  0
  4 27  1  0  0  0  0
  4 28  1  0  0  0  0
  5  6  1  0  0  0  0
  5 19  1  0  0  0  0
  5 45  1  0  0  0  0
  6  7  1  0  0  0  0
  6  8  1  0  0  0  0
  6  9  1  0  0  0  0
  7 29  1  0  0  0  0
  7 30  1  0  0  0  0
  7 31  1  0  0  0  0
  8 32  1  0  0  0  0
  8 33  1  0  0  0  0
  8 34  1  0  0  0  0
  9 10  1  0  0  0  0
  9 35  1  0  0  0  0
  9 36  1  0  0  0  0
 10 11  1  0  0  0  0
 10 37  1  0  0  0  0
 11 12  2  0  0  0  0
 11 13  1  0  0  0  0
 13 14  1  0  0  0  0
 13 38  1  0  0  0  0
 14 18  2  0  0  0  0
 14 15  1  0  0  0  0
 15 16  2  0  0  0  0
 15 39  1  0  0  0  0
 16 17  1  0  0  0  0
 17 21  1  0  0  0  0
 17 18  1  0  0  0  0
 18 40  1  0  0  0  0
 19 20  1  0  0  0  0
 19 41  1  0  0  0  0
 19 42  1  0  0  0  0
 20 43  1  0  0  0  0
 20 44  1  0  0  0  0
M  CHG  1   5   1
M  END
> <s_m_source_file>
AV-unprocessed.smi

> <i_m_source_file_index>
1736

> <i_lp_mmshare_version>
43012

> <i_f3d_flags>
0

> <s_epik_input>
W0NIM11OMVtDSDJdW0NIMl1OKFtDSDJdW0NIMl0xKUMoW0NIM10pKFtDSDNdKVtDSDJdW05IXUMoPU8pW05IXWMyW2NIXW5bbkhdW2NIXTI=

> <s_epik_cmdline>
J2VwaWtfcHl0aG9uJywgJy1waCcsICc3LjAnLCAnLXRuJywgJzgnLCAnLW1hJywgJzIwMCcsICctbWV0YWxfYmluZGluZycsICctaW1hZScsICc8aW5maWxlLm1hZT4nLCAnLW9tYWUnLCAnPG91dGZpbGUubWFlPic=

> <r_epik_Ionization_Penalty>
0.0906742

> <r_epik_Ionization_Penalty_Charging>
0.0886444

> <r_epik_Ionization_Penalty_Neutral>
0.00202984

> <r_epik_State_Penalty>
1.00524

> <r_epik_Charging_Adjusted_Penalty>
1.09388

> <i_epik_Tot_Q>
1

> <i_epik_Tot_abs_Q>
1

> <r_epik_Metal_State_Penalty>
1.00524

> <b_epik_Metal_Only>
0

> <s_lp_Force_Field>
OPLS_2005

> <r_lp_Energy>
30.5106

> <b_lp_Chiralities_Consistent>
1

> <s_lp_Variant>
AV-unprocessed.smi:1736-2

> <Gold.Version>
5.8.1

> <Gold.Id.Protein>
6NUR|6NUR_protein|mol2

> <Gold.PLP.Fitness>
47.6040

> <Gold.PLP.PLP>
-29.1149

> <Gold.PLP.part.hbond>
-5.7572

> <Gold.PLP.part.metal>
0.0000

> <Gold.PLP.part.buried>
-4.7837

> <Gold.PLP.part.nonpolar>
-20.5790

> <Gold.PLP.part.repulsive>
0.6123

> <Gold.PLP.ligand.clash>
0.0000

> <Gold.PLP.ligand.torsion>
0.8457

> <Gold.PLP.Chemscore.Hbond>
5.2392

> <Gold.PLP.Chemscore.CHOScore>
1.4606

> <Gold.PLP.Chemscore.Metal>
0.0000

> <Gold.Chemscore.Hbonds>
donor molecule, donor type, donor heavy atom, donor atom, acceptor molecule, acceptor atom, score
      L1  H     5    45       P1  7948  2.00
      L1  H    10    37       P1  7948  0.93
      L1  H    17    21       P1 10952  0.80
      P1  H  7989  7998       L1     2  0.95
      P1  H 10785 10796       L1    16  0.56
      L1  C    15    39       P1  7921  0.58
      L1  C    18    40       P1 10957  0.87

> <Gold.PLP.Chemscore.Internal.Correction>
0.0810

> <Gold.Rescore>
     Score         DG    S(hbond)    S(metal)    S(lipo)     H(rot)  DE(clash)    DE(int)     intcor
     16.01     -18.21       2.67        0.00      68.25       1.63       0.27       1.92       ----

> <Gold.Chemscore.Fitness>
16.0121

> <Gold.Chemscore.DG>
-18.2058

> <Gold.Chemscore.ZeroCoef>
-5.4800

> <Gold.Chemscore.Hbond>
2.6661

> <Gold.Chemscore.Metal>
0.0000

> <Gold.Chemscore.Lipo>
68.2527

> <Gold.Chemscore.Internal_Hbond>
0.0000

> <Gold.Chemscore.DEClash>
0.2690

> <Gold.Chemscore.DEInternal>
1.9248

> <Gold.Chemscore.Rot>
1.6267

> <Gold.Chemscore.Internal.Correction>
   9.000000E+99

> <Gold.Chemscore.Hbonds>
donor molecule, donor type, donor heavy atom, donor atom, acceptor molecule, acceptor atom, score
      L1  H     5    45       P1  7948  0.88
      L1  H    10    37       P1  7948  0.88
      L1  H    17    21       P1 10952  0.20
      P1  H  7989  7998       L1     2  0.13
      P1  H 10785 10796       L1    16  0.11

> <Gold.Chemscore.Hbond.Weighted>
-8.9047

> <Gold.Chemscore.Metal.Weighted>
-0.0000

> <Gold.Chemscore.Lipo.Weighted>
-7.9856

> <Gold.Chemscore.Internal_Hbond.Weighted>
0.0000

> <Gold.Chemscore.DEClash.Weighted>
0.2690

> <Gold.Chemscore.DEInternal.Weighted>
1.9248

> <Gold.Chemscore.Rot.Weighted>
4.1645

> <Gold.Chemscore.Internal.Correction.Weighted>
   9.000000E+99

> <Gold.Protein.RotatedTorsions>
[ 6907 6896 6895 6894 ] final   66.28 input  -60.11 | X-H torsion
[ 7974 7965 7964 7962 ] final  -71.85 input  175.53 | X-H torsion
[ 8008 7997 7996 7995 ] final -111.60 input   59.86 | X-H torsion
[ 10167 10162 10161 10158 ] final -103.67 input  -65.29 | X-H torsion
[ 10718 10713 10712 10709 ] final  153.53 input   66.30 | X-H torsion
[ 10763 10752 10751 10750 ] final   69.06 input  -60.55 | X-H torsion
[ 11005 11000 10999 10996 ] final  -10.69 input  -57.11 | X-H torsion

> <Gold.Protein.ActiveResidues>
 VAL166  LYS551  ARG553  GLY616  TRP617  ASP618  TYR619  PRO620  LYS621  CYS622 
 ASP623  PHE694  ASN695  SER759  ASP760  ASP761  ALA762  ILE779  LEU786  VAL792 
 PHE793  MET794  SER795  GLU796  ALA797  LYS798  CYS799  TRP800  GLU811  SER814 

> <Gold.Protein.RotatedAtoms>
  152.4469  134.5475  159.9856 H   0  0  0  0  0  0  0  0  0  0  0  0  # atno 6907 bound_to 6896
  151.5558  133.3405  159.2969 H   0  0  0  0  0  0  0  0  0  0  0  0  # atno 6908 bound_to 6896
  150.8388  134.7704  159.6978 H   0  0  0  0  0  0  0  0  0  0  0  0  # atno 6909 bound_to 6896
  145.6728  140.9215  143.0874 H   0  0  0  0  0  0  0  0  0  0  0  0  # atno 7974 bound_to 7965
  154.9922  140.0395  157.2324 H   0  0  0  0  0  0  0  0  0  0  0  0  # atno 8008 bound_to 7997
  154.7618  140.2786  155.6185 H   0  0  0  0  0  0  0  0  0  0  0  0  # atno 8009 bound_to 7997
  156.2905  140.2627  156.2398 H   0  0  0  0  0  0  0  0  0  0  0  0  # atno 8010 bound_to 7997
  140.2175  143.3700  152.0998 H   0  0  0  0  0  0  0  0  0  0  0  0  # atno 10167 bound_to 10162
  157.2435  131.0764  151.1776 H   0  0  0  0  0  0  0  0  0  0  0  0  # atno 10718 bound_to 10713
  153.0267  135.5224  154.7231 H   0  0  0  0  0  0  0  0  0  0  0  0  # atno 10763 bound_to 10752
  154.6280  135.2897  155.0251 H   0  0  0  0  0  0  0  0  0  0  0  0  # atno 10764 bound_to 10752
  154.1214  135.6607  153.4956 H   0  0  0  0  0  0  0  0  0  0  0  0  # atno 10765 bound_to 10752
  140.7474  133.8621  155.9016 H   0  0  0  0  0  0  0  0  0  0  0  0  # atno 11005 bound_to 11000
  144.7051  139.8594  143.7432 LP  0  0  0  0  0  0  0  0  0  0  0  0  # atno 17320 bound_to 7965
  146.1031  139.4028  143.0334 LP  0  0  0  0  0  0  0  0  0  0  0  0  # atno 17321 bound_to 7965
  139.5156  144.6966  151.5614 LP  0  0  0  0  0  0  0  0  0  0  0  0  # atno 17342 bound_to 10162
  140.6279  143.9133  150.6580 LP  0  0  0  0  0  0  0  0  0  0  0  0  # atno 17343 bound_to 10162
  157.3353  130.7006  149.6349 LP  0  0  0  0  0  0  0  0  0  0  0  0  # atno 17370 bound_to 10713
  155.9669  130.4295  150.4837 LP  0  0  0  0  0  0  0  0  0  0  0  0  # atno 17371 bound_to 10713
  140.9782  134.1440  157.4517 LP  0  0  0  0  0  0  0  0  0  0  0  0  # atno 17394 bound_to 11000
  139.8794  135.0002  156.5995 LP  0  0  0  0  0  0  0  0  0  0  0  0  # atno 17395 bound_to 11000

$$$$
