AV-unprocessed.smi:1356|AV-procd|sdf|5544|dock1
  -GOLD-   22720 5133D 1   1.00000     0.00000
 Structure written by MMmdl.
 42 43  0  0  0  0  0  0  0  0  2 V2000
  150.1086  130.7967  154.4657 C   0  0  0  0  0  0  0  0  0  0  0  0
  149.1493  131.9654  154.5293 C   0  0  2  0  0  0  0  0  0  0  0  0
  148.4041  132.4220  153.2987 C   0  0  0  0  0  0  0  0  0  0  0  0
  149.5060  133.2875  153.8754 C   0  0  1  0  0  0  0  0  0  0  0  0
  149.0996  134.5436  154.5745 C   0  0  0  0  0  0  0  0  0  0  0  0
  147.9288  134.8124  154.8482 O   0  0  0  0  0  0  0  0  0  0  0  0
  150.1242  135.3571  154.8727 N   0  0  0  0  0  0  0  0  0  0  0  0
  150.0019  136.6486  155.5392 C   0  0  0  0  0  0  0  0  0  0  0  0
  151.0168  137.6669  154.9850 C   0  0  0  0  0  0  0  0  0  0  0  0
  150.5646  139.1151  155.1863 C   0  0  0  0  0  0  0  0  0  0  0  0
  150.3626  139.8457  154.2158 O   0  0  0  0  0  0  0  0  0  0  0  0
  150.3991  139.5167  156.4561 N   0  0  0  0  0  0  0  0  0  0  0  0
  149.9723  140.8499  156.8631 C   0  0  0  0  0  0  0  0  0  0  0  0
  150.9897  141.9226  156.4405 C   0  0  0  0  0  0  0  0  0  0  0  0
  151.3299  142.8685  157.5753 C   0  0  0  0  0  0  0  0  0  0  0  0
  152.1859  142.4938  158.6335 C   0  0  0  0  0  0  0  0  0  0  0  0
  152.4564  143.4203  159.6620 C   0  0  0  0  0  0  0  0  0  0  0  0
  151.8652  144.6997  159.6115 C   0  0  0  0  0  0  0  0  0  0  0  0
  151.0169  145.0207  158.5321 C   0  0  0  0  0  0  0  0  0  0  0  0
  150.7823  144.1055  157.5661 N   0  3  0  0  0  0  0  0  0  0  0  0
  150.6341  130.7786  153.5103 H   0  0  0  0  0  0  0  0  0  0  0  0
  149.5639  129.8593  154.5803 H   0  0  0  0  0  0  0  0  0  0  0  0
  150.8446  130.8725  155.2662 H   0  0  0  0  0  0  0  0  0  0  0  0
  148.5918  132.0099  155.4637 H   0  0  0  0  0  0  0  0  0  0  0  0
  148.6139  131.9240  152.3543 H   0  0  0  0  0  0  0  0  0  0  0  0
  147.3703  132.7377  153.4295 H   0  0  0  0  0  0  0  0  0  0  0  0
  150.4387  133.3253  153.3142 H   0  0  0  0  0  0  0  0  0  0  0  0
  151.0550  135.0615  154.6161 H   0  0  0  0  0  0  0  0  0  0  0  0
  148.9818  137.0235  155.4363 H   0  0  0  0  0  0  0  0  0  0  0  0
  150.1687  136.4909  156.6053 H   0  0  0  0  0  0  0  0  0  0  0  0
  151.9823  137.5358  155.4748 H   0  0  0  0  0  0  0  0  0  0  0  0
  151.1811  137.4874  153.9214 H   0  0  0  0  0  0  0  0  0  0  0  0
  150.5898  138.8514  157.1918 H   0  0  0  0  0  0  0  0  0  0  0  0
  149.0045  141.0496  156.4021 H   0  0  0  0  0  0  0  0  0  0  0  0
  149.8137  140.8773  157.9427 H   0  0  0  0  0  0  0  0  0  0  0  0
  151.9086  141.4535  156.0860 H   0  0  0  0  0  0  0  0  0  0  0  0
  150.5982  142.5017  155.6029 H   0  0  0  0  0  0  0  0  0  0  0  0
  152.6294  141.5087  158.6594 H   0  0  0  0  0  0  0  0  0  0  0  0
  153.1091  143.1523  160.4800 H   0  0  0  0  0  0  0  0  0  0  0  0
  152.0591  145.4238  160.3894 H   0  0  0  0  0  0  0  0  0  0  0  0
  150.5229  145.9739  158.4131 H   0  0  0  0  0  0  0  0  0  0  0  0
  150.1643  144.3592  156.7949 H   0  0  0  0  0  0  0  0  0  0  0  0
  1  2  1  0  0  0  0
  1 21  1  0  0  0  0
  1 22  1  0  0  0  0
  1 23  1  0  0  0  0
  2  4  1  0  0  0  0
  2  3  1  0  0  0  0
  2 24  1  0  0  0  0
  3  4  1  0  0  0  0
  3 25  1  0  0  0  0
  3 26  1  0  0  0  0
  4  5  1  0  0  0  0
  4 27  1  0  0  0  0
  5  6  2  0  0  0  0
  5  7  1  0  0  0  0
  7  8  1  0  0  0  0
  7 28  1  0  0  0  0
  8  9  1  0  0  0  0
  8 29  1  0  0  0  0
  8 30  1  0  0  0  0
  9 10  1  0  0  0  0
  9 31  1  0  0  0  0
  9 32  1  0  0  0  0
 10 11  2  0  0  0  0
 10 12  1  0  0  0  0
 12 13  1  0  0  0  0
 12 33  1  0  0  0  0
 13 14  1  0  0  0  0
 13 34  1  0  0  0  0
 13 35  1  0  0  0  0
 14 15  1  0  0  0  0
 14 36  1  0  0  0  0
 14 37  1  0  0  0  0
 15 20  1  0  0  0  0
 15 16  2  0  0  0  0
 16 17  1  0  0  0  0
 16 38  1  0  0  0  0
 17 18  2  0  0  0  0
 17 39  1  0  0  0  0
 18 19  1  0  0  0  0
 18 40  1  0  0  0  0
 19 20  2  0  0  0  0
 19 41  1  0  0  0  0
 20 42  1  0  0  0  0
M  CHG  1  20   1
M  END
> <s_m_source_file>
AV-unprocessed.smi

> <i_m_source_file_index>
1356

> <i_lp_mmshare_version>
43012

> <i_f3d_flags>
0

> <s_epik_input>
W0NIM11bQ0BASF0xW0NIMl1bQ0BIXTFDKD1PKVtOSF1bQ0gyXVtDSDJdQyg9TylbTkhdW0NIMl1bQ0gyXWMyW2NIXVtjSF1bY0hdW2NIXW4y

> <s_epik_cmdline>
J2VwaWtfcHl0aG9uJywgJy1waCcsICc3LjAnLCAnLXRuJywgJzgnLCAnLW1hJywgJzIwMCcsICctbWV0YWxfYmluZGluZycsICctaW1hZScsICc8aW5maWxlLm1hZT4nLCAnLW9tYWUnLCAnPG91dGZpbGUubWFlPic=

> <r_epik_Ionization_Penalty>
1.86966

> <r_epik_Ionization_Penalty_Charging>
1.86966

> <r_epik_Ionization_Penalty_Neutral>
5.0403e-08

> <r_epik_State_Penalty>
1.98858

> <r_epik_Charging_Adjusted_Penalty>
3.85824

> <i_epik_Tot_Q>
1

> <i_epik_Tot_abs_Q>
1

> <r_epik_Metal_State_Penalty>
2.01347

> <b_epik_Metal_Only>
0

> <s_lp_Force_Field>
OPLS_2005

> <r_lp_Energy>
11.3302

> <b_lp_Chiralities_Consistent>
1

> <s_lp_Variant>
AV-unprocessed.smi:1356-5

> <Gold.Version>
5.8.1

> <Gold.Id.Protein>
6NUR|6NUR_protein|mol2

> <Gold.PLP.Fitness>
49.7277

> <Gold.PLP.PLP>
-42.3663

> <Gold.PLP.part.hbond>
-2.1923

> <Gold.PLP.part.metal>
0.0000

> <Gold.PLP.part.buried>
-6.3295

> <Gold.PLP.part.nonpolar>
-33.7991

> <Gold.PLP.part.repulsive>
0.3551

> <Gold.PLP.ligand.clash>
0.0000

> <Gold.PLP.ligand.torsion>
0.9485

> <Gold.PLP.Chemscore.Hbond>
3.0000

> <Gold.PLP.Chemscore.CHOScore>
0.0000

> <Gold.PLP.Chemscore.Metal>
0.0000

> <Gold.Chemscore.Hbonds>
donor molecule, donor type, donor heavy atom, donor atom, acceptor molecule, acceptor atom, score
      L1  H    20    42       P1  8028  2.00
      P1  H  7989  7998       L1    11  1.00

> <Gold.PLP.Chemscore.Internal.Correction>
0.2584

> <Gold.Rescore>
     Score         DG    S(hbond)    S(metal)    S(lipo)     H(rot)  DE(clash)    DE(int)     intcor
     17.19     -18.09       1.92        0.00     103.53       2.31       0.03       0.88       ----

> <Gold.Chemscore.Fitness>
17.1851

> <Gold.Chemscore.DG>
-18.0944

> <Gold.Chemscore.ZeroCoef>
-5.4800

> <Gold.Chemscore.Hbond>
1.9238

> <Gold.Chemscore.Metal>
0.0000

> <Gold.Chemscore.Lipo>
103.5267

> <Gold.Chemscore.Internal_Hbond>
0.0000

> <Gold.Chemscore.DEClash>
0.0279

> <Gold.Chemscore.DEInternal>
0.8814

> <Gold.Chemscore.Rot>
2.3140

> <Gold.Chemscore.Internal.Correction>
   9.000000E+99

> <Gold.Chemscore.Hbonds>
donor molecule, donor type, donor heavy atom, donor atom, acceptor molecule, acceptor atom, score
      L1  H    20    42       P1  8028  0.93
      P1  H  7989  7998       L1    11  0.99

> <Gold.Chemscore.Hbond.Weighted>
-6.4256

> <Gold.Chemscore.Metal.Weighted>
-0.0000

> <Gold.Chemscore.Lipo.Weighted>
-12.1126

> <Gold.Chemscore.Internal_Hbond.Weighted>
0.0000

> <Gold.Chemscore.DEClash.Weighted>
0.0279

> <Gold.Chemscore.DEInternal.Weighted>
0.8814

> <Gold.Chemscore.Rot.Weighted>
5.9238

> <Gold.Chemscore.Internal.Correction.Weighted>
   9.000000E+99

> <Gold.Protein.RotatedTorsions>
[ 6907 6896 6895 6894 ] final -145.55 input  -60.11 | X-H torsion
[ 7974 7965 7964 7962 ] final  109.28 input  175.53 | X-H torsion
[ 8008 7997 7996 7995 ] final  165.48 input   59.86 | X-H torsion
[ 10167 10162 10161 10158 ] final  -75.08 input  -65.29 | X-H torsion
[ 10718 10713 10712 10709 ] final   33.91 input   66.30 | X-H torsion
[ 10763 10752 10751 10750 ] final  113.61 input  -60.55 | X-H torsion
[ 11005 11000 10999 10996 ] final  -30.46 input  -57.11 | X-H torsion

> <Gold.Protein.ActiveResidues>
 VAL166  LYS551  ARG553  GLY616  TRP617  ASP618  TYR619  PRO620  LYS621  CYS622 
 ASP623  PHE694  ASN695  SER759  ASP760  ASP761  ALA762  ILE779  LEU786  VAL792 
 PHE793  MET794  SER795  GLU796  ALA797  LYS798  CYS799  TRP800  GLU811  SER814 

> <Gold.Protein.RotatedAtoms>
  151.1293  133.5048  159.2599 H   0  0  0  0  0  0  0  0  0  0  0  0  # atno 6907 bound_to 6896
  151.1775  135.0345  159.8788 H   0  0  0  0  0  0  0  0  0  0  0  0  # atno 6908 bound_to 6896
  152.5459  134.1149  159.8427 H   0  0  0  0  0  0  0  0  0  0  0  0  # atno 6909 bound_to 6896
  145.2698  139.2671  143.3972 H   0  0  0  0  0  0  0  0  0  0  0  0  # atno 7974 bound_to 7965
  156.1797  140.1669  156.8297 H   0  0  0  0  0  0  0  0  0  0  0  0  # atno 8008 bound_to 7997
  154.5346  140.0749  156.8439 H   0  0  0  0  0  0  0  0  0  0  0  0  # atno 8009 bound_to 7997
  155.3337  140.3380  155.4241 H   0  0  0  0  0  0  0  0  0  0  0  0  # atno 8010 bound_to 7997
  140.4973  143.2368  151.7810 H   0  0  0  0  0  0  0  0  0  0  0  0  # atno 10167 bound_to 10162
  157.3038  130.7364  149.6683 H   0  0  0  0  0  0  0  0  0  0  0  0  # atno 10718 bound_to 10713
  153.4950  135.3650  155.2511 H   0  0  0  0  0  0  0  0  0  0  0  0  # atno 10763 bound_to 10752
  154.8750  135.3986  154.3545 H   0  0  0  0  0  0  0  0  0  0  0  0  # atno 10764 bound_to 10752
  153.4171  135.7079  153.6385 H   0  0  0  0  0  0  0  0  0  0  0  0  # atno 10765 bound_to 10752
  140.9384  133.7294  156.1040 H   0  0  0  0  0  0  0  0  0  0  0  0  # atno 11005 bound_to 11000
  146.3250  140.3137  142.8628 LP  0  0  0  0  0  0  0  0  0  0  0  0  # atno 17320 bound_to 7965
  144.9345  140.8011  143.5669 LP  0  0  0  0  0  0  0  0  0  0  0  0  # atno 17321 bound_to 7965
  139.4864  144.4570  151.9587 LP  0  0  0  0  0  0  0  0  0  0  0  0  # atno 17342 bound_to 10162
  140.3658  144.2917  150.5927 LP  0  0  0  0  0  0  0  0  0  0  0  0  # atno 17343 bound_to 10162
  155.9673  130.4272  150.4732 LP  0  0  0  0  0  0  0  0  0  0  0  0  # atno 17370 bound_to 10713
  157.2718  131.0588  151.2255 LP  0  0  0  0  0  0  0  0  0  0  0  0  # atno 17371 bound_to 10713
  140.7767  134.3771  157.5496 LP  0  0  0  0  0  0  0  0  0  0  0  0  # atno 17394 bound_to 11000
  139.8814  134.9056  156.2903 LP  0  0  0  0  0  0  0  0  0  0  0  0  # atno 17395 bound_to 11000

$$$$
