AV-unprocessed.smi:1535|AV-procd|sdf|6170|dock2
  -GOLD-   22720 6323D 1   1.00000     0.00000
 Structure written by MMmdl.
 46 47  0  0  0  0  0  0  0  0  1 V2000
  153.2203  142.5029  161.7791 C   0  0  0  0  0  0  0  0  0  0  0  0
  152.6207  142.2582  160.4056 C   0  0  0  0  0  0  0  0  0  0  0  0
  152.9654  141.0803  159.7055 C   0  0  0  0  0  0  0  0  0  0  0  0
  152.4313  140.8156  158.4257 C   0  0  0  0  0  0  0  0  0  0  0  0
  152.6271  139.7412  157.5751 N   0  0  0  0  0  0  0  0  0  0  0  0
  151.8573  140.0730  156.5429 C   0  0  0  0  0  0  0  0  0  0  0  0
  151.1836  141.2363  156.6247 N   0  0  0  0  0  0  0  0  0  0  0  0
  150.2867  141.7939  155.6287 C   0  0  0  0  0  0  0  0  0  0  0  0
  149.5571  140.7035  154.8219 C   0  0  2  0  0  0  0  0  0  0  0  0
  149.4867  141.1395  153.4803 O   0  0  0  0  0  0  0  0  0  0  0  0
  148.1235  140.4324  155.3274 C   0  0  0  0  0  0  0  0  0  0  0  0
  147.9887  139.7281  156.6098 N   0  0  0  0  0  0  0  0  0  0  0  0
  148.2989  140.6552  157.6914 C   0  0  0  0  0  0  0  0  0  0  0  0
  148.8495  138.5442  156.7007 C   0  0  0  0  0  0  0  0  0  0  0  0
  148.2605  137.3752  157.5166 C   0  0  2  0  0  0  0  0  0  0  0  0
  146.9398  137.7647  158.1934 C   0  0  0  0  0  0  0  0  0  0  0  0
  149.2285  136.8841  158.5105 C   0  0  0  0  0  0  0  0  0  0  0  0
  149.9905  136.4994  159.2913 N   0  0  0  0  0  0  0  0  0  0  0  0
  151.5351  141.7696  157.8603 C   0  0  0  0  0  0  0  0  0  0  0  0
  151.1837  142.9451  158.5474 C   0  0  0  0  0  0  0  0  0  0  0  0
  151.7275  143.1942  159.8250 C   0  0  0  0  0  0  0  0  0  0  0  0
  151.3440  144.4675  160.5580 C   0  0  0  0  0  0  0  0  0  0  0  0
  153.8543  141.6724  162.0909 H   0  0  0  0  0  0  0  0  0  0  0  0
  152.4341  142.6209  162.5251 H   0  0  0  0  0  0  0  0  0  0  0  0
  153.8311  143.4060  161.7728 H   0  0  0  0  0  0  0  0  0  0  0  0
  153.6458  140.3672  160.1471 H   0  0  0  0  0  0  0  0  0  0  0  0
  151.7751  139.4317  155.6773 H   0  0  0  0  0  0  0  0  0  0  0  0
  149.5708  142.4492  156.1267 H   0  0  0  0  0  0  0  0  0  0  0  0
  150.8749  142.4259  154.9617 H   0  0  0  0  0  0  0  0  0  0  0  0
  150.1615  139.7994  154.8706 H   0  0  0  0  0  0  0  0  0  0  0  0
  149.3701  140.3816  152.9276 H   0  0  0  0  0  0  0  0  0  0  0  0
  147.5869  141.3787  155.3993 H   0  0  0  0  0  0  0  0  0  0  0  0
  147.6040  139.8655  154.5530 H   0  0  0  0  0  0  0  0  0  0  0  0
  148.1512  140.1817  158.6626 H   0  0  0  0  0  0  0  0  0  0  0  0
  147.6473  141.5290  157.6545 H   0  0  0  0  0  0  0  0  0  0  0  0
  149.3329  140.9988  157.6335 H   0  0  0  0  0  0  0  0  0  0  0  0
  149.1030  138.2061  155.6944 H   0  0  0  0  0  0  0  0  0  0  0  0
  149.8086  138.8097  157.1485 H   0  0  0  0  0  0  0  0  0  0  0  0
  148.0510  136.5280  156.8666 H   0  0  0  0  0  0  0  0  0  0  0  0
  146.5137  136.9184  158.7329 H   0  0  0  0  0  0  0  0  0  0  0  0
  146.2052  138.0930  157.4577 H   0  0  0  0  0  0  0  0  0  0  0  0
  147.0847  138.5751  158.9086 H   0  0  0  0  0  0  0  0  0  0  0  0
  150.4998  143.6480  158.0952 H   0  0  0  0  0  0  0  0  0  0  0  0
  150.6763  145.0865  159.9580 H   0  0  0  0  0  0  0  0  0  0  0  0
  152.2311  145.0582  160.7873 H   0  0  0  0  0  0  0  0  0  0  0  0
  150.8330  144.2313  161.4915 H   0  0  0  0  0  0  0  0  0  0  0  0
  1  2  1  0  0  0  0
  1 23  1  0  0  0  0
  1 24  1  0  0  0  0
  1 25  1  0  0  0  0
  2 21  1  0  0  0  0
  2  3  2  0  0  0  0
  3  4  1  0  0  0  0
  3 26  1  0  0  0  0
  4 19  2  0  0  0  0
  4  5  1  0  0  0  0
  5  6  2  0  0  0  0
  6  7  1  0  0  0  0
  6 27  1  0  0  0  0
  7  8  1  0  0  0  0
  7 19  1  0  0  0  0
  8  9  1  0  0  0  0
  8 28  1  0  0  0  0
  8 29  1  0  0  0  0
  9 10  1  0  0  0  0
  9 11  1  0  0  0  0
  9 30  1  0  0  0  0
 10 31  1  0  0  0  0
 11 12  1  0  0  0  0
 11 32  1  0  0  0  0
 11 33  1  0  0  0  0
 12 13  1  0  0  0  0
 12 14  1  0  0  0  0
 13 34  1  0  0  0  0
 13 35  1  0  0  0  0
 13 36  1  0  0  0  0
 14 15  1  0  0  0  0
 14 37  1  0  0  0  0
 14 38  1  0  0  0  0
 15 16  1  0  0  0  0
 15 17  1  0  0  0  0
 15 39  1  0  0  0  0
 16 40  1  0  0  0  0
 16 41  1  0  0  0  0
 16 42  1  0  0  0  0
 17 18  3  0  0  0  0
 19 20  1  0  0  0  0
 20 21  2  0  0  0  0
 20 43  1  0  0  0  0
 21 22  1  0  0  0  0
 22 44  1  0  0  0  0
 22 45  1  0  0  0  0
 22 46  1  0  0  0  0
M  END
> <s_m_source_file>
AV-unprocessed.smi

> <i_m_source_file_index>
1535

> <i_lp_mmshare_version>
43012

> <i_f3d_flags>
0

> <s_epik_input>
W0NIM11jKFtjSF0xKWMoW0NIM10pW2NIXWMoYzEyKW4oW2NIXW4yKVtDSDJdW0NASF0oW09IXSlbQ0gyXU4oW0NIM10pW0NIMl1bQ0BIXShbQ0gzXSlDI04=

> <s_epik_cmdline>
J2VwaWtfcHl0aG9uJywgJy1waCcsICc3LjAnLCAnLXRuJywgJzgnLCAnLW1hJywgJzIwMCcsICctbWV0YWxfYmluZGluZycsICctaW1hZScsICc8aW5maWxlLm1hZT4nLCAnLW9tYWUnLCAnPG91dGZpbGUubWFlPic=

> <r_epik_Ionization_Penalty>
0.098511

> <r_epik_Ionization_Penalty_Charging>
0

> <r_epik_Ionization_Penalty_Neutral>
0.098511

> <r_epik_State_Penalty>
0.0881608

> <r_epik_Charging_Adjusted_Penalty>
0.0881608

> <i_epik_Tot_Q>
0

> <i_epik_Tot_abs_Q>
0

> <r_epik_Metal_State_Penalty>
0.0128087

> <b_epik_Metal_Only>
0

> <s_lp_Force_Field>
OPLS_2005

> <r_lp_Energy>
27.6844

> <b_lp_Chiralities_Consistent>
1

> <s_lp_Variant>
AV-unprocessed.smi:1535-1

> <Gold.Version>
5.8.1

> <Gold.Id.Protein>
6NUR|6NUR_protein|mol2

> <Gold.PLP.Fitness>
48.5426

> <Gold.PLP.PLP>
-41.8213

> <Gold.PLP.part.hbond>
-5.0000

> <Gold.PLP.part.metal>
0.0000

> <Gold.PLP.part.buried>
-4.6561

> <Gold.PLP.part.nonpolar>
-30.0594

> <Gold.PLP.part.repulsive>
0.0000

> <Gold.PLP.ligand.clash>
0.0000

> <Gold.PLP.ligand.torsion>
2.2259

> <Gold.PLP.Chemscore.Hbond>
3.6588

> <Gold.PLP.Chemscore.CHOScore>
0.0000

> <Gold.PLP.Chemscore.Metal>
0.0000

> <Gold.Chemscore.Hbonds>
donor molecule, donor type, donor heavy atom, donor atom, acceptor molecule, acceptor atom, score
      L1  H    10    31       P1  7957  0.69
      P1  H  6896  6907       L1    18  1.00
      P1  H  7989  7998       L1    10  0.03
      P1  H  7997  8010       L1     5  1.00
      P1  H  8011  8017       L1    10  1.00

> <Gold.PLP.Chemscore.Internal.Correction>
0.1967

> <Gold.Rescore>
     Score         DG    S(hbond)    S(metal)    S(lipo)     H(rot)  DE(clash)    DE(int)     intcor
     17.45     -19.88       2.68        0.00     101.38       2.51       0.11       2.33       ----

> <Gold.Chemscore.Fitness>
17.4450

> <Gold.Chemscore.DG>
-19.8800

> <Gold.Chemscore.ZeroCoef>
-5.4800

> <Gold.Chemscore.Hbond>
2.6850

> <Gold.Chemscore.Metal>
0.0000

> <Gold.Chemscore.Lipo>
101.3776

> <Gold.Chemscore.Internal_Hbond>
0.0000

> <Gold.Chemscore.DEClash>
0.1079

> <Gold.Chemscore.DEInternal>
2.3270

> <Gold.Chemscore.Rot>
2.5113

> <Gold.Chemscore.Internal.Correction>
   9.000000E+99

> <Gold.Chemscore.Hbonds>
donor molecule, donor type, donor heavy atom, donor atom, acceptor molecule, acceptor atom, score
      L1  H    10    31       P1  7957  0.68
      P1  H  6896  6907       L1    18  0.96
      P1  H  7997  8010       L1     5  0.15
      P1  H  8011  8017       L1    10  0.38

> <Gold.Chemscore.Hbond.Weighted>
-8.9677

> <Gold.Chemscore.Metal.Weighted>
-0.0000

> <Gold.Chemscore.Lipo.Weighted>
-11.8612

> <Gold.Chemscore.Internal_Hbond.Weighted>
0.0000

> <Gold.Chemscore.DEClash.Weighted>
0.1079

> <Gold.Chemscore.DEInternal.Weighted>
2.3270

> <Gold.Chemscore.Rot.Weighted>
6.4289

> <Gold.Chemscore.Internal.Correction.Weighted>
   9.000000E+99

> <Gold.Protein.RotatedTorsions>
[ 6907 6896 6895 6894 ] final  -58.93 input  -60.11 | X-H torsion
[ 7974 7965 7964 7962 ] final   45.32 input  175.53 | X-H torsion
[ 8008 7997 7996 7995 ] final   43.53 input   59.86 | X-H torsion
[ 10167 10162 10161 10158 ] final   22.15 input  -65.29 | X-H torsion
[ 10718 10713 10712 10709 ] final -162.82 input   66.30 | X-H torsion
[ 10763 10752 10751 10750 ] final   93.93 input  -60.55 | X-H torsion
[ 11005 11000 10999 10996 ] final  164.40 input  -57.11 | X-H torsion

> <Gold.Protein.ActiveResidues>
 VAL166  LYS551  ARG553  GLY616  TRP617  ASP618  TYR619  PRO620  LYS621  CYS622 
 ASP623  PHE694  ASN695  SER759  ASP760  ASP761  ALA762  ILE779  LEU786  VAL792 
 PHE793  MET794  SER795  GLU796  ALA797  LYS798  CYS799  TRP800  GLU811  SER814 

> <Gold.Protein.RotatedAtoms>
  150.7969  134.7034  159.6562 H   0  0  0  0  0  0  0  0  0  0  0  0  # atno 6907 bound_to 6896
  152.4082  134.6167  160.0050 H   0  0  0  0  0  0  0  0  0  0  0  0  # atno 6908 bound_to 6896
  151.6418  133.3288  159.3168 H   0  0  0  0  0  0  0  0  0  0  0  0  # atno 6909 bound_to 6896
  146.0491  139.4978  142.9730 H   0  0  0  0  0  0  0  0  0  0  0  0  # atno 7974 bound_to 7965
  155.3042  140.3387  155.4246 H   0  0  0  0  0  0  0  0  0  0  0  0  # atno 8008 bound_to 7997
  156.1987  140.1724  156.7984 H   0  0  0  0  0  0  0  0  0  0  0  0  # atno 8009 bound_to 7997
  154.5531  140.0702  156.8684 H   0  0  0  0  0  0  0  0  0  0  0  0  # atno 8010 bound_to 7997
  140.5371  143.9741  150.6498 H   0  0  0  0  0  0  0  0  0  0  0  0  # atno 10167 bound_to 10162
  156.6158  130.8870  151.2947 H   0  0  0  0  0  0  0  0  0  0  0  0  # atno 10718 bound_to 10713
  153.2359  135.4307  155.0646 H   0  0  0  0  0  0  0  0  0  0  0  0  # atno 10763 bound_to 10752
  154.8318  135.3391  154.6720 H   0  0  0  0  0  0  0  0  0  0  0  0  # atno 10764 bound_to 10752
  153.7145  135.7021  153.5085 H   0  0  0  0  0  0  0  0  0  0  0  0  # atno 10765 bound_to 10752
  140.2455  134.8018  157.3452 H   0  0  0  0  0  0  0  0  0  0  0  0  # atno 11005 bound_to 11000
  145.6755  141.0205  143.1634 LP  0  0  0  0  0  0  0  0  0  0  0  0  # atno 17320 bound_to 7965
  144.7113  139.8361  143.7413 LP  0  0  0  0  0  0  0  0  0  0  0  0  # atno 17321 bound_to 7965
  140.3132  143.3185  152.0858 LP  0  0  0  0  0  0  0  0  0  0  0  0  # atno 17342 bound_to 10162
  139.4975  144.6623  151.6437 LP  0  0  0  0  0  0  0  0  0  0  0  0  # atno 17343 bound_to 10162
  157.7241  130.9599  150.1562 LP  0  0  0  0  0  0  0  0  0  0  0  0  # atno 17370 bound_to 10713
  156.2352  130.3686  149.8399 LP  0  0  0  0  0  0  0  0  0  0  0  0  # atno 17371 bound_to 10713
  140.1610  134.4728  155.7895 LP  0  0  0  0  0  0  0  0  0  0  0  0  # atno 17394 bound_to 11000
  141.2206  133.6901  156.7544 LP  0  0  0  0  0  0  0  0  0  0  0  0  # atno 17395 bound_to 11000

$$$$
