AV-unprocessed.smi:3238|AV-procd|sdf|12377|dock1
  -GOLD-   2272018233D 1   1.00000     0.00000
 Structure written by MMmdl.
 37 39  0  0  0  0  0  0  0  0  1 V2000
  145.6604  142.8685  155.9256 C   0  0  0  0  0  0  0  0  0  0  0  0
  146.9383  142.6294  155.2721 N   0  0  0  0  0  0  0  0  0  0  0  0
  147.2060  141.5627  154.5049 C   0  0  0  0  0  0  0  0  0  0  0  0
  146.3822  140.6735  154.2835 O   0  0  0  0  0  0  0  0  0  0  0  0
  148.6126  141.5129  153.8943 C   0  0  0  0  0  0  0  0  0  0  0  0
  149.6589  141.1361  154.8974 C   0  0  0  0  0  0  0  0  0  0  0  0
  150.4790  140.1125  154.6879 N   0  0  0  0  0  0  0  0  0  0  0  0
  151.2939  140.1115  155.8286 O   0  0  0  0  0  0  0  0  0  0  0  0
  150.8582  141.1393  156.5960 C   0  0  0  0  0  0  0  0  0  0  0  0
  151.5672  141.4395  157.8756 C   0  0  0  0  0  0  0  0  0  0  0  0
  151.1828  142.8099  158.4677 C   0  0  2  0  0  0  0  0  0  0  0  0
  151.6302  144.0157  157.6078 C   0  0  0  0  0  0  0  0  0  0  0  0
  152.4483  144.8652  158.5969 C   0  0  1  0  0  0  0  0  0  0  0  0
  151.5078  145.4809  159.6494 C   0  0  0  0  0  0  0  0  0  0  0  0
  151.1275  144.2651  160.5158 C   0  0  0  0  0  0  0  0  0  0  0  0
  151.8697  143.1074  159.8205 C   0  0  2  0  0  0  0  0  0  0  0  0
  153.1680  143.7909  159.4020 C   0  0  0  0  0  0  0  0  0  0  0  0
  149.8530  141.8246  156.0569 N   0  0  0  0  0  0  0  0  0  0  0  0
  145.6908  143.8145  156.4661 H   0  0  0  0  0  0  0  0  0  0  0  0
  145.4338  142.0747  156.6384 H   0  0  0  0  0  0  0  0  0  0  0  0
  144.8531  142.9203  155.1938 H   0  0  0  0  0  0  0  0  0  0  0  0
  147.6629  143.3196  155.4075 H   0  0  0  0  0  0  0  0  0  0  0  0
  148.6166  140.7956  153.0726 H   0  0  0  0  0  0  0  0  0  0  0  0
  148.8632  142.4852  153.4675 H   0  0  0  0  0  0  0  0  0  0  0  0
  151.3227  140.6509  158.5879 H   0  0  0  0  0  0  0  0  0  0  0  0
  152.6424  141.3766  157.7060 H   0  0  0  0  0  0  0  0  0  0  0  0
  150.1002  142.8255  158.6034 H   0  0  0  0  0  0  0  0  0  0  0  0
  152.2623  143.7016  156.7763 H   0  0  0  0  0  0  0  0  0  0  0  0
  150.7845  144.5629  157.1898 H   0  0  0  0  0  0  0  0  0  0  0  0
  153.0999  145.5929  158.1125 H   0  0  0  0  0  0  0  0  0  0  0  0
  152.0277  146.2308  160.2471 H   0  0  0  0  0  0  0  0  0  0  0  0
  150.6381  145.9576  159.1955 H   0  0  0  0  0  0  0  0  0  0  0  0
  151.4874  144.3962  161.5373 H   0  0  0  0  0  0  0  0  0  0  0  0
  150.0496  144.1050  160.5621 H   0  0  0  0  0  0  0  0  0  0  0  0
  151.9941  142.2317  160.4584 H   0  0  0  0  0  0  0  0  0  0  0  0
  153.8206  143.1599  158.7966 H   0  0  0  0  0  0  0  0  0  0  0  0
  153.7381  144.1897  160.2430 H   0  0  0  0  0  0  0  0  0  0  0  0
  1  2  1  0  0  0  0
  1 19  1  0  0  0  0
  1 20  1  0  0  0  0
  1 21  1  0  0  0  0
  2  3  1  0  0  0  0
  2 22  1  0  0  0  0
  3  4  2  0  0  0  0
  3  5  1  0  0  0  0
  5  6  1  0  0  0  0
  5 23  1  0  0  0  0
  5 24  1  0  0  0  0
  6 18  1  0  0  0  0
  6  7  2  0  0  0  0
  7  8  1  0  0  0  0
  8  9  1  0  0  0  0
  9 10  1  0  0  0  0
  9 18  2  0  0  0  0
 10 11  1  0  0  0  0
 10 25  1  0  0  0  0
 10 26  1  0  0  0  0
 11 16  1  0  0  0  0
 11 12  1  0  0  0  0
 11 27  1  0  0  0  0
 12 13  1  0  0  0  0
 12 28  1  0  0  0  0
 12 29  1  0  0  0  0
 13 17  1  0  0  0  0
 13 14  1  0  0  0  0
 13 30  1  0  0  0  0
 14 15  1  0  0  0  0
 14 31  1  0  0  0  0
 14 32  1  0  0  0  0
 15 16  1  0  0  0  0
 15 33  1  0  0  0  0
 15 34  1  0  0  0  0
 16 17  1  0  0  0  0
 16 35  1  0  0  0  0
 17 36  1  0  0  0  0
 17 37  1  0  0  0  0
M  END
> <s_m_source_file>
AV-unprocessed.smi

> <i_m_source_file_index>
3238

> <i_lp_mmshare_version>
43012

> <i_f3d_flags>
0

> <s_epik_input>
W0NIM11bTkhdQyg9TylbQ0gyXWMxbm9jKG4xKVtDSDJdW0NASF0oW0NIMl1bQ0BIXTIzKVtDQEhdKFtDSDJdMylbQ0gyXVtDSDJdMg==

> <s_epik_cmdline>
J2VwaWtfcHl0aG9uJywgJy1waCcsICc3LjAnLCAnLXRuJywgJzgnLCAnLW1hJywgJzIwMCcsICctbWV0YWxfYmluZGluZycsICctaW1hZScsICc8aW5maWxlLm1hZT4nLCAnLW9tYWUnLCAnPG91dGZpbGUubWFlPic=

> <r_lp_tautomer_probability>
1

> <r_epik_Ionization_Penalty>
1.02915e-07

> <r_epik_Ionization_Penalty_Charging>
0

> <r_epik_Ionization_Penalty_Neutral>
1.02915e-07

> <r_epik_State_Penalty>
-0

> <r_epik_Charging_Adjusted_Penalty>
0

> <i_epik_Tot_Q>
0

> <i_epik_Tot_abs_Q>
0

> <r_epik_Metal_State_Penalty>
-0

> <b_epik_Metal_Only>
0

> <s_lp_Force_Field>
OPLS_2005

> <r_lp_Energy>
47.6747

> <b_lp_Chiralities_Consistent>
1

> <s_lp_Variant>
AV-unprocessed.smi:3238-3

> <Gold.Version>
5.8.1

> <Gold.Id.Protein>
6NUR|6NUR_protein|mol2

> <Gold.PLP.Fitness>
45.9726

> <Gold.PLP.PLP>
-40.6254

> <Gold.PLP.part.hbond>
-2.0000

> <Gold.PLP.part.metal>
0.0000

> <Gold.PLP.part.buried>
-4.0782

> <Gold.PLP.part.nonpolar>
-35.2020

> <Gold.PLP.part.repulsive>
0.5802

> <Gold.PLP.ligand.clash>
0.0000

> <Gold.PLP.ligand.torsion>
0.3437

> <Gold.PLP.Chemscore.Hbond>
2.0000

> <Gold.PLP.Chemscore.CHOScore>
0.0000

> <Gold.PLP.Chemscore.Metal>
0.0000

> <Gold.Chemscore.Hbonds>
donor molecule, donor type, donor heavy atom, donor atom, acceptor molecule, acceptor atom, score
      L1  H     2    22       P1  8028  1.00
      P1  H  7989  7998       L1     7  1.00

> <Gold.PLP.Chemscore.Internal.Correction>
0.0347

> <Gold.Rescore>
     Score         DG    S(hbond)    S(metal)    S(lipo)     H(rot)  DE(clash)    DE(int)     intcor
     14.10     -14.65       0.66        0.00      99.84       1.85       0.25       0.29       ----

> <Gold.Chemscore.Fitness>
14.0996

> <Gold.Chemscore.DG>
-14.6482

> <Gold.Chemscore.ZeroCoef>
-5.4800

> <Gold.Chemscore.Hbond>
0.6648

> <Gold.Chemscore.Metal>
0.0000

> <Gold.Chemscore.Lipo>
99.8431

> <Gold.Chemscore.Internal_Hbond>
0.0000

> <Gold.Chemscore.DEClash>
0.2538

> <Gold.Chemscore.DEInternal>
0.2948

> <Gold.Chemscore.Rot>
1.8492

> <Gold.Chemscore.Internal.Correction>
   9.000000E+99

> <Gold.Chemscore.Hbonds>
donor molecule, donor type, donor heavy atom, donor atom, acceptor molecule, acceptor atom, score
      L1  H     2    22       P1  8028  0.26
      P1  H  7989  7998       L1     7  0.07

> <Gold.Chemscore.Hbond.Weighted>
-2.2206

> <Gold.Chemscore.Metal.Weighted>
-0.0000

> <Gold.Chemscore.Lipo.Weighted>
-11.6816

> <Gold.Chemscore.Internal_Hbond.Weighted>
0.0000

> <Gold.Chemscore.DEClash.Weighted>
0.2538

> <Gold.Chemscore.DEInternal.Weighted>
0.2948

> <Gold.Chemscore.Rot.Weighted>
4.7340

> <Gold.Chemscore.Internal.Correction.Weighted>
   9.000000E+99

> <Gold.Protein.RotatedTorsions>
[ 6907 6896 6895 6894 ] final -129.99 input  -60.11 | X-H torsion
[ 7974 7965 7964 7962 ] final  -74.12 input  175.53 | X-H torsion
[ 8008 7997 7996 7995 ] final -123.56 input   59.86 | X-H torsion
[ 10167 10162 10161 10158 ] final  176.81 input  -65.29 | X-H torsion
[ 10718 10713 10712 10709 ] final -133.70 input   66.30 | X-H torsion
[ 10763 10752 10751 10750 ] final   39.82 input  -60.55 | X-H torsion
[ 11005 11000 10999 10996 ] final -106.88 input  -57.11 | X-H torsion

> <Gold.Protein.ActiveResidues>
 VAL166  LYS551  ARG553  GLY616  TRP617  ASP618  TYR619  PRO620  LYS621  CYS622 
 ASP623  PHE694  ASN695  SER759  ASP760  ASP761  ALA762  ILE779  LEU786  VAL792 
 PHE793  MET794  SER795  GLU796  ALA797  LYS798  CYS799  TRP800  GLU811  SER814 

> <Gold.Protein.RotatedAtoms>
  150.9348  133.6725  159.2802 H   0  0  0  0  0  0  0  0  0  0  0  0  # atno 6907 bound_to 6896
  151.4135  135.0987  159.9602 H   0  0  0  0  0  0  0  0  0  0  0  0  # atno 6908 bound_to 6896
  152.5042  133.8815  159.7404 H   0  0  0  0  0  0  0  0  0  0  0  0  # atno 6909 bound_to 6896
  145.6432  140.9304  143.1024 H   0  0  0  0  0  0  0  0  0  0  0  0  # atno 7974 bound_to 7965
  155.1826  140.0411  157.2885 H   0  0  0  0  0  0  0  0  0  0  0  0  # atno 8008 bound_to 7997
  154.6193  140.2497  155.7541 H   0  0  0  0  0  0  0  0  0  0  0  0  # atno 8009 bound_to 7997
  156.2424  140.2898  156.0494 H   0  0  0  0  0  0  0  0  0  0  0  0  # atno 8010 bound_to 7997
  139.5228  144.2872  152.0495 H   0  0  0  0  0  0  0  0  0  0  0  0  # atno 10167 bound_to 10162
  156.2477  130.7134  151.1021 H   0  0  0  0  0  0  0  0  0  0  0  0  # atno 10718 bound_to 10713
  152.9955  135.6209  154.2526 H   0  0  0  0  0  0  0  0  0  0  0  0  # atno 10763 bound_to 10752
  154.2264  135.2794  155.2907 H   0  0  0  0  0  0  0  0  0  0  0  0  # atno 10764 bound_to 10752
  154.5486  135.5740  153.6960 H   0  0  0  0  0  0  0  0  0  0  0  0  # atno 10765 bound_to 10752
  141.0982  133.8932  157.1909 H   0  0  0  0  0  0  0  0  0  0  0  0  # atno 11005 bound_to 11000
  144.7149  139.8232  143.7402 LP  0  0  0  0  0  0  0  0  0  0  0  0  # atno 17320 bound_to 7965
  146.1263  139.4290  143.0196 LP  0  0  0  0  0  0  0  0  0  0  0  0  # atno 17321 bound_to 7965
  140.2325  144.4354  150.6294 LP  0  0  0  0  0  0  0  0  0  0  0  0  # atno 17342 bound_to 10162
  140.6346  143.2193  151.6423 LP  0  0  0  0  0  0  0  0  0  0  0  0  # atno 17343 bound_to 10162
  157.7202  131.0686  150.6168 LP  0  0  0  0  0  0  0  0  0  0  0  0  # atno 17370 bound_to 10713
  156.6246  130.4415  149.5809 LP  0  0  0  0  0  0  0  0  0  0  0  0  # atno 17371 bound_to 10713
  139.9825  135.0093  156.9784 LP  0  0  0  0  0  0  0  0  0  0  0  0  # atno 17394 bound_to 11000
  140.5087  134.1023  155.7265 LP  0  0  0  0  0  0  0  0  0  0  0  0  # atno 17395 bound_to 11000

$$$$
