#       Name:                AV-unprocessed.smi:445
#       Creating user name   scv26
#       Creation time:       Thu Mar 26 22:58:48 2020


#       File generated by GOLD software.
#

@<TRIPOS>MOLECULE
AV-unprocessed.smi:445
    52    53     1
SMALL
NO_CHARGES


@<TRIPOS>ATOM
      1 ****        -2.4459   0.1817   1.1017 C.3            1 S1                 0.0000
      2 ****        -2.1999  -0.8756   0.0097 C.3            1 S1                 0.0000
      3 ****        -3.4596  -1.7382  -0.2070 C.3            1 S1                 0.0000
      4 ****        -3.2351  -2.8183  -1.2763 C.3            1 S1                 0.0000
      5 ****        -2.7778  -2.1947  -2.6019 C.3            1 S1                 0.0000
      6 ****        -1.5175  -1.3401  -2.4037 C.3            1 S1                 0.0000
      7 ****        -1.7302  -0.2529  -1.3288 C.3            1 S1                 0.0000
      8 ****        -0.4948   0.4972  -1.1247 N.am           1 S1                 0.0000
      9 ****        -0.0435   1.5010  -1.8957 C.2            1 S1                 0.0000
     10 ****        -0.6393   1.8899  -2.8993 O.2            1 S1                 0.0000
     11 ****         1.2694   2.1942  -1.4909 C.3            1 S1                 0.0000
     12 ****         1.8620   1.7133  -0.2269 N.am           1 S1                 0.0000
     13 ****         1.4949   2.4128   0.9363 C.2            1 S1                 0.0000
     14 ****         1.9575   2.0756   2.1528 C.2            1 S1                 0.0000
     15 ****         1.5570   2.8069   3.3357 N.pl3          1 S1                 1.0000
     16 ****         2.0257   2.4762   4.4202 O.2            1 S1                 0.0000
     17 ****         0.7616   3.7346   3.2215 O.2            1 S1                -1.0000
     18 ****         2.8649   0.9505   2.2434 C.2            1 S1                 0.0000
     19 ****         3.2282   0.2557   1.1350 C.2            1 S1                 0.0000
     20 ****         4.1453  -0.9052   1.1824 C.2            1 S1                 0.0000
     21 ****         4.6332  -1.1740   2.4001 N.am           1 S1                 0.0000
     22 ****         4.4868  -1.6165   0.2378 O.2            1 S1                 0.0000
     23 ****         2.7031   0.6320  -0.2060 C.2            1 S1                 0.0000
     24 ****         2.9685   0.0432  -1.2571 O.2            1 S1                 0.0000
     25 ****        -3.2091   0.8973   0.7942 H              1 S1                 0.0000
     26 ****        -1.5396   0.7411   1.3355 H              1 S1                 0.0000
     27 ****        -2.7826  -0.2847   2.0279 H              1 S1                 0.0000
     28 ****        -1.4089  -1.5357   0.3699 H              1 S1                 0.0000
     29 ****        -3.7526  -2.2126   0.7301 H              1 S1                 0.0000
     30 ****        -4.2948  -1.1022  -0.5040 H              1 S1                 0.0000
     31 ****        -2.4856  -3.5298  -0.9275 H              1 S1                 0.0000
     32 ****        -4.1530  -3.3863  -1.4299 H              1 S1                 0.0000
     33 ****        -2.5842  -2.9787  -3.3345 H              1 S1                 0.0000
     34 ****        -3.5781  -1.5777  -3.0124 H              1 S1                 0.0000
     35 ****        -0.6850  -1.9846  -2.1167 H              1 S1                 0.0000
     36 ****        -1.2386  -0.8831  -3.3539 H              1 S1                 0.0000
     37 ****        -2.5048   0.4345  -1.6750 H              1 S1                 0.0000
     38 ****         0.0587   0.2384  -0.3211 H              1 S1                 0.0000
     39 ****         1.9794   2.0928  -2.3134 H              1 S1                 0.0000
     40 ****         1.0770   3.2663  -1.4277 H              1 S1                 0.0000
     41 ****         0.8086   3.2307   0.7685 H              1 S1                 0.0000
     42 ****         3.2383   0.6795   3.2196 H              1 S1                 0.0000
     43 ****         5.2657  -1.9492   2.5343 H              1 S1                 0.0000
     44 ****         4.3624  -0.5978   3.1840 H              1 S1                 0.0000
     45 ****        -1.4976   1.4548  -3.1713 LP             1 S1                 0.0000
     46 ****        -0.2652   2.6411  -3.4432 LP             1 S1                 0.0000
     47 ****         2.6714   1.7144   4.4745 LP             1 S1                 0.0000
     48 ****         1.7622   2.9683   5.2498 LP             1 S1                 0.0000
     49 ****         4.1350  -1.4320  -0.6799 LP             1 S1                 0.0000
     50 ****         5.1162  -2.3790   0.3880 LP             1 S1                 0.0000
     51 ****         2.5703   0.3556  -2.1195 LP             1 S1                 0.0000
     52 ****         3.5819  -0.7465  -1.2467 LP             1 S1                 0.0000
@<TRIPOS>BOND
    1    1    2 1     
    2    1   25 1     
    3    1   26 1     
    4    1   27 1     
    5    2    7 1     
    6    2    3 1     
    7    2   28 1     
    8    3    4 1     
    9    3   29 1     
   10    3   30 1     
   11    4    5 1     
   12    4   31 1     
   13    4   32 1     
   14    5    6 1     
   15    5   33 1     
   16    5   34 1     
   17    6    7 1     
   18    6   35 1     
   19    6   36 1     
   20    7    8 1     
   21    7   37 1     
   22    8    9 am    
   23    8   38 1     
   24    9   10 2     
   25    9   11 1     
   26   11   12 1     
   27   11   39 1     
   28   11   40 1     
   29   12   23 am    
   30   12   13 1     
   31   13   14 2     
   32   13   41 1     
   33   14   15 1     
   34   14   18 1     
   35   15   16 2     
   36   15   17 1     
   37   18   19 2     
   38   18   42 1     
   39   19   20 1     
   40   19   23 1     
   41   20   21 am    
   42   20   22 2     
   43   21   43 1     
   44   21   44 1     
   45   23   24 2     
   46   10   45 1     
   47   10   46 1     
   48   16   47 1     
   49   16   48 1     
   50   22   49 1     
   51   22   50 1     
   52   24   51 1     
   53   24   52 1     
@<TRIPOS>SUBSTRUCTURE
      1 S1             1
@<TRIPOS>SET
LONE_PAIRS      STATIC     ATOMS    <user>   **** ""
9 45 46 47 48 17 49 50 51 52
DONOR_HYDROGENS      STATIC     ATOMS    <user>   **** ""
3 38 43 44
ATOM$BLUE        STATIC     ATOMS    COLORGROUP SYSTEM
9 45 46 47 48 17 49 50 51 52
ATOM$RED        STATIC     ATOMS    COLORGROUP SYSTEM
3 38 43 44
