#       Name:                AV-unprocessed.smi:780
#       Creating user name   scv26
#       Creation time:       Fri Mar 27 01:12:59 2020


#       File generated by GOLD software.
#

@<TRIPOS>MOLECULE
AV-unprocessed.smi:780
    54    55     1
SMALL
NO_CHARGES


@<TRIPOS>ATOM
      1 ****        -2.9341  -1.4146  -1.5796 C.3            1 S1                 0.0000
      2 ****        -2.7989  -0.9339  -0.1496 C.2            1 S1                 0.0000
      3 ****        -2.8870   0.4761   0.1672 C.2            1 S1                 0.0000
      4 ****        -2.7541   0.8683   1.4437 C.2            1 S1                 0.0000
      5 ****        -2.5304  -0.0505   2.4855 N.am           1 S1                 0.0000
      6 ****        -2.3407   0.5075   3.8385 C.3            1 S1                 0.0000
      7 ****        -0.8774   0.8310   4.1931 C.2            1 S1                 0.0000
      8 ****        -0.6172   1.3529   5.2762 O.2            1 S1                 0.0000
      9 ****         0.0625   0.5378   3.2826 N.am           1 S1                 0.0000
     10 ****         1.4867   0.8122   3.3940 C.3            1 S1                 0.0000
     11 ****         2.2377   0.2201   2.1898 C.3            1 S1                 0.0000
     12 ****         1.7507   0.7612   0.8357 C.3            1 S1                 0.0000
     13 ****         2.4364   0.0855  -0.2074 O.3            1 S1                 0.0000
     14 ****         2.0034   0.4370  -1.5160 C.3            1 S1                 0.0000
     15 ****         0.7056  -0.3126  -1.8903 C.3            1 S1                 0.0000
     16 ****         0.3018  -0.0434  -3.3489 C.3            1 S1                 0.0000
     17 ****         1.4405  -0.3949  -4.3191 C.3            1 S1                 0.0000
     18 ****         2.7345   0.3470  -3.9489 C.3            1 S1                 0.0000
     19 ****         3.1357   0.0695  -2.4912 C.3            1 S1                 0.0000
     20 ****        -2.4426  -1.3953   2.2543 C.2            1 S1                 0.0000
     21 ****        -2.2351  -2.2035   3.1593 O.2            1 S1                 0.0000
     22 ****        -2.5911  -1.8130   0.8553 C.2            1 S1                 0.0000
     23 ****        -2.8666  -0.5827  -2.2811 H              1 S1                 0.0000
     24 ****        -3.8961  -1.9071  -1.7236 H              1 S1                 0.0000
     25 ****        -2.1425  -2.1247  -1.8215 H              1 S1                 0.0000
     26 ****        -3.0526   1.2062  -0.6114 H              1 S1                 0.0000
     27 ****        -2.7993   1.9043   1.7473 H              1 S1                 0.0000
     28 ****        -2.9251   1.4228   3.9449 H              1 S1                 0.0000
     29 ****        -2.7394  -0.1695   4.5959 H              1 S1                 0.0000
     30 ****        -0.2429   0.1075   2.4219 H              1 S1                 0.0000
     31 ****         1.6445   1.8905   3.4449 H              1 S1                 0.0000
     32 ****         1.8720   0.3842   4.3206 H              1 S1                 0.0000
     33 ****         3.3044   0.4191   2.2958 H              1 S1                 0.0000
     34 ****         2.1284  -0.8652   2.2013 H              1 S1                 0.0000
     35 ****         0.6766   0.6093   0.7355 H              1 S1                 0.0000
     36 ****         1.9352   1.8345   0.7714 H              1 S1                 0.0000
     37 ****         1.8380   1.5146  -1.5742 H              1 S1                 0.0000
     38 ****         0.8457  -1.3843  -1.7434 H              1 S1                 0.0000
     39 ****        -0.1152  -0.0179  -1.2380 H              1 S1                 0.0000
     40 ****        -0.5899  -0.6185  -3.5994 H              1 S1                 0.0000
     41 ****         0.0341   1.0077  -3.4646 H              1 S1                 0.0000
     42 ****         1.6180  -1.4709  -4.2992 H              1 S1                 0.0000
     43 ****         1.1490  -0.1482  -5.3404 H              1 S1                 0.0000
     44 ****         3.5395   0.0466  -4.6200 H              1 S1                 0.0000
     45 ****         2.5958   1.4194  -4.0920 H              1 S1                 0.0000
     46 ****         4.0366   0.6313  -2.2427 H              1 S1                 0.0000
     47 ****         3.3893  -0.9857  -2.3792 H              1 S1                 0.0000
     48 ****        -2.5245  -2.8667   0.6253 H              1 S1                 0.0000
     49 ****        -1.3534   1.5641   5.9192 LP             1 S1                 0.0000
     50 ****         0.3305   1.5660   5.5137 LP             1 S1                 0.0000
     51 ****         2.3005  -0.8978  -0.0860 LP             1 S1                 0.0000
     52 ****         3.4104   0.2992  -0.1318 LP             1 S1                 0.0000
     53 ****        -2.1247  -1.8832   4.1002 LP             1 S1                 0.0000
     54 ****        -2.1769  -3.1804   2.9537 LP             1 S1                 0.0000
@<TRIPOS>BOND
    1    1    2 1     
    2    1   23 1     
    3    1   24 1     
    4    1   25 1     
    5    2   22 2     
    6    2    3 1     
    7    3    4 2     
    8    3   26 1     
    9    4    5 1     
   10    4   27 1     
   11    5    6 1     
   12    5   20 am    
   13    6    7 1     
   14    6   28 1     
   15    6   29 1     
   16    7    8 2     
   17    7    9 am    
   18    9   10 1     
   19    9   30 1     
   20   10   11 1     
   21   10   31 1     
   22   10   32 1     
   23   11   12 1     
   24   11   33 1     
   25   11   34 1     
   26   12   13 1     
   27   12   35 1     
   28   12   36 1     
   29   13   14 1     
   30   14   19 1     
   31   14   15 1     
   32   14   37 1     
   33   15   16 1     
   34   15   38 1     
   35   15   39 1     
   36   16   17 1     
   37   16   40 1     
   38   16   41 1     
   39   17   18 1     
   40   17   42 1     
   41   17   43 1     
   42   18   19 1     
   43   18   44 1     
   44   18   45 1     
   45   19   46 1     
   46   19   47 1     
   47   20   21 2     
   48   20   22 1     
   49   22   48 1     
   50    8   49 1     
   51    8   50 1     
   52   13   51 1     
   53   13   52 1     
   54   21   53 1     
   55   21   54 1     
@<TRIPOS>SUBSTRUCTURE
      1 S1             1
@<TRIPOS>SET
LONE_PAIRS      STATIC     ATOMS    <user>   **** ""
6 49 50 51 52 53 54
DONOR_HYDROGENS      STATIC     ATOMS    <user>   **** ""
1 30
ATOM$BLUE        STATIC     ATOMS    COLORGROUP SYSTEM
6 49 50 51 52 53 54
ATOM$RED        STATIC     ATOMS    COLORGROUP SYSTEM
1 30
