AV-unprocessed.smi:21|AV-procd|sdf|151|dock6
  -GOLD-   2262015373D 1   1.00000     0.00000
 Structure written by MMmdl.
 62 65  0  0  0  0  0  0  0  0  2 V2000
  142.0835  134.9201  153.1241 C   0  0  0  0  0  0  0  0  0  0  0  0
  143.4190  134.4398  153.1380 O   0  0  0  0  0  0  0  0  0  0  0  0
  144.2967  135.1639  152.2857 C   0  0  1  0  0  0  0  0  0  0  0  0
  144.3819  136.5997  152.7883 C   0  0  0  0  0  0  0  0  0  0  0  0
  145.4407  136.5349  153.8926 C   0  0  2  0  0  0  0  0  0  0  0  0
  146.1189  137.8878  154.1909 C   0  0  0  0  0  0  0  0  0  0  0  0
  147.0250  137.8209  155.3398 N   0  0  0  0  0  0  0  0  0  0  0  0
  146.4632  137.4397  156.6296 C   0  0  0  0  0  0  0  0  0  0  0  0
  148.2472  138.4233  155.2813 C   0  0  0  0  0  0  0  0  0  0  0  0
  148.8433  138.5435  154.0646 N   0  0  0  0  0  0  0  0  0  0  0  0
  150.0378  139.1271  153.9393 C   0  0  0  0  0  0  0  0  0  0  0  0
  150.8057  139.6621  154.8876 N   0  0  0  0  0  0  0  0  0  0  0  0
  150.2211  139.5523  156.1135 C   0  0  0  0  0  0  0  0  0  0  0  0
  148.9606  138.9511  156.4025 C   0  0  0  0  0  0  0  0  0  0  0  0
  148.7125  139.0426  157.7694 N   0  0  0  0  0  0  0  0  0  0  0  0
  149.7599  139.6494  158.2552 C   0  0  0  0  0  0  0  0  0  0  0  0
  150.7102  140.0025  157.3266 N   0  0  0  0  0  0  0  0  0  0  0  0
  151.9627  140.6934  157.5767 C   0  0  0  0  0  0  0  0  0  0  0  0
  152.1739  141.0181  159.0783 C   0  0  1  0  0  0  0  0  0  0  0  0
  153.0563  139.9507  159.7662 C   0  0  0  0  0  0  0  0  0  0  0  0
  154.3472  139.9068  159.1948 O   0  0  0  0  0  0  0  0  0  0  0  0
  152.7018  142.4573  159.3308 C   0  0  1  0  0  0  0  0  0  0  0  0
  152.0109  143.5769  158.5593 C   0  0  0  0  0  0  0  0  0  0  0  0
  152.2236  144.7756  159.4727 C   0  0  0  0  0  0  0  0  0  0  0  0
  152.0310  144.2196  160.7625 O   0  0  0  0  0  0  0  0  0  0  0  0
  152.6490  142.9376  160.7928 C   0  0  0  0  0  0  0  0  0  0  0  0
  146.4175  135.5282  153.4172 N   0  3  1  0  0  0  0  0  0  0  0  0
  147.0994  134.7867  154.5007 C   0  0  0  0  0  0  0  0  0  0  0  0
  145.7387  134.6521  152.4317 C   0  0  0  0  0  0  0  0  0  0  0  0
  143.9447  135.1346  151.2531 H   0  0  0  0  0  0  0  0  0  0  0  0
  144.9653  136.1497  154.7967 H   0  0  0  0  0  0  0  0  0  0  0  0
  141.4689  134.3047  153.7811 H   0  0  0  0  0  0  0  0  0  0  0  0
  141.6472  134.8811  152.1259 H   0  0  0  0  0  0  0  0  0  0  0  0
  142.0330  135.9480  153.4856 H   0  0  0  0  0  0  0  0  0  0  0  0
  144.7246  137.2445  151.9777 H   0  0  0  0  0  0  0  0  0  0  0  0
  143.4236  136.9861  153.1375 H   0  0  0  0  0  0  0  0  0  0  0  0
  146.7115  138.1913  153.3274 H   0  0  0  0  0  0  0  0  0  0  0  0
  145.3686  138.6705  154.3046 H   0  0  0  0  0  0  0  0  0  0  0  0
  147.1931  136.8911  157.2257 H   0  0  0  0  0  0  0  0  0  0  0  0
  145.5958  136.7923  156.4980 H   0  0  0  0  0  0  0  0  0  0  0  0
  146.1409  138.3207  157.1856 H   0  0  0  0  0  0  0  0  0  0  0  0
  150.4350  139.1721  152.9357 H   0  0  0  0  0  0  0  0  0  0  0  0
  149.8628  139.8668  159.3086 H   0  0  0  0  0  0  0  0  0  0  0  0
  152.7737  140.0710  157.1986 H   0  0  0  0  0  0  0  0  0  0  0  0
  151.9623  141.5974  156.9691 H   0  0  0  0  0  0  0  0  0  0  0  0
  151.1927  140.9691  159.5533 H   0  0  0  0  0  0  0  0  0  0  0  0
  153.1829  140.1697  160.8261 H   0  0  0  0  0  0  0  0  0  0  0  0
  152.5969  138.9642  159.6991 H   0  0  0  0  0  0  0  0  0  0  0  0
  154.9850  139.8876  159.8922 H   0  0  0  0  0  0  0  0  0  0  0  0
  153.7556  142.4849  159.0502 H   0  0  0  0  0  0  0  0  0  0  0  0
  152.4278  143.7266  157.5631 H   0  0  0  0  0  0  0  0  0  0  0  0
  150.9420  143.3978  158.4534 H   0  0  0  0  0  0  0  0  0  0  0  0
  153.2406  145.1613  159.3848 H   0  0  0  0  0  0  0  0  0  0  0  0
  151.5246  145.5884  159.2746 H   0  0  0  0  0  0  0  0  0  0  0  0
  152.0973  142.2721  161.4556 H   0  0  0  0  0  0  0  0  0  0  0  0
  153.6573  143.0323  161.1977 H   0  0  0  0  0  0  0  0  0  0  0  0
  146.3870  134.2031  155.0857 H   0  0  0  0  0  0  0  0  0  0  0  0
  147.6156  135.4714  155.1740 H   0  0  0  0  0  0  0  0  0  0  0  0
  147.8413  134.1042  154.0852 H   0  0  0  0  0  0  0  0  0  0  0  0
  145.7785  133.5988  152.7115 H   0  0  0  0  0  0  0  0  0  0  0  0
  146.2678  134.7515  151.4835 H   0  0  0  0  0  0  0  0  0  0  0  0
  147.1259  136.0328  152.9035 H   0  0  0  0  0  0  0  0  0  0  0  0
  1  2  1  0  0  0  0
  1 32  1  0  0  0  0
  1 33  1  0  0  0  0
  1 34  1  0  0  0  0
  2  3  1  0  0  0  0
  3 30  1  0  0  0  0
  3 29  1  0  0  0  0
  3  4  1  0  0  0  0
  4  5  1  0  0  0  0
  4 35  1  0  0  0  0
  4 36  1  0  0  0  0
  5 31  1  0  0  0  0
  5  6  1  0  0  0  0
  5 27  1  0  0  0  0
  6  7  1  0  0  0  0
  6 37  1  0  0  0  0
  6 38  1  0  0  0  0
  7  8  1  0  0  0  0
  7  9  1  0  0  0  0
  8 39  1  0  0  0  0
  8 40  1  0  0  0  0
  8 41  1  0  0  0  0
  9 14  1  0  0  0  0
  9 10  2  0  0  0  0
 10 11  1  0  0  0  0
 11 12  2  0  0  0  0
 11 42  1  0  0  0  0
 12 13  1  0  0  0  0
 13 17  1  0  0  0  0
 13 14  2  0  0  0  0
 14 15  1  0  0  0  0
 15 16  2  0  0  0  0
 16 17  1  0  0  0  0
 16 43  1  0  0  0  0
 17 18  1  0  0  0  0
 18 19  1  0  0  0  0
 18 44  1  0  0  0  0
 18 45  1  0  0  0  0
 19 20  1  0  0  0  0
 19 22  1  0  0  0  0
 19 46  1  0  0  0  0
 20 21  1  0  0  0  0
 20 47  1  0  0  0  0
 20 48  1  0  0  0  0
 21 49  1  0  0  0  0
 22 26  1  0  0  0  0
 22 23  1  0  0  0  0
 22 50  1  0  0  0  0
 23 24  1  0  0  0  0
 23 51  1  0  0  0  0
 23 52  1  0  0  0  0
 24 25  1  0  0  0  0
 24 53  1  0  0  0  0
 24 54  1  0  0  0  0
 25 26  1  0  0  0  0
 26 55  1  0  0  0  0
 26 56  1  0  0  0  0
 27 28  1  0  0  0  0
 27 29  1  0  0  0  0
 27 62  1  0  0  0  0
 28 57  1  0  0  0  0
 28 58  1  0  0  0  0
 28 59  1  0  0  0  0
 29 60  1  0  0  0  0
 29 61  1  0  0  0  0
M  CHG  1  27   1
M  END
> <s_m_source_file>
AV-unprocessed.smi

> <i_m_source_file_index>
21

> <i_lp_mmshare_version>
43012

> <i_f3d_flags>
0

> <s_epik_input>
W0NIM11PW0NASF0xW0NIMl1bQ0BIXShOKFtDSDNdKVtDSDJdMSlbQ0gyXU4oW0NIM10pYyhuW2NIXW4yKWMoYzIzKW5bY0hdbjNbQ0gyXVtDQEhdKFtDSDJdW09IXSlbQ0BASF00W0NIMl1bQ0gyXU9bQ0gyXTQ=

> <s_epik_cmdline>
J2VwaWtfcHl0aG9uJywgJy1waCcsICc3LjAnLCAnLXRuJywgJzgnLCAnLW1hJywgJzIwMCcsICctbWV0YWxfYmluZGluZycsICctaW1hZScsICc8aW5maWxlLm1hZT4nLCAnLW9tYWUnLCAnPG91dGZpbGUubWFlPic=

> <r_lp_tautomer_probability>
1

> <r_epik_Ionization_Penalty>
0.0157465

> <r_epik_Ionization_Penalty_Charging>
0.015354

> <r_epik_Ionization_Penalty_Neutral>
0.000392529

> <r_epik_State_Penalty>
0.0120612

> <r_epik_Charging_Adjusted_Penalty>
0.0274152

> <i_epik_Tot_Q>
1

> <i_epik_Tot_abs_Q>
1

> <r_epik_Metal_State_Penalty>
0.0121253

> <b_epik_Metal_Only>
0

> <s_lp_Force_Field>
OPLS_2005

> <r_lp_Energy>
59.9021

> <b_lp_Chiralities_Consistent>
1

> <s_lp_Variant>
AV-unprocessed.smi:21-31

> <Gold.Version>
5.8.1

> <Gold.Id.Protein>
6NUR|6NUR_protein|mol2

> <Gold.PLP.Fitness>
50.5366

> <Gold.PLP.PLP>
-39.2146

> <Gold.PLP.part.hbond>
-3.0000

> <Gold.PLP.part.metal>
0.0000

> <Gold.PLP.part.buried>
-5.8078

> <Gold.PLP.part.nonpolar>
-31.7318

> <Gold.PLP.part.repulsive>
0.5262

> <Gold.PLP.ligand.clash>
0.0000

> <Gold.PLP.ligand.torsion>
1.0315

> <Gold.PLP.Chemscore.Hbond>
3.3420

> <Gold.PLP.Chemscore.CHOScore>
1.0000

> <Gold.PLP.Chemscore.Metal>
0.0000

> <Gold.Chemscore.Hbonds>
donor molecule, donor type, donor heavy atom, donor atom, acceptor molecule, acceptor atom, score
      L1  H    27    62       P1  7948  1.62
      P1  H  7989  7998       L1    12  0.45
      P1  H  7997  8010       L1    21  0.99
      L1  C    11    42       P1  7957  1.00

> <Gold.PLP.Chemscore.Internal.Correction>
0.3590

> <Gold.Rescore>
     Score         DG    S(hbond)    S(metal)    S(lipo)     H(rot)  DE(clash)    DE(int)     intcor
     12.44     -15.18       1.88        0.00      96.51       3.08       0.67       2.07       ----

> <Gold.Chemscore.Fitness>
12.4387

> <Gold.Chemscore.DG>
-15.1786

> <Gold.Chemscore.ZeroCoef>
-5.4800

> <Gold.Chemscore.Hbond>
1.8807

> <Gold.Chemscore.Metal>
0.0000

> <Gold.Chemscore.Lipo>
96.5061

> <Gold.Chemscore.Internal_Hbond>
0.0000

> <Gold.Chemscore.DEClash>
0.6671

> <Gold.Chemscore.DEInternal>
2.0728

> <Gold.Chemscore.Rot>
3.0758

> <Gold.Chemscore.Internal.Correction>
   9.000000E+99

> <Gold.Chemscore.Hbonds>
donor molecule, donor type, donor heavy atom, donor atom, acceptor molecule, acceptor atom, score
      L1  H    27    62       P1  7948  0.78
      P1  H  7989  7998       L1    12  0.02
      P1  H  7997  8010       L1    21  0.75

> <Gold.Chemscore.Hbond.Weighted>
-6.2815

> <Gold.Chemscore.Metal.Weighted>
-0.0000

> <Gold.Chemscore.Lipo.Weighted>
-11.2912

> <Gold.Chemscore.Internal_Hbond.Weighted>
0.0000

> <Gold.Chemscore.DEClash.Weighted>
0.6671

> <Gold.Chemscore.DEInternal.Weighted>
2.0728

> <Gold.Chemscore.Rot.Weighted>
7.8741

> <Gold.Chemscore.Internal.Correction.Weighted>
   9.000000E+99

> <Gold.Protein.RotatedTorsions>
[ 6907 6896 6895 6894 ] final -176.55 input  -60.11 | X-H torsion
[ 7974 7965 7964 7962 ] final  -95.40 input  175.53 | X-H torsion
[ 8008 7997 7996 7995 ] final   -5.86 input   59.86 | X-H torsion
[ 10167 10162 10161 10158 ] final   65.15 input  -65.29 | X-H torsion
[ 10718 10713 10712 10709 ] final  -67.49 input   66.30 | X-H torsion
[ 10763 10752 10751 10750 ] final -126.92 input  -60.55 | X-H torsion
[ 11005 11000 10999 10996 ] final   32.66 input  -57.11 | X-H torsion

> <Gold.Protein.ActiveResidues>
 VAL166  LYS551  ARG553  GLY616  TRP617  ASP618  TYR619  PRO620  LYS621  CYS622 
 ASP623  PHE694  ASN695  SER759  ASP760  ASP761  ALA762  ILE779  LEU786  VAL792 
 PHE793  MET794  SER795  GLU796  ALA797  LYS798  CYS799  TRP800  GLU811  SER814 

> <Gold.Protein.RotatedAtoms>
  151.6065  133.3351  159.3058 H   0  0  0  0  0  0  0  0  0  0  0  0  # atno 6907 bound_to 6896
  150.8179  134.7375  159.6758 H   0  0  0  0  0  0  0  0  0  0  0  0  # atno 6908 bound_to 6896
  152.4274  134.5847  160.0009 H   0  0  0  0  0  0  0  0  0  0  0  0  # atno 6909 bound_to 6896
  145.3605  140.9491  143.2503 H   0  0  0  0  0  0  0  0  0  0  0  0  # atno 7974 bound_to 7965
  154.5996  140.2447  155.7810 H   0  0  0  0  0  0  0  0  0  0  0  0  # atno 8008 bound_to 7997
  156.2302  140.2969  156.0122 H   0  0  0  0  0  0  0  0  0  0  0  0  # atno 8009 bound_to 7997
  155.2233  140.0401  157.2942 H   0  0  0  0  0  0  0  0  0  0  0  0  # atno 8010 bound_to 7997
  140.1144  144.4789  150.6958 H   0  0  0  0  0  0  0  0  0  0  0  0  # atno 10167 bound_to 10162
  156.0555  130.4279  150.1862 H   0  0  0  0  0  0  0  0  0  0  0  0  # atno 10718 bound_to 10713
  154.8749  135.3979  154.3509 H   0  0  0  0  0  0  0  0  0  0  0  0  # atno 10763 bound_to 10752
  153.4295  135.7025  153.6245 H   0  0  0  0  0  0  0  0  0  0  0  0  # atno 10764 bound_to 10752
  153.4873  135.3756  155.2443 H   0  0  0  0  0  0  0  0  0  0  0  0  # atno 10765 bound_to 10752
  140.2712  134.3080  155.7827 H   0  0  0  0  0  0  0  0  0  0  0  0  # atno 11005 bound_to 11000
  144.8650  139.5121  143.6794 LP  0  0  0  0  0  0  0  0  0  0  0  0  # atno 17320 bound_to 7965
  146.2929  139.7192  142.9148 LP  0  0  0  0  0  0  0  0  0  0  0  0  # atno 17321 bound_to 7965
  140.6908  143.2375  151.5137 LP  0  0  0  0  0  0  0  0  0  0  0  0  # atno 17342 bound_to 10162
  139.5602  144.2175  152.1679 LP  0  0  0  0  0  0  0  0  0  0  0  0  # atno 17343 bound_to 10162
  156.9939  130.9902  151.3408 LP  0  0  0  0  0  0  0  0  0  0  0  0  # atno 17370 bound_to 10713
  157.5520  130.8189  149.8157 LP  0  0  0  0  0  0  0  0  0  0  0  0  # atno 17371 bound_to 10713
  141.2177  133.7468  156.9337 LP  0  0  0  0  0  0  0  0  0  0  0  0  # atno 17394 bound_to 11000
  140.1371  134.9318  157.2417 LP  0  0  0  0  0  0  0  0  0  0  0  0  # atno 17395 bound_to 11000

$$$$
