AV-unprocessed.smi:2000|AV-procd|sdf|8100|dock4
  -GOLD-   2272010323D 1   1.00000     0.00000
 Structure written by MMmdl.
 43 44  0  0  0  0  0  0  0  0  1 V2000
  144.2874  144.3668  158.3669 C   0  0  0  0  0  0  0  0  0  0  0  0
  145.1422  144.2621  159.6396 C   0  0  2  0  0  0  0  0  0  0  0  0
  146.4571  143.5177  159.3719 C   0  0  0  0  0  0  0  0  0  0  0  0
  147.2571  143.3176  160.2857 O   0  0  0  0  0  0  0  0  0  0  0  0
  146.6654  143.1068  158.1107 N   0  0  0  0  0  0  0  0  0  0  0  0
  147.8468  142.3830  157.6507 C   0  0  0  0  0  0  0  0  0  0  0  0
  147.7852  141.9688  156.1801 C   0  0  0  0  0  0  0  0  0  0  0  0
  146.6957  142.3844  155.3815 C   0  0  0  0  0  0  0  0  0  0  0  0
  146.6283  141.9815  154.0363 C   0  0  0  0  0  0  0  0  0  0  0  0
  147.6537  141.1602  153.5364 C   0  0  0  0  0  0  0  0  0  0  0  0
  148.6935  140.7417  154.2857 N   0  0  0  0  0  0  0  0  0  0  0  0
  148.7663  141.1305  155.5825 C   0  0  0  0  0  0  0  0  0  0  0  0
  149.8779  140.6878  156.3214 N   0  0  0  0  0  0  0  0  0  0  0  0
  150.6781  141.7833  156.8533 C   0  0  0  0  0  0  0  0  0  0  0  0
  151.7311  141.2359  157.8319 C   0  0  0  0  0  0  0  0  0  0  0  0
  152.5248  140.2481  157.1793 O   0  0  0  0  0  0  0  0  0  0  0  0
  151.7437  139.1470  156.7226 C   0  0  0  0  0  0  0  0  0  0  0  0
  150.6945  139.6428  155.7128 C   0  0  0  0  0  0  0  0  0  0  0  0
  144.1772  143.4092  160.9747 S   0  0  0  0  0  0  0  0  0  0  0  0
  144.2285  144.6150  162.3657 C   0  0  0  0  0  0  0  0  0  0  0  0
  142.7831  143.2942  160.5198 O   0  0  0  0  0  0  0  0  0  0  0  0
  144.8993  142.1975  161.3928 O   0  0  0  0  0  0  0  0  0  0  0  0
  144.8342  144.8575  157.5611 H   0  0  0  0  0  0  0  0  0  0  0  0
  143.3845  144.9491  158.5529 H   0  0  0  0  0  0  0  0  0  0  0  0
  143.9761  143.3838  158.0110 H   0  0  0  0  0  0  0  0  0  0  0  0
  145.3616  145.2683  159.9987 H   0  0  0  0  0  0  0  0  0  0  0  0
  145.9552  143.3038  157.4207 H   0  0  0  0  0  0  0  0  0  0  0  0
  148.7356  142.9717  157.8776 H   0  0  0  0  0  0  0  0  0  0  0  0
  147.9336  141.4746  158.2468 H   0  0  0  0  0  0  0  0  0  0  0  0
  145.9129  143.0048  155.7921 H   0  0  0  0  0  0  0  0  0  0  0  0
  145.8087  142.2909  153.4051 H   0  0  0  0  0  0  0  0  0  0  0  0
  147.6371  140.8276  152.5092 H   0  0  0  0  0  0  0  0  0  0  0  0
  151.1678  142.3043  156.0294 H   0  0  0  0  0  0  0  0  0  0  0  0
  150.0422  142.5106  157.3573 H   0  0  0  0  0  0  0  0  0  0  0  0
  152.3788  142.0419  158.1772 H   0  0  0  0  0  0  0  0  0  0  0  0
  151.2542  140.8088  158.7157 H   0  0  0  0  0  0  0  0  0  0  0  0
  152.4011  138.4150  156.2533 H   0  0  0  0  0  0  0  0  0  0  0  0
  151.2660  138.6509  157.5691 H   0  0  0  0  0  0  0  0  0  0  0  0
  150.0593  138.8159  155.3927 H   0  0  0  0  0  0  0  0  0  0  0  0
  151.1965  140.0317  154.8256 H   0  0  0  0  0  0  0  0  0  0  0  0
  143.5743  144.2687  163.1655 H   0  0  0  0  0  0  0  0  0  0  0  0
  143.8908  145.5916  162.0199 H   0  0  0  0  0  0  0  0  0  0  0  0
  145.2452  144.6899  162.7493 H   0  0  0  0  0  0  0  0  0  0  0  0
  1  2  1  0  0  0  0
  1 23  1  0  0  0  0
  1 24  1  0  0  0  0
  1 25  1  0  0  0  0
  2  3  1  0  0  0  0
  2 19  1  0  0  0  0
  2 26  1  0  0  0  0
  3  4  2  0  0  0  0
  3  5  1  0  0  0  0
  5  6  1  0  0  0  0
  5 27  1  0  0  0  0
  6  7  1  0  0  0  0
  6 28  1  0  0  0  0
  6 29  1  0  0  0  0
  7 12  1  0  0  0  0
  7  8  2  0  0  0  0
  8  9  1  0  0  0  0
  8 30  1  0  0  0  0
  9 10  2  0  0  0  0
  9 31  1  0  0  0  0
 10 11  1  0  0  0  0
 10 32  1  0  0  0  0
 11 12  2  0  0  0  0
 12 13  1  0  0  0  0
 13 18  1  0  0  0  0
 13 14  1  0  0  0  0
 14 15  1  0  0  0  0
 14 33  1  0  0  0  0
 14 34  1  0  0  0  0
 15 16  1  0  0  0  0
 15 35  1  0  0  0  0
 15 36  1  0  0  0  0
 16 17  1  0  0  0  0
 17 18  1  0  0  0  0
 17 37  1  0  0  0  0
 17 38  1  0  0  0  0
 18 39  1  0  0  0  0
 18 40  1  0  0  0  0
 19 20  1  0  0  0  0
 19 21  2  0  0  0  0
 19 22  2  0  0  0  0
 20 41  1  0  0  0  0
 20 42  1  0  0  0  0
 20 43  1  0  0  0  0
M  END
> <s_m_source_file>
AV-unprocessed.smi

> <i_m_source_file_index>
2000

> <i_lp_mmshare_version>
43012

> <i_f3d_flags>
0

> <s_epik_input>
W0NIM11TKD1PKSg9TylbQ0BIXShbQ0gzXSlDKD1PKVtOSF1bQ0gyXWMxW2NIXVtjSF1bY0hdbmMxTjJbQ0gyXVtDSDJdT1tDSDJdW0NIMl0y

> <s_epik_cmdline>
J2VwaWtfcHl0aG9uJywgJy1waCcsICc3LjAnLCAnLXRuJywgJzgnLCAnLW1hJywgJzIwMCcsICctbWV0YWxfYmluZGluZycsICctaW1hZScsICc8aW5maWxlLm1hZT4nLCAnLW9tYWUnLCAnPG91dGZpbGUubWFlPic=

> <r_lp_tautomer_probability>
1

> <r_epik_Ionization_Penalty>
0.00349769

> <r_epik_Ionization_Penalty_Charging>
0

> <r_epik_Ionization_Penalty_Neutral>
0.00349769

> <r_epik_State_Penalty>
0.00248024

> <r_epik_Charging_Adjusted_Penalty>
0.00248024

> <i_epik_Tot_Q>
0

> <i_epik_Tot_abs_Q>
0

> <r_epik_Metal_State_Penalty>
-0

> <b_epik_Metal_Only>
0

> <s_lp_Force_Field>
OPLS_2005

> <r_lp_Energy>
16.3383

> <b_lp_Chiralities_Consistent>
1

> <s_lp_Variant>
AV-unprocessed.smi:2000-1

> <Gold.Version>
5.8.1

> <Gold.Id.Protein>
6NUR|6NUR_protein|mol2

> <Gold.PLP.Fitness>
41.2424

> <Gold.PLP.PLP>
-32.1066

> <Gold.PLP.part.hbond>
-4.6236

> <Gold.PLP.part.metal>
0.0000

> <Gold.PLP.part.buried>
-3.2128

> <Gold.PLP.part.nonpolar>
-23.4810

> <Gold.PLP.part.repulsive>
0.2707

> <Gold.PLP.ligand.clash>
1.6799

> <Gold.PLP.ligand.torsion>
0.3492

> <Gold.PLP.Chemscore.Hbond>
2.7360

> <Gold.PLP.Chemscore.CHOScore>
0.9871

> <Gold.PLP.Chemscore.Metal>
0.0000

> <Gold.Chemscore.Hbonds>
donor molecule, donor type, donor heavy atom, donor atom, acceptor molecule, acceptor atom, score
      P1  H  6933  6944       L1     4  1.00
      P1  H  7997  8010       L1    16  1.00
      L1  C    10    32       P1  7957  0.95

> <Gold.PLP.Chemscore.Internal.Correction>
0.3449

> <Gold.Rescore>
     Score         DG    S(hbond)    S(metal)    S(lipo)     H(rot)  DE(clash)    DE(int)     intcor
     14.32     -16.07       2.60        0.00      61.83       2.08       0.05       1.70       ----

> <Gold.Chemscore.Fitness>
14.3194

> <Gold.Chemscore.DG>
-16.0700

> <Gold.Chemscore.ZeroCoef>
-5.4800

> <Gold.Chemscore.Hbond>
2.5962

> <Gold.Chemscore.Metal>
0.0000

> <Gold.Chemscore.Lipo>
61.8311

> <Gold.Chemscore.Internal_Hbond>
0.0000

> <Gold.Chemscore.DEClash>
0.0492

> <Gold.Chemscore.DEInternal>
1.7014

> <Gold.Chemscore.Rot>
2.0764

> <Gold.Chemscore.Internal.Correction>
   9.000000E+99

> <Gold.Chemscore.Hbonds>
donor molecule, donor type, donor heavy atom, donor atom, acceptor molecule, acceptor atom, score
      P1  H  6933  6944       L1     4  0.98
      P1  H  6934  6946       L1    22  0.02
      P1  H  7997  8010       L1    16  0.81

> <Gold.Chemscore.Hbond.Weighted>
-8.6713

> <Gold.Chemscore.Metal.Weighted>
-0.0000

> <Gold.Chemscore.Lipo.Weighted>
-7.2342

> <Gold.Chemscore.Internal_Hbond.Weighted>
0.0000

> <Gold.Chemscore.DEClash.Weighted>
0.0492

> <Gold.Chemscore.DEInternal.Weighted>
1.7014

> <Gold.Chemscore.Rot.Weighted>
5.3155

> <Gold.Chemscore.Internal.Correction.Weighted>
   9.000000E+99

> <Gold.Protein.RotatedTorsions>
[ 6907 6896 6895 6894 ] final   41.43 input  -60.11 | X-H torsion
[ 7974 7965 7964 7962 ] final   68.65 input  175.53 | X-H torsion
[ 8008 7997 7996 7995 ] final   58.28 input   59.86 | X-H torsion
[ 10167 10162 10161 10158 ] final  -59.81 input  -65.29 | X-H torsion
[ 10718 10713 10712 10709 ] final  112.19 input   66.30 | X-H torsion
[ 10763 10752 10751 10750 ] final -174.12 input  -60.55 | X-H torsion
[ 11005 11000 10999 10996 ] final  -74.62 input  -57.11 | X-H torsion

> <Gold.Protein.ActiveResidues>
 VAL166  LYS551  ARG553  GLY616  TRP617  ASP618  TYR619  PRO620  LYS621  CYS622 
 ASP623  PHE694  ASN695  SER759  ASP760  ASP761  ALA762  ILE779  LEU786  VAL792 
 PHE793  MET794  SER795  GLU796  ALA797  LYS798  CYS799  TRP800  GLU811  SER814 

> <Gold.Protein.RotatedAtoms>
  152.1952  134.8637  160.0513 H   0  0  0  0  0  0  0  0  0  0  0  0  # atno 6907 bound_to 6896
  151.9511  133.3661  159.4008 H   0  0  0  0  0  0  0  0  0  0  0  0  # atno 6908 bound_to 6896
  150.6943  134.4263  159.5272 H   0  0  0  0  0  0  0  0  0  0  0  0  # atno 6909 bound_to 6896
  145.7999  139.2977  143.1160 H   0  0  0  0  0  0  0  0  0  0  0  0  # atno 7974 bound_to 7965
  155.5475  140.3485  155.4461 H   0  0  0  0  0  0  0  0  0  0  0  0  # atno 8008 bound_to 7997
  156.0607  140.1339  156.9970 H   0  0  0  0  0  0  0  0  0  0  0  0  # atno 8009 bound_to 7997
  154.4478  140.0986  156.6497 H   0  0  0  0  0  0  0  0  0  0  0  0  # atno 8010 bound_to 7997
  140.6111  143.2388  151.5706 H   0  0  0  0  0  0  0  0  0  0  0  0  # atno 10167 bound_to 10162
  157.6406  131.0963  150.6858 H   0  0  0  0  0  0  0  0  0  0  0  0  # atno 10718 bound_to 10713
  154.5999  135.2853  155.0546 H   0  0  0  0  0  0  0  0  0  0  0  0  # atno 10763 bound_to 10752
  154.1815  135.6456  153.5039 H   0  0  0  0  0  0  0  0  0  0  0  0  # atno 10764 bound_to 10752
  153.0153  135.5424  154.6714 H   0  0  0  0  0  0  0  0  0  0  0  0  # atno 10765 bound_to 10752
  141.1637  133.6918  156.7392 H   0  0  0  0  0  0  0  0  0  0  0  0  # atno 11005 bound_to 11000
  145.9888  140.8620  143.0077 LP  0  0  0  0  0  0  0  0  0  0  0  0  # atno 17320 bound_to 7965
  144.6770  140.2186  143.7369 LP  0  0  0  0  0  0  0  0  0  0  0  0  # atno 17321 bound_to 7965
  139.5362  144.2774  152.1256 LP  0  0  0  0  0  0  0  0  0  0  0  0  # atno 17342 bound_to 10162
  140.1973  144.4692  150.6449 LP  0  0  0  0  0  0  0  0  0  0  0  0  # atno 17343 bound_to 10162
  156.7183  130.4673  149.5529 LP  0  0  0  0  0  0  0  0  0  0  0  0  # atno 17370 bound_to 10713
  156.1683  130.6420  151.0805 LP  0  0  0  0  0  0  0  0  0  0  0  0  # atno 17371 bound_to 10713
  140.2687  134.8409  157.3827 LP  0  0  0  0  0  0  0  0  0  0  0  0  # atno 17394 bound_to 11000
  140.1542  134.4811  155.7940 LP  0  0  0  0  0  0  0  0  0  0  0  0  # atno 17395 bound_to 11000

$$$$
