AV-unprocessed.smi:3340|AV-procd|sdf|12881|dock3
  -GOLD-   2272019283D 1   1.00000     0.00000
 Structure written by MMmdl.
 41 42  0  0  0  0  0  0  0  0  1 V2000
  149.9931  141.6319  156.0549 C   0  0  0  0  0  0  0  0  0  0  0  0
  150.2083  140.3929  155.1826 C   0  0  0  0  0  0  0  0  0  0  0  0
  151.3582  139.9727  155.0517 O   0  0  0  0  0  0  0  0  0  0  0  0
  149.1415  139.8035  154.5910 N   0  0  0  0  0  0  0  0  0  0  0  0
  149.2549  138.5785  153.7845 C   0  0  0  0  0  0  0  0  0  0  0  0
  148.4597  137.4488  154.4698 C   0  0  0  0  0  0  0  0  0  0  0  0
  147.0538  137.8736  154.6119 N   0  0  0  0  0  0  0  0  0  0  0  0
  145.9938  137.3748  153.9275 C   0  0  0  0  0  0  0  0  0  0  0  0
  144.8313  137.7258  154.1347 O   0  0  0  0  0  0  0  0  0  0  0  0
  146.3031  136.4213  153.0318 N   0  0  0  0  0  0  0  0  0  0  0  0
  145.3503  135.7042  152.1893 C   0  0  2  0  0  0  0  0  0  0  0  0
  144.4191  134.8677  153.0818 C   0  0  0  0  0  0  0  0  0  0  0  0
  146.1026  134.8599  151.1383 C   0  0  0  0  0  0  0  0  0  0  0  0
  145.4329  133.6076  150.8426 N   0  0  0  0  0  0  0  0  0  0  0  0
  144.1083  133.4390  150.4613 C   0  0  0  0  0  0  0  0  0  0  0  0
  143.9190  132.0869  150.2851 C   0  0  0  0  0  0  0  0  0  0  0  0
  145.1078  131.4091  150.5456 N   0  0  0  0  0  0  0  0  0  0  0  0
  145.9591  132.3753  150.8660 C   0  0  0  0  0  0  0  0  0  0  0  0
  146.9503  139.0921  155.4289 C   0  0  0  0  0  0  0  0  0  0  0  0
  147.7399  140.2252  154.7439 C   0  0  0  0  0  0  0  0  0  0  0  0
  149.3376  141.4035  156.8959 H   0  0  0  0  0  0  0  0  0  0  0  0
  149.5560  142.4437  155.4730 H   0  0  0  0  0  0  0  0  0  0  0  0
  150.9415  141.9872  156.4594 H   0  0  0  0  0  0  0  0  0  0  0  0
  148.8592  138.7677  152.7855 H   0  0  0  0  0  0  0  0  0  0  0  0
  150.2882  138.2602  153.6417 H   0  0  0  0  0  0  0  0  0  0  0  0
  148.5897  136.5256  153.9054 H   0  0  0  0  0  0  0  0  0  0  0  0
  148.8731  137.2471  155.4590 H   0  0  0  0  0  0  0  0  0  0  0  0
  147.2760  136.1711  152.9305 H   0  0  0  0  0  0  0  0  0  0  0  0
  144.7290  136.4361  151.6695 H   0  0  0  0  0  0  0  0  0  0  0  0
  143.6330  134.3865  152.4992 H   0  0  0  0  0  0  0  0  0  0  0  0
  143.9296  135.4916  153.8303 H   0  0  0  0  0  0  0  0  0  0  0  0
  144.9697  134.0868  153.6074 H   0  0  0  0  0  0  0  0  0  0  0  0
  146.2042  135.4138  150.2040 H   0  0  0  0  0  0  0  0  0  0  0  0
  147.1147  134.6411  151.4822 H   0  0  0  0  0  0  0  0  0  0  0  0
  143.4293  134.2720  150.3530 H   0  0  0  0  0  0  0  0  0  0  0  0
  143.0263  131.5544  149.9919 H   0  0  0  0  0  0  0  0  0  0  0  0
  146.9890  132.1810  151.1278 H   0  0  0  0  0  0  0  0  0  0  0  0
  145.9180  139.4056  155.5894 H   0  0  0  0  0  0  0  0  0  0  0  0
  147.3575  138.8959  156.4219 H   0  0  0  0  0  0  0  0  0  0  0  0
  147.6181  141.1445  155.3141 H   0  0  0  0  0  0  0  0  0  0  0  0
  147.3207  140.4323  153.7581 H   0  0  0  0  0  0  0  0  0  0  0  0
  1  2  1  0  0  0  0
  1 21  1  0  0  0  0
  1 22  1  0  0  0  0
  1 23  1  0  0  0  0
  2  3  2  0  0  0  0
  2  4  1  0  0  0  0
  4 20  1  0  0  0  0
  4  5  1  0  0  0  0
  5  6  1  0  0  0  0
  5 24  1  0  0  0  0
  5 25  1  0  0  0  0
  6  7  1  0  0  0  0
  6 26  1  0  0  0  0
  6 27  1  0  0  0  0
  7  8  1  0  0  0  0
  7 19  1  0  0  0  0
  8  9  2  0  0  0  0
  8 10  1  0  0  0  0
 10 11  1  0  0  0  0
 10 28  1  0  0  0  0
 11 12  1  0  0  0  0
 11 13  1  0  0  0  0
 11 29  1  0  0  0  0
 12 30  1  0  0  0  0
 12 31  1  0  0  0  0
 12 32  1  0  0  0  0
 13 14  1  0  0  0  0
 13 33  1  0  0  0  0
 13 34  1  0  0  0  0
 14 18  1  0  0  0  0
 14 15  1  0  0  0  0
 15 16  2  0  0  0  0
 15 35  1  0  0  0  0
 16 17  1  0  0  0  0
 16 36  1  0  0  0  0
 17 18  2  0  0  0  0
 18 37  1  0  0  0  0
 19 20  1  0  0  0  0
 19 38  1  0  0  0  0
 19 39  1  0  0  0  0
 20 40  1  0  0  0  0
 20 41  1  0  0  0  0
M  END
> <s_m_source_file>
AV-unprocessed.smi

> <i_m_source_file_index>
3340

> <i_lp_mmshare_version>
43012

> <i_f3d_flags>
0

> <s_epik_input>
W0NIM11DKD1PKU4xW0NIMl1bQ0gyXU4oW0NIMl1bQ0gyXTEpQyg9TylbTkhdW0NASF0oW0NIM10pW0NIMl1uMltjSF1bY0hdbltjSF0y

> <s_epik_cmdline>
J2VwaWtfcHl0aG9uJywgJy1waCcsICc3LjAnLCAnLXRuJywgJzgnLCAnLW1hJywgJzIwMCcsICctbWV0YWxfYmluZGluZycsICctaW1hZScsICc8aW5maWxlLm1hZT4nLCAnLW9tYWUnLCAnPG91dGZpbGUubWFlPic=

> <r_lp_tautomer_probability>
1

> <r_epik_Ionization_Penalty>
0.622948

> <r_epik_Ionization_Penalty_Charging>
0.622904

> <r_epik_Ionization_Penalty_Neutral>
4.39259e-05

> <r_epik_State_Penalty>
0.639086

> <r_epik_Charging_Adjusted_Penalty>
1.26199

> <i_epik_Tot_Q>
0

> <i_epik_Tot_abs_Q>
0

> <r_epik_Metal_State_Penalty>
0.307185

> <b_epik_Metal_Only>
0

> <s_lp_Force_Field>
OPLS_2005

> <r_lp_Energy>
49.2595

> <b_lp_Chiralities_Consistent>
1

> <s_lp_Variant>
AV-unprocessed.smi:3340-3

> <Gold.Version>
5.8.1

> <Gold.Id.Protein>
6NUR|6NUR_protein|mol2

> <Gold.PLP.Fitness>
37.8366

> <Gold.PLP.PLP>
-24.2643

> <Gold.PLP.part.hbond>
-2.0000

> <Gold.PLP.part.metal>
0.0000

> <Gold.PLP.part.buried>
-0.1363

> <Gold.PLP.part.nonpolar>
-22.7183

> <Gold.PLP.part.repulsive>
0.2422

> <Gold.PLP.ligand.clash>
0.0000

> <Gold.PLP.ligand.torsion>
0.6420

> <Gold.PLP.Chemscore.Hbond>
2.0000

> <Gold.PLP.Chemscore.CHOScore>
2.9354

> <Gold.PLP.Chemscore.Metal>
0.0000

> <Gold.Chemscore.Hbonds>
donor molecule, donor type, donor heavy atom, donor atom, acceptor molecule, acceptor atom, score
      L1  H    10    28       P1  7948  0.98
      P1  H  7989  7998       L1     3  0.70
      L1  C    15    35       P1 10186  0.95
      L1  C    16    36       P1 10952  0.95
      L1  C    18    37       P1 10747  0.99

> <Gold.PLP.Chemscore.Internal.Correction>
0.0502

> <Gold.Rescore>
     Score         DG    S(hbond)    S(metal)    S(lipo)     H(rot)  DE(clash)    DE(int)     intcor
     12.21     -13.16       1.80        0.00      50.17       1.65       0.48       0.47       ----

> <Gold.Chemscore.Fitness>
12.2063

> <Gold.Chemscore.DG>
-13.1578

> <Gold.Chemscore.ZeroCoef>
-5.4800

> <Gold.Chemscore.Hbond>
1.8037

> <Gold.Chemscore.Metal>
0.0000

> <Gold.Chemscore.Lipo>
50.1706

> <Gold.Chemscore.Internal_Hbond>
0.0000

> <Gold.Chemscore.DEClash>
0.4799

> <Gold.Chemscore.DEInternal>
0.4716

> <Gold.Chemscore.Rot>
1.6471

> <Gold.Chemscore.Internal.Correction>
   9.000000E+99

> <Gold.Chemscore.Hbonds>
donor molecule, donor type, donor heavy atom, donor atom, acceptor molecule, acceptor atom, score
      L1  H    10    28       P1  7948  0.91
      P1  H  7989  7998       L1     3  0.07

> <Gold.Chemscore.Hbond.Weighted>
-6.0245

> <Gold.Chemscore.Metal.Weighted>
-0.0000

> <Gold.Chemscore.Lipo.Weighted>
-5.8700

> <Gold.Chemscore.Internal_Hbond.Weighted>
0.0000

> <Gold.Chemscore.DEClash.Weighted>
0.4799

> <Gold.Chemscore.DEInternal.Weighted>
0.4716

> <Gold.Chemscore.Rot.Weighted>
4.2166

> <Gold.Chemscore.Internal.Correction.Weighted>
   9.000000E+99

> <Gold.Protein.RotatedTorsions>
[ 6907 6896 6895 6894 ] final   24.72 input  -60.11 | X-H torsion
[ 7974 7965 7964 7962 ] final  164.23 input  175.53 | X-H torsion
[ 8008 7997 7996 7995 ] final  100.92 input   59.86 | X-H torsion
[ 10167 10162 10161 10158 ] final   42.16 input  -65.29 | X-H torsion
[ 10718 10713 10712 10709 ] final    3.35 input   66.30 | X-H torsion
[ 10763 10752 10751 10750 ] final   -3.29 input  -60.55 | X-H torsion
[ 11005 11000 10999 10996 ] final  135.53 input  -57.11 | X-H torsion

> <Gold.Protein.ActiveResidues>
 VAL166  LYS551  ARG553  GLY616  TRP617  ASP618  TYR619  PRO620  LYS621  CYS622 
 ASP623  PHE694  ASN695  SER759  ASP760  ASP761  ALA762  ILE779  LEU786  VAL792 
 PHE793  MET794  SER795  GLU796  ALA797  LYS798  CYS799  TRP800  GLU811  SER814 

> <Gold.Protein.RotatedAtoms>
  151.9618  135.0120  160.0547 H   0  0  0  0  0  0  0  0  0  0  0  0  # atno 6907 bound_to 6896
  152.1862  133.4736  159.4992 H   0  0  0  0  0  0  0  0  0  0  0  0  # atno 6908 bound_to 6896
  150.6926  134.1688  159.4247 H   0  0  0  0  0  0  0  0  0  0  0  0  # atno 6909 bound_to 6896
  144.7554  139.8297  143.6351 H   0  0  0  0  0  0  0  0  0  0  0  0  # atno 7974 bound_to 7965
  156.1250  140.3205  155.8264 H   0  0  0  0  0  0  0  0  0  0  0  0  # atno 8008 bound_to 7997
  155.4436  140.0527  157.3025 H   0  0  0  0  0  0  0  0  0  0  0  0  # atno 8009 bound_to 7997
  154.4855  140.2071  155.9678 H   0  0  0  0  0  0  0  0  0  0  0  0  # atno 8010 bound_to 7997
  140.3572  144.2275  150.6141 H   0  0  0  0  0  0  0  0  0  0  0  0  # atno 10167 bound_to 10162
  156.8765  130.5638  149.5655 H   0  0  0  0  0  0  0  0  0  0  0  0  # atno 10718 bound_to 10713
  153.3694  135.6994  153.6650 H   0  0  0  0  0  0  0  0  0  0  0  0  # atno 10763 bound_to 10752
  153.5306  135.3593  155.2674 H   0  0  0  0  0  0  0  0  0  0  0  0  # atno 10764 bound_to 10752
  154.8679  135.4180  154.2968 H   0  0  0  0  0  0  0  0  0  0  0  0  # atno 10765 bound_to 10752
  139.9986  134.9487  157.0020 H   0  0  0  0  0  0  0  0  0  0  0  0  # atno 11005 bound_to 11000
  146.1557  139.4655  143.0020 LP  0  0  0  0  0  0  0  0  0  0  0  0  # atno 17320 bound_to 7965
  145.6798  141.0194  143.1613 LP  0  0  0  0  0  0  0  0  0  0  0  0  # atno 17321 bound_to 7965
  140.5162  143.2277  151.8459 LP  0  0  0  0  0  0  0  0  0  0  0  0  # atno 17342 bound_to 10162
  139.4818  144.4891  151.9208 LP  0  0  0  0  0  0  0  0  0  0  0  0  # atno 17343 bound_to 10162
  156.0699  130.5734  150.9363 LP  0  0  0  0  0  0  0  0  0  0  0  0  # atno 17370 bound_to 10713
  157.6165  131.0933  150.8700 LP  0  0  0  0  0  0  0  0  0  0  0  0  # atno 17371 bound_to 10713
  140.4771  134.1327  155.7211 LP  0  0  0  0  0  0  0  0  0  0  0  0  # atno 17394 bound_to 11000
  141.1624  133.8768  157.1811 LP  0  0  0  0  0  0  0  0  0  0  0  0  # atno 17395 bound_to 11000

$$$$
