AV-unprocessed.smi:3036|AV-procd|sdf|11584|dock9
  -GOLD-   2272016553D 1   1.00000     0.00000
 Structure written by MMmdl.
 41 42  0  0  0  0  0  0  0  0  1 V2000
  144.2141  136.1071  152.3289 C   0  0  0  0  0  0  0  0  0  0  0  0
  145.6677  135.7751  151.9481 C   0  0  2  0  0  0  0  0  0  0  0  0
  145.9393  134.2626  152.0797 C   0  0  0  0  0  0  0  0  0  0  0  0
  145.3033  133.4823  151.0320 N   0  0  0  0  0  0  0  0  0  0  0  0
  145.8910  132.6227  150.1276 C   0  0  0  0  0  0  0  0  0  0  0  0
  144.8950  132.1126  149.3453 C   0  0  0  0  0  0  0  0  0  0  0  0
  143.7164  132.7230  149.8581 C   0  0  0  0  0  0  0  0  0  0  0  0
  143.9633  133.5392  150.8699 N   0  0  0  0  0  0  0  0  0  0  0  0
  146.5868  136.4975  152.8215 N   0  0  0  0  0  0  0  0  0  0  0  0
  146.3207  137.9316  152.8235 C   0  0  0  0  0  0  0  0  0  0  0  0
  146.2685  138.4912  154.2604 C   0  0  0  0  0  0  0  0  0  0  0  0
  146.7330  139.9541  154.4127 C   0  0  0  0  0  0  0  0  0  0  0  0
  145.9220  140.8052  154.7821 O   0  0  0  0  0  0  0  0  0  0  0  0
  148.0209  140.2668  154.1297 N   0  0  0  0  0  0  0  0  0  0  0  0
  149.0068  139.2754  153.6881 C   0  0  0  0  0  0  0  0  0  0  0  0
  150.0910  139.1477  154.7729 C   0  0  0  0  0  0  0  0  0  0  0  0
  150.6912  140.4204  154.9999 O   0  0  0  0  0  0  0  0  0  0  0  0
  149.7541  141.4137  155.4080 C   0  0  0  0  0  0  0  0  0  0  0  0
  148.6600  141.5711  154.3361 C   0  0  0  0  0  0  0  0  0  0  0  0
  143.5143  135.5336  151.7207 H   0  0  0  0  0  0  0  0  0  0  0  0
  143.9798  137.1603  152.1762 H   0  0  0  0  0  0  0  0  0  0  0  0
  144.0135  135.8699  153.3746 H   0  0  0  0  0  0  0  0  0  0  0  0
  145.8431  136.0676  150.9117 H   0  0  0  0  0  0  0  0  0  0  0  0
  147.0116  134.0613  152.0669 H   0  0  0  0  0  0  0  0  0  0  0  0
  145.5678  133.8973  153.0383 H   0  0  0  0  0  0  0  0  0  0  0  0
  146.9570  132.4488  150.1155 H   0  0  0  0  0  0  0  0  0  0  0  0
  144.9927  131.4088  148.5321 H   0  0  0  0  0  0  0  0  0  0  0  0
  142.6954  132.5969  149.5290 H   0  0  0  0  0  0  0  0  0  0  0  0
  147.5326  136.3471  152.5008 H   0  0  0  0  0  0  0  0  0  0  0  0
  147.1086  138.4382  152.2648 H   0  0  0  0  0  0  0  0  0  0  0  0
  145.3825  138.1497  152.3138 H   0  0  0  0  0  0  0  0  0  0  0  0
  145.2457  138.3999  154.6279 H   0  0  0  0  0  0  0  0  0  0  0  0
  146.8940  137.8692  154.9015 H   0  0  0  0  0  0  0  0  0  0  0  0
  148.5686  138.2969  153.4882 H   0  0  0  0  0  0  0  0  0  0  0  0
  149.4520  139.6031  152.7475 H   0  0  0  0  0  0  0  0  0  0  0  0
  149.6683  138.7626  155.7023 H   0  0  0  0  0  0  0  0  0  0  0  0
  150.8619  138.4449  154.4567 H   0  0  0  0  0  0  0  0  0  0  0  0
  149.3183  141.1420  156.3710 H   0  0  0  0  0  0  0  0  0  0  0  0
  150.2813  142.3571  155.5510 H   0  0  0  0  0  0  0  0  0  0  0  0
  149.1016  141.9062  153.3964 H   0  0  0  0  0  0  0  0  0  0  0  0
  147.9728  142.3583  154.6398 H   0  0  0  0  0  0  0  0  0  0  0  0
  1  2  1  0  0  0  0
  1 20  1  0  0  0  0
  1 21  1  0  0  0  0
  1 22  1  0  0  0  0
  2  3  1  0  0  0  0
  2  9  1  0  0  0  0
  2 23  1  0  0  0  0
  3  4  1  0  0  0  0
  3 24  1  0  0  0  0
  3 25  1  0  0  0  0
  4  8  1  0  0  0  0
  4  5  1  0  0  0  0
  5  6  2  0  0  0  0
  5 26  1  0  0  0  0
  6  7  1  0  0  0  0
  6 27  1  0  0  0  0
  7  8  2  0  0  0  0
  7 28  1  0  0  0  0
  9 10  1  0  0  0  0
  9 29  1  0  0  0  0
 10 11  1  0  0  0  0
 10 30  1  0  0  0  0
 10 31  1  0  0  0  0
 11 12  1  0  0  0  0
 11 32  1  0  0  0  0
 11 33  1  0  0  0  0
 12 13  2  0  0  0  0
 12 14  1  0  0  0  0
 14 19  1  0  0  0  0
 14 15  1  0  0  0  0
 15 16  1  0  0  0  0
 15 34  1  0  0  0  0
 15 35  1  0  0  0  0
 16 17  1  0  0  0  0
 16 36  1  0  0  0  0
 16 37  1  0  0  0  0
 17 18  1  0  0  0  0
 18 19  1  0  0  0  0
 18 38  1  0  0  0  0
 18 39  1  0  0  0  0
 19 40  1  0  0  0  0
 19 41  1  0  0  0  0
M  END
> <s_m_source_file>
AV-unprocessed.smi

> <i_m_source_file_index>
3036

> <i_lp_mmshare_version>
43012

> <i_f3d_flags>
0

> <s_epik_input>
bjFbY0hdW2NIXVtjSF1uMVtDSDJdW0NAQEhdKFtDSDNdKVtOSF1bQ0gyXVtDSDJdQyg9TylOMltDSDJdW0NIMl1PW0NIMl1bQ0gyXTI=

> <s_epik_cmdline>
J2VwaWtfcHl0aG9uJywgJy1waCcsICc3LjAnLCAnLXRuJywgJzgnLCAnLW1hJywgJzIwMCcsICctbWV0YWxfYmluZGluZycsICctaW1hZScsICc8aW5maWxlLm1hZT4nLCAnLW9tYWUnLCAnPG91dGZpbGUubWFlPic=

> <r_lp_tautomer_probability>
1

> <r_epik_Ionization_Penalty>
2.55703

> <r_epik_Ionization_Penalty_Charging>
0

> <r_epik_Ionization_Penalty_Neutral>
2.55703

> <r_epik_State_Penalty>
2.726

> <r_epik_Charging_Adjusted_Penalty>
2.726

> <i_epik_Tot_Q>
0

> <i_epik_Tot_abs_Q>
0

> <r_epik_Metal_State_Penalty>
2.72597

> <b_epik_Metal_Only>
0

> <s_lp_Force_Field>
OPLS_2005

> <r_lp_Energy>
22.7119

> <b_lp_Chiralities_Consistent>
1

> <s_lp_Variant>
AV-unprocessed.smi:3036-3

> <Gold.Version>
5.8.1

> <Gold.Id.Protein>
6NUR|6NUR_protein|mol2

> <Gold.PLP.Fitness>
43.2856

> <Gold.PLP.PLP>
-32.8756

> <Gold.PLP.part.hbond>
-2.0000

> <Gold.PLP.part.metal>
0.0000

> <Gold.PLP.part.buried>
-1.2659

> <Gold.PLP.part.nonpolar>
-31.1831

> <Gold.PLP.part.repulsive>
0.3694

> <Gold.PLP.ligand.clash>
0.0000

> <Gold.PLP.ligand.torsion>
0.6632

> <Gold.PLP.Chemscore.Hbond>
2.0000

> <Gold.PLP.Chemscore.CHOScore>
1.8782

> <Gold.PLP.Chemscore.Metal>
0.0000

> <Gold.Chemscore.Hbonds>
donor molecule, donor type, donor heavy atom, donor atom, acceptor molecule, acceptor atom, score
      L1  H     9    29       P1  7948  1.00
      P1  H  7989  7998       L1    17  1.00
      L1  C     5    26       P1 10747  0.91
      L1  C     7    28       P1 10186  0.89
      L1  C     7    28       P1 10952  0.03

> <Gold.PLP.Chemscore.Internal.Correction>
0.1019

> <Gold.Rescore>
     Score         DG    S(hbond)    S(metal)    S(lipo)     H(rot)  DE(clash)    DE(int)     intcor
     14.32     -16.51       1.84        0.00      85.39       1.99       1.49       0.70       ----

> <Gold.Chemscore.Fitness>
14.3168

> <Gold.Chemscore.DG>
-16.5150

> <Gold.Chemscore.ZeroCoef>
-5.4800

> <Gold.Chemscore.Hbond>
1.8379

> <Gold.Chemscore.Metal>
0.0000

> <Gold.Chemscore.Lipo>
85.3922

> <Gold.Chemscore.Internal_Hbond>
0.0000

> <Gold.Chemscore.DEClash>
1.4932

> <Gold.Chemscore.DEInternal>
0.7050

> <Gold.Chemscore.Rot>
1.9900

> <Gold.Chemscore.Internal.Correction>
   9.000000E+99

> <Gold.Chemscore.Hbonds>
donor molecule, donor type, donor heavy atom, donor atom, acceptor molecule, acceptor atom, score
      L1  H     9    29       P1  7948  0.95
      P1  H  7989  7998       L1    17  0.54

> <Gold.Chemscore.Hbond.Weighted>
-6.1384

> <Gold.Chemscore.Metal.Weighted>
-0.0000

> <Gold.Chemscore.Lipo.Weighted>
-9.9909

> <Gold.Chemscore.Internal_Hbond.Weighted>
0.0000

> <Gold.Chemscore.DEClash.Weighted>
1.4932

> <Gold.Chemscore.DEInternal.Weighted>
0.7050

> <Gold.Chemscore.Rot.Weighted>
5.0944

> <Gold.Chemscore.Internal.Correction.Weighted>
   9.000000E+99

> <Gold.Protein.RotatedTorsions>
[ 6907 6896 6895 6894 ] final    4.92 input  -60.11 | X-H torsion
[ 7974 7965 7964 7962 ] final   59.32 input  175.53 | X-H torsion
[ 8008 7997 7996 7995 ] final  -90.23 input   59.86 | X-H torsion
[ 10167 10162 10161 10158 ] final -120.25 input  -65.29 | X-H torsion
[ 10718 10713 10712 10709 ] final   -1.60 input   66.30 | X-H torsion
[ 10763 10752 10751 10750 ] final   48.12 input  -60.55 | X-H torsion
[ 11005 11000 10999 10996 ] final  -75.05 input  -57.11 | X-H torsion

> <Gold.Protein.ActiveResidues>
 VAL166  LYS551  ARG553  GLY616  TRP617  ASP618  TYR619  PRO620  LYS621  CYS622 
 ASP623  PHE694  ASN695  SER759  ASP760  ASP761  ALA762  ILE779  LEU786  VAL792 
 PHE793  MET794  SER795  GLU796  ALA797  LYS798  CYS799  TRP800  GLU811  SER814 

> <Gold.Protein.RotatedAtoms>
  151.6491  135.1004  160.0156 H   0  0  0  0  0  0  0  0  0  0  0  0  # atno 6907 bound_to 6896
  152.4011  133.6815  159.6325 H   0  0  0  0  0  0  0  0  0  0  0  0  # atno 6908 bound_to 6896
  150.7911  133.8706  159.3299 H   0  0  0  0  0  0  0  0  0  0  0  0  # atno 6909 bound_to 6896
  145.9085  139.3635  143.0550 H   0  0  0  0  0  0  0  0  0  0  0  0  # atno 7974 bound_to 7965
  154.6960  140.0533  157.0411 H   0  0  0  0  0  0  0  0  0  0  0  0  # atno 8008 bound_to 7997
  155.0750  140.3203  155.4600 H   0  0  0  0  0  0  0  0  0  0  0  0  # atno 8009 bound_to 7997
  156.2744  140.2075  156.5877 H   0  0  0  0  0  0  0  0  0  0  0  0  # atno 8010 bound_to 7997
  140.0378  143.5183  152.2145 H   0  0  0  0  0  0  0  0  0  0  0  0  # atno 10167 bound_to 10162
  156.8032  130.5400  149.5719 H   0  0  0  0  0  0  0  0  0  0  0  0  # atno 10718 bound_to 10713
  152.9794  135.5954  154.3874 H   0  0  0  0  0  0  0  0  0  0  0  0  # atno 10763 bound_to 10752
  154.3533  135.2767  155.2362 H   0  0  0  0  0  0  0  0  0  0  0  0  # atno 10764 bound_to 10752
  154.4391  135.6017  153.6173 H   0  0  0  0  0  0  0  0  0  0  0  0  # atno 10765 bound_to 10752
  141.1641  133.6933  156.7458 H   0  0  0  0  0  0  0  0  0  0  0  0  # atno 11005 bound_to 11000
  145.8702  140.9424  143.0655 LP  0  0  0  0  0  0  0  0  0  0  0  0  # atno 17320 bound_to 7965
  144.6741  140.0644  143.7475 LP  0  0  0  0  0  0  0  0  0  0  0  0  # atno 17321 bound_to 7965
  139.6033  144.7589  151.3120 LP  0  0  0  0  0  0  0  0  0  0  0  0  # atno 17342 bound_to 10162
  140.7273  143.6966  150.7879 LP  0  0  0  0  0  0  0  0  0  0  0  0  # atno 17343 bound_to 10162
  156.1089  130.6025  151.0015 LP  0  0  0  0  0  0  0  0  0  0  0  0  # atno 17370 bound_to 10713
  157.6543  131.0892  150.7981 LP  0  0  0  0  0  0  0  0  0  0  0  0  # atno 17371 bound_to 10713
  140.2641  134.8444  157.3786 LP  0  0  0  0  0  0  0  0  0  0  0  0  # atno 17394 bound_to 11000
  140.1583  134.4761  155.7912 LP  0  0  0  0  0  0  0  0  0  0  0  0  # atno 17395 bound_to 11000

$$$$
