#       Name:                AV-unprocessed.smi:158
#       Creating user name   scv26
#       Creation time:       Thu Mar 26 19:01:50 2020


#       File generated by GOLD software.
#

@<TRIPOS>MOLECULE
AV-unprocessed.smi:158
    40    42     1
SMALL
NO_CHARGES


@<TRIPOS>ATOM
      1 ****        -5.0051   0.2113   0.3795 N.pl3          1 S1                 0.0000
      2 ****        -3.6808   0.4064   0.3075 C.ar           1 S1                 0.0000
      3 ****        -3.2194   1.6764   0.2303 N.ar           1 S1                 0.0000
      4 ****        -1.9040   1.9136   0.1575 C.ar           1 S1                 0.0000
      5 ****        -1.4237   3.5668   0.0630 Cl             1 S1                 0.0000
      6 ****        -0.9173   1.0118   0.1495 N.ar           1 S1                 0.0000
      7 ****        -1.3770  -0.2703   0.2268 C.ar           1 S1                 0.0000
      8 ****        -2.7422  -0.6543   0.3091 C.ar           1 S1                 0.0000
      9 ****        -2.8426  -2.0371   0.3754 N.2            1 S1                 0.0000
     10 ****        -1.6018  -2.4434   0.3348 C.2            1 S1                 0.0000
     11 ****        -0.6544  -1.4469   0.2426 N.pl3          1 S1                 0.0000
     12 ****         0.8334  -1.6087   0.1756 C.3            1 S1                 0.0000
     13 ****         1.4067  -0.6488   1.0109 O.3            1 S1                 0.0000
     14 ****         2.4536   0.0329   0.3282 C.3            1 S1                 0.0000
     15 ****         2.6083   1.4479   0.9089 C.3            1 S1                 0.0000
     16 ****         3.7663   2.0714   0.3945 O.3            1 S1                 0.0000
     17 ****         2.0366  -0.0151  -1.1450 C.3            1 S1                 0.0000
     18 ****         3.1550   0.0619  -2.0057 O.3            1 S1                 0.0000
     19 ****         1.3767  -1.3787  -1.2457 C.3            1 S1                 0.0000
     20 ****         0.4086  -1.4101  -2.1650 F              1 S1                 0.0000
     21 ****         1.0194  -2.6165   0.5486 H              1 S1                 0.0000
     22 ****         3.3660  -0.5466   0.4831 H              1 S1                 0.0000
     23 ****         1.3244   0.7770  -1.3770 H              1 S1                 0.0000
     24 ****         2.0980  -2.1652  -1.4726 H              1 S1                 0.0000
     25 ****        -5.3710  -0.7281   0.4383 H              1 S1                 0.0000
     26 ****        -5.6338   1.0016   0.3744 H              1 S1                 0.0000
     27 ****        -1.3412  -3.4914   0.3678 H              1 S1                 0.0000
     28 ****         1.7337   2.0613   0.6913 H              1 S1                 0.0000
     29 ****         2.7034   1.3969   1.9937 H              1 S1                 0.0000
     30 ****         3.8416   2.9302   0.7820 H              1 S1                 0.0000
     31 ****         3.5828   0.8930  -1.8628 H              1 S1                 0.0000
     32 ****        -3.8640   2.4410   0.2277 LP             1 S1                 0.0000
     33 ****         0.0520   1.2509   0.0930 LP             1 S1                 0.0000
     34 ****        -3.6716  -2.5927   0.4394 LP             1 S1                 0.0000
     35 ****         1.7791  -1.0975   1.8233 LP             1 S1                 0.0000
     36 ****         0.7069   0.0107   1.2857 LP             1 S1                 0.0000
     37 ****         3.6913   2.1551  -0.5991 LP             1 S1                 0.0000
     38 ****         4.5728   1.5262   0.6232 LP             1 S1                 0.0000
     39 ****         2.8547  -0.0046  -2.9572 LP             1 S1                 0.0000
     40 ****         3.7894  -0.6842  -1.8034 LP             1 S1                 0.0000
@<TRIPOS>BOND
    1    1    2 1     
    2    1   25 1     
    3    1   26 1     
    4    2    8 ar    
    5    2    3 ar    
    6    3    4 ar    
    7    4    5 1     
    8    4    6 ar    
    9    6    7 ar    
   10    7   11 1     
   11    7    8 ar    
   12    8    9 1     
   13    9   10 2     
   14   10   11 1     
   15   10   27 1     
   16   11   12 1     
   17   12   21 1     
   18   12   19 1     
   19   12   13 1     
   20   13   14 1     
   21   14   22 1     
   22   14   15 1     
   23   14   17 1     
   24   15   16 1     
   25   15   28 1     
   26   15   29 1     
   27   16   30 1     
   28   17   23 1     
   29   17   18 1     
   30   17   19 1     
   31   18   31 1     
   32   19   24 1     
   33   19   20 1     
   34    3   32 1     
   35    6   33 1     
   36    9   34 1     
   37   13   35 1     
   38   13   36 1     
   39   16   37 1     
   40   16   38 1     
   41   18   39 1     
   42   18   40 1     
@<TRIPOS>SUBSTRUCTURE
      1 S1             1
@<TRIPOS>SET
LONE_PAIRS      STATIC     ATOMS    <user>   **** ""
9 32 33 34 35 36 37 38 39 40
DONOR_HYDROGENS      STATIC     ATOMS    <user>   **** ""
4 25 26 30 31
ATOM$BLUE        STATIC     ATOMS    COLORGROUP SYSTEM
9 32 33 34 35 36 37 38 39 40
ATOM$RED        STATIC     ATOMS    COLORGROUP SYSTEM
4 25 26 30 31
