#       Name:                AV-unprocessed.smi:2845
#       Creating user name   scv26
#       Creation time:       Fri Mar 27 15:39:14 2020


#       File generated by GOLD software.
#

@<TRIPOS>MOLECULE
AV-unprocessed.smi:2845
    47    49     1
SMALL
NO_CHARGES


@<TRIPOS>ATOM
      1 ****        -3.6761   4.5637  -2.1599 C.3            1 S1                 0.0000
      2 ****        -3.1551   3.3911  -1.3479 C.ar           1 S1                 0.0000
      3 ****        -3.2088   3.4541   0.0626 C.ar           1 S1                 0.0000
      4 ****        -2.7349   2.3850   0.8540 C.ar           1 S1                 0.0000
      5 ****        -2.6902   2.2366   2.2297 N.2            1 S1                 0.0000
      6 ****        -2.1418   1.0313   2.3511 C.2            1 S1                 0.0000
      7 ****        -1.8236   0.3809   1.2156 N.pl3          1 S1                 0.0000
      8 ****        -1.2178  -0.9341   1.1055 C.3            1 S1                 0.0000
      9 ****         0.3168  -0.8852   1.2246 C.3            1 S1                 0.0000
     10 ****         0.8522  -0.0985   0.1769 O.3            1 S1                 0.0000
     11 ****         0.9408  -2.2933   1.1929 C.3            1 S1                 0.0000
     12 ****         2.3850  -2.2669   1.3435 N.pl3          1 S1                 0.0000
     13 ****         3.1413  -1.9476   2.3980 C.2            1 S1                 0.0000
     14 ****         4.4457  -2.0445   2.1763 N.2            1 S1                 0.0000
     15 ****         4.4093  -2.4598   0.8771 C.2            1 S1                 0.0000
     16 ****         5.9378  -2.7985  -0.0518 S.o            1 S1                 0.0000
     17 ****         5.8532  -4.6432   0.1226 C.3            1 S1                 0.0000
     18 ****         5.6258  -2.4720  -1.5137 O.2            1 S1                 0.0000
     19 ****         3.2073  -2.6173   0.3262 N.2            1 S1                 0.0000
     20 ****        -2.2010   1.2417   0.1904 C.ar           1 S1                 0.0000
     21 ****        -2.1408   1.1678  -1.2124 C.ar           1 S1                 0.0000
     22 ****        -2.6193   2.2445  -1.9879 C.ar           1 S1                 0.0000
     23 ****        -2.5504   2.1548  -3.5020 C.3            1 S1                 0.0000
     24 ****        -4.0511   5.3593  -1.5153 H              1 S1                 0.0000
     25 ****        -4.4931   4.2464  -2.8084 H              1 S1                 0.0000
     26 ****        -2.8828   4.9817  -2.7800 H              1 S1                 0.0000
     27 ****        -3.6158   4.3277   0.5503 H              1 S1                 0.0000
     28 ****        -1.9581   0.5950   3.3224 H              1 S1                 0.0000
     29 ****        -1.6354  -1.5665   1.8902 H              1 S1                 0.0000
     30 ****        -1.5158  -1.3806   0.1558 H              1 S1                 0.0000
     31 ****         0.5816  -0.4031   2.1669 H              1 S1                 0.0000
     32 ****         0.4774   0.7677   0.2290 H              1 S1                 0.0000
     33 ****         0.5316  -2.9029   1.9995 H              1 S1                 0.0000
     34 ****         0.6885  -2.8000   0.2597 H              1 S1                 0.0000
     35 ****         2.7283  -1.6359   3.3462 H              1 S1                 0.0000
     36 ****         5.3479  -4.9273   1.0460 H              1 S1                 0.0000
     37 ****         6.8586  -5.0634   0.1372 H              1 S1                 0.0000
     38 ****         5.3102  -5.0760  -0.7175 H              1 S1                 0.0000
     39 ****        -1.7274   0.2900  -1.6871 H              1 S1                 0.0000
     40 ****        -2.1022   1.2147  -3.8249 H              1 S1                 0.0000
     41 ****        -1.9480   2.9686  -3.9060 H              1 S1                 0.0000
     42 ****        -3.5495   2.2150  -3.9341 H              1 S1                 0.0000
     43 ****        -2.9908   2.8689   2.9436 LP             1 S1                 0.0000
     44 ****         0.6248  -0.5117  -0.7049 LP             1 S1                 0.0000
     45 ****         1.8461  -0.0420   0.2720 LP             1 S1                 0.0000
     46 ****         5.2225  -1.8666   2.7802 LP             1 S1                 0.0000
     47 ****         2.9726  -2.9167  -0.5987 LP             1 S1                 0.0000
@<TRIPOS>BOND
    1    1    2 1     
    2    1   24 1     
    3    1   25 1     
    4    1   26 1     
    5    2   22 ar    
    6    2    3 ar    
    7    3    4 ar    
    8    3   27 1     
    9    4   20 ar    
   10    4    5 1     
   11    5    6 2     
   12    6    7 1     
   13    6   28 1     
   14    7    8 1     
   15    7   20 1     
   16    8    9 1     
   17    8   29 1     
   18    8   30 1     
   19    9   10 1     
   20    9   11 1     
   21    9   31 1     
   22   10   32 1     
   23   11   12 1     
   24   11   33 1     
   25   11   34 1     
   26   12   19 1     
   27   12   13 1     
   28   13   14 2     
   29   13   35 1     
   30   14   15 1     
   31   15   16 1     
   32   15   19 2     
   33   16   17 1     
   34   16   18 2     
   35   17   36 1     
   36   17   37 1     
   37   17   38 1     
   38   20   21 ar    
   39   21   22 ar    
   40   21   39 1     
   41   22   23 1     
   42   23   40 1     
   43   23   41 1     
   44   23   42 1     
   45    5   43 1     
   46   10   44 1     
   47   10   45 1     
   48   14   46 1     
   49   19   47 1     
@<TRIPOS>SUBSTRUCTURE
      1 S1             1
@<TRIPOS>SET
LONE_PAIRS      STATIC     ATOMS    <user>   **** ""
6 43 44 45 46 18 47
DONOR_HYDROGENS      STATIC     ATOMS    <user>   **** ""
1 32
ATOM$BLUE        STATIC     ATOMS    COLORGROUP SYSTEM
6 43 44 45 46 18 47
ATOM$RED        STATIC     ATOMS    COLORGROUP SYSTEM
1 32
