AV-unprocessed.smi:2760|AV-procd|sdf|10631|dock10
  -GOLD-   2272015 83D 1   1.00000     0.00000
 Structure written by MMmdl.
 32 33  0  0  0  0  0  0  0  0  1 V2000
  149.6770  140.9354  153.3676 O   0  0  0  0  0  0  0  0  0  0  0  0
  149.8928  140.5326  154.6521 C   0  0  0  0  0  0  0  0  0  0  0  0
  150.2714  141.4786  155.6283 C   0  0  0  0  0  0  0  0  0  0  0  0
  150.4768  140.9905  156.9377 C   0  0  0  0  0  0  0  0  0  0  0  0
  150.8759  141.8755  158.0764 C   0  0  0  0  0  0  0  0  0  0  0  0
  149.9577  142.9673  158.5793 C   0  0  0  0  0  0  0  0  0  0  0  0
  151.2239  143.3276  157.8424 C   0  0  0  0  0  0  0  0  0  0  0  0
  150.3049  139.6844  157.2385 N   0  0  0  0  0  0  0  0  0  0  0  0
  149.9440  138.8848  156.2324 C   0  0  0  0  0  0  0  0  0  0  0  0
  149.7050  137.1662  156.6222 S   0  0  0  0  0  0  0  0  0  0  0  0
  149.2020  137.2730  158.3653 C   0  0  0  0  0  0  0  0  0  0  0  0
  147.7433  136.8453  158.5702 C   0  0  0  0  0  0  0  0  0  0  0  0
  147.4851  136.7278  159.9587 O   0  0  0  0  0  0  0  0  0  0  0  0
  147.6860  135.4078  160.4406 C   0  0  0  0  0  0  0  0  0  0  0  0
  146.9559  135.2289  161.7770 C   0  0  0  0  0  0  0  0  0  0  0  0
  147.2155  134.0141  162.2593 F   0  0  0  0  0  0  0  0  0  0  0  0
  147.3764  136.1371  162.6570 F   0  0  0  0  0  0  0  0  0  0  0  0
  145.6397  135.3480  161.6040 F   0  0  0  0  0  0  0  0  0  0  0  0
  149.7328  139.2275  154.9606 N   0  0  0  0  0  0  0  0  0  0  0  0
  149.7277  140.2266  152.7453 H   0  0  0  0  0  0  0  0  0  0  0  0
  150.3986  142.5239  155.3875 H   0  0  0  0  0  0  0  0  0  0  0  0
  151.4597  141.3268  158.8131 H   0  0  0  0  0  0  0  0  0  0  0  0
  149.0172  143.1320  158.0572 H   0  0  0  0  0  0  0  0  0  0  0  0
  149.9399  143.1638  159.6493 H   0  0  0  0  0  0  0  0  0  0  0  0
  152.0304  143.7586  158.4320 H   0  0  0  0  0  0  0  0  0  0  0  0
  151.1199  143.7198  156.8325 H   0  0  0  0  0  0  0  0  0  0  0  0
  149.8601  136.6271  158.9466 H   0  0  0  0  0  0  0  0  0  0  0  0
  149.3581  138.2888  158.7292 H   0  0  0  0  0  0  0  0  0  0  0  0
  147.0654  137.5788  158.1317 H   0  0  0  0  0  0  0  0  0  0  0  0
  147.5617  135.8902  158.0749 H   0  0  0  0  0  0  0  0  0  0  0  0
  147.3124  134.6844  159.7138 H   0  0  0  0  0  0  0  0  0  0  0  0
  148.7524  135.2167  160.5725 H   0  0  0  0  0  0  0  0  0  0  0  0
  1  2  1  0  0  0  0
  1 20  1  0  0  0  0
  2 19  1  0  0  0  0
  2  3  2  0  0  0  0
  3  4  1  0  0  0  0
  3 21  1  0  0  0  0
  4  5  1  0  0  0  0
  4  8  2  0  0  0  0
  5  7  1  0  0  0  0
  5  6  1  0  0  0  0
  5 22  1  0  0  0  0
  6  7  1  0  0  0  0
  6 23  1  0  0  0  0
  6 24  1  0  0  0  0
  7 25  1  0  0  0  0
  7 26  1  0  0  0  0
  8  9  1  0  0  0  0
  9 10  1  0  0  0  0
  9 19  2  0  0  0  0
 10 11  1  0  0  0  0
 11 12  1  0  0  0  0
 11 27  1  0  0  0  0
 11 28  1  0  0  0  0
 12 13  1  0  0  0  0
 12 29  1  0  0  0  0
 12 30  1  0  0  0  0
 13 14  1  0  0  0  0
 14 15  1  0  0  0  0
 14 31  1  0  0  0  0
 14 32  1  0  0  0  0
 15 16  1  0  0  0  0
 15 17  1  0  0  0  0
 15 18  1  0  0  0  0
M  END
> <s_m_source_file>
AV-unprocessed.smi

> <i_m_source_file_index>
2760

> <i_lp_mmshare_version>
43012

> <i_f3d_flags>
0

> <s_epik_input>
W09IXWMxW2NIXWMoW0NIXTJbQ0gyXVtDSDJdMiluYyhuMSlTW0NIMl1bQ0gyXU9bQ0gyXUMoRikoRilG

> <s_epik_cmdline>
J2VwaWtfcHl0aG9uJywgJy1waCcsICc3LjAnLCAnLXRuJywgJzgnLCAnLW1hJywgJzIwMCcsICctbWV0YWxfYmluZGluZycsICctaW1hZScsICc8aW5maWxlLm1hZT4nLCAnLW9tYWUnLCAnPG91dGZpbGUubWFlPic=

> <r_lp_tautomer_probability>
0.0660145

> <r_epik_Ionization_Penalty>
3.02064

> <r_epik_Ionization_Penalty_Charging>
0

> <r_epik_Ionization_Penalty_Neutral>
3.02064

> <r_epik_State_Penalty>
2.51658

> <r_epik_Charging_Adjusted_Penalty>
2.51658

> <i_epik_Tot_Q>
0

> <i_epik_Tot_abs_Q>
0

> <r_epik_Metal_State_Penalty>
3.1674

> <b_epik_Metal_Only>
0

> <s_lp_Force_Field>
OPLS_2005

> <r_lp_Energy>
-0.868617

> <b_lp_Chiralities_Consistent>
1

> <s_lp_Variant>
AV-unprocessed.smi:2760-4

> <Gold.Version>
5.8.1

> <Gold.Id.Protein>
6NUR|6NUR_protein|mol2

> <Gold.PLP.Fitness>
45.5314

> <Gold.PLP.PLP>
-38.8646

> <Gold.PLP.part.hbond>
-4.7426

> <Gold.PLP.part.metal>
0.0000

> <Gold.PLP.part.buried>
-3.9441

> <Gold.PLP.part.nonpolar>
-29.7530

> <Gold.PLP.part.repulsive>
0.0712

> <Gold.PLP.ligand.clash>
0.0000

> <Gold.PLP.ligand.torsion>
1.1384

> <Gold.PLP.Chemscore.Hbond>
2.9128

> <Gold.PLP.Chemscore.CHOScore>
0.0000

> <Gold.PLP.Chemscore.Metal>
0.0000

> <Gold.Chemscore.Hbonds>
donor molecule, donor type, donor heavy atom, donor atom, acceptor molecule, acceptor atom, score
      L1  H     1    20       P1  7957  0.74
      P1  H  8011  8017       L1     1  1.00

> <Gold.PLP.Chemscore.Internal.Correction>
0.2053

> <Gold.Rescore>
     Score         DG    S(hbond)    S(metal)    S(lipo)     H(rot)  DE(clash)    DE(int)     intcor
      9.89     -10.88       1.94        0.00      59.81       3.16       0.03       0.95       ----

> <Gold.Chemscore.Fitness>
9.8932

> <Gold.Chemscore.DG>
-10.8777

> <Gold.Chemscore.ZeroCoef>
-5.4800

> <Gold.Chemscore.Hbond>
1.9398

> <Gold.Chemscore.Metal>
0.0000

> <Gold.Chemscore.Lipo>
59.8061

> <Gold.Chemscore.Internal_Hbond>
0.0000

> <Gold.Chemscore.DEClash>
0.0310

> <Gold.Chemscore.DEInternal>
0.9534

> <Gold.Chemscore.Rot>
3.1557

> <Gold.Chemscore.Internal.Correction>
   9.000000E+99

> <Gold.Chemscore.Hbonds>
donor molecule, donor type, donor heavy atom, donor atom, acceptor molecule, acceptor atom, score
      L1  H     1    20       P1  7957  0.73
      P1  H  6934  6947       L1    13  0.01
      P1  H  8011  8017       L1     1  0.39

> <Gold.Chemscore.Hbond.Weighted>
-6.4789

> <Gold.Chemscore.Metal.Weighted>
-0.0000

> <Gold.Chemscore.Lipo.Weighted>
-6.9973

> <Gold.Chemscore.Internal_Hbond.Weighted>
0.0000

> <Gold.Chemscore.DEClash.Weighted>
0.0310

> <Gold.Chemscore.DEInternal.Weighted>
0.9534

> <Gold.Chemscore.Rot.Weighted>
8.0785

> <Gold.Chemscore.Internal.Correction.Weighted>
   9.000000E+99

> <Gold.Protein.RotatedTorsions>
[ 6907 6896 6895 6894 ] final   51.69 input  -60.11 | X-H torsion
[ 7974 7965 7964 7962 ] final  110.90 input  175.53 | X-H torsion
[ 8008 7997 7996 7995 ] final -131.26 input   59.86 | X-H torsion
[ 10167 10162 10161 10158 ] final -132.04 input  -65.29 | X-H torsion
[ 10718 10713 10712 10709 ] final  139.52 input   66.30 | X-H torsion
[ 10763 10752 10751 10750 ] final  147.00 input  -60.55 | X-H torsion
[ 11005 11000 10999 10996 ] final    9.58 input  -57.11 | X-H torsion

> <Gold.Protein.ActiveResidues>
 VAL166  LYS551  ARG553  GLY616  TRP617  ASP618  TYR619  PRO620  LYS621  CYS622 
 ASP623  PHE694  ASN695  SER759  ASP760  ASP761  ALA762  ILE779  LEU786  VAL792 
 PHE793  MET794  SER795  GLU796  ALA797  LYS798  CYS799  TRP800  GLU811  SER814 

> <Gold.Protein.RotatedAtoms>
  152.3153  134.7447  160.0326 H   0  0  0  0  0  0  0  0  0  0  0  0  # atno 6907 bound_to 6896
  151.7914  133.3354  159.3508 H   0  0  0  0  0  0  0  0  0  0  0  0  # atno 6908 bound_to 6896
  150.7341  134.5769  159.5963 H   0  0  0  0  0  0  0  0  0  0  0  0  # atno 6909 bound_to 6896
  145.2491  139.2747  143.4077 H   0  0  0  0  0  0  0  0  0  0  0  0  # atno 7974 bound_to 7965
  155.3093  140.0456  157.3034 H   0  0  0  0  0  0  0  0  0  0  0  0  # atno 8008 bound_to 7997
  154.5442  140.2297  155.8558 H   0  0  0  0  0  0  0  0  0  0  0  0  # atno 8009 bound_to 7997
  156.1908  140.3051  155.9336 H   0  0  0  0  0  0  0  0  0  0  0  0  # atno 8010 bound_to 7997
  139.9127  143.6475  152.2572 H   0  0  0  0  0  0  0  0  0  0  0  0  # atno 10167 bound_to 10162
  157.4134  131.1030  151.0430 H   0  0  0  0  0  0  0  0  0  0  0  0  # atno 10718 bound_to 10713
  154.0311  135.2897  155.3368 H   0  0  0  0  0  0  0  0  0  0  0  0  # atno 10763 bound_to 10752
  154.6988  135.5197  153.8499 H   0  0  0  0  0  0  0  0  0  0  0  0  # atno 10764 bound_to 10752
  153.0640  135.6624  154.0523 H   0  0  0  0  0  0  0  0  0  0  0  0  # atno 10765 bound_to 10752
  140.5241  134.0530  155.7853 H   0  0  0  0  0  0  0  0  0  0  0  0  # atno 11005 bound_to 11000
  146.3307  140.2876  142.8613 LP  0  0  0  0  0  0  0  0  0  0  0  0  # atno 17320 bound_to 7965
  144.9520  140.8187  143.5566 LP  0  0  0  0  0  0  0  0  0  0  0  0  # atno 17321 bound_to 7965
  139.6929  144.7645  151.1407 LP  0  0  0  0  0  0  0  0  0  0  0  0  # atno 17342 bound_to 10162
  140.7681  143.5564  150.9147 LP  0  0  0  0  0  0  0  0  0  0  0  0  # atno 17343 bound_to 10162
  157.1386  130.6133  149.5549 LP  0  0  0  0  0  0  0  0  0  0  0  0  # atno 17370 bound_to 10713
  155.9858  130.4889  150.7047 LP  0  0  0  0  0  0  0  0  0  0  0  0  # atno 17371 bound_to 10713
  141.1318  133.9290  157.2520 LP  0  0  0  0  0  0  0  0  0  0  0  0  # atno 17394 bound_to 11000
  139.9589  135.0159  156.9207 LP  0  0  0  0  0  0  0  0  0  0  0  0  # atno 17395 bound_to 11000

$$$$
