AV-unprocessed.smi:2458|AV-procd|sdf|9711|dock2
  -GOLD-   2272013353D 1   1.00000     0.00000
 Structure written by MMmdl.
 47 48  0  0  0  0  0  0  0  0  1 V2000
  151.1151  142.5517  157.2156 C   0  0  0  0  0  0  0  0  0  0  0  0
  150.2114  141.3101  157.0865 C   0  0  0  0  0  0  0  0  0  0  0  0
  151.0535  140.1408  156.5395 C   0  0  0  0  0  0  0  0  0  0  0  0
  148.9342  141.5815  156.2378 C   0  0  1  0  0  0  0  0  0  0  0  0
  149.1887  141.4123  154.7209 C   0  0  0  0  0  0  0  0  0  0  0  0
  147.9309  141.7026  153.8856 C   0  0  0  0  0  0  0  0  0  0  0  0
  146.7332  140.8150  154.2758 C   0  0  1  0  0  0  0  0  0  0  0  0
  146.8912  139.3777  153.7463 C   0  0  0  0  0  0  0  0  0  0  0  0
  147.8539  138.6796  154.0636 O   0  0  0  0  0  0  0  0  0  0  0  0
  145.9235  138.9489  152.9218 N   0  0  0  0  0  0  0  0  0  0  0  0
  145.9046  137.6556  152.2443 C   0  0  0  0  0  0  0  0  0  0  0  0
  144.6490  136.8128  152.5703 C   0  0  1  0  0  0  0  0  0  0  0  0
  143.5038  137.5613  152.2185 O   0  0  0  0  0  0  0  0  0  0  0  0
  144.6560  135.4383  151.9142 C   0  0  0  0  0  0  0  0  0  0  0  0
  143.5657  134.5533  152.0536 C   0  0  0  0  0  0  0  0  0  0  0  0
  143.6142  133.3058  151.4026 C   0  0  0  0  0  0  0  0  0  0  0  0
  144.7547  132.9931  150.6366 C   0  0  0  0  0  0  0  0  0  0  0  0
  145.8051  133.8297  150.4955 N   0  0  0  0  0  0  0  0  0  0  0  0
  145.7515  135.0227  151.1259 C   0  0  0  0  0  0  0  0  0  0  0  0
  146.4847  140.9037  155.7983 C   0  0  0  0  0  0  0  0  0  0  0  0
  147.7472  140.6790  156.6561 C   0  0  0  0  0  0  0  0  0  0  0  0
  148.6360  142.6171  156.4081 H   0  0  0  0  0  0  0  0  0  0  0  0
  145.8472  141.2217  153.7852 H   0  0  0  0  0  0  0  0  0  0  0  0
  151.3921  142.9442  156.2365 H   0  0  0  0  0  0  0  0  0  0  0  0
  152.0366  142.3138  157.7475 H   0  0  0  0  0  0  0  0  0  0  0  0
  150.6343  143.3514  157.7776 H   0  0  0  0  0  0  0  0  0  0  0  0
  149.8956  141.0354  158.0939 H   0  0  0  0  0  0  0  0  0  0  0  0
  151.3199  140.2986  155.4940 H   0  0  0  0  0  0  0  0  0  0  0  0
  150.5309  139.1880  156.6162 H   0  0  0  0  0  0  0  0  0  0  0  0
  151.9807  140.0267  157.1020 H   0  0  0  0  0  0  0  0  0  0  0  0
  149.9685  142.0919  154.3810 H   0  0  0  0  0  0  0  0  0  0  0  0
  149.5505  140.4042  154.5165 H   0  0  0  0  0  0  0  0  0  0  0  0
  147.6544  142.7501  154.0120 H   0  0  0  0  0  0  0  0  0  0  0  0
  148.1617  141.5842  152.8259 H   0  0  0  0  0  0  0  0  0  0  0  0
  145.1638  139.5812  152.7158 H   0  0  0  0  0  0  0  0  0  0  0  0
  146.0147  137.7875  151.1668 H   0  0  0  0  0  0  0  0  0  0  0  0
  146.7958  137.1247  152.5808 H   0  0  0  0  0  0  0  0  0  0  0  0
  144.6031  136.6660  153.6502 H   0  0  0  0  0  0  0  0  0  0  0  0
  143.5539  137.7748  151.2995 H   0  0  0  0  0  0  0  0  0  0  0  0
  142.7035  134.8272  152.6436 H   0  0  0  0  0  0  0  0  0  0  0  0
  142.7965  132.6055  151.4868 H   0  0  0  0  0  0  0  0  0  0  0  0
  144.8248  132.0457  150.1231 H   0  0  0  0  0  0  0  0  0  0  0  0
  146.6059  135.6686  150.9858 H   0  0  0  0  0  0  0  0  0  0  0  0
  146.0833  141.8920  156.0261 H   0  0  0  0  0  0  0  0  0  0  0  0
  145.7096  140.1960  156.0956 H   0  0  0  0  0  0  0  0  0  0  0  0
  148.0515  139.6336  156.6164 H   0  0  0  0  0  0  0  0  0  0  0  0
  147.4727  140.8687  157.6929 H   0  0  0  0  0  0  0  0  0  0  0  0
  1  2  1  0  0  0  0
  1 24  1  0  0  0  0
  1 25  1  0  0  0  0
  1 26  1  0  0  0  0
  2  3  1  0  0  0  0
  2  4  1  0  0  0  0
  2 27  1  0  0  0  0
  3 28  1  0  0  0  0
  3 29  1  0  0  0  0
  3 30  1  0  0  0  0
  4 22  1  0  0  0  0
  4 21  1  0  0  0  0
  4  5  1  0  0  0  0
  5  6  1  0  0  0  0
  5 31  1  0  0  0  0
  5 32  1  0  0  0  0
  6  7  1  0  0  0  0
  6 33  1  0  0  0  0
  6 34  1  0  0  0  0
  7 23  1  0  0  0  0
  7  8  1  0  0  0  0
  7 20  1  0  0  0  0
  8  9  2  0  0  0  0
  8 10  1  0  0  0  0
 10 11  1  0  0  0  0
 10 35  1  0  0  0  0
 11 12  1  0  0  0  0
 11 36  1  0  0  0  0
 11 37  1  0  0  0  0
 12 13  1  0  0  0  0
 12 14  1  0  0  0  0
 12 38  1  0  0  0  0
 13 39  1  0  0  0  0
 14 19  1  0  0  0  0
 14 15  2  0  0  0  0
 15 16  1  0  0  0  0
 15 40  1  0  0  0  0
 16 17  2  0  0  0  0
 16 41  1  0  0  0  0
 17 18  1  0  0  0  0
 17 42  1  0  0  0  0
 18 19  2  0  0  0  0
 19 43  1  0  0  0  0
 20 21  1  0  0  0  0
 20 44  1  0  0  0  0
 20 45  1  0  0  0  0
 21 46  1  0  0  0  0
 21 47  1  0  0  0  0
M  END
> <s_m_source_file>
AV-unprocessed.smi

> <i_m_source_file_index>
2458

> <i_lp_mmshare_version>
43012

> <i_f3d_flags>
0

> <s_epik_input>
W0NIM11bQ0hdKFtDSDNdKVtDQEhdMVtDSDJdW0NIMl1bQ0BASF0oW0NIMl1bQ0gyXTEpQyg9TylbTkhdW0NIMl1bQ0BIXShbT0hdKWMyW2NIXVtjSF1bY0hdbltjSF0y

> <s_epik_cmdline>
J2VwaWtfcHl0aG9uJywgJy1waCcsICc3LjAnLCAnLXRuJywgJzgnLCAnLW1hJywgJzIwMCcsICctbWV0YWxfYmluZGluZycsICctaW1hZScsICc8aW5maWxlLm1hZT4nLCAnLW9tYWUnLCAnPG91dGZpbGUubWFlPic=

> <r_epik_Ionization_Penalty>
0.00169206

> <r_epik_Ionization_Penalty_Charging>
0

> <r_epik_Ionization_Penalty_Neutral>
0.00169206

> <r_epik_State_Penalty>
0.0011427

> <r_epik_Charging_Adjusted_Penalty>
0.0011427

> <i_epik_Tot_Q>
0

> <i_epik_Tot_abs_Q>
0

> <r_epik_Metal_State_Penalty>
-0

> <b_epik_Metal_Only>
0

> <s_lp_Force_Field>
OPLS_2005

> <r_lp_Energy>
12.4203

> <b_lp_Chiralities_Consistent>
1

> <s_lp_Variant>
AV-unprocessed.smi:2458-4

> <Gold.Version>
5.8.1

> <Gold.Id.Protein>
6NUR|6NUR_protein|mol2

> <Gold.PLP.Fitness>
44.5904

> <Gold.PLP.PLP>
-36.7606

> <Gold.PLP.part.hbond>
-3.0000

> <Gold.PLP.part.metal>
0.0000

> <Gold.PLP.part.buried>
-6.4817

> <Gold.PLP.part.nonpolar>
-28.6528

> <Gold.PLP.part.repulsive>
0.8328

> <Gold.PLP.ligand.clash>
0.0000

> <Gold.PLP.ligand.torsion>
0.6429

> <Gold.PLP.Chemscore.Hbond>
2.0000

> <Gold.PLP.Chemscore.CHOScore>
1.0000

> <Gold.PLP.Chemscore.Metal>
0.0000

> <Gold.Chemscore.Hbonds>
donor molecule, donor type, donor heavy atom, donor atom, acceptor molecule, acceptor atom, score
      L1  H    10    35       P1 10175  1.00
      L1  H    13    39       P1 10171  1.00
      L1  C    19    43       P1  7948  1.00

> <Gold.PLP.Chemscore.Internal.Correction>
0.1156

> <Gold.Rescore>
     Score         DG    S(hbond)    S(metal)    S(lipo)     H(rot)  DE(clash)    DE(int)     intcor
     16.57     -17.30       1.97        0.00      89.85       2.06       0.08       0.65       ----

> <Gold.Chemscore.Fitness>
16.5679

> <Gold.Chemscore.DG>
-17.3049

> <Gold.Chemscore.ZeroCoef>
-5.4800

> <Gold.Chemscore.Hbond>
1.9709

> <Gold.Chemscore.Metal>
0.0000

> <Gold.Chemscore.Lipo>
89.8512

> <Gold.Chemscore.Internal_Hbond>
0.0000

> <Gold.Chemscore.DEClash>
0.0839

> <Gold.Chemscore.DEInternal>
0.6531

> <Gold.Chemscore.Rot>
2.0588

> <Gold.Chemscore.Internal.Correction>
   9.000000E+99

> <Gold.Chemscore.Hbonds>
donor molecule, donor type, donor heavy atom, donor atom, acceptor molecule, acceptor atom, score
      L1  H    10    35       P1 10175  1.00
      L1  H    13    39       P1 10171  0.96

> <Gold.Chemscore.Hbond.Weighted>
-6.5828

> <Gold.Chemscore.Metal.Weighted>
-0.0000

> <Gold.Chemscore.Lipo.Weighted>
-10.5126

> <Gold.Chemscore.Internal_Hbond.Weighted>
0.0000

> <Gold.Chemscore.DEClash.Weighted>
0.0839

> <Gold.Chemscore.DEInternal.Weighted>
0.6531

> <Gold.Chemscore.Rot.Weighted>
5.2705

> <Gold.Chemscore.Internal.Correction.Weighted>
   9.000000E+99

> <Gold.Protein.RotatedTorsions>
[ 6907 6896 6895 6894 ] final   52.13 input  -60.11 | X-H torsion
[ 7974 7965 7964 7962 ] final    5.26 input  175.53 | X-H torsion
[ 8008 7997 7996 7995 ] final  -76.90 input   59.86 | X-H torsion
[ 10167 10162 10161 10158 ] final   23.89 input  -65.29 | X-H torsion
[ 10718 10713 10712 10709 ] final  -19.85 input   66.30 | X-H torsion
[ 10763 10752 10751 10750 ] final -153.00 input  -60.55 | X-H torsion
[ 11005 11000 10999 10996 ] final -119.05 input  -57.11 | X-H torsion

> <Gold.Protein.ActiveResidues>
 VAL166  LYS551  ARG553  GLY616  TRP617  ASP618  TYR619  PRO620  LYS621  CYS622 
 ASP623  PHE694  ASN695  SER759  ASP760  ASP761  ALA762  ILE779  LEU786  VAL792 
 PHE793  MET794  SER795  GLU796  ALA797  LYS798  CYS799  TRP800  GLU811  SER814 

> <Gold.Protein.RotatedAtoms>
  152.3201  134.7391  160.0315 H   0  0  0  0  0  0  0  0  0  0  0  0  # atno 6907 bound_to 6896
  151.7843  133.3347  159.3488 H   0  0  0  0  0  0  0  0  0  0  0  0  # atno 6908 bound_to 6896
  150.7365  134.5833  159.5994 H   0  0  0  0  0  0  0  0  0  0  0  0  # atno 6909 bound_to 6896
  146.2441  140.0411  142.8382 H   0  0  0  0  0  0  0  0  0  0  0  0  # atno 7974 bound_to 7965
  154.5547  140.0719  156.8724 H   0  0  0  0  0  0  0  0  0  0  0  0  # atno 8008 bound_to 7997
  155.2926  140.3379  155.4233 H   0  0  0  0  0  0  0  0  0  0  0  0  # atno 8009 bound_to 7997
  156.1991  140.1715  156.7922 H   0  0  0  0  0  0  0  0  0  0  0  0  # atno 8010 bound_to 7997
  140.5232  143.9967  150.6427 H   0  0  0  0  0  0  0  0  0  0  0  0  # atno 10167 bound_to 10162
  156.5400  130.4676  149.6504 H   0  0  0  0  0  0  0  0  0  0  0  0  # atno 10718 bound_to 10713
  154.7957  135.3223  154.7672 H   0  0  0  0  0  0  0  0  0  0  0  0  # atno 10763 bound_to 10752
  153.8351  135.6876  153.4814 H   0  0  0  0  0  0  0  0  0  0  0  0  # atno 10764 bound_to 10752
  153.1647  135.4646  154.9763 H   0  0  0  0  0  0  0  0  0  0  0  0  # atno 10765 bound_to 10752
  141.0243  134.0077  157.3237 H   0  0  0  0  0  0  0  0  0  0  0  0  # atno 11005 bound_to 11000
  145.1068  140.9380  143.4680 LP  0  0  0  0  0  0  0  0  0  0  0  0  # atno 17320 bound_to 7965
  145.0616  139.3101  143.5877 LP  0  0  0  0  0  0  0  0  0  0  0  0  # atno 17321 bound_to 7965
  140.3322  143.3071  152.0676 LP  0  0  0  0  0  0  0  0  0  0  0  0  # atno 17342 bound_to 10162
  139.4930  144.6501  151.6693 LP  0  0  0  0  0  0  0  0  0  0  0  0  # atno 17343 bound_to 10162
  156.2981  130.7161  151.2026 LP  0  0  0  0  0  0  0  0  0  0  0  0  # atno 17370 bound_to 10713
  157.7407  131.0513  150.5148 LP  0  0  0  0  0  0  0  0  0  0  0  0  # atno 17371 bound_to 10713
  139.9166  135.0197  156.7903 LP  0  0  0  0  0  0  0  0  0  0  0  0  # atno 17394 bound_to 11000
  140.6519  133.9724  155.7759 LP  0  0  0  0  0  0  0  0  0  0  0  0  # atno 17395 bound_to 11000

$$$$
