AV-unprocessed.smi:3036|AV-procd|sdf|11585|dock4
  -GOLD-   2272016553D 1   1.00000     0.00000
 Structure written by MMmdl.
 41 42  0  0  0  0  0  0  0  0  1 V2000
  148.1121  131.7552  153.0183 C   0  0  0  0  0  0  0  0  0  0  0  0
  148.1066  133.1439  152.3589 C   0  0  1  0  0  0  0  0  0  0  0  0
  146.7370  133.8348  152.5086 C   0  0  0  0  0  0  0  0  0  0  0  0
  145.7555  133.3166  151.5706 N   0  0  0  0  0  0  0  0  0  0  0  0
  145.9715  132.7040  150.3539 C   0  0  0  0  0  0  0  0  0  0  0  0
  144.7496  132.3732  149.8427 C   0  0  0  0  0  0  0  0  0  0  0  0
  143.8350  132.8313  150.8318 C   0  0  0  0  0  0  0  0  0  0  0  0
  144.4396  133.3968  151.8641 N   0  0  0  0  0  0  0  0  0  0  0  0
  149.1233  133.9885  152.9752 N   0  0  0  0  0  0  0  0  0  0  0  0
  149.0619  133.9665  154.4311 C   0  0  0  0  0  0  0  0  0  0  0  0
  149.5067  135.3184  155.0270 C   0  0  0  0  0  0  0  0  0  0  0  0
  150.9177  135.7870  154.6141 C   0  0  0  0  0  0  0  0  0  0  0  0
  151.8278  134.9593  154.5391 O   0  0  0  0  0  0  0  0  0  0  0  0
  151.1209  137.1001  154.3486 N   0  0  0  0  0  0  0  0  0  0  0  0
  152.4243  137.6455  153.9577 C   0  0  0  0  0  0  0  0  0  0  0  0
  152.9188  138.5755  155.0797 C   0  0  0  0  0  0  0  0  0  0  0  0
  151.9608  139.6071  155.3030 O   0  0  0  0  0  0  0  0  0  0  0  0
  150.6742  139.1067  155.6584 C   0  0  0  0  0  0  0  0  0  0  0  0
  150.1501  138.1820  154.5446 C   0  0  0  0  0  0  0  0  0  0  0  0
  147.3393  131.1190  152.5863 H   0  0  0  0  0  0  0  0  0  0  0  0
  147.9235  131.8218  154.0905 H   0  0  0  0  0  0  0  0  0  0  0  0
  149.0643  131.2438  152.8768 H   0  0  0  0  0  0  0  0  0  0  0  0
  148.3163  133.0354  151.2937 H   0  0  0  0  0  0  0  0  0  0  0  0
  146.3504  133.6884  153.5184 H   0  0  0  0  0  0  0  0  0  0  0  0
  146.8258  134.9127  152.3647 H   0  0  0  0  0  0  0  0  0  0  0  0
  146.9661  132.5494  149.9622 H   0  0  0  0  0  0  0  0  0  0  0  0
  144.5411  131.8764  148.9070 H   0  0  0  0  0  0  0  0  0  0  0  0
  142.7567  132.7694  150.8306 H   0  0  0  0  0  0  0  0  0  0  0  0
  149.0618  134.9338  152.6251 H   0  0  0  0  0  0  0  0  0  0  0  0
  148.0442  133.7427  154.7503 H   0  0  0  0  0  0  0  0  0  0  0  0
  149.6996  133.1703  154.8179 H   0  0  0  0  0  0  0  0  0  0  0  0
  148.7787  136.0771  154.7373 H   0  0  0  0  0  0  0  0  0  0  0  0
  149.4780  135.2483  156.1150 H   0  0  0  0  0  0  0  0  0  0  0  0
  153.1689  136.8729  153.7631 H   0  0  0  0  0  0  0  0  0  0  0  0
  152.3184  138.2029  153.0261 H   0  0  0  0  0  0  0  0  0  0  0  0
  153.0878  138.0166  156.0017 H   0  0  0  0  0  0  0  0  0  0  0  0
  153.8697  139.0304  154.8020 H   0  0  0  0  0  0  0  0  0  0  0  0
  150.7301  138.5756  156.6101 H   0  0  0  0  0  0  0  0  0  0  0  0
  149.9960  139.9480  155.8014 H   0  0  0  0  0  0  0  0  0  0  0  0
  150.0426  138.7407  153.6140 H   0  0  0  0  0  0  0  0  0  0  0  0
  149.1502  137.8393  154.8037 H   0  0  0  0  0  0  0  0  0  0  0  0
  1  2  1  0  0  0  0
  1 20  1  0  0  0  0
  1 21  1  0  0  0  0
  1 22  1  0  0  0  0
  2  3  1  0  0  0  0
  2  9  1  0  0  0  0
  2 23  1  0  0  0  0
  3  4  1  0  0  0  0
  3 24  1  0  0  0  0
  3 25  1  0  0  0  0
  4  8  1  0  0  0  0
  4  5  1  0  0  0  0
  5  6  2  0  0  0  0
  5 26  1  0  0  0  0
  6  7  1  0  0  0  0
  6 27  1  0  0  0  0
  7  8  2  0  0  0  0
  7 28  1  0  0  0  0
  9 10  1  0  0  0  0
  9 29  1  0  0  0  0
 10 11  1  0  0  0  0
 10 30  1  0  0  0  0
 10 31  1  0  0  0  0
 11 12  1  0  0  0  0
 11 32  1  0  0  0  0
 11 33  1  0  0  0  0
 12 13  2  0  0  0  0
 12 14  1  0  0  0  0
 14 19  1  0  0  0  0
 14 15  1  0  0  0  0
 15 16  1  0  0  0  0
 15 34  1  0  0  0  0
 15 35  1  0  0  0  0
 16 17  1  0  0  0  0
 16 36  1  0  0  0  0
 16 37  1  0  0  0  0
 17 18  1  0  0  0  0
 18 19  1  0  0  0  0
 18 38  1  0  0  0  0
 18 39  1  0  0  0  0
 19 40  1  0  0  0  0
 19 41  1  0  0  0  0
M  END
> <s_m_source_file>
AV-unprocessed.smi

> <i_m_source_file_index>
3036

> <i_lp_mmshare_version>
43012

> <i_f3d_flags>
0

> <s_epik_input>
bjFbY0hdW2NIXVtjSF1uMVtDSDJdW0NAQEhdKFtDSDNdKVtOSF1bQ0gyXVtDSDJdQyg9TylOMltDSDJdW0NIMl1PW0NIMl1bQ0gyXTI=

> <s_epik_cmdline>
J2VwaWtfcHl0aG9uJywgJy1waCcsICc3LjAnLCAnLXRuJywgJzgnLCAnLW1hJywgJzIwMCcsICctbWV0YWxfYmluZGluZycsICctaW1hZScsICc8aW5maWxlLm1hZT4nLCAnLW9tYWUnLCAnPG91dGZpbGUubWFlPic=

> <r_lp_tautomer_probability>
1

> <r_epik_Ionization_Penalty>
2.55703

> <r_epik_Ionization_Penalty_Charging>
0

> <r_epik_Ionization_Penalty_Neutral>
2.55703

> <r_epik_State_Penalty>
2.726

> <r_epik_Charging_Adjusted_Penalty>
2.726

> <i_epik_Tot_Q>
0

> <i_epik_Tot_abs_Q>
0

> <r_epik_Metal_State_Penalty>
2.72597

> <b_epik_Metal_Only>
0

> <s_lp_Force_Field>
OPLS_2005

> <r_lp_Energy>
21.9246

> <b_lp_Chiralities_Consistent>
1

> <s_lp_Variant>
AV-unprocessed.smi:3036-4

> <Gold.Version>
5.8.1

> <Gold.Id.Protein>
6NUR|6NUR_protein|mol2

> <Gold.PLP.Fitness>
48.3743

> <Gold.PLP.PLP>
-35.3719

> <Gold.PLP.part.hbond>
-2.9819

> <Gold.PLP.part.metal>
0.0000

> <Gold.PLP.part.buried>
-4.4268

> <Gold.PLP.part.nonpolar>
-29.5252

> <Gold.PLP.part.repulsive>
0.2852

> <Gold.PLP.ligand.clash>
0.0000

> <Gold.PLP.ligand.torsion>
1.0914

> <Gold.PLP.Chemscore.Hbond>
2.9913

> <Gold.PLP.Chemscore.CHOScore>
2.0000

> <Gold.PLP.Chemscore.Metal>
0.0000

> <Gold.Chemscore.Hbonds>
donor molecule, donor type, donor heavy atom, donor atom, acceptor molecule, acceptor atom, score
      L1  H     9    29       P1  7948  0.24
      P1  H  7989  7998       L1    17  0.50
      P1  H 10752 10764       L1    13  0.17
      L1  C     5    26       P1 10747  0.75
      L1  C     7    28       P1 10186  0.50

> <Gold.PLP.Chemscore.Internal.Correction>
0.2114

> <Gold.Rescore>
     Score         DG    S(hbond)    S(metal)    S(lipo)     H(rot)  DE(clash)    DE(int)     intcor
     16.64     -17.80       2.42        0.00      79.70       1.99       0.14       1.02       ----

> <Gold.Chemscore.Fitness>
16.6394

> <Gold.Chemscore.DG>
-17.7950

> <Gold.Chemscore.ZeroCoef>
-5.4800

> <Gold.Chemscore.Hbond>
2.4204

> <Gold.Chemscore.Metal>
0.0000

> <Gold.Chemscore.Lipo>
79.7023

> <Gold.Chemscore.Internal_Hbond>
0.0000

> <Gold.Chemscore.DEClash>
0.1373

> <Gold.Chemscore.DEInternal>
1.0184

> <Gold.Chemscore.Rot>
1.9900

> <Gold.Chemscore.Internal.Correction>
   9.000000E+99

> <Gold.Chemscore.Hbonds>
donor molecule, donor type, donor heavy atom, donor atom, acceptor molecule, acceptor atom, score
      P1  H  7989  7998       L1    17  0.24
      P1  H 10752 10764       L1    13  0.15

> <Gold.Chemscore.Hbond.Weighted>
-8.0842

> <Gold.Chemscore.Metal.Weighted>
-0.0000

> <Gold.Chemscore.Lipo.Weighted>
-9.3252

> <Gold.Chemscore.Internal_Hbond.Weighted>
0.0000

> <Gold.Chemscore.DEClash.Weighted>
0.1373

> <Gold.Chemscore.DEInternal.Weighted>
1.0184

> <Gold.Chemscore.Rot.Weighted>
5.0944

> <Gold.Chemscore.Internal.Correction.Weighted>
   9.000000E+99

> <Gold.Protein.RotatedTorsions>
[ 6907 6896 6895 6894 ] final  -46.73 input  -60.11 | X-H torsion
[ 7974 7965 7964 7962 ] final -102.25 input  175.53 | X-H torsion
[ 8008 7997 7996 7995 ] final  -24.36 input   59.86 | X-H torsion
[ 10167 10162 10161 10158 ] final  176.18 input  -65.29 | X-H torsion
[ 10718 10713 10712 10709 ] final  156.67 input   66.30 | X-H torsion
[ 10763 10752 10751 10750 ] final  -47.23 input  -60.55 | X-H torsion
[ 11005 11000 10999 10996 ] final  146.08 input  -57.11 | X-H torsion

> <Gold.Protein.ActiveResidues>
 VAL166  LYS551  ARG553  GLY616  TRP617  ASP618  TYR619  PRO620  LYS621  CYS622 
 ASP623  PHE694  ASN695  SER759  ASP760  ASP761  ALA762  ILE779  LEU786  VAL792 
 PHE793  MET794  SER795  GLU796  ALA797  LYS798  CYS799  TRP800  GLU811  SER814 

> <Gold.Protein.RotatedAtoms>
  150.9082  134.8498  159.7406 H   0  0  0  0  0  0  0  0  0  0  0  0  # atno 6907 bound_to 6896
  152.4930  134.4399  159.9550 H   0  0  0  0  0  0  0  0  0  0  0  0  # atno 6908 bound_to 6896
  151.4444  133.3595  159.2821 H   0  0  0  0  0  0  0  0  0  0  0  0  # atno 6909 bound_to 6896
  145.2711  140.9299  143.2986 H   0  0  0  0  0  0  0  0  0  0  0  0  # atno 7974 bound_to 7965
  154.4534  140.1956  156.0452 H   0  0  0  0  0  0  0  0  0  0  0  0  # atno 8008 bound_to 7997
  156.0695  140.3286  155.7531 H   0  0  0  0  0  0  0  0  0  0  0  0  # atno 8009 bound_to 7997
  155.5286  140.0576  157.2884 H   0  0  0  0  0  0  0  0  0  0  0  0  # atno 8010 bound_to 7997
  139.5205  144.2945  152.0434 H   0  0  0  0  0  0  0  0  0  0  0  0  # atno 10167 bound_to 10162
  157.2019  131.0678  151.2020 H   0  0  0  0  0  0  0  0  0  0  0  0  # atno 10718 bound_to 10713
  154.0580  135.6622  153.4808 H   0  0  0  0  0  0  0  0  0  0  0  0  # atno 10763 bound_to 10752
  153.0438  135.5128  154.7687 H   0  0  0  0  0  0  0  0  0  0  0  0  # atno 10764 bound_to 10752
  154.6714  135.3030  154.9703 H   0  0  0  0  0  0  0  0  0  0  0  0  # atno 10765 bound_to 10752
  140.0764  134.9122  157.1429 H   0  0  0  0  0  0  0  0  0  0  0  0  # atno 11005 bound_to 11000
  144.9334  139.4272  143.6484 LP  0  0  0  0  0  0  0  0  0  0  0  0  # atno 17320 bound_to 7965
  146.3246  139.8257  142.8918 LP  0  0  0  0  0  0  0  0  0  0  0  0  # atno 17321 bound_to 7965
  140.2395  144.4285  150.6266 LP  0  0  0  0  0  0  0  0  0  0  0  0  # atno 17342 bound_to 10162
  140.6300  143.2186  151.6515 LP  0  0  0  0  0  0  0  0  0  0  0  0  # atno 17343 bound_to 10162
  157.3759  130.7205  149.6596 LP  0  0  0  0  0  0  0  0  0  0  0  0  # atno 17370 bound_to 10713
  155.9699  130.4186  150.4335 LP  0  0  0  0  0  0  0  0  0  0  0  0  # atno 17371 bound_to 10713
  140.3552  134.2555  155.7193 LP  0  0  0  0  0  0  0  0  0  0  0  0  # atno 17394 bound_to 11000
  141.2031  133.7921  157.0358 LP  0  0  0  0  0  0  0  0  0  0  0  0  # atno 17395 bound_to 11000

$$$$
