#       Name:                AV-unprocessed.smi:208
#       Creating user name   scv26
#       Creation time:       Thu Mar 26 19:52:28 2020


#       File generated by GOLD software.
#

@<TRIPOS>MOLECULE
AV-unprocessed.smi:208
    59    62     1
SMALL
NO_CHARGES


@<TRIPOS>ATOM
      1 ****        -1.2110  -3.3727  -0.8044 C.3            1 S1                 0.0000
      2 ****        -2.5969  -2.7897  -0.4872 C.3            1 S1                 0.0000
      3 ****        -2.6799  -1.2387  -0.5320 C.3            1 S1                 0.0000
      4 ****        -4.1444  -0.7982  -0.7527 C.2            1 S1                 0.0000
      5 ****        -4.6591  -1.0210  -1.8499 O.2            1 S1                 0.0000
      6 ****        -4.8197  -0.1785   0.2445 N.am           1 S1                 0.0000
      7 ****        -6.2048   0.2533   0.0508 C.3            1 S1                 0.0000
      8 ****        -4.2527   0.1383   1.5615 C.3            1 S1                 0.0000
      9 ****        -2.9302  -0.5785   1.8673 C.3            1 S1                 0.0000
     10 ****        -2.0958  -0.6276   0.6711 N.pl3          1 S1                 0.0000
     11 ****        -0.7440  -0.6269   0.8171 C.ar           1 S1                 0.0000
     12 ****        -0.2003  -1.1459   1.9506 N.ar           1 S1                 0.0000
     13 ****         1.1252  -1.1933   2.1066 C.ar           1 S1                 0.0000
     14 ****         2.0777  -0.7806   1.2698 N.ar           1 S1                 0.0000
     15 ****         1.5434  -0.2409   0.1381 C.ar           1 S1                 0.0000
     16 ****         0.1565  -0.1252  -0.1671 C.ar           1 S1                 0.0000
     17 ****        -0.0000   0.4857  -1.4059 N.2            1 S1                 0.0000
     18 ****         1.2191   0.7000  -1.8164 C.2            1 S1                 0.0000
     19 ****         2.2095   0.3034  -0.9467 N.pl3          1 S1                 0.0000
     20 ****         3.6450   0.4267  -1.1549 C.3            1 S1                 0.0000
     21 ****         4.2946   1.6273  -0.4382 C.3            1 S1                 0.0000
     22 ****         3.5207   2.9121  -0.8009 C.3            1 S1                 0.0000
     23 ****         4.1355   4.0780  -0.2893 O.3            1 S1                 0.0000
     24 ****         4.6183   1.4368   1.0512 C.3            1 S1                 0.0000
     25 ****         5.9993   1.8139   0.8581 O.3            1 S1                 0.0000
     26 ****         5.8232   1.6977  -0.5706 C.3            1 S1                 0.0000
     27 ****        -1.2668  -4.4566  -0.9054 H              1 S1                 0.0000
     28 ****        -0.4876  -3.1639  -0.0183 H              1 S1                 0.0000
     29 ****        -0.8185  -2.9738  -1.7400 H              1 S1                 0.0000
     30 ****        -3.2835  -3.2110  -1.2230 H              1 S1                 0.0000
     31 ****        -2.9406  -3.1669   0.4761 H              1 S1                 0.0000
     32 ****        -2.1519  -0.8948  -1.4192 H              1 S1                 0.0000
     33 ****        -6.8605  -0.6108  -0.0647 H              1 S1                 0.0000
     34 ****        -6.2980   0.8754  -0.8408 H              1 S1                 0.0000
     35 ****        -6.5727   0.8394   0.8939 H              1 S1                 0.0000
     36 ****        -4.0848   1.2159   1.5880 H              1 S1                 0.0000
     37 ****        -4.9748  -0.0828   2.3487 H              1 S1                 0.0000
     38 ****        -2.4340  -0.0597   2.6889 H              1 S1                 0.0000
     39 ****        -3.1257  -1.5959   2.2076 H              1 S1                 0.0000
     40 ****         1.4720  -1.6269   3.0330 H              1 S1                 0.0000
     41 ****         1.4304   1.1652  -2.7683 H              1 S1                 0.0000
     42 ****         4.1088  -0.5078  -0.8366 H              1 S1                 0.0000
     43 ****         3.8246   0.4912  -2.2288 H              1 S1                 0.0000
     44 ****         3.4349   3.0213  -1.8824 H              1 S1                 0.0000
     45 ****         2.5065   2.8867  -0.4021 H              1 S1                 0.0000
     46 ****         3.6067   4.8256  -0.5233 H              1 S1                 0.0000
     47 ****         4.0841   2.1165   1.7159 H              1 S1                 0.0000
     48 ****         4.5348   0.4072   1.4002 H              1 S1                 0.0000
     49 ****         6.2762   0.7836  -0.9580 H              1 S1                 0.0000
     50 ****         6.1914   2.5686  -1.1137 H              1 S1                 0.0000
     51 ****        -4.1306  -1.4751  -2.5671 LP             1 S1                 0.0000
     52 ****        -5.6053  -0.7477  -2.0230 LP             1 S1                 0.0000
     53 ****        -0.7977  -1.4947   2.6728 LP             1 S1                 0.0000
     54 ****         3.0584  -0.8573   1.4496 LP             1 S1                 0.0000
     55 ****        -0.8538   0.7100  -1.8757 LP             1 S1                 0.0000
     56 ****         5.0501   4.1763  -0.6816 LP             1 S1                 0.0000
     57 ****         4.2050   4.0129   0.7062 LP             1 S1                 0.0000
     58 ****         6.6579   1.1674   1.2433 LP             1 S1                 0.0000
     59 ****         6.2186   2.7385   1.1697 LP             1 S1                 0.0000
@<TRIPOS>BOND
    1    1    2 1     
    2    1   27 1     
    3    1   28 1     
    4    1   29 1     
    5    2    3 1     
    6    2   30 1     
    7    2   31 1     
    8    3   10 1     
    9    3    4 1     
   10    3   32 1     
   11    4    5 2     
   12    4    6 am    
   13    6    7 1     
   14    6    8 1     
   15    7   33 1     
   16    7   34 1     
   17    7   35 1     
   18    8    9 1     
   19    8   36 1     
   20    8   37 1     
   21    9   10 1     
   22    9   38 1     
   23    9   39 1     
   24   10   11 1     
   25   11   16 ar    
   26   11   12 ar    
   27   12   13 ar    
   28   13   14 ar    
   29   13   40 1     
   30   14   15 ar    
   31   15   19 1     
   32   15   16 ar    
   33   16   17 1     
   34   17   18 2     
   35   18   19 1     
   36   18   41 1     
   37   19   20 1     
   38   20   21 1     
   39   20   42 1     
   40   20   43 1     
   41   21   26 1     
   42   21   22 1     
   43   21   24 1     
   44   22   23 1     
   45   22   44 1     
   46   22   45 1     
   47   23   46 1     
   48   24   25 1     
   49   24   47 1     
   50   24   48 1     
   51   25   26 1     
   52   26   49 1     
   53   26   50 1     
   54    5   51 1     
   55    5   52 1     
   56   12   53 1     
   57   14   54 1     
   58   17   55 1     
   59   23   56 1     
   60   23   57 1     
   61   25   58 1     
   62   25   59 1     
@<TRIPOS>SUBSTRUCTURE
      1 S1             1
@<TRIPOS>SET
LONE_PAIRS      STATIC     ATOMS    <user>   **** ""
9 51 52 53 54 55 56 57 58 59
DONOR_HYDROGENS      STATIC     ATOMS    <user>   **** ""
1 46
ATOM$BLUE        STATIC     ATOMS    COLORGROUP SYSTEM
9 51 52 53 54 55 56 57 58 59
ATOM$RED        STATIC     ATOMS    COLORGROUP SYSTEM
1 46
