AV-unprocessed.smi:2163|AV-procd|sdf|8806|dock9
  -GOLD-   2272011593D 1   1.00000     0.00000
 Structure written by MMmdl.
 44 46  0  0  0  0  0  0  0  0  2 V2000
  149.0760  141.3189  155.1742 C   0  0  0  0  0  0  0  0  0  0  0  0
  150.0860  141.7179  156.1969 C   0  0  0  0  0  0  0  0  0  0  0  0
  150.4383  142.9938  156.5201 N   0  3  0  0  0  0  0  0  0  0  0  0
  151.4111  142.9759  157.5204 C   0  0  0  0  0  0  0  0  0  0  0  0
  152.0695  144.0166  158.1680 C   0  0  0  0  0  0  0  0  0  0  0  0
  153.0116  143.6538  159.1525 C   0  0  0  0  0  0  0  0  0  0  0  0
  153.2690  142.3019  159.4594 C   0  0  0  0  0  0  0  0  0  0  0  0
  152.5965  141.2553  158.7946 C   0  0  0  0  0  0  0  0  0  0  0  0
  151.6658  141.6220  157.8223 C   0  0  0  0  0  0  0  0  0  0  0  0
  150.8256  140.8826  156.9807 N   0  0  0  0  0  0  0  0  0  0  0  0
  150.8372  139.4127  157.0427 C   0  0  0  0  0  0  0  0  0  0  0  0
  151.6224  138.7760  155.8780 C   0  0  2  0  0  0  0  0  0  0  0  0
  151.1748  139.2465  154.6225 O   0  0  0  0  0  0  0  0  0  0  0  0
  151.5949  137.2392  155.8821 C   0  0  0  0  0  0  0  0  0  0  0  0
  150.3293  136.7777  156.3392 O   0  0  0  0  0  0  0  0  0  0  0  0
  149.7110  135.7647  155.6381 C   0  0  0  0  0  0  0  0  0  0  0  0
  148.3056  135.5977  155.5502 C   0  0  0  0  0  0  0  0  0  0  0  0
  147.7586  134.5315  154.8098 C   0  0  0  0  0  0  0  0  0  0  0  0
  148.6034  133.6191  154.1480 C   0  0  0  0  0  0  0  0  0  0  0  0
  148.0133  132.4743  153.3507 C   0  0  0  0  0  0  0  0  0  0  0  0
  147.2732  132.9464  152.1706 C   0  0  0  0  0  0  0  0  0  0  0  0
  146.6912  133.3176  151.2421 N   0  0  0  0  0  0  0  0  0  0  0  0
  150.0004  133.7793  154.2304 C   0  0  0  0  0  0  0  0  0  0  0  0
  150.5465  134.8451  154.9713 C   0  0  0  0  0  0  0  0  0  0  0  0
  148.6339  142.1997  154.7077 H   0  0  0  0  0  0  0  0  0  0  0  0
  148.2799  140.7363  155.6379 H   0  0  0  0  0  0  0  0  0  0  0  0
  149.5449  140.7140  154.3980 H   0  0  0  0  0  0  0  0  0  0  0  0
  151.8730  145.0529  157.9354 H   0  0  0  0  0  0  0  0  0  0  0  0
  153.5465  144.4278  159.6838 H   0  0  0  0  0  0  0  0  0  0  0  0
  153.9966  142.0623  160.2213 H   0  0  0  0  0  0  0  0  0  0  0  0
  152.8002  140.2240  159.0415 H   0  0  0  0  0  0  0  0  0  0  0  0
  151.2951  139.1335  157.9922 H   0  0  0  0  0  0  0  0  0  0  0  0
  149.8110  139.0475  157.0848 H   0  0  0  0  0  0  0  0  0  0  0  0
  152.6651  139.0857  155.9568 H   0  0  0  0  0  0  0  0  0  0  0  0
  150.6231  138.5846  154.2344 H   0  0  0  0  0  0  0  0  0  0  0  0
  151.8188  136.8529  154.8861 H   0  0  0  0  0  0  0  0  0  0  0  0
  152.3704  136.8784  156.5601 H   0  0  0  0  0  0  0  0  0  0  0  0
  147.6235  136.2741  156.0422 H   0  0  0  0  0  0  0  0  0  0  0  0
  146.6861  134.4171  154.7508 H   0  0  0  0  0  0  0  0  0  0  0  0
  148.8054  131.8040  153.0163 H   0  0  0  0  0  0  0  0  0  0  0  0
  147.3334  131.8928  153.9739 H   0  0  0  0  0  0  0  0  0  0  0  0
  150.6564  133.0860  153.7248 H   0  0  0  0  0  0  0  0  0  0  0  0
  151.6192  134.9590  155.0273 H   0  0  0  0  0  0  0  0  0  0  0  0
  150.0386  143.8164  156.0872 H   0  0  0  0  0  0  0  0  0  0  0  0
  1  2  1  0  0  0  0
  1 25  1  0  0  0  0
  1 26  1  0  0  0  0
  1 27  1  0  0  0  0
  2 10  1  0  0  0  0
  2  3  2  0  0  0  0
  3  4  1  0  0  0  0
  3 44  1  0  0  0  0
  4  9  2  0  0  0  0
  4  5  1  0  0  0  0
  5  6  2  0  0  0  0
  5 28  1  0  0  0  0
  6  7  1  0  0  0  0
  6 29  1  0  0  0  0
  7  8  2  0  0  0  0
  7 30  1  0  0  0  0
  8  9  1  0  0  0  0
  8 31  1  0  0  0  0
  9 10  1  0  0  0  0
 10 11  1  0  0  0  0
 11 12  1  0  0  0  0
 11 32  1  0  0  0  0
 11 33  1  0  0  0  0
 12 13  1  0  0  0  0
 12 14  1  0  0  0  0
 12 34  1  0  0  0  0
 13 35  1  0  0  0  0
 14 15  1  0  0  0  0
 14 36  1  0  0  0  0
 14 37  1  0  0  0  0
 15 16  1  0  0  0  0
 16 24  1  0  0  0  0
 16 17  2  0  0  0  0
 17 18  1  0  0  0  0
 17 38  1  0  0  0  0
 18 19  2  0  0  0  0
 18 39  1  0  0  0  0
 19 20  1  0  0  0  0
 19 23  1  0  0  0  0
 20 21  1  0  0  0  0
 20 40  1  0  0  0  0
 20 41  1  0  0  0  0
 21 22  3  0  0  0  0
 23 24  2  0  0  0  0
 23 42  1  0  0  0  0
 24 43  1  0  0  0  0
M  CHG  1   3   1
M  END
> <s_m_source_file>
AV-unprocessed.smi

> <i_m_source_file_index>
2163

> <i_lp_mmshare_version>
43012

> <i_f3d_flags>
0

> <s_epik_input>
W2NIXTFbY0hdW2NIXVtjSF1jKGMxMiluKGMobjIpW0NIM10pW0NIMl1bQ0BIXShbT0hdKVtDSDJdT2MzW2NIXVtjSF1jKFtDSDJdQyNOKVtjSF1bY0hdMw==

> <s_epik_cmdline>
J2VwaWtfcHl0aG9uJywgJy1waCcsICc3LjAnLCAnLXRuJywgJzgnLCAnLW1hJywgJzIwMCcsICctbWV0YWxfYmluZGluZycsICctaW1hZScsICc8aW5maWxlLm1hZT4nLCAnLW9tYWUnLCAnPG91dGZpbGUubWFlPic=

> <r_lp_tautomer_probability>
1

> <r_epik_Ionization_Penalty>
1.03158

> <r_epik_Ionization_Penalty_Charging>
1.03158

> <r_epik_Ionization_Penalty_Neutral>
2.3994e-06

> <r_epik_State_Penalty>
1.08278

> <r_epik_Charging_Adjusted_Penalty>
2.11436

> <i_epik_Tot_Q>
1

> <i_epik_Tot_abs_Q>
1

> <r_epik_Metal_State_Penalty>
5.07177

> <b_epik_Metal_Only>
0

> <s_lp_Force_Field>
OPLS_2005

> <r_lp_Energy>
21.0912

> <b_lp_Chiralities_Consistent>
1

> <s_lp_Variant>
AV-unprocessed.smi:2163-3

> <Gold.Version>
5.8.1

> <Gold.Id.Protein>
6NUR|6NUR_protein|mol2

> <Gold.PLP.Fitness>
51.2028

> <Gold.PLP.PLP>
-44.6979

> <Gold.PLP.part.hbond>
-2.0000

> <Gold.PLP.part.metal>
0.0000

> <Gold.PLP.part.buried>
-7.3293

> <Gold.PLP.part.nonpolar>
-37.3687

> <Gold.PLP.part.repulsive>
0.2930

> <Gold.PLP.ligand.clash>
0.0000

> <Gold.PLP.ligand.torsion>
1.3107

> <Gold.PLP.Chemscore.Hbond>
3.0000

> <Gold.PLP.Chemscore.CHOScore>
0.0000

> <Gold.PLP.Chemscore.Metal>
0.0000

> <Gold.Chemscore.Hbonds>
donor molecule, donor type, donor heavy atom, donor atom, acceptor molecule, acceptor atom, score
      L1  H     3    44       P1  8028  1.92
      P1  H  7989  7998       L1    13  1.00

> <Gold.PLP.Chemscore.Internal.Correction>
0.1264

> <Gold.Rescore>
     Score         DG    S(hbond)    S(metal)    S(lipo)     H(rot)  DE(clash)    DE(int)     intcor
     17.41     -19.11       1.97        0.00     117.18       2.60       0.16       1.54       ----

> <Gold.Chemscore.Fitness>
17.4073

> <Gold.Chemscore.DG>
-19.1077

> <Gold.Chemscore.ZeroCoef>
-5.4800

> <Gold.Chemscore.Hbond>
1.9714

> <Gold.Chemscore.Metal>
0.0000

> <Gold.Chemscore.Lipo>
117.1770

> <Gold.Chemscore.Internal_Hbond>
0.0000

> <Gold.Chemscore.DEClash>
0.1587

> <Gold.Chemscore.DEInternal>
1.5416

> <Gold.Chemscore.Rot>
2.6041

> <Gold.Chemscore.Internal.Correction>
   9.000000E+99

> <Gold.Chemscore.Hbonds>
donor molecule, donor type, donor heavy atom, donor atom, acceptor molecule, acceptor atom, score
      L1  H     3    44       P1  8028  0.89
      P1  H  7989  7998       L1    13  0.89

> <Gold.Chemscore.Hbond.Weighted>
-6.5845

> <Gold.Chemscore.Metal.Weighted>
-0.0000

> <Gold.Chemscore.Lipo.Weighted>
-13.7097

> <Gold.Chemscore.Internal_Hbond.Weighted>
0.0000

> <Gold.Chemscore.DEClash.Weighted>
0.1587

> <Gold.Chemscore.DEInternal.Weighted>
1.5416

> <Gold.Chemscore.Rot.Weighted>
6.6665

> <Gold.Chemscore.Internal.Correction.Weighted>
   9.000000E+99

> <Gold.Protein.RotatedTorsions>
[ 6907 6896 6895 6894 ] final  176.63 input  -60.11 | X-H torsion
[ 7974 7965 7964 7962 ] final  -29.59 input  175.53 | X-H torsion
[ 8008 7997 7996 7995 ] final  -41.30 input   59.86 | X-H torsion
[ 10167 10162 10161 10158 ] final  -21.22 input  -65.29 | X-H torsion
[ 10718 10713 10712 10709 ] final  128.30 input   66.30 | X-H torsion
[ 10763 10752 10751 10750 ] final -146.24 input  -60.55 | X-H torsion
[ 11005 11000 10999 10996 ] final -119.30 input  -57.11 | X-H torsion

> <Gold.Protein.ActiveResidues>
 VAL166  LYS551  ARG553  GLY616  TRP617  ASP618  TYR619  PRO620  LYS621  CYS622 
 ASP623  PHE694  ASN695  SER759  ASP760  ASP761  ALA762  ILE779  LEU786  VAL792 
 PHE793  MET794  SER795  GLU796  ALA797  LYS798  CYS799  TRP800  GLU811  SER814 

> <Gold.Protein.RotatedAtoms>
  151.7171  133.3313  159.3305 H   0  0  0  0  0  0  0  0  0  0  0  0  # atno 6907 bound_to 6896
  150.7669  134.6481  159.6282 H   0  0  0  0  0  0  0  0  0  0  0  0  # atno 6908 bound_to 6896
  152.3675  134.6785  160.0239 H   0  0  0  0  0  0  0  0  0  0  0  0  # atno 6909 bound_to 6896
  146.1206  140.5431  142.8737 H   0  0  0  0  0  0  0  0  0  0  0  0  # atno 7974 bound_to 7965
  154.4005  140.1503  156.3169 H   0  0  0  0  0  0  0  0  0  0  0  0  # atno 8008 bound_to 7997
  155.8565  140.3455  155.5706 H   0  0  0  0  0  0  0  0  0  0  0  0  # atno 8009 bound_to 7997
  155.7927  140.0859  157.1990 H   0  0  0  0  0  0  0  0  0  0  0  0  # atno 8010 bound_to 7997
  140.7281  143.4649  151.0328 H   0  0  0  0  0  0  0  0  0  0  0  0  # atno 10167 bound_to 10162
  157.5256  131.1098  150.9087 H   0  0  0  0  0  0  0  0  0  0  0  0  # atno 10718 bound_to 10713
  154.8345  135.3392  154.6630 H   0  0  0  0  0  0  0  0  0  0  0  0  # atno 10763 bound_to 10752
  153.7246  135.6956  153.5009 H   0  0  0  0  0  0  0  0  0  0  0  0  # atno 10764 bound_to 10752
  153.2356  135.4401  155.0595 H   0  0  0  0  0  0  0  0  0  0  0  0  # atno 10765 bound_to 10752
  141.0225  134.0103  157.3262 H   0  0  0  0  0  0  0  0  0  0  0  0  # atno 11005 bound_to 11000
  144.7593  140.5384  143.6747 LP  0  0  0  0  0  0  0  0  0  0  0  0  # atno 17320 bound_to 7965
  145.5475  139.1476  143.3413 LP  0  0  0  0  0  0  0  0  0  0  0  0  # atno 17321 bound_to 7965
  139.8336  143.7658  152.3180 LP  0  0  0  0  0  0  0  0  0  0  0  0  # atno 17342 bound_to 10162
  139.7782  144.7453  151.0126 LP  0  0  0  0  0  0  0  0  0  0  0  0  # atno 17343 bound_to 10162
  156.9684  130.5481  149.5289 LP  0  0  0  0  0  0  0  0  0  0  0  0  # atno 17370 bound_to 10713
  156.0385  130.5470  150.8712 LP  0  0  0  0  0  0  0  0  0  0  0  0  # atno 17371 bound_to 10713
  139.9155  135.0196  156.7864 LP  0  0  0  0  0  0  0  0  0  0  0  0  # atno 17394 bound_to 11000
  140.6548  133.9698  155.7774 LP  0  0  0  0  0  0  0  0  0  0  0  0  # atno 17395 bound_to 11000

$$$$
