#       Name:                AV-unprocessed.smi:2695
#       Creating user name   scv26
#       Creation time:       Fri Mar 27 14:44:59 2020


#       File generated by GOLD software.
#

@<TRIPOS>MOLECULE
AV-unprocessed.smi:2695
    48    49     1
SMALL
NO_CHARGES


@<TRIPOS>ATOM
      1 ****        -2.6308   1.6805  -3.0562 C.3            1 S1                 0.0000
      2 ****        -2.6962   2.4917  -1.7685 C.2            1 S1                 0.0000
      3 ****        -3.1338   3.7714  -1.8129 C.2            1 S1                 0.0000
      4 ****        -3.1780   4.5981  -0.5945 C.2            1 S1                 0.0000
      5 ****        -3.6011   5.7522  -0.6035 O.2            1 S1                 0.0000
      6 ****        -2.6802   3.9590   0.6316 C.2            1 S1                 0.0000
      7 ****        -2.2669   2.6780   0.5810 C.2            1 S1                 0.0000
      8 ****        -1.7861   2.0572   1.6693 O.3            1 S1                 0.0000
      9 ****        -2.2772   1.8676  -0.5718 N.pl3          1 S1                 0.0000
     10 ****        -1.8771   0.4493  -0.5249 C.3            1 S1                 0.0000
     11 ****        -0.3652   0.2372  -0.6882 C.2            1 S1                 0.0000
     12 ****         0.3736   1.1658  -1.0183 O.2            1 S1                 0.0000
     13 ****         0.0743  -1.0089  -0.4562 N.am           1 S1                 0.0000
     14 ****         1.4639  -1.4620  -0.5413 C.3            1 S1                 0.0000
     15 ****         1.8339  -2.2098   0.7647 C.3            1 S1                 0.0000
     16 ****         1.5933  -1.3971   2.0437 C.3            1 S1                 0.0000
     17 ****         2.3979  -2.1258   3.1196 C.3            1 S1                 0.0000
     18 ****         3.5961  -2.7470   2.3909 C.3            1 S1                 0.0000
     19 ****         3.3118  -2.6087   0.8885 C.3            1 S1                 0.0000
     20 ****         1.6418  -2.3106  -1.8220 C.3            1 S1                 0.0000
     21 ****         1.2608  -1.6081  -2.8897 F              1 S1                 0.0000
     22 ****         2.9181  -2.6514  -1.9958 F              1 S1                 0.0000
     23 ****         0.9039  -3.4195  -1.7562 F              1 S1                 0.0000
     24 ****        -2.6943   2.3309  -3.9291 H              1 S1                 0.0000
     25 ****        -3.4625   0.9774  -3.1061 H              1 S1                 0.0000
     26 ****        -1.6947   1.1294  -3.1432 H              1 S1                 0.0000
     27 ****        -3.4477   4.2218  -2.7434 H              1 S1                 0.0000
     28 ****        -2.6480   4.5335   1.5461 H              1 S1                 0.0000
     29 ****        -2.1991  -0.0072   0.4120 H              1 S1                 0.0000
     30 ****        -2.3960  -0.1351  -1.2836 H              1 S1                 0.0000
     31 ****        -0.6086  -1.7063  -0.1984 H              1 S1                 0.0000
     32 ****         2.1238  -0.5965  -0.6223 H              1 S1                 0.0000
     33 ****         1.2335  -3.1186   0.8343 H              1 S1                 0.0000
     34 ****         1.9800  -0.3843   1.9204 H              1 S1                 0.0000
     35 ****         0.5372  -1.3185   2.3039 H              1 S1                 0.0000
     36 ****         2.7011  -1.4608   3.9288 H              1 S1                 0.0000
     37 ****         1.7880  -2.9171   3.5572 H              1 S1                 0.0000
     38 ****         4.5239  -2.2365   2.6517 H              1 S1                 0.0000
     39 ****         3.7108  -3.7937   2.6744 H              1 S1                 0.0000
     40 ****         3.5371  -3.5287   0.3485 H              1 S1                 0.0000
     41 ****         3.9459  -1.8228   0.4755 H              1 S1                 0.0000
     42 ****        -1.8093   2.6760   2.3834 H              1 S1                 0.0000
     43 ****        -3.9294   6.1577  -1.4566 LP             1 S1                 0.0000
     44 ****        -3.6169   6.2855   0.2423 LP             1 S1                 0.0000
     45 ****        -0.8453   1.7604   1.5053 LP             1 S1                 0.0000
     46 ****        -2.3529   1.2628   1.8875 LP             1 S1                 0.0000
     47 ****        -0.0092   2.0745  -1.1843 LP             1 S1                 0.0000
     48 ****         1.3563   1.0109  -1.1203 LP             1 S1                 0.0000
@<TRIPOS>BOND
    1    1    2 1     
    2    1   24 1     
    3    1   25 1     
    4    1   26 1     
    5    2    9 1     
    6    2    3 2     
    7    3    4 1     
    8    3   27 1     
    9    4    5 2     
   10    4    6 1     
   11    6    7 2     
   12    6   28 1     
   13    7    8 1     
   14    7    9 1     
   15    8   42 1     
   16    9   10 1     
   17   10   11 1     
   18   10   29 1     
   19   10   30 1     
   20   11   12 2     
   21   11   13 am    
   22   13   14 1     
   23   13   31 1     
   24   14   15 1     
   25   14   20 1     
   26   14   32 1     
   27   15   19 1     
   28   15   16 1     
   29   15   33 1     
   30   16   17 1     
   31   16   34 1     
   32   16   35 1     
   33   17   18 1     
   34   17   36 1     
   35   17   37 1     
   36   18   19 1     
   37   18   38 1     
   38   18   39 1     
   39   19   40 1     
   40   19   41 1     
   41   20   21 1     
   42   20   22 1     
   43   20   23 1     
   44    5   43 1     
   45    5   44 1     
   46    8   45 1     
   47    8   46 1     
   48   12   47 1     
   49   12   48 1     
@<TRIPOS>SUBSTRUCTURE
      1 S1             1
@<TRIPOS>SET
LONE_PAIRS      STATIC     ATOMS    <user>   **** ""
6 43 44 45 46 47 48
DONOR_HYDROGENS      STATIC     ATOMS    <user>   **** ""
2 42 31
ATOM$BLUE        STATIC     ATOMS    COLORGROUP SYSTEM
6 43 44 45 46 47 48
ATOM$RED        STATIC     ATOMS    COLORGROUP SYSTEM
2 42 31
