AV-unprocessed.smi:72|AV-procd|sdf|689|dock5
  -GOLD-   2262017 03D 1   1.00000     0.00000
 Structure written by MMmdl.
 29 30  0  0  0  0  0  0  0  0  1 V2000
  154.0685  137.9501  153.6599 N   0  0  0  0  0  0  0  0  0  0  0  0
  152.8151  138.2044  153.7843 C   0  0  0  0  0  0  0  0  0  0  0  0
  151.7978  137.6974  152.9621 N   0  0  0  0  0  0  0  0  0  0  0  0
  150.5705  138.0415  153.2064 C   0  0  0  0  0  0  0  0  0  0  0  0
  150.2186  138.9367  154.3004 N   0  0  0  0  0  0  0  0  0  0  0  0
  148.7846  139.3441  154.5919 C   0  0  2  0  0  0  0  0  0  0  0  0
  147.8978  138.4278  154.0165 O   0  0  0  0  0  0  0  0  0  0  0  0
  147.2413  139.0150  152.8966 C   0  0  1  0  0  0  0  0  0  0  0  0
  145.9183  138.2941  152.5849 C   0  0  0  0  0  0  0  0  0  0  0  0
  145.2660  138.9252  151.5037 O   0  0  0  0  0  0  0  0  0  0  0  0
  147.1138  140.4869  153.3079 C   0  0  1  0  0  0  0  0  0  0  0  0
  146.0104  140.6823  154.1742 O   0  0  0  0  0  0  0  0  0  0  0  0
  148.4205  140.7473  154.0459 C   0  0  2  0  0  0  0  0  0  0  0  0
  149.3768  141.2816  153.1465 O   0  0  0  0  0  0  0  0  0  0  0  0
  151.2361  139.4569  155.1373 C   0  0  0  0  0  0  0  0  0  0  0  0
  150.9940  140.2259  156.0674 O   0  0  0  0  0  0  0  0  0  0  0  0
  152.4937  139.0633  154.8427 N   0  0  0  0  0  0  0  0  0  0  0  0
  148.6754  139.2654  155.6750 H   0  0  0  0  0  0  0  0  0  0  0  0
  147.9030  138.9676  152.0298 H   0  0  0  0  0  0  0  0  0  0  0  0
  146.9817  141.1402  152.4442 H   0  0  0  0  0  0  0  0  0  0  0  0
  148.2998  141.4466  154.8745 H   0  0  0  0  0  0  0  0  0  0  0  0
  154.2188  137.3274  152.8790 H   0  0  0  0  0  0  0  0  0  0  0  0
  149.7351  137.6799  152.6073 H   0  0  0  0  0  0  0  0  0  0  0  0
  146.0813  137.2388  152.3637 H   0  0  0  0  0  0  0  0  0  0  0  0
  145.2492  138.3484  153.4443 H   0  0  0  0  0  0  0  0  0  0  0  0
  144.8202  139.6929  151.8283 H   0  0  0  0  0  0  0  0  0  0  0  0
  145.2144  140.5607  153.6797 H   0  0  0  0  0  0  0  0  0  0  0  0
  149.3804  140.7497  152.3652 H   0  0  0  0  0  0  0  0  0  0  0  0
  153.2432  139.4164  155.4197 H   0  0  0  0  0  0  0  0  0  0  0  0
  1  2  2  0  0  0  0
  1 22  1  0  0  0  0
  2 17  1  0  0  0  0
  2  3  1  0  0  0  0
  3  4  2  0  0  0  0
  4  5  1  0  0  0  0
  4 23  1  0  0  0  0
  5  6  1  0  0  0  0
  5 15  1  0  0  0  0
  6 18  1  0  0  0  0
  6 13  1  0  0  0  0
  6  7  1  0  0  0  0
  7  8  1  0  0  0  0
  8 19  1  0  0  0  0
  8  9  1  0  0  0  0
  8 11  1  0  0  0  0
  9 10  1  0  0  0  0
  9 24  1  0  0  0  0
  9 25  1  0  0  0  0
 10 26  1  0  0  0  0
 11 20  1  0  0  0  0
 11 12  1  0  0  0  0
 11 13  1  0  0  0  0
 12 27  1  0  0  0  0
 13 21  1  0  0  0  0
 13 14  1  0  0  0  0
 14 28  1  0  0  0  0
 15 16  2  0  0  0  0
 15 17  1  0  0  0  0
 17 29  1  0  0  0  0
M  END
> <s_m_source_file>
AV-unprocessed.smi

> <i_m_source_file_index>
72

> <i_lp_mmshare_version>
43012

> <i_f3d_flags>
0

> <s_epik_input>
W05IMl1jMW5bY0hdbihjKD1PKW4xKVtDQEBIXTJPW0NASF0oW0NIMl1bT0hdKVtDQEBIXShbT0hdKVtDQEhdMltPSF0=

> <s_epik_cmdline>
J2VwaWtfcHl0aG9uJywgJy1waCcsICc3LjAnLCAnLXRuJywgJzgnLCAnLW1hJywgJzIwMCcsICctbWV0YWxfYmluZGluZycsICctaW1hZScsICc8aW5maWxlLm1hZT4nLCAnLW9tYWUnLCAnPG91dGZpbGUubWFlPic=

> <r_lp_tautomer_probability>
7.17554e-07

> <r_epik_Ionization_Penalty>
0.0066451

> <r_epik_Ionization_Penalty_Charging>
0.00663793

> <r_epik_Ionization_Penalty_Neutral>
7.17052e-06

> <r_epik_State_Penalty>
0.419231

> <r_epik_Charging_Adjusted_Penalty>
0.425868

> <i_epik_Tot_Q>
0

> <i_epik_Tot_abs_Q>
0

> <r_epik_Metal_State_Penalty>
1.44144

> <b_epik_Metal_Only>
0

> <s_epik_Chemistry_Notes>
This compound contains an acetal/aminal-like group ( X-CH(R)-Y where X, Y are N, S, or O) that may be acid/base labile, releasing an aldehyde.

> <s_lp_Force_Field>
OPLS_2005

> <r_lp_Energy>
44.3496

> <b_lp_Chiralities_Consistent>
1

> <s_lp_Variant>
AV-unprocessed.smi:72-27

> <Gold.Version>
5.8.1

> <Gold.Id.Protein>
6NUR|6NUR_protein|mol2

> <Gold.PLP.Fitness>
45.3166

> <Gold.PLP.PLP>
-30.7869

> <Gold.PLP.part.hbond>
-7.9357

> <Gold.PLP.part.metal>
0.0000

> <Gold.PLP.part.buried>
-5.3815

> <Gold.PLP.part.nonpolar>
-19.4527

> <Gold.PLP.part.repulsive>
1.1228

> <Gold.PLP.ligand.clash>
0.0000

> <Gold.PLP.ligand.torsion>
0.5712

> <Gold.PLP.Chemscore.Hbond>
4.2052

> <Gold.PLP.Chemscore.CHOScore>
1.0001

> <Gold.PLP.Chemscore.Metal>
0.0000

> <Gold.Chemscore.Hbonds>
donor molecule, donor type, donor heavy atom, donor atom, acceptor molecule, acceptor atom, score
      L1  H    10    26       P1 10175  0.93
      L1  H    12    27       P1 10175  1.00
      L1  H    14    28       P1  7957  0.70
      P1  H  7989  7998       L1    14  0.01
      P1  H  8011  8017       L1    14  0.32
      L1  C     4    23       P1  7948  0.31
      L1  C     4    23       P1  7957  0.09

> <Gold.PLP.Chemscore.Internal.Correction>
0.0563

> <Gold.Rescore>
     Score         DG    S(hbond)    S(metal)    S(lipo)     H(rot)  DE(clash)    DE(int)     intcor
      7.75      -8.54       3.14        0.00      25.28       4.06       0.08       0.71       ----

> <Gold.Chemscore.Fitness>
7.7461

> <Gold.Chemscore.DG>
-8.5380

> <Gold.Chemscore.ZeroCoef>
-5.4800

> <Gold.Chemscore.Hbond>
3.1420

> <Gold.Chemscore.Metal>
0.0000

> <Gold.Chemscore.Lipo>
25.2776

> <Gold.Chemscore.Internal_Hbond>
0.0000

> <Gold.Chemscore.DEClash>
0.0810

> <Gold.Chemscore.DEInternal>
0.7109

> <Gold.Chemscore.Rot>
4.0600

> <Gold.Chemscore.Internal.Correction>
   9.000000E+99

> <Gold.Chemscore.Hbonds>
donor molecule, donor type, donor heavy atom, donor atom, acceptor molecule, acceptor atom, score
      L1  H    10    26       P1 10175  0.68
      L1  H    12    27       P1 10175  0.98
      L1  H    14    28       P1  7957  0.69
      P1  H  8011  8017       L1    14  0.01

> <Gold.Chemscore.Hbond.Weighted>
-10.4941

> <Gold.Chemscore.Metal.Weighted>
-0.0000

> <Gold.Chemscore.Lipo.Weighted>
-2.9575

> <Gold.Chemscore.Internal_Hbond.Weighted>
0.0000

> <Gold.Chemscore.DEClash.Weighted>
0.0810

> <Gold.Chemscore.DEInternal.Weighted>
0.7109

> <Gold.Chemscore.Rot.Weighted>
10.3936

> <Gold.Chemscore.Internal.Correction.Weighted>
   9.000000E+99

> <Gold.Protein.RotatedTorsions>
[ 6907 6896 6895 6894 ] final -121.95 input  -60.11 | X-H torsion
[ 7974 7965 7964 7962 ] final  -33.21 input  175.53 | X-H torsion
[ 8008 7997 7996 7995 ] final  172.82 input   59.86 | X-H torsion
[ 10167 10162 10161 10158 ] final -149.52 input  -65.29 | X-H torsion
[ 10718 10713 10712 10709 ] final -172.31 input   66.30 | X-H torsion
[ 10763 10752 10751 10750 ] final  -89.21 input  -60.55 | X-H torsion
[ 11005 11000 10999 10996 ] final   46.16 input  -57.11 | X-H torsion

> <Gold.Protein.ActiveResidues>
 VAL166  LYS551  ARG553  GLY616  TRP617  ASP618  TYR619  PRO620  LYS621  CYS622 
 ASP623  PHE694  ASN695  SER759  ASP760  ASP761  ALA762  ILE779  LEU786  VAL792 
 PHE793  MET794  SER795  GLU796  ALA797  LYS798  CYS799  TRP800  GLU811  SER814 

> <Gold.Protein.RotatedAtoms>
  150.8530  133.7758  159.3018 H   0  0  0  0  0  0  0  0  0  0  0  0  # atno 6907 bound_to 6896
  151.5424  135.1066  159.9939 H   0  0  0  0  0  0  0  0  0  0  0  0  # atno 6908 bound_to 6896
  152.4568  133.7696  159.6847 H   0  0  0  0  0  0  0  0  0  0  0  0  # atno 6909 bound_to 6896
  146.0929  140.5887  142.8856 H   0  0  0  0  0  0  0  0  0  0  0  0  # atno 7974 bound_to 7965
  156.1137  140.1476  156.9303 H   0  0  0  0  0  0  0  0  0  0  0  0  # atno 8008 bound_to 7997
  154.4785  140.0887  156.7363 H   0  0  0  0  0  0  0  0  0  0  0  0  # atno 8009 bound_to 7997
  155.4552  140.3436  155.4308 H   0  0  0  0  0  0  0  0  0  0  0  0  # atno 8010 bound_to 7997
  139.7435  143.8626  152.2568 H   0  0  0  0  0  0  0  0  0  0  0  0  # atno 10167 bound_to 10162
  156.7537  130.9387  151.3115 H   0  0  0  0  0  0  0  0  0  0  0  0  # atno 10718 bound_to 10713
  154.6528  135.5349  153.7922 H   0  0  0  0  0  0  0  0  0  0  0  0  # atno 10763 bound_to 10752
  153.0396  135.6486  154.0991 H   0  0  0  0  0  0  0  0  0  0  0  0  # atno 10764 bound_to 10752
  154.0907  135.2940  155.3252 H   0  0  0  0  0  0  0  0  0  0  0  0  # atno 10765 bound_to 10752
  140.1393  134.4603  155.8461 H   0  0  0  0  0  0  0  0  0  0  0  0  # atno 11005 bound_to 11000
  144.7373  140.4846  143.6894 LP  0  0  0  0  0  0  0  0  0  0  0  0  # atno 17320 bound_to 7965
  145.6004  139.1503  143.3132 LP  0  0  0  0  0  0  0  0  0  0  0  0  # atno 17321 bound_to 7965
  139.8583  144.7130  150.9130 LP  0  0  0  0  0  0  0  0  0  0  0  0  # atno 17342 bound_to 10162
  140.7789  143.3839  151.1428 LP  0  0  0  0  0  0  0  0  0  0  0  0  # atno 17343 bound_to 10162
  157.6766  130.9100  150.0164 LP  0  0  0  0  0  0  0  0  0  0  0  0  # atno 17370 bound_to 10713
  156.1384  130.3642  149.9620 LP  0  0  0  0  0  0  0  0  0  0  0  0  # atno 17371 bound_to 10713
  141.2183  133.6827  156.7217 LP  0  0  0  0  0  0  0  0  0  0  0  0  # atno 17394 bound_to 11000
  140.2742  134.8368  157.3875 LP  0  0  0  0  0  0  0  0  0  0  0  0  # atno 17395 bound_to 11000

$$$$
