AV-unprocessed.smi:109|AV-procd|sdf|1047|dock9
  -GOLD-   2262018 93D 1   1.00000     0.00000
 Structure written by MMmdl.
 58 61  0  0  0  0  0  0  0  0  1 V2000
  151.5192  137.0667  159.5080 O   0  0  0  0  0  0  0  0  0  0  0  0
  150.9504  138.1989  158.8862 C   0  0  0  0  0  0  0  0  0  0  0  0
  152.0177  139.2937  158.7172 C   0  0  0  0  0  0  0  0  0  0  0  0
  151.4784  140.6151  158.1168 C   0  0  2  0  0  0  0  0  0  0  0  0
  151.6356  140.5880  156.6611 N   0  0  0  0  0  0  0  0  0  0  0  0
  150.5732  140.5521  155.8259 C   0  0  0  0  0  0  0  0  0  0  0  0
  150.6087  139.8605  154.6570 N   0  0  0  0  0  0  0  0  0  0  0  0
  149.5403  139.8459  153.8543 C   0  0  0  0  0  0  0  0  0  0  0  0
  148.3580  140.4422  154.0269 N   0  0  0  0  0  0  0  0  0  0  0  0
  148.3203  141.1408  155.1985 C   0  0  0  0  0  0  0  0  0  0  0  0
  149.3772  141.2446  156.1443 C   0  0  0  0  0  0  0  0  0  0  0  0
  148.9741  142.0311  157.2154 N   0  0  0  0  0  0  0  0  0  0  0  0
  147.7469  142.3645  156.9175 C   0  0  0  0  0  0  0  0  0  0  0  0
  147.2741  141.8703  155.7202 N   0  0  0  0  0  0  0  0  0  0  0  0
  145.9267  142.0488  155.0877 C   0  0  2  0  0  0  0  0  0  0  0  0
  145.7016  143.4217  154.9735 O   0  0  0  0  0  0  0  0  0  0  0  0
  144.5940  143.8245  155.7750 C   0  0  2  0  0  0  0  0  0  0  0  0
  144.8806  145.1974  156.4056 C   0  0  0  0  0  0  0  0  0  0  0  0
  145.7163  145.0612  157.5347 O   0  0  0  0  0  0  0  0  0  0  0  0
  144.3776  142.6829  156.7756 C   0  0  1  0  0  0  0  0  0  0  0  0
  143.0141  142.5780  157.1338 O   0  0  0  0  0  0  0  0  0  0  0  0
  144.8054  141.4675  155.9703 C   0  0  2  0  0  0  0  0  0  0  0  0
  145.2199  140.4156  156.8239 O   0  0  0  0  0  0  0  0  0  0  0  0
  152.1727  141.8867  158.6846 C   0  0  0  0  0  0  0  0  0  0  0  0
  151.9889  142.0505  160.2143 C   0  0  0  0  0  0  0  0  0  0  0  0
  152.6482  143.3315  160.7514 C   0  0  0  0  0  0  0  0  0  0  0  0
  152.1269  144.5782  160.0266 C   0  0  0  0  0  0  0  0  0  0  0  0
  152.3288  144.4444  158.5128 C   0  0  0  0  0  0  0  0  0  0  0  0
  151.6628  143.1684  157.9753 C   0  0  0  0  0  0  0  0  0  0  0  0
  146.0106  141.5755  154.1090 H   0  0  0  0  0  0  0  0  0  0  0  0
  143.7406  143.8935  155.0977 H   0  0  0  0  0  0  0  0  0  0  0  0
  145.0056  142.8133  157.6584 H   0  0  0  0  0  0  0  0  0  0  0  0
  144.0021  141.1318  155.3125 H   0  0  0  0  0  0  0  0  0  0  0  0
  152.1104  137.3609  160.1838 H   0  0  0  0  0  0  0  0  0  0  0  0
  150.5386  137.8945  157.9239 H   0  0  0  0  0  0  0  0  0  0  0  0
  150.1231  138.5602  159.4975 H   0  0  0  0  0  0  0  0  0  0  0  0
  152.4350  139.4788  159.7056 H   0  0  0  0  0  0  0  0  0  0  0  0
  152.8370  138.9183  158.1023 H   0  0  0  0  0  0  0  0  0  0  0  0
  150.4255  140.6934  158.3872 H   0  0  0  0  0  0  0  0  0  0  0  0
  152.5745  140.7547  156.3285 H   0  0  0  0  0  0  0  0  0  0  0  0
  149.6480  139.2733  152.9450 H   0  0  0  0  0  0  0  0  0  0  0  0
  147.1518  142.9826  157.5721 H   0  0  0  0  0  0  0  0  0  0  0  0
  145.3427  145.8757  155.6886 H   0  0  0  0  0  0  0  0  0  0  0  0
  143.9485  145.6597  156.7309 H   0  0  0  0  0  0  0  0  0  0  0  0
  146.6017  145.2734  157.2815 H   0  0  0  0  0  0  0  0  0  0  0  0
  142.7721  143.3553  157.6140 H   0  0  0  0  0  0  0  0  0  0  0  0
  144.7278  139.6394  156.6031 H   0  0  0  0  0  0  0  0  0  0  0  0
  153.2430  141.8003  158.4893 H   0  0  0  0  0  0  0  0  0  0  0  0
  150.9259  142.0569  160.4586 H   0  0  0  0  0  0  0  0  0  0  0  0
  152.4268  141.2106  160.7511 H   0  0  0  0  0  0  0  0  0  0  0  0
  152.4645  143.4220  161.8225 H   0  0  0  0  0  0  0  0  0  0  0  0
  153.7300  143.2634  160.6288 H   0  0  0  0  0  0  0  0  0  0  0  0
  151.0675  144.7159  160.2461 H   0  0  0  0  0  0  0  0  0  0  0  0
  152.6393  145.4674  160.3951 H   0  0  0  0  0  0  0  0  0  0  0  0
  151.9195  145.3185  158.0056 H   0  0  0  0  0  0  0  0  0  0  0  0
  153.3952  144.4254  158.2842 H   0  0  0  0  0  0  0  0  0  0  0  0
  151.8463  143.1173  156.9020 H   0  0  0  0  0  0  0  0  0  0  0  0
  150.5815  143.2467  158.0951 H   0  0  0  0  0  0  0  0  0  0  0  0
  1  2  1  0  0  0  0
  1 34  1  0  0  0  0
  2  3  1  0  0  0  0
  2 35  1  0  0  0  0
  2 36  1  0  0  0  0
  3  4  1  0  0  0  0
  3 37  1  0  0  0  0
  3 38  1  0  0  0  0
  4  5  1  0  0  0  0
  4 24  1  0  0  0  0
  4 39  1  0  0  0  0
  5  6  1  0  0  0  0
  5 40  1  0  0  0  0
  6 11  1  0  0  0  0
  6  7  2  0  0  0  0
  7  8  1  0  0  0  0
  8  9  2  0  0  0  0
  8 41  1  0  0  0  0
  9 10  1  0  0  0  0
 10 14  1  0  0  0  0
 10 11  2  0  0  0  0
 11 12  1  0  0  0  0
 12 13  2  0  0  0  0
 13 14  1  0  0  0  0
 13 42  1  0  0  0  0
 14 15  1  0  0  0  0
 15 30  1  0  0  0  0
 15 22  1  0  0  0  0
 15 16  1  0  0  0  0
 16 17  1  0  0  0  0
 17 31  1  0  0  0  0
 17 18  1  0  0  0  0
 17 20  1  0  0  0  0
 18 19  1  0  0  0  0
 18 43  1  0  0  0  0
 18 44  1  0  0  0  0
 19 45  1  0  0  0  0
 20 32  1  0  0  0  0
 20 21  1  0  0  0  0
 20 22  1  0  0  0  0
 21 46  1  0  0  0  0
 22 33  1  0  0  0  0
 22 23  1  0  0  0  0
 23 47  1  0  0  0  0
 24 29  1  0  0  0  0
 24 25  1  0  0  0  0
 24 48  1  0  0  0  0
 25 26  1  0  0  0  0
 25 49  1  0  0  0  0
 25 50  1  0  0  0  0
 26 27  1  0  0  0  0
 26 51  1  0  0  0  0
 26 52  1  0  0  0  0
 27 28  1  0  0  0  0
 27 53  1  0  0  0  0
 27 54  1  0  0  0  0
 28 29  1  0  0  0  0
 28 55  1  0  0  0  0
 28 56  1  0  0  0  0
 29 57  1  0  0  0  0
 29 58  1  0  0  0  0
M  END
> <s_m_source_file>
AV-unprocessed.smi

> <i_m_source_file_index>
109

> <i_lp_mmshare_version>
43012

> <i_f3d_flags>
0

> <s_epik_input>
W0NIMl0xW0NIMl1bQ0gyXVtDSDJdW0NIMl1bQ0hdMVtDQEhdKFtDSDJdW0NIMl1bT0hdKVtOSF1jKG5bY0hdbjIpYyhjMjMpbltjSF1uM1tDQEBIXTRPW0NASF0oW0NIMl1bT0hdKVtDQEBIXShbT0hdKVtDQEhdNFtPSF0=

> <s_epik_cmdline>
J2VwaWtfcHl0aG9uJywgJy1waCcsICc3LjAnLCAnLXRuJywgJzgnLCAnLW1hJywgJzIwMCcsICctbWV0YWxfYmluZGluZycsICctaW1hZScsICc8aW5maWxlLm1hZT4nLCAnLW9tYWUnLCAnPG91dGZpbGUubWFlPic=

> <r_lp_tautomer_probability>
1

> <r_epik_Ionization_Penalty>
0.000793976

> <r_epik_Ionization_Penalty_Charging>
0

> <r_epik_Ionization_Penalty_Neutral>
0.000793976

> <r_epik_State_Penalty>
-0

> <r_epik_Charging_Adjusted_Penalty>
0

> <i_epik_Tot_Q>
0

> <i_epik_Tot_abs_Q>
0

> <r_epik_Metal_State_Penalty>
-0

> <b_epik_Metal_Only>
0

> <s_epik_Chemistry_Notes>
This compound contains an acetal/aminal-like group ( X-CH(R)-Y where X, Y are N, S, or O) that may be acid/base labile, releasing an aldehyde.

> <s_lp_Force_Field>
OPLS_2005

> <r_lp_Energy>
53.0649

> <b_lp_Chiralities_Consistent>
1

> <s_lp_Variant>
AV-unprocessed.smi:109-17

> <Gold.Version>
5.8.1

> <Gold.Id.Protein>
6NUR|6NUR_protein|mol2

> <Gold.PLP.Fitness>
51.4467

> <Gold.PLP.PLP>
-41.4171

> <Gold.PLP.part.hbond>
-3.0000

> <Gold.PLP.part.metal>
0.0000

> <Gold.PLP.part.buried>
-3.8598

> <Gold.PLP.part.nonpolar>
-34.8543

> <Gold.PLP.part.repulsive>
0.6395

> <Gold.PLP.ligand.clash>
0.0000

> <Gold.PLP.ligand.torsion>
0.9571

> <Gold.PLP.Chemscore.Hbond>
2.9750

> <Gold.PLP.Chemscore.CHOScore>
0.9532

> <Gold.PLP.Chemscore.Metal>
0.0000

> <Gold.Chemscore.Hbonds>
donor molecule, donor type, donor heavy atom, donor atom, acceptor molecule, acceptor atom, score
      L1  H    19    45       P1  8029  0.39
      P1  H  6896  6907       L1     1  0.75
      P1  H  7989  7998       L1     7  0.70
      L1  C     8    41       P1  7957  0.69

> <Gold.PLP.Chemscore.Internal.Correction>
0.1591

> <Gold.Rescore>
     Score         DG    S(hbond)    S(metal)    S(lipo)     H(rot)  DE(clash)    DE(int)     intcor
      7.00      -9.11       1.95        0.00      94.91       5.47       0.00       2.11       ----

> <Gold.Chemscore.Fitness>
6.9988

> <Gold.Chemscore.DG>
-9.1112

> <Gold.Chemscore.ZeroCoef>
-5.4800

> <Gold.Chemscore.Hbond>
1.9522

> <Gold.Chemscore.Metal>
0.0000

> <Gold.Chemscore.Lipo>
94.9081

> <Gold.Chemscore.Internal_Hbond>
0.0000

> <Gold.Chemscore.DEClash>
0.0029

> <Gold.Chemscore.DEInternal>
2.1095

> <Gold.Chemscore.Rot>
5.4662

> <Gold.Chemscore.Internal.Correction>
   9.000000E+99

> <Gold.Chemscore.Hbonds>
donor molecule, donor type, donor heavy atom, donor atom, acceptor molecule, acceptor atom, score
      L1  H    19    45       P1  8029  0.03
      P1  H  6896  6907       L1     1  0.09
      P1  H  7989  7998       L1     7  0.04

> <Gold.Chemscore.Hbond.Weighted>
-6.5205

> <Gold.Chemscore.Metal.Weighted>
-0.0000

> <Gold.Chemscore.Lipo.Weighted>
-11.1043

> <Gold.Chemscore.Internal_Hbond.Weighted>
0.0000

> <Gold.Chemscore.DEClash.Weighted>
0.0029

> <Gold.Chemscore.DEInternal.Weighted>
2.1095

> <Gold.Chemscore.Rot.Weighted>
13.9935

> <Gold.Chemscore.Internal.Correction.Weighted>
   9.000000E+99

> <Gold.Protein.RotatedTorsions>
[ 6907 6896 6895 6894 ] final    5.44 input  -60.11 | X-H torsion
[ 7974 7965 7964 7962 ] final   47.23 input  175.53 | X-H torsion
[ 8008 7997 7996 7995 ] final   73.56 input   59.86 | X-H torsion
[ 10167 10162 10161 10158 ] final  132.18 input  -65.29 | X-H torsion
[ 10718 10713 10712 10709 ] final   19.94 input   66.30 | X-H torsion
[ 10763 10752 10751 10750 ] final -146.75 input  -60.55 | X-H torsion
[ 11005 11000 10999 10996 ] final   14.71 input  -57.11 | X-H torsion

> <Gold.Protein.ActiveResidues>
 VAL166  LYS551  ARG553  GLY616  TRP617  ASP618  TYR619  PRO620  LYS621  CYS622 
 ASP623  PHE694  ASN695  SER759  ASP760  ASP761  ALA762  ILE779  LEU786  VAL792 
 PHE793  MET794  SER795  GLU796  ALA797  LYS798  CYS799  TRP800  GLU811  SER814 

> <Gold.Protein.RotatedAtoms>
  151.6576  135.0993  160.0172 H   0  0  0  0  0  0  0  0  0  0  0  0  # atno 6907 bound_to 6896
  152.3965  133.6750  159.6289 H   0  0  0  0  0  0  0  0  0  0  0  0  # atno 6908 bound_to 6896
  150.7871  133.8781  159.3319 H   0  0  0  0  0  0  0  0  0  0  0  0  # atno 6909 bound_to 6896
  146.0316  139.4771  142.9834 H   0  0  0  0  0  0  0  0  0  0  0  0  # atno 7974 bound_to 7965
  155.7855  140.3480  155.5320 H   0  0  0  0  0  0  0  0  0  0  0  0  # atno 8008 bound_to 7997
  155.8686  140.0983  157.1586 H   0  0  0  0  0  0  0  0  0  0  0  0  # atno 8009 bound_to 7997
  154.4016  140.1345  156.4037 H   0  0  0  0  0  0  0  0  0  0  0  0  # atno 8010 bound_to 7997
  139.5351  144.6673  151.4814 H   0  0  0  0  0  0  0  0  0  0  0  0  # atno 10167 bound_to 10162
  157.1175  130.6535  149.5914 H   0  0  0  0  0  0  0  0  0  0  0  0  # atno 10718 bound_to 10713
  154.8321  135.3378  154.6710 H   0  0  0  0  0  0  0  0  0  0  0  0  # atno 10763 bound_to 10752
  153.7329  135.6951  153.4989 H   0  0  0  0  0  0  0  0  0  0  0  0  # atno 10764 bound_to 10752
  153.2299  135.4420  155.0536 H   0  0  0  0  0  0  0  0  0  0  0  0  # atno 10765 bound_to 10752
  140.4664  134.1075  155.7725 H   0  0  0  0  0  0  0  0  0  0  0  0  # atno 11005 bound_to 11000
  145.7031  141.0130  143.1494 LP  0  0  0  0  0  0  0  0  0  0  0  0  # atno 17320 bound_to 7965
  144.7033  139.8668  143.7437 LP  0  0  0  0  0  0  0  0  0  0  0  0  # atno 17321 bound_to 7965
  140.6552  143.8613  150.6828 LP  0  0  0  0  0  0  0  0  0  0  0  0  # atno 17342 bound_to 10162
  140.1990  143.3974  152.1806 LP  0  0  0  0  0  0  0  0  0  0  0  0  # atno 17343 bound_to 10162
  155.9836  130.4856  150.6941 LP  0  0  0  0  0  0  0  0  0  0  0  0  # atno 17370 bound_to 10713
  157.4505  131.0872  151.0850 LP  0  0  0  0  0  0  0  0  0  0  0  0  # atno 17371 bound_to 10713
  141.1597  133.8816  157.1881 LP  0  0  0  0  0  0  0  0  0  0  0  0  # atno 17394 bound_to 11000
  139.9912  135.0064  156.9980 LP  0  0  0  0  0  0  0  0  0  0  0  0  # atno 17395 bound_to 11000

$$$$
