AV-unprocessed.smi:850|AV-procd|sdf|3948|dock1
  -GOLD-   22720 1413D 1   1.00000     0.00000
 Structure written by MMmdl.
 40 42  0  0  0  0  0  0  0  0  1 V2000
  153.1061  138.3042  159.0304 C   0  0  0  0  0  0  0  0  0  0  0  0
  152.4914  139.5030  158.4726 N   0  0  0  0  0  0  0  0  0  0  0  0
  151.7687  139.5934  157.3314 C   0  0  0  0  0  0  0  0  0  0  0  0
  151.5101  138.6679  156.5621 O   0  0  0  0  0  0  0  0  0  0  0  0
  151.3837  140.8828  157.1810 N   0  0  0  0  0  0  0  0  0  0  0  0
  150.6045  141.4338  156.0744 C   0  0  0  0  0  0  0  0  0  0  0  0
  149.0933  141.4218  156.3809 C   0  0  1  0  0  0  0  0  0  0  0  0
  148.7319  142.5574  157.1404 O   0  0  0  0  0  0  0  0  0  0  0  0
  148.2214  141.4060  155.1143 C   0  0  0  0  0  0  0  0  0  0  0  0
  146.8461  141.3597  155.4754 O   0  0  0  0  0  0  0  0  0  0  0  0
  146.0159  142.3620  155.0220 C   0  0  0  0  0  0  0  0  0  0  0  0
  146.3522  142.9618  153.7905 C   0  0  0  0  0  0  0  0  0  0  0  0
  145.5590  143.9918  153.2494 C   0  0  0  0  0  0  0  0  0  0  0  0
  144.4153  144.4346  153.9389 C   0  0  0  0  0  0  0  0  0  0  0  0
  144.0688  143.8466  155.1696 C   0  0  0  0  0  0  0  0  0  0  0  0
  144.8623  142.8160  155.7107 C   0  0  0  0  0  0  0  0  0  0  0  0
  151.8867  141.6404  158.2487 C   0  0  0  0  0  0  0  0  0  0  0  0
  151.7797  143.0107  158.5438 C   0  0  0  0  0  0  0  0  0  0  0  0
  152.4201  143.4702  159.7187 C   0  0  0  0  0  0  0  0  0  0  0  0
  153.1379  142.5749  160.5538 C   0  0  0  0  0  0  0  0  0  0  0  0
  153.2307  141.2003  160.2321 C   0  0  0  0  0  0  0  0  0  0  0  0
  152.5843  140.7711  159.0603 C   0  0  0  0  0  0  0  0  0  0  0  0
  152.8083  137.4031  158.4927 H   0  0  0  0  0  0  0  0  0  0  0  0
  152.8161  138.1816  160.0742 H   0  0  0  0  0  0  0  0  0  0  0  0
  154.1923  138.3832  158.9838 H   0  0  0  0  0  0  0  0  0  0  0  0
  150.9446  142.4389  155.8185 H   0  0  0  0  0  0  0  0  0  0  0  0
  150.8045  140.8222  155.1940 H   0  0  0  0  0  0  0  0  0  0  0  0
  148.8409  140.5407  156.9722 H   0  0  0  0  0  0  0  0  0  0  0  0
  148.6305  143.2904  156.5523 H   0  0  0  0  0  0  0  0  0  0  0  0
  148.4103  142.3209  154.5503 H   0  0  0  0  0  0  0  0  0  0  0  0
  148.4904  140.5617  154.4766 H   0  0  0  0  0  0  0  0  0  0  0  0
  147.2286  142.6275  153.2548 H   0  0  0  0  0  0  0  0  0  0  0  0
  145.8287  144.4413  152.3052 H   0  0  0  0  0  0  0  0  0  0  0  0
  143.8055  145.2242  153.5250 H   0  0  0  0  0  0  0  0  0  0  0  0
  143.1919  144.1864  155.7009 H   0  0  0  0  0  0  0  0  0  0  0  0
  144.5639  142.3899  156.6564 H   0  0  0  0  0  0  0  0  0  0  0  0
  151.2343  143.6877  157.9029 H   0  0  0  0  0  0  0  0  0  0  0  0
  152.3629  144.5161  159.9826 H   0  0  0  0  0  0  0  0  0  0  0  0
  153.6203  142.9478  161.4453 H   0  0  0  0  0  0  0  0  0  0  0  0
  153.7768  140.5127  160.8611 H   0  0  0  0  0  0  0  0  0  0  0  0
  1  2  1  0  0  0  0
  1 23  1  0  0  0  0
  1 24  1  0  0  0  0
  1 25  1  0  0  0  0
  2 22  1  0  0  0  0
  2  3  1  0  0  0  0
  3  4  2  0  0  0  0
  3  5  1  0  0  0  0
  5  6  1  0  0  0  0
  5 17  1  0  0  0  0
  6  7  1  0  0  0  0
  6 26  1  0  0  0  0
  6 27  1  0  0  0  0
  7  8  1  0  0  0  0
  7  9  1  0  0  0  0
  7 28  1  0  0  0  0
  8 29  1  0  0  0  0
  9 10  1  0  0  0  0
  9 30  1  0  0  0  0
  9 31  1  0  0  0  0
 10 11  1  0  0  0  0
 11 16  1  0  0  0  0
 11 12  2  0  0  0  0
 12 13  1  0  0  0  0
 12 32  1  0  0  0  0
 13 14  2  0  0  0  0
 13 33  1  0  0  0  0
 14 15  1  0  0  0  0
 14 34  1  0  0  0  0
 15 16  2  0  0  0  0
 15 35  1  0  0  0  0
 16 36  1  0  0  0  0
 17 22  2  0  0  0  0
 17 18  1  0  0  0  0
 18 19  2  0  0  0  0
 18 37  1  0  0  0  0
 19 20  1  0  0  0  0
 19 38  1  0  0  0  0
 20 21  2  0  0  0  0
 20 39  1  0  0  0  0
 21 22  1  0  0  0  0
 21 40  1  0  0  0  0
M  END
> <s_m_source_file>
AV-unprocessed.smi

> <i_m_source_file_index>
850

> <i_lp_mmshare_version>
43012

> <i_f3d_flags>
0

> <s_epik_input>
W2NIXTFbY0hdW2NIXVtjSF1jKGMxMiluKFtDSDNdKWMoPU8pbjJbQ0gyXVtDQEhdKFtPSF0pW0NIMl1PYzNbY0hdW2NIXVtjSF1bY0hdW2NIXTM=

> <s_epik_cmdline>
J2VwaWtfcHl0aG9uJywgJy1waCcsICc3LjAnLCAnLXRuJywgJzgnLCAnLW1hJywgJzIwMCcsICctbWV0YWxfYmluZGluZycsICctaW1hZScsICc8aW5maWxlLm1hZT4nLCAnLW9tYWUnLCAnPG91dGZpbGUubWFlPic=

> <r_lp_tautomer_probability>
1

> <r_epik_Ionization_Penalty>
2.40205e-06

> <r_epik_Ionization_Penalty_Charging>
2.75209e-09

> <r_epik_Ionization_Penalty_Neutral>
2.3993e-06

> <r_epik_State_Penalty>
-0

> <r_epik_Charging_Adjusted_Penalty>
2.75209e-09

> <i_epik_Tot_Q>
0

> <i_epik_Tot_abs_Q>
0

> <r_epik_Metal_State_Penalty>
-0

> <b_epik_Metal_Only>
0

> <s_lp_Force_Field>
OPLS_2005

> <r_lp_Energy>
47.9965

> <b_lp_Chiralities_Consistent>
1

> <s_lp_Variant>
AV-unprocessed.smi:850-2

> <Gold.Version>
5.8.1

> <Gold.Id.Protein>
6NUR|6NUR_protein|mol2

> <Gold.PLP.Fitness>
45.9885

> <Gold.PLP.PLP>
-45.6090

> <Gold.PLP.part.hbond>
-1.0000

> <Gold.PLP.part.metal>
0.0000

> <Gold.PLP.part.buried>
-5.7269

> <Gold.PLP.part.nonpolar>
-39.0625

> <Gold.PLP.part.repulsive>
0.0862

> <Gold.PLP.ligand.clash>
0.0000

> <Gold.PLP.ligand.torsion>
1.3821

> <Gold.PLP.Chemscore.Hbond>
1.0000

> <Gold.PLP.Chemscore.CHOScore>
0.0000

> <Gold.PLP.Chemscore.Metal>
0.0000

> <Gold.Chemscore.Hbonds>
donor molecule, donor type, donor heavy atom, donor atom, acceptor molecule, acceptor atom, score
      L1  H     8    29       P1  8028  1.00

> <Gold.PLP.Chemscore.Internal.Correction>
0.1436

> <Gold.Rescore>
     Score         DG    S(hbond)    S(metal)    S(lipo)     H(rot)  DE(clash)    DE(int)     intcor
     15.67     -17.20       0.96        0.00     119.24       2.12       0.16       1.37       ----

> <Gold.Chemscore.Fitness>
15.6668

> <Gold.Chemscore.DG>
-17.1985

> <Gold.Chemscore.ZeroCoef>
-5.4800

> <Gold.Chemscore.Hbond>
0.9551

> <Gold.Chemscore.Metal>
0.0000

> <Gold.Chemscore.Lipo>
119.2447

> <Gold.Chemscore.Internal_Hbond>
0.0000

> <Gold.Chemscore.DEClash>
0.1588

> <Gold.Chemscore.DEInternal>
1.3729

> <Gold.Chemscore.Rot>
2.1184

> <Gold.Chemscore.Internal.Correction>
   9.000000E+99

> <Gold.Chemscore.Hbonds>
donor molecule, donor type, donor heavy atom, donor atom, acceptor molecule, acceptor atom, score
      L1  H     8    29       P1  8028  0.74

> <Gold.Chemscore.Hbond.Weighted>
-3.1900

> <Gold.Chemscore.Metal.Weighted>
-0.0000

> <Gold.Chemscore.Lipo.Weighted>
-13.9516

> <Gold.Chemscore.Internal_Hbond.Weighted>
0.0000

> <Gold.Chemscore.DEClash.Weighted>
0.1588

> <Gold.Chemscore.DEInternal.Weighted>
1.3729

> <Gold.Chemscore.Rot.Weighted>
5.4231

> <Gold.Chemscore.Internal.Correction.Weighted>
   9.000000E+99

> <Gold.Protein.RotatedTorsions>
[ 6907 6896 6895 6894 ] final  151.28 input  -60.11 | X-H torsion
[ 7974 7965 7964 7962 ] final  135.65 input  175.53 | X-H torsion
[ 8008 7997 7996 7995 ] final  174.27 input   59.86 | X-H torsion
[ 10167 10162 10161 10158 ] final  140.19 input  -65.29 | X-H torsion
[ 10718 10713 10712 10709 ] final  101.37 input   66.30 | X-H torsion
[ 10763 10752 10751 10750 ] final  124.51 input  -60.55 | X-H torsion
[ 11005 11000 10999 10996 ] final   21.63 input  -57.11 | X-H torsion

> <Gold.Protein.ActiveResidues>
 VAL166  LYS551  ARG553  GLY616  TRP617  ASP618  TYR619  PRO620  LYS621  CYS622 
 ASP623  PHE694  ASN695  SER759  ASP760  ASP761  ALA762  ILE779  LEU786  VAL792 
 PHE793  MET794  SER795  GLU796  ALA797  LYS798  CYS799  TRP800  GLU811  SER814 

> <Gold.Protein.RotatedAtoms>
  152.1028  133.4259  159.4594 H   0  0  0  0  0  0  0  0  0  0  0  0  # atno 6907 bound_to 6896
  150.6864  134.2740  159.4609 H   0  0  0  0  0  0  0  0  0  0  0  0  # atno 6908 bound_to 6896
  152.0602  134.9598  160.0625 H   0  0  0  0  0  0  0  0  0  0  0  0  # atno 6909 bound_to 6896
  144.9643  139.4676  143.5464 H   0  0  0  0  0  0  0  0  0  0  0  0  # atno 7974 bound_to 7965
  156.0991  140.1439  156.9491 H   0  0  0  0  0  0  0  0  0  0  0  0  # atno 8008 bound_to 7997
  154.4691  140.0916  156.7143 H   0  0  0  0  0  0  0  0  0  0  0  0  # atno 8009 bound_to 7997
  155.4790  140.3444  155.4339 H   0  0  0  0  0  0  0  0  0  0  0  0  # atno 8010 bound_to 7997
  139.5056  144.6249  151.5962 H   0  0  0  0  0  0  0  0  0  0  0  0  # atno 10167 bound_to 10162
  157.6831  131.0724  150.5243 H   0  0  0  0  0  0  0  0  0  0  0  0  # atno 10718 bound_to 10713
  153.6625  135.3344  155.3131 H   0  0  0  0  0  0  0  0  0  0  0  0  # atno 10763 bound_to 10752
  154.8511  135.4367  154.1789 H   0  0  0  0  0  0  0  0  0  0  0  0  # atno 10764 bound_to 10752
  153.2760  135.7004  153.7509 H   0  0  0  0  0  0  0  0  0  0  0  0  # atno 10765 bound_to 10752
  140.3894  134.1835  155.7662 H   0  0  0  0  0  0  0  0  0  0  0  0  # atno 11005 bound_to 11000
  146.3363  139.8813  142.8824 LP  0  0  0  0  0  0  0  0  0  0  0  0  # atno 17320 bound_to 7965
  145.2653  141.0091  143.3803 LP  0  0  0  0  0  0  0  0  0  0  0  0  # atno 17321 bound_to 7965
  140.5963  143.9691  150.6356 LP  0  0  0  0  0  0  0  0  0  0  0  0  # atno 17342 bound_to 10162
  140.2888  143.3339  152.1082 LP  0  0  0  0  0  0  0  0  0  0  0  0  # atno 17343 bound_to 10162
  156.5555  130.4242  149.6087 LP  0  0  0  0  0  0  0  0  0  0  0  0  # atno 17370 bound_to 10713
  156.2866  130.7100  151.1939 LP  0  0  0  0  0  0  0  0  0  0  0  0  # atno 17371 bound_to 10713
  141.1896  133.8235  157.0951 LP  0  0  0  0  0  0  0  0  0  0  0  0  # atno 17394 bound_to 11000
  140.0418  134.9850  157.0975 LP  0  0  0  0  0  0  0  0  0  0  0  0  # atno 17395 bound_to 11000

$$$$
