#       Name:                AV-unprocessed.smi:3287
#       Creating user name   scv26
#       Creation time:       Fri Mar 27 18:53:14 2020


#       File generated by GOLD software.
#

@<TRIPOS>MOLECULE
AV-unprocessed.smi:3287
    46    47     1
SMALL
NO_CHARGES


@<TRIPOS>ATOM
      1 ****        -3.5686   2.0914  -1.8660 C.3            1 S1                 0.0000
      2 ****        -2.6895   2.6622  -0.7350 C.3            1 S1                 0.0000
      3 ****        -1.1991   2.6847  -1.1321 C.3            1 S1                 0.0000
      4 ****        -0.5669   1.2819  -1.1307 C.3            1 S1                 0.0000
      5 ****        -0.7460   0.5860   0.2343 C.3            1 S1                 0.0000
      6 ****        -0.1891  -0.7852   0.2337 N.4            1 S1                 1.0000
      7 ****         1.2872  -0.8708   0.2041 C.3            1 S1                 0.0000
      8 ****         1.7719  -2.3206   0.3770 C.3            1 S1                 0.0000
      9 ****         1.2870  -3.0974  -0.7011 O.3            1 S1                 0.0000
     10 ****         3.2880  -2.3782   0.4794 C.ar           1 S1                 0.0000
     11 ****         4.1036  -2.2663  -0.6678 C.ar           1 S1                 0.0000
     12 ****         5.5028  -2.3122  -0.5070 C.ar           1 S1                 0.0000
     13 ****         6.1065  -2.4556   0.6921 N.ar           1 S1                 0.0000
     14 ****         5.3223  -2.5610   1.7860 C.ar           1 S1                 0.0000
     15 ****         3.9142  -2.5271   1.7346 C.ar           1 S1                 0.0000
     16 ****        -2.2352   0.5426   0.6245 C.3            1 S1                 0.0000
     17 ****        -2.8661   1.9496   0.6306 C.3            1 S1                 0.0000
     18 ****        -4.3240   1.9186   1.1184 C.3            1 S1                 0.0000
     19 ****        -3.3770   1.0338  -2.0439 H              1 S1                 0.0000
     20 ****        -3.3853   2.6192  -2.8023 H              1 S1                 0.0000
     21 ****        -4.6295   2.2038  -1.6436 H              1 S1                 0.0000
     22 ****        -2.9980   3.7004  -0.6032 H              1 S1                 0.0000
     23 ****        -1.0766   3.1473  -2.1123 H              1 S1                 0.0000
     24 ****        -0.6527   3.3185  -0.4321 H              1 S1                 0.0000
     25 ****        -1.0096   0.6742  -1.9206 H              1 S1                 0.0000
     26 ****         0.4905   1.3781  -1.3764 H              1 S1                 0.0000
     27 ****        -0.2180   1.1623   0.9957 H              1 S1                 0.0000
     28 ****        -0.4986  -1.2393   1.0810 H              1 S1                 0.0000
     29 ****         1.6685  -0.4588  -0.7305 H              1 S1                 0.0000
     30 ****         1.6883  -0.2576   1.0124 H              1 S1                 0.0000
     31 ****         1.3482  -2.7351   1.2931 H              1 S1                 0.0000
     32 ****         1.5504  -3.9954  -0.5653 H              1 S1                 0.0000
     33 ****         3.6722  -2.1449  -1.6508 H              1 S1                 0.0000
     34 ****         6.1539  -2.2282  -1.3646 H              1 S1                 0.0000
     35 ****         5.8315  -2.6730   2.7318 H              1 S1                 0.0000
     36 ****         3.3340  -2.6123   2.6419 H              1 S1                 0.0000
     37 ****        -2.7822  -0.1079  -0.0593 H              1 S1                 0.0000
     38 ****        -2.3372   0.0955   1.6142 H              1 S1                 0.0000
     39 ****        -2.3146   2.5397   1.3647 H              1 S1                 0.0000
     40 ****        -4.9468   1.2775   0.4944 H              1 S1                 0.0000
     41 ****        -4.7612   2.9174   1.1168 H              1 S1                 0.0000
     42 ****        -4.3845   1.5365   2.1378 H              1 S1                 0.0000
     43 ****        -0.5627  -1.2944  -0.5548 H              1 S1                 0.0000
     44 ****         1.6710  -2.7593  -1.5603 LP             1 S1                 0.0000
     45 ****         0.2892  -3.0400  -0.7365 LP             1 S1                 0.0000
     46 ****         7.1032  -2.4829   0.7676 LP             1 S1                 0.0000
@<TRIPOS>BOND
    1    1    2 1     
    2    1   19 1     
    3    1   20 1     
    4    1   21 1     
    5    2   17 1     
    6    2    3 1     
    7    2   22 1     
    8    3    4 1     
    9    3   23 1     
   10    3   24 1     
   11    4    5 1     
   12    4   25 1     
   13    4   26 1     
   14    5    6 1     
   15    5   16 1     
   16    5   27 1     
   17    6    7 1     
   18    6   28 1     
   19    6   43 1     
   20    7    8 1     
   21    7   29 1     
   22    7   30 1     
   23    8    9 1     
   24    8   10 1     
   25    8   31 1     
   26    9   32 1     
   27   10   15 ar    
   28   10   11 ar    
   29   11   12 ar    
   30   11   33 1     
   31   12   13 ar    
   32   12   34 1     
   33   13   14 ar    
   34   14   15 ar    
   35   14   35 1     
   36   15   36 1     
   37   16   17 1     
   38   16   37 1     
   39   16   38 1     
   40   17   18 1     
   41   17   39 1     
   42   18   40 1     
   43   18   41 1     
   44   18   42 1     
   45    9   44 1     
   46    9   45 1     
   47   13   46 1     
@<TRIPOS>SUBSTRUCTURE
      1 S1             1
@<TRIPOS>SET
LONE_PAIRS      STATIC     ATOMS    <user>   **** ""
3 44 45 46
DONOR_HYDROGENS      STATIC     ATOMS    <user>   **** ""
3 28 43 32
ATOM$BLUE        STATIC     ATOMS    COLORGROUP SYSTEM
3 44 45 46
ATOM$RED        STATIC     ATOMS    COLORGROUP SYSTEM
3 28 43 32
