AV-unprocessed.smi:609|AV-procd|sdf|3052|dock1
  -GOLD-   2262023573D 1   1.00000     0.00000
 Structure written by MMmdl.
 43 45  0  0  0  0  0  0  0  0  2 V2000
  151.9090  144.8767  160.4186 C   0  0  0  0  0  0  0  0  0  0  0  0
  151.8027  143.6995  159.4640 C   0  0  0  0  0  0  0  0  0  0  0  0
  151.0100  143.8418  158.3030 C   0  0  0  0  0  0  0  0  0  0  0  0
  150.9333  142.7478  157.4491 C   0  0  0  0  0  0  0  0  0  0  0  0
  150.2496  142.5755  156.2436 N   0  3  0  0  0  0  0  0  0  0  0  0
  150.4799  141.3211  155.7661 C   0  0  0  0  0  0  0  0  0  0  0  0
  151.2993  140.6893  156.6493 N   0  0  0  0  0  0  0  0  0  0  0  0
  151.8499  139.3273  156.6055 C   0  0  0  0  0  0  0  0  0  0  0  0
  150.7658  138.2529  156.3956 C   0  0  1  0  0  0  0  0  0  0  0  0
  151.3670  136.9836  156.2265 O   0  0  0  0  0  0  0  0  0  0  0  0
  149.7839  138.1895  157.5805 C   0  0  0  0  0  0  0  0  0  0  0  0
  150.5442  137.5209  159.0947 S   0  0  0  0  0  0  0  0  0  0  0  0
  149.1485  136.7113  159.8180 C   0  0  0  0  0  0  0  0  0  0  0  0
  148.6129  137.0195  160.9968 N   0  0  0  0  0  0  0  0  0  0  0  0
  147.5545  136.1325  161.1563 C   0  0  0  0  0  0  0  0  0  0  0  0
  147.4856  135.3073  160.0607 C   0  0  0  0  0  0  0  0  0  0  0  0
  148.5162  135.6890  159.2122 N   0  0  0  0  0  0  0  0  0  0  0  0
  148.8297  135.0927  157.9285 C   0  0  0  0  0  0  0  0  0  0  0  0
  151.6090  141.5412  157.7164 C   0  0  0  0  0  0  0  0  0  0  0  0
  152.3941  141.3848  158.8563 C   0  0  0  0  0  0  0  0  0  0  0  0
  152.4859  142.4861  159.7370 C   0  0  0  0  0  0  0  0  0  0  0  0
  153.3372  142.3440  160.9873 C   0  0  0  0  0  0  0  0  0  0  0  0
  151.3745  145.7481  160.0388 H   0  0  0  0  0  0  0  0  0  0  0  0
  152.9510  145.1636  160.5613 H   0  0  0  0  0  0  0  0  0  0  0  0
  151.4837  144.6201  161.3891 H   0  0  0  0  0  0  0  0  0  0  0  0
  150.4872  144.7624  158.0884 H   0  0  0  0  0  0  0  0  0  0  0  0
  150.0851  140.9033  154.8511 H   0  0  0  0  0  0  0  0  0  0  0  0
  152.6225  139.2721  155.8383 H   0  0  0  0  0  0  0  0  0  0  0  0
  152.3537  139.1594  157.5582 H   0  0  0  0  0  0  0  0  0  0  0  0
  150.2236  138.4855  155.4790 H   0  0  0  0  0  0  0  0  0  0  0  0
  151.0519  136.4106  156.9093 H   0  0  0  0  0  0  0  0  0  0  0  0
  149.4044  139.1878  157.8014 H   0  0  0  0  0  0  0  0  0  0  0  0
  148.9128  137.5851  157.3265 H   0  0  0  0  0  0  0  0  0  0  0  0
  146.9314  136.1565  162.0382 H   0  0  0  0  0  0  0  0  0  0  0  0
  146.8074  134.5012  159.8219 H   0  0  0  0  0  0  0  0  0  0  0  0
  148.1292  134.2872  157.7060 H   0  0  0  0  0  0  0  0  0  0  0  0
  149.8411  134.6858  157.9476 H   0  0  0  0  0  0  0  0  0  0  0  0
  148.7605  135.8473  157.1445 H   0  0  0  0  0  0  0  0  0  0  0  0
  152.9201  140.4641  159.0611 H   0  0  0  0  0  0  0  0  0  0  0  0
  153.7603  141.3425  161.0703 H   0  0  0  0  0  0  0  0  0  0  0  0
  152.7401  142.5279  161.8808 H   0  0  0  0  0  0  0  0  0  0  0  0
  154.1638  143.0545  160.9694 H   0  0  0  0  0  0  0  0  0  0  0  0
  149.6696  143.2617  155.7783 H   0  0  0  0  0  0  0  0  0  0  0  0
  1  2  1  0  0  0  0
  1 23  1  0  0  0  0
  1 24  1  0  0  0  0
  1 25  1  0  0  0  0
  2 21  1  0  0  0  0
  2  3  2  0  0  0  0
  3  4  1  0  0  0  0
  3 26  1  0  0  0  0
  4 19  2  0  0  0  0
  4  5  1  0  0  0  0
  5  6  2  0  0  0  0
  5 43  1  0  0  0  0
  6  7  1  0  0  0  0
  6 27  1  0  0  0  0
  7  8  1  0  0  0  0
  7 19  1  0  0  0  0
  8  9  1  0  0  0  0
  8 28  1  0  0  0  0
  8 29  1  0  0  0  0
  9 10  1  0  0  0  0
  9 11  1  0  0  0  0
  9 30  1  0  0  0  0
 10 31  1  0  0  0  0
 11 12  1  0  0  0  0
 11 32  1  0  0  0  0
 11 33  1  0  0  0  0
 12 13  1  0  0  0  0
 13 17  1  0  0  0  0
 13 14  2  0  0  0  0
 14 15  1  0  0  0  0
 15 16  2  0  0  0  0
 15 34  1  0  0  0  0
 16 17  1  0  0  0  0
 16 35  1  0  0  0  0
 17 18  1  0  0  0  0
 18 36  1  0  0  0  0
 18 37  1  0  0  0  0
 18 38  1  0  0  0  0
 19 20  1  0  0  0  0
 20 21  2  0  0  0  0
 20 39  1  0  0  0  0
 21 22  1  0  0  0  0
 22 40  1  0  0  0  0
 22 41  1  0  0  0  0
 22 42  1  0  0  0  0
M  CHG  1   5   1
M  END
> <s_m_source_file>
AV-unprocessed.smi

> <i_m_source_file_index>
609

> <i_lp_mmshare_version>
43012

> <i_f3d_flags>
0

> <s_epik_input>
W0NIM11jKFtjSF0xKWMoW0NIM10pW2NIXWMoYzEyKW4oW2NIXW4yKVtDSDJdW0NASF0oW09IXSlbQ0gyXVNjM25bY0hdW2NIXW4zW0NIM10=

> <s_epik_cmdline>
J2VwaWtfcHl0aG9uJywgJy1waCcsICc3LjAnLCAnLXRuJywgJzgnLCAnLW1hJywgJzIwMCcsICctbWV0YWxfYmluZGluZycsICctaW1hZScsICc8aW5maWxlLm1hZT4nLCAnLW9tYWUnLCAnPG91dGZpbGUubWFlPic=

> <r_epik_Ionization_Penalty>
2.09683

> <r_epik_Ionization_Penalty_Charging>
2.09682

> <r_epik_Ionization_Penalty_Neutral>
2.49751e-06

> <r_epik_State_Penalty>
2.21514

> <r_epik_Charging_Adjusted_Penalty>
4.31197

> <i_epik_Tot_Q>
1

> <i_epik_Tot_abs_Q>
1

> <r_epik_Metal_State_Penalty>
1.52634

> <b_epik_Metal_Only>
0

> <s_lp_Force_Field>
OPLS_2005

> <r_lp_Energy>
12.6573

> <b_lp_Chiralities_Consistent>
1

> <s_lp_Variant>
AV-unprocessed.smi:609-8

> <Gold.Version>
5.8.1

> <Gold.Id.Protein>
6NUR|6NUR_protein|mol2

> <Gold.PLP.Fitness>
52.7254

> <Gold.PLP.PLP>
-44.2802

> <Gold.PLP.part.hbond>
-2.4960

> <Gold.PLP.part.metal>
0.0000

> <Gold.PLP.part.buried>
-6.0748

> <Gold.PLP.part.nonpolar>
-37.4135

> <Gold.PLP.part.repulsive>
0.1062

> <Gold.PLP.ligand.clash>
0.0000

> <Gold.PLP.ligand.torsion>
0.3254

> <Gold.PLP.Chemscore.Hbond>
3.0000

> <Gold.PLP.Chemscore.CHOScore>
0.0000

> <Gold.PLP.Chemscore.Metal>
0.0000

> <Gold.Chemscore.Hbonds>
donor molecule, donor type, donor heavy atom, donor atom, acceptor molecule, acceptor atom, score
      L1  H     5    43       P1  8028  2.00
      P1  H  6931  6943       L1    14  1.00

> <Gold.PLP.Chemscore.Internal.Correction>
0.0959

> <Gold.Rescore>
     Score         DG    S(hbond)    S(metal)    S(lipo)     H(rot)  DE(clash)    DE(int)     intcor
     18.54     -18.85       1.94        0.00     113.05       2.48       0.00       0.31       ----

> <Gold.Chemscore.Fitness>
18.5351

> <Gold.Chemscore.DG>
-18.8462

> <Gold.Chemscore.ZeroCoef>
-5.4800

> <Gold.Chemscore.Hbond>
1.9418

> <Gold.Chemscore.Metal>
0.0000

> <Gold.Chemscore.Lipo>
113.0473

> <Gold.Chemscore.Internal_Hbond>
0.0000

> <Gold.Chemscore.DEClash>
0.0000

> <Gold.Chemscore.DEInternal>
0.3111

> <Gold.Chemscore.Rot>
2.4789

> <Gold.Chemscore.Internal.Correction>
   9.000000E+99

> <Gold.Chemscore.Hbonds>
donor molecule, donor type, donor heavy atom, donor atom, acceptor molecule, acceptor atom, score
      L1  H     5    43       P1  8028  0.97
      P1  H  6931  6943       L1    14  0.93

> <Gold.Chemscore.Hbond.Weighted>
-6.4855

> <Gold.Chemscore.Metal.Weighted>
-0.0000

> <Gold.Chemscore.Lipo.Weighted>
-13.2265

> <Gold.Chemscore.Internal_Hbond.Weighted>
0.0000

> <Gold.Chemscore.DEClash.Weighted>
0.0000

> <Gold.Chemscore.DEInternal.Weighted>
0.3111

> <Gold.Chemscore.Rot.Weighted>
6.3459

> <Gold.Chemscore.Internal.Correction.Weighted>
   9.000000E+99

> <Gold.Protein.RotatedTorsions>
[ 6907 6896 6895 6894 ] final  -58.68 input  -60.11 | X-H torsion
[ 7974 7965 7964 7962 ] final  124.91 input  175.53 | X-H torsion
[ 8008 7997 7996 7995 ] final   42.18 input   59.86 | X-H torsion
[ 10167 10162 10161 10158 ] final  116.02 input  -65.29 | X-H torsion
[ 10718 10713 10712 10709 ] final  -94.19 input   66.30 | X-H torsion
[ 10763 10752 10751 10750 ] final  -93.80 input  -60.55 | X-H torsion
[ 11005 11000 10999 10996 ] final  101.08 input  -57.11 | X-H torsion

> <Gold.Protein.ActiveResidues>
 VAL166  LYS551  ARG553  GLY616  TRP617  ASP618  TYR619  PRO620  LYS621  CYS622 
 ASP623  PHE694  ASN695  SER759  ASP760  ASP761  ALA762  ILE779  LEU786  VAL792 
 PHE793  MET794  SER795  GLU796  ALA797  LYS798  CYS799  TRP800  GLU811  SER814 

> <Gold.Protein.RotatedAtoms>
  150.7988  134.7067  159.6580 H   0  0  0  0  0  0  0  0  0  0  0  0  # atno 6907 bound_to 6896
  152.4103  134.6132  160.0041 H   0  0  0  0  0  0  0  0  0  0  0  0  # atno 6908 bound_to 6896
  151.6377  133.3291  159.3159 H   0  0  0  0  0  0  0  0  0  0  0  0  # atno 6909 bound_to 6896
  145.0790  139.3672  143.4919 H   0  0  0  0  0  0  0  0  0  0  0  0  # atno 7974 bound_to 7965
  155.2819  140.3373  155.4258 H   0  0  0  0  0  0  0  0  0  0  0  0  # atno 8008 bound_to 7997
  156.2086  140.1760  156.7787 H   0  0  0  0  0  0  0  0  0  0  0  0  # atno 8009 bound_to 7997
  154.5654  140.0679  156.8868 H   0  0  0  0  0  0  0  0  0  0  0  0  # atno 8010 bound_to 7997
  139.6276  144.7110  151.2500 H   0  0  0  0  0  0  0  0  0  0  0  0  # atno 10167 bound_to 10162
  156.0023  130.5058  150.5890 H   0  0  0  0  0  0  0  0  0  0  0  0  # atno 10718 bound_to 10713
  154.6994  135.5181  153.8504 H   0  0  0  0  0  0  0  0  0  0  0  0  # atno 10763 bound_to 10752
  153.0692  135.6595  154.0295 H   0  0  0  0  0  0  0  0  0  0  0  0  # atno 10764 bound_to 10752
  154.0157  135.2998  155.3367 H   0  0  0  0  0  0  0  0  0  0  0  0  # atno 10765 bound_to 10752
  139.8772  134.9168  156.4853 H   0  0  0  0  0  0  0  0  0  0  0  0  # atno 11005 bound_to 11000
  146.3530  140.0570  142.8632 LP  0  0  0  0  0  0  0  0  0  0  0  0  # atno 17320 bound_to 7965
  145.1201  140.9457  143.4605 LP  0  0  0  0  0  0  0  0  0  0  0  0  # atno 17321 bound_to 7965
  140.7420  143.6539  150.8224 LP  0  0  0  0  0  0  0  0  0  0  0  0  # atno 17342 bound_to 10162
  140.0159  143.5593  152.2820 LP  0  0  0  0  0  0  0  0  0  0  0  0  # atno 17343 bound_to 10162
  157.3758  131.0773  151.1519 LP  0  0  0  0  0  0  0  0  0  0  0  0  # atno 17370 bound_to 10713
  157.2258  130.6502  149.5829 LP  0  0  0  0  0  0  0  0  0  0  0  0  # atno 17371 bound_to 10713
  140.8698  133.7997  155.9352 LP  0  0  0  0  0  0  0  0  0  0  0  0  # atno 17394 bound_to 11000
  140.8964  134.2432  157.5066 LP  0  0  0  0  0  0  0  0  0  0  0  0  # atno 17395 bound_to 11000

$$$$
