AV-unprocessed.smi:1617|AV-procd|sdf|6484|dock1
  -GOLD-   22720 7143D 1   1.00000     0.00000
 Structure written by MMmdl.
 47 49  0  0  0  0  0  0  0  0  1 V2000
  147.0336  138.7068  155.3132 O   0  0  0  0  0  0  0  0  0  0  0  0
  147.8093  138.2597  154.4687 C   0  0  0  0  0  0  0  0  0  0  0  0
  149.1244  138.5284  154.3995 N   0  0  0  0  0  0  0  0  0  0  0  0
  149.8970  139.3913  155.2231 C   0  0  0  0  0  0  0  0  0  0  0  0
  151.2941  139.5701  155.1046 C   0  0  0  0  0  0  0  0  0  0  0  0
  151.9502  140.4419  155.9949 C   0  0  0  0  0  0  0  0  0  0  0  0
  151.1985  141.1152  156.9913 C   0  0  0  0  0  0  0  0  0  0  0  0
  151.7975  141.9980  157.9202 N   0  0  0  0  0  0  0  0  0  0  0  0
  151.5192  143.4280  157.8093 C   0  0  0  0  0  0  0  0  0  0  0  0
  152.4990  144.2418  158.6718 C   0  0  0  0  0  0  0  0  0  0  0  0
  152.4668  143.7705  160.0137 O   0  0  0  0  0  0  0  0  0  0  0  0
  152.8797  142.4117  160.1011 C   0  0  0  0  0  0  0  0  0  0  0  0
  151.9160  141.5209  159.2986 C   0  0  0  0  0  0  0  0  0  0  0  0
  149.8617  140.9267  157.1063 N   0  0  0  0  0  0  0  0  0  0  0  0
  149.2373  140.0895  156.2526 C   0  0  0  0  0  0  0  0  0  0  0  0
  147.4364  137.4133  153.4969 N   0  0  0  0  0  0  0  0  0  0  0  0
  146.0730  136.9266  153.2721 C   0  0  2  0  0  0  0  0  0  0  0  0
  146.0430  135.4278  153.6501 C   0  0  0  0  0  0  0  0  0  0  0  0
  144.6376  134.9009  153.9888 C   0  0  0  0  0  0  0  0  0  0  0  0
  143.6409  134.9108  152.8196 C   0  0  0  0  0  0  0  0  0  0  0  0
  143.3398  136.3177  152.2751 C   0  0  0  0  0  0  0  0  0  0  0  0
  144.4104  136.8157  151.4214 N   0  0  0  0  0  0  0  0  0  0  0  0
  145.6730  137.0845  151.7862 C   0  0  0  0  0  0  0  0  0  0  0  0
  146.4987  137.4453  150.9474 O   0  0  0  0  0  0  0  0  0  0  0  0
  149.6446  138.0201  153.6994 H   0  0  0  0  0  0  0  0  0  0  0  0
  151.8785  139.0503  154.3617 H   0  0  0  0  0  0  0  0  0  0  0  0
  153.0153  140.5762  155.8868 H   0  0  0  0  0  0  0  0  0  0  0  0
  151.6158  143.7557  156.7740 H   0  0  0  0  0  0  0  0  0  0  0  0
  150.4925  143.6199  158.1238 H   0  0  0  0  0  0  0  0  0  0  0  0
  153.5134  144.1754  158.2752 H   0  0  0  0  0  0  0  0  0  0  0  0
  152.2222  145.2960  158.6588 H   0  0  0  0  0  0  0  0  0  0  0  0
  153.9023  142.3058  159.7348 H   0  0  0  0  0  0  0  0  0  0  0  0
  152.8848  142.1089  161.1482 H   0  0  0  0  0  0  0  0  0  0  0  0
  150.9272  141.5301  159.7589 H   0  0  0  0  0  0  0  0  0  0  0  0
  152.2783  140.4940  159.3414 H   0  0  0  0  0  0  0  0  0  0  0  0
  148.1721  139.9794  156.3950 H   0  0  0  0  0  0  0  0  0  0  0  0
  148.1410  137.0982  152.8467 H   0  0  0  0  0  0  0  0  0  0  0  0
  145.3858  137.4884  153.9075 H   0  0  0  0  0  0  0  0  0  0  0  0
  146.4967  134.8174  152.8672 H   0  0  0  0  0  0  0  0  0  0  0  0
  146.6623  135.2719  154.5349 H   0  0  0  0  0  0  0  0  0  0  0  0
  144.7301  133.8778  154.3545 H   0  0  0  0  0  0  0  0  0  0  0  0
  144.2268  135.4755  154.8199 H   0  0  0  0  0  0  0  0  0  0  0  0
  143.9957  134.2640  152.0159 H   0  0  0  0  0  0  0  0  0  0  0  0
  142.7069  134.4686  153.1679 H   0  0  0  0  0  0  0  0  0  0  0  0
  142.4359  136.2805  151.6667 H   0  0  0  0  0  0  0  0  0  0  0  0
  143.1356  137.0202  153.0844 H   0  0  0  0  0  0  0  0  0  0  0  0
  144.1798  136.9404  150.4461 H   0  0  0  0  0  0  0  0  0  0  0  0
  1  2  2  0  0  0  0
  2  3  1  0  0  0  0
  2 16  1  0  0  0  0
  3  4  1  0  0  0  0
  3 25  1  0  0  0  0
  4 15  1  0  0  0  0
  4  5  2  0  0  0  0
  5  6  1  0  0  0  0
  5 26  1  0  0  0  0
  6  7  2  0  0  0  0
  6 27  1  0  0  0  0
  7  8  1  0  0  0  0
  7 14  1  0  0  0  0
  8 13  1  0  0  0  0
  8  9  1  0  0  0  0
  9 10  1  0  0  0  0
  9 28  1  0  0  0  0
  9 29  1  0  0  0  0
 10 11  1  0  0  0  0
 10 30  1  0  0  0  0
 10 31  1  0  0  0  0
 11 12  1  0  0  0  0
 12 13  1  0  0  0  0
 12 32  1  0  0  0  0
 12 33  1  0  0  0  0
 13 34  1  0  0  0  0
 13 35  1  0  0  0  0
 14 15  2  0  0  0  0
 15 36  1  0  0  0  0
 16 17  1  0  0  0  0
 16 37  1  0  0  0  0
 17 23  1  0  0  0  0
 17 18  1  0  0  0  0
 17 38  1  0  0  0  0
 18 19  1  0  0  0  0
 18 39  1  0  0  0  0
 18 40  1  0  0  0  0
 19 20  1  0  0  0  0
 19 41  1  0  0  0  0
 19 42  1  0  0  0  0
 20 21  1  0  0  0  0
 20 43  1  0  0  0  0
 20 44  1  0  0  0  0
 21 22  1  0  0  0  0
 21 45  1  0  0  0  0
 21 46  1  0  0  0  0
 22 23  1  0  0  0  0
 22 47  1  0  0  0  0
 23 24  2  0  0  0  0
M  END
> <s_m_source_file>
AV-unprocessed.smi

> <i_m_source_file_index>
1617

> <i_lp_mmshare_version>
43012

> <i_f3d_flags>
0

> <s_epik_input>
Tz1DMVtOSF1bQ0gyXVtDSDJdW0NIMl1bQ0gyXVtDQEhdMVtOSF1DKD1PKVtOSF1jMltjSF1bY0hdYyhuW2NIXTIpTjNbQ0gyXVtDSDJdT1tDSDJdW0NIMl0z

> <s_epik_cmdline>
J2VwaWtfcHl0aG9uJywgJy1waCcsICc3LjAnLCAnLXRuJywgJzgnLCAnLW1hJywgJzIwMCcsICctbWV0YWxfYmluZGluZycsICctaW1hZScsICc8aW5maWxlLm1hZT4nLCAnLW9tYWUnLCAnPG91dGZpbGUubWFlPic=

> <r_lp_tautomer_probability>
1

> <r_epik_Ionization_Penalty>
0.00171733

> <r_epik_Ionization_Penalty_Charging>
0

> <r_epik_Ionization_Penalty_Neutral>
0.00171733

> <r_epik_State_Penalty>
0.00113787

> <r_epik_Charging_Adjusted_Penalty>
0.00113787

> <i_epik_Tot_Q>
0

> <i_epik_Tot_abs_Q>
0

> <r_epik_Metal_State_Penalty>
-0

> <b_epik_Metal_Only>
0

> <s_lp_Force_Field>
OPLS_2005

> <r_lp_Energy>
27.2722

> <b_lp_Chiralities_Consistent>
1

> <s_lp_Variant>
AV-unprocessed.smi:1617-1

> <Gold.Version>
5.8.1

> <Gold.Id.Protein>
6NUR|6NUR_protein|mol2

> <Gold.PLP.Fitness>
39.8519

> <Gold.PLP.PLP>
-32.7576

> <Gold.PLP.part.hbond>
-2.7950

> <Gold.PLP.part.metal>
0.0000

> <Gold.PLP.part.buried>
-4.5518

> <Gold.PLP.part.nonpolar>
-28.1580

> <Gold.PLP.part.repulsive>
2.6503

> <Gold.PLP.ligand.clash>
0.0000

> <Gold.PLP.ligand.torsion>
0.3348

> <Gold.PLP.Chemscore.Hbond>
2.4320

> <Gold.PLP.Chemscore.CHOScore>
0.0000

> <Gold.PLP.Chemscore.Metal>
0.0000

> <Gold.Chemscore.Hbonds>
donor molecule, donor type, donor heavy atom, donor atom, acceptor molecule, acceptor atom, score
      L1  H    16    37       P1  7948  1.00
      L1  H    22    47       P1 10171  0.42
      P1  H  7954  7966       L1    24  1.00

> <Gold.PLP.Chemscore.Internal.Correction>
0.4679

> <Gold.Rescore>
     Score         DG    S(hbond)    S(metal)    S(lipo)     H(rot)  DE(clash)    DE(int)     intcor
     16.82     -19.99       2.48        0.00      81.15       1.27       1.40       1.77       ----

> <Gold.Chemscore.Fitness>
16.8230

> <Gold.Chemscore.DG>
-19.9940

> <Gold.Chemscore.ZeroCoef>
-5.4800

> <Gold.Chemscore.Hbond>
2.4752

> <Gold.Chemscore.Metal>
0.0000

> <Gold.Chemscore.Lipo>
81.1453

> <Gold.Chemscore.Internal_Hbond>
0.0000

> <Gold.Chemscore.DEClash>
1.4043

> <Gold.Chemscore.DEInternal>
1.7667

> <Gold.Chemscore.Rot>
1.2684

> <Gold.Chemscore.Internal.Correction>
   9.000000E+99

> <Gold.Chemscore.Hbonds>
donor molecule, donor type, donor heavy atom, donor atom, acceptor molecule, acceptor atom, score
      L1  H    16    37       P1  7948  0.94
      L1  H    22    47       P1 10171  0.42
      P1  H  7954  7966       L1    24  0.94

> <Gold.Chemscore.Hbond.Weighted>
-8.2671

> <Gold.Chemscore.Metal.Weighted>
-0.0000

> <Gold.Chemscore.Lipo.Weighted>
-9.4940

> <Gold.Chemscore.Internal_Hbond.Weighted>
0.0000

> <Gold.Chemscore.DEClash.Weighted>
1.4043

> <Gold.Chemscore.DEInternal.Weighted>
1.7667

> <Gold.Chemscore.Rot.Weighted>
3.2471

> <Gold.Chemscore.Internal.Correction.Weighted>
   9.000000E+99

> <Gold.Protein.RotatedTorsions>
[ 6907 6896 6895 6894 ] final  153.11 input  -60.11 | X-H torsion
[ 7974 7965 7964 7962 ] final   71.52 input  175.53 | X-H torsion
[ 8008 7997 7996 7995 ] final  124.42 input   59.86 | X-H torsion
[ 10167 10162 10161 10158 ] final  135.29 input  -65.29 | X-H torsion
[ 10718 10713 10712 10709 ] final   38.29 input   66.30 | X-H torsion
[ 10763 10752 10751 10750 ] final   95.18 input  -60.55 | X-H torsion
[ 11005 11000 10999 10996 ] final   -8.67 input  -57.11 | X-H torsion

> <Gold.Protein.ActiveResidues>
 VAL166  LYS551  ARG553  GLY616  TRP617  ASP618  TYR619  PRO620  LYS621  CYS622 
 ASP623  PHE694  ASN695  SER759  ASP760  ASP761  ALA762  ILE779  LEU786  VAL792 
 PHE793  MET794  SER795  GLU796  ALA797  LYS798  CYS799  TRP800  GLU811  SER814 

> <Gold.Protein.RotatedAtoms>
  152.0773  133.4136  159.4485 H   0  0  0  0  0  0  0  0  0  0  0  0  # atno 6907 bound_to 6896
  150.6862  134.3022  159.4720 H   0  0  0  0  0  0  0  0  0  0  0  0  # atno 6908 bound_to 6896
  152.0860  134.9439  160.0623 H   0  0  0  0  0  0  0  0  0  0  0  0  # atno 6909 bound_to 6896
  145.7647  139.2816  143.1355 H   0  0  0  0  0  0  0  0  0  0  0  0  # atno 7974 bound_to 7965
  156.2800  140.2740  156.1785 H   0  0  0  0  0  0  0  0  0  0  0  0  # atno 8008 bound_to 7997
  155.0581  140.0386  157.2585 H   0  0  0  0  0  0  0  0  0  0  0  0  # atno 8009 bound_to 7997
  154.7140  140.2674  155.6608 H   0  0  0  0  0  0  0  0  0  0  0  0  # atno 8010 bound_to 7997
  139.5223  144.6524  151.5262 H   0  0  0  0  0  0  0  0  0  0  0  0  # atno 10167 bound_to 10162
  157.3570  130.7629  149.7020 H   0  0  0  0  0  0  0  0  0  0  0  0  # atno 10718 bound_to 10713
  153.2502  135.4263  155.0790 H   0  0  0  0  0  0  0  0  0  0  0  0  # atno 10763 bound_to 10752
  154.8378  135.3424  154.6523 H   0  0  0  0  0  0  0  0  0  0  0  0  # atno 10764 bound_to 10752
  153.6945  135.7032  153.5137 H   0  0  0  0  0  0  0  0  0  0  0  0  # atno 10765 bound_to 10752
  140.7260  133.8789  155.8856 H   0  0  0  0  0  0  0  0  0  0  0  0  # atno 11005 bound_to 11000
  146.0229  140.8331  142.9914 LP  0  0  0  0  0  0  0  0  0  0  0  0  # atno 17320 bound_to 7965
  144.6823  140.2655  143.7313 LP  0  0  0  0  0  0  0  0  0  0  0  0  # atno 17321 bound_to 7965
  140.6335  143.9030  150.6626 LP  0  0  0  0  0  0  0  0  0  0  0  0  # atno 17342 bound_to 10162
  140.2341  143.3713  152.1541 LP  0  0  0  0  0  0  0  0  0  0  0  0  # atno 17343 bound_to 10162
  155.9731  130.4124  150.4031 LP  0  0  0  0  0  0  0  0  0  0  0  0  # atno 17370 bound_to 10713
  157.2103  131.0459  151.2603 LP  0  0  0  0  0  0  0  0  0  0  0  0  # atno 17371 bound_to 10713
  140.9963  134.1211  157.4361 LP  0  0  0  0  0  0  0  0  0  0  0  0  # atno 17394 bound_to 11000
  139.8837  135.0055  156.6319 LP  0  0  0  0  0  0  0  0  0  0  0  0  # atno 17395 bound_to 11000

$$$$
