AV-unprocessed.smi:2955|AV-procd|sdf|11301|dock3
  -GOLD-   2272016193D 1   1.00000     0.00000
 Structure written by MMmdl.
 45 47  0  0  0  0  0  0  0  0  1 V2000
  152.9231  142.0038  161.8769 C   0  0  0  0  0  0  0  0  0  0  0  0
  152.3377  142.9001  160.8054 C   0  0  0  0  0  0  0  0  0  0  0  0
  152.0864  144.2604  161.0720 C   0  0  0  0  0  0  0  0  0  0  0  0
  151.5414  145.0829  160.0690 C   0  0  0  0  0  0  0  0  0  0  0  0
  151.2480  144.5516  158.7982 C   0  0  0  0  0  0  0  0  0  0  0  0
  151.5008  143.1855  158.5160 C   0  0  0  0  0  0  0  0  0  0  0  0
  151.2518  142.5861  157.3000 O   0  0  0  0  0  0  0  0  0  0  0  0
  150.9228  141.2035  157.2860 C   0  0  0  0  0  0  0  0  0  0  0  0
  151.4520  140.5543  155.9995 C   0  0  0  0  0  0  0  0  0  0  0  0
  150.3860  139.9569  155.2057 N   0  0  0  0  0  0  0  0  0  0  0  0
  150.2670  138.6854  154.7369 C   0  0  0  0  0  0  0  0  0  0  0  0
  151.3006  137.6143  154.9834 C   0  0  2  0  0  0  0  0  0  0  0  0
  152.6924  138.0244  154.4810 C   0  0  0  0  0  0  0  0  0  0  0  0
  150.8644  136.3891  154.3218 N   0  0  0  0  0  0  0  0  0  0  0  0
  150.3867  135.3159  154.9637 C   0  0  0  0  0  0  0  0  0  0  0  0
  150.2710  135.2591  156.1851 O   0  0  0  0  0  0  0  0  0  0  0  0
  149.1467  138.4282  154.0562 N   0  0  0  0  0  0  0  0  0  0  0  0
  148.4971  139.6453  154.0563 C   0  0  0  0  0  0  0  0  0  0  0  0
  147.2635  140.0280  153.4828 C   0  0  0  0  0  0  0  0  0  0  0  0
  146.7963  141.3522  153.6134 C   0  0  0  0  0  0  0  0  0  0  0  0
  147.5535  142.3095  154.3188 C   0  0  0  0  0  0  0  0  0  0  0  0
  148.7843  141.9474  154.8994 C   0  0  0  0  0  0  0  0  0  0  0  0
  149.2469  140.6244  154.7652 C   0  0  0  0  0  0  0  0  0  0  0  0
  152.0448  142.3721  159.5317 C   0  0  0  0  0  0  0  0  0  0  0  0
  152.9503  142.5062  162.8442 H   0  0  0  0  0  0  0  0  0  0  0  0
  153.9406  141.7157  161.6123 H   0  0  0  0  0  0  0  0  0  0  0  0
  152.3252  141.0983  161.9820 H   0  0  0  0  0  0  0  0  0  0  0  0
  152.3095  144.6774  162.0432 H   0  0  0  0  0  0  0  0  0  0  0  0
  151.3486  146.1254  160.2741 H   0  0  0  0  0  0  0  0  0  0  0  0
  150.8318  145.2154  158.0562 H   0  0  0  0  0  0  0  0  0  0  0  0
  151.3663  140.7083  158.1510 H   0  0  0  0  0  0  0  0  0  0  0  0
  149.8413  141.0679  157.3385 H   0  0  0  0  0  0  0  0  0  0  0  0
  152.0144  141.2674  155.3986 H   0  0  0  0  0  0  0  0  0  0  0  0
  152.1636  139.7695  156.2581 H   0  0  0  0  0  0  0  0  0  0  0  0
  151.3976  137.4139  156.0489 H   0  0  0  0  0  0  0  0  0  0  0  0
  153.0182  138.9522  154.9505 H   0  0  0  0  0  0  0  0  0  0  0  0
  152.6990  138.1821  153.4020 H   0  0  0  0  0  0  0  0  0  0  0  0
  153.4342  137.2586  154.7091 H   0  0  0  0  0  0  0  0  0  0  0  0
  150.9239  136.3605  153.3144 H   0  0  0  0  0  0  0  0  0  0  0  0
  150.1186  134.5059  154.2672 H   0  0  0  0  0  0  0  0  0  0  0  0
  146.6767  139.3018  152.9401 H   0  0  0  0  0  0  0  0  0  0  0  0
  145.8528  141.6348  153.1701 H   0  0  0  0  0  0  0  0  0  0  0  0
  147.1890  143.3219  154.4144 H   0  0  0  0  0  0  0  0  0  0  0  0
  149.3661  142.6792  155.4396 H   0  0  0  0  0  0  0  0  0  0  0  0
  152.2379  141.3286  159.3310 H   0  0  0  0  0  0  0  0  0  0  0  0
  1  2  1  0  0  0  0
  1 25  1  0  0  0  0
  1 26  1  0  0  0  0
  1 27  1  0  0  0  0
  2 24  1  0  0  0  0
  2  3  2  0  0  0  0
  3  4  1  0  0  0  0
  3 28  1  0  0  0  0
  4  5  2  0  0  0  0
  4 29  1  0  0  0  0
  5  6  1  0  0  0  0
  5 30  1  0  0  0  0
  6  7  1  0  0  0  0
  6 24  2  0  0  0  0
  7  8  1  0  0  0  0
  8  9  1  0  0  0  0
  8 31  1  0  0  0  0
  8 32  1  0  0  0  0
  9 10  1  0  0  0  0
  9 33  1  0  0  0  0
  9 34  1  0  0  0  0
 10 23  1  0  0  0  0
 10 11  1  0  0  0  0
 11 12  1  0  0  0  0
 11 17  2  0  0  0  0
 12 13  1  0  0  0  0
 12 14  1  0  0  0  0
 12 35  1  0  0  0  0
 13 36  1  0  0  0  0
 13 37  1  0  0  0  0
 13 38  1  0  0  0  0
 14 15  1  0  0  0  0
 14 39  1  0  0  0  0
 15 16  2  0  0  0  0
 15 40  1  0  0  0  0
 17 18  1  0  0  0  0
 18 23  2  0  0  0  0
 18 19  1  0  0  0  0
 19 20  2  0  0  0  0
 19 41  1  0  0  0  0
 20 21  1  0  0  0  0
 20 42  1  0  0  0  0
 21 22  2  0  0  0  0
 21 43  1  0  0  0  0
 22 23  1  0  0  0  0
 22 44  1  0  0  0  0
 24 45  1  0  0  0  0
M  END
> <s_m_source_file>
AV-unprocessed.smi

> <i_m_source_file_index>
2955

> <i_lp_mmshare_version>
43012

> <i_f3d_flags>
0

> <s_epik_input>
W0NIM11jMVtjSF1bY0hdW2NIXWMoW2NIXTEpT1tDSDJdW0NIMl1uKGMobjIpW0NASF0oW0NIM10pW05IXVtDSF09TyljKGMyMylbY0hdW2NIXVtjSF1bY0hdMw==

> <s_epik_cmdline>
J2VwaWtfcHl0aG9uJywgJy1waCcsICc3LjAnLCAnLXRuJywgJzgnLCAnLW1hJywgJzIwMCcsICctbWV0YWxfYmluZGluZycsICctaW1hZScsICc8aW5maWxlLm1hZT4nLCAnLW9tYWUnLCAnPG91dGZpbGUubWFlPic=

> <r_lp_tautomer_probability>
1

> <r_epik_Ionization_Penalty>
0.0917757

> <r_epik_Ionization_Penalty_Charging>
0

> <r_epik_Ionization_Penalty_Neutral>
0.0917757

> <r_epik_State_Penalty>
0.0820948

> <r_epik_Charging_Adjusted_Penalty>
0.0820948

> <i_epik_Tot_Q>
0

> <i_epik_Tot_abs_Q>
0

> <r_epik_Metal_State_Penalty>
0.0709956

> <b_epik_Metal_Only>
0

> <s_lp_Force_Field>
OPLS_2005

> <r_lp_Energy>
12.8811

> <b_lp_Chiralities_Consistent>
1

> <s_lp_Variant>
AV-unprocessed.smi:2955-1

> <Gold.Version>
5.8.1

> <Gold.Id.Protein>
6NUR|6NUR_protein|mol2

> <Gold.PLP.Fitness>
56.8779

> <Gold.PLP.PLP>
-55.9724

> <Gold.PLP.part.hbond>
-1.5891

> <Gold.PLP.part.metal>
0.0000

> <Gold.PLP.part.buried>
-0.0597

> <Gold.PLP.part.nonpolar>
-54.0573

> <Gold.PLP.part.repulsive>
0.6742

> <Gold.PLP.ligand.clash>
0.0000

> <Gold.PLP.ligand.torsion>
1.1306

> <Gold.PLP.Chemscore.Hbond>
1.0000

> <Gold.PLP.Chemscore.CHOScore>
0.0000

> <Gold.PLP.Chemscore.Metal>
0.0000

> <Gold.Chemscore.Hbonds>
donor molecule, donor type, donor heavy atom, donor atom, acceptor molecule, acceptor atom, score
      L1  H    14    39       P1  7949  0.85

> <Gold.PLP.Chemscore.Internal.Correction>
0.1668

> <Gold.Rescore>
     Score         DG    S(hbond)    S(metal)    S(lipo)     H(rot)  DE(clash)    DE(int)     intcor
     16.11     -20.15       0.87        0.00     150.16       2.26       2.87       1.17       ----

> <Gold.Chemscore.Fitness>
16.1129

> <Gold.Chemscore.DG>
-20.1521

> <Gold.Chemscore.ZeroCoef>
-5.4800

> <Gold.Chemscore.Hbond>
0.8665

> <Gold.Chemscore.Metal>
0.0000

> <Gold.Chemscore.Lipo>
150.1594

> <Gold.Chemscore.Internal_Hbond>
0.0000

> <Gold.Chemscore.DEClash>
2.8701

> <Gold.Chemscore.DEInternal>
1.1691

> <Gold.Chemscore.Rot>
2.2619

> <Gold.Chemscore.Internal.Correction>
   9.000000E+99

> <Gold.Chemscore.Hbonds>
donor molecule, donor type, donor heavy atom, donor atom, acceptor molecule, acceptor atom, score
      L1  H    14    39       P1  7949  0.15

> <Gold.Chemscore.Hbond.Weighted>
-2.8940

> <Gold.Chemscore.Metal.Weighted>
-0.0000

> <Gold.Chemscore.Lipo.Weighted>
-17.5687

> <Gold.Chemscore.Internal_Hbond.Weighted>
0.0000

> <Gold.Chemscore.DEClash.Weighted>
2.8701

> <Gold.Chemscore.DEInternal.Weighted>
1.1691

> <Gold.Chemscore.Rot.Weighted>
5.7906

> <Gold.Chemscore.Internal.Correction.Weighted>
   9.000000E+99

> <Gold.Protein.RotatedTorsions>
[ 6907 6896 6895 6894 ] final  -39.34 input  -60.11 | X-H torsion
[ 7974 7965 7964 7962 ] final   99.05 input  175.53 | X-H torsion
[ 8008 7997 7996 7995 ] final -107.72 input   59.86 | X-H torsion
[ 10167 10162 10161 10158 ] final  125.21 input  -65.29 | X-H torsion
[ 10718 10713 10712 10709 ] final  102.63 input   66.30 | X-H torsion
[ 10763 10752 10751 10750 ] final  124.49 input  -60.55 | X-H torsion
[ 11005 11000 10999 10996 ] final   24.79 input  -57.11 | X-H torsion

> <Gold.Protein.ActiveResidues>
 VAL166  LYS551  ARG553  GLY616  TRP617  ASP618  TYR619  PRO620  LYS621  CYS622 
 ASP623  PHE694  ASN695  SER759  ASP760  ASP761  ALA762  ILE779  LEU786  VAL792 
 PHE793  MET794  SER795  GLU796  ALA797  LYS798  CYS799  TRP800  GLU811  SER814 

> <Gold.Protein.RotatedAtoms>
  150.9915  134.9248  159.7901 H   0  0  0  0  0  0  0  0  0  0  0  0  # atno 6907 bound_to 6896
  152.5252  134.3275  159.9181 H   0  0  0  0  0  0  0  0  0  0  0  0  # atno 6908 bound_to 6896
  151.3281  133.3970  159.2694 H   0  0  0  0  0  0  0  0  0  0  0  0  # atno 6909 bound_to 6896
  145.4040  139.2343  143.3284 H   0  0  0  0  0  0  0  0  0  0  0  0  # atno 7974 bound_to 7965
  154.9336  140.0404  157.2061 H   0  0  0  0  0  0  0  0  0  0  0  0  # atno 8008 bound_to 7997
  154.8137  140.2872  155.5814 H   0  0  0  0  0  0  0  0  0  0  0  0  # atno 8009 bound_to 7997
  156.2974  140.2532  156.3030 H   0  0  0  0  0  0  0  0  0  0  0  0  # atno 8010 bound_to 7997
  139.5698  144.6932  151.3809 H   0  0  0  0  0  0  0  0  0  0  0  0  # atno 10167 bound_to 10162
  157.6796  131.0758  150.5433 H   0  0  0  0  0  0  0  0  0  0  0  0  # atno 10718 bound_to 10713
  153.6622  135.3344  155.3130 H   0  0  0  0  0  0  0  0  0  0  0  0  # atno 10763 bound_to 10752
  154.8512  135.4366  154.1792 H   0  0  0  0  0  0  0  0  0  0  0  0  # atno 10764 bound_to 10752
  153.2762  135.7005  153.7507 H   0  0  0  0  0  0  0  0  0  0  0  0  # atno 10765 bound_to 10752
  140.3549  134.2189  155.7677 H   0  0  0  0  0  0  0  0  0  0  0  0  # atno 11005 bound_to 11000
  146.2737  140.4742  142.8804 LP  0  0  0  0  0  0  0  0  0  0  0  0  # atno 17320 bound_to 7965
  144.8354  140.6773  143.6264 LP  0  0  0  0  0  0  0  0  0  0  0  0  # atno 17321 bound_to 7965
  140.6983  143.7695  150.7361 LP  0  0  0  0  0  0  0  0  0  0  0  0  # atno 17342 bound_to 10162
  140.1198  143.4622  152.2320 LP  0  0  0  0  0  0  0  0  0  0  0  0  # atno 17343 bound_to 10162
  156.5740  130.4287  149.6007 LP  0  0  0  0  0  0  0  0  0  0  0  0  # atno 17370 bound_to 10713
  156.2717  130.7020  151.1820 LP  0  0  0  0  0  0  0  0  0  0  0  0  # atno 17371 bound_to 10713
  141.2001  133.7995  157.0504 LP  0  0  0  0  0  0  0  0  0  0  0  0  # atno 17394 bound_to 11000
  140.0673  134.9722  157.1408 LP  0  0  0  0  0  0  0  0  0  0  0  0  # atno 17395 bound_to 11000

$$$$
