AV-unprocessed.smi:829|AV-procd|sdf|3866|dock10
  -GOLD-   22720 1313D 1   1.00000     0.00000
 Structure written by MMmdl.
 49 51  0  0  0  0  0  0  0  0  2 V2000
  151.4340  136.2461  155.3144 O   0  0  0  0  0  0  0  0  0  0  0  0
  150.2860  136.4415  154.9162 C   0  0  0  0  0  0  0  0  0  0  0  0
  149.4089  135.4894  154.5526 N   0  0  0  0  0  0  0  0  0  0  0  0
  149.5691  134.0761  154.5405 C   0  0  0  0  0  0  0  0  0  0  0  0
  148.9334  133.3591  153.5056 C   0  0  0  0  0  0  0  0  0  0  0  0
  149.0627  131.9564  153.4699 C   0  0  0  0  0  0  0  0  0  0  0  0
  149.7638  131.2528  154.3833 N   0  0  0  0  0  0  0  0  0  0  0  0
  150.3631  131.9384  155.3795 C   0  0  0  0  0  0  0  0  0  0  0  0
  150.2956  133.3403  155.5085 C   0  0  0  0  0  0  0  0  0  0  0  0
  149.7552  137.6654  154.7791 N   0  0  0  0  0  0  0  0  0  0  0  0
  150.4474  138.9175  155.0710 C   0  0  2  0  0  0  0  0  0  0  0  0
  150.9690  138.9322  156.5195 C   0  0  0  0  0  0  0  0  0  0  0  0
  151.6103  140.2864  156.8667 C   0  0  0  0  0  0  0  0  0  0  0  0
  150.6605  141.4057  156.6369 N   0  3  1  0  0  0  0  0  0  0  0  0
  151.1876  142.7174  157.0943 C   0  0  0  0  0  0  0  0  0  0  0  0
  151.2893  142.7908  158.6296 C   0  0  0  0  0  0  0  0  0  0  0  0
  151.5380  144.1901  159.2008 C   0  0  0  0  0  0  0  0  0  0  0  0
  152.0751  143.9491  160.6147 C   0  0  0  0  0  0  0  0  0  0  0  0
  152.7057  142.5487  160.5990 C   0  0  0  0  0  0  0  0  0  0  0  0
  152.4615  141.9836  159.1948 C   0  0  0  0  0  0  0  0  0  0  0  0
  150.1777  141.4313  155.2313 C   0  0  0  0  0  0  0  0  0  0  0  0
  149.4964  140.1053  154.8558 C   0  0  0  0  0  0  0  0  0  0  0  0
  148.5244  135.8202  154.1960 H   0  0  0  0  0  0  0  0  0  0  0  0
  148.3579  133.8701  152.7474 H   0  0  0  0  0  0  0  0  0  0  0  0
  148.5888  131.3842  152.6861 H   0  0  0  0  0  0  0  0  0  0  0  0
  150.9112  131.3504  156.1009 H   0  0  0  0  0  0  0  0  0  0  0  0
  150.7906  133.8086  156.3442 H   0  0  0  0  0  0  0  0  0  0  0  0
  148.8061  137.7365  154.4423 H   0  0  0  0  0  0  0  0  0  0  0  0
  151.2912  139.0290  154.3869 H   0  0  0  0  0  0  0  0  0  0  0  0
  150.1490  138.7326  157.2111 H   0  0  0  0  0  0  0  0  0  0  0  0
  151.6977  138.1342  156.6671 H   0  0  0  0  0  0  0  0  0  0  0  0
  151.9183  140.2755  157.9132 H   0  0  0  0  0  0  0  0  0  0  0  0
  152.5108  140.4418  156.2701 H   0  0  0  0  0  0  0  0  0  0  0  0
  152.1893  142.8695  156.6894 H   0  0  0  0  0  0  0  0  0  0  0  0
  150.5856  143.5377  156.6998 H   0  0  0  0  0  0  0  0  0  0  0  0
  150.3703  142.3963  159.0671 H   0  0  0  0  0  0  0  0  0  0  0  0
  152.2965  144.7052  158.6094 H   0  0  0  0  0  0  0  0  0  0  0  0
  150.6405  144.8092  159.2033 H   0  0  0  0  0  0  0  0  0  0  0  0
  152.7891  144.7188  160.9096 H   0  0  0  0  0  0  0  0  0  0  0  0
  151.2550  143.9731  161.3335 H   0  0  0  0  0  0  0  0  0  0  0  0
  153.7708  142.5800  160.8314 H   0  0  0  0  0  0  0  0  0  0  0  0
  152.2276  141.9189  161.3505 H   0  0  0  0  0  0  0  0  0  0  0  0
  152.2628  140.9116  159.2078 H   0  0  0  0  0  0  0  0  0  0  0  0
  153.3504  142.1440  158.5831 H   0  0  0  0  0  0  0  0  0  0  0  0
  149.4719  142.2490  155.0906 H   0  0  0  0  0  0  0  0  0  0  0  0
  151.0169  141.6229  154.5606 H   0  0  0  0  0  0  0  0  0  0  0  0
  149.1712  140.1403  153.8152 H   0  0  0  0  0  0  0  0  0  0  0  0
  148.5955  139.9774  155.4581 H   0  0  0  0  0  0  0  0  0  0  0  0
  149.8581  141.2100  157.2181 H   0  0  0  0  0  0  0  0  0  0  0  0
  1  2  2  0  0  0  0
  2  3  1  0  0  0  0
  2 10  1  0  0  0  0
  3  4  1  0  0  0  0
  3 23  1  0  0  0  0
  4  9  1  0  0  0  0
  4  5  2  0  0  0  0
  5  6  1  0  0  0  0
  5 24  1  0  0  0  0
  6  7  2  0  0  0  0
  6 25  1  0  0  0  0
  7  8  1  0  0  0  0
  8  9  2  0  0  0  0
  8 26  1  0  0  0  0
  9 27  1  0  0  0  0
 10 11  1  0  0  0  0
 10 28  1  0  0  0  0
 11 22  1  0  0  0  0
 11 12  1  0  0  0  0
 11 29  1  0  0  0  0
 12 13  1  0  0  0  0
 12 30  1  0  0  0  0
 12 31  1  0  0  0  0
 13 14  1  0  0  0  0
 13 32  1  0  0  0  0
 13 33  1  0  0  0  0
 14 15  1  0  0  0  0
 14 21  1  0  0  0  0
 14 49  1  0  0  0  0
 15 16  1  0  0  0  0
 15 34  1  0  0  0  0
 15 35  1  0  0  0  0
 16 20  1  0  0  0  0
 16 17  1  0  0  0  0
 16 36  1  0  0  0  0
 17 18  1  0  0  0  0
 17 37  1  0  0  0  0
 17 38  1  0  0  0  0
 18 19  1  0  0  0  0
 18 39  1  0  0  0  0
 18 40  1  0  0  0  0
 19 20  1  0  0  0  0
 19 41  1  0  0  0  0
 19 42  1  0  0  0  0
 20 43  1  0  0  0  0
 20 44  1  0  0  0  0
 21 22  1  0  0  0  0
 21 45  1  0  0  0  0
 21 46  1  0  0  0  0
 22 47  1  0  0  0  0
 22 48  1  0  0  0  0
M  CHG  1  14   1
M  END
> <s_m_source_file>
AV-unprocessed.smi

> <i_m_source_file_index>
829

> <i_lp_mmshare_version>
43012

> <i_f3d_flags>
0

> <s_epik_input>
W2NIXTFbY0hdbltjSF1bY0hdYzFbTkhdQyg9TylbTkhdW0NIXTJbQ0gyXVtDSDJdTihbQ0gyXVtDSDJdMilbQ0gyXVtDSF0zW0NIMl1bQ0gyXVtDSDJdW0NIMl0z

> <s_epik_cmdline>
J2VwaWtfcHl0aG9uJywgJy1waCcsICc3LjAnLCAnLXRuJywgJzgnLCAnLW1hJywgJzIwMCcsICctbWV0YWxfYmluZGluZycsICctaW1hZScsICc8aW5maWxlLm1hZT4nLCAnLW9tYWUnLCAnPG91dGZpbGUubWFlPic=

> <r_epik_Ionization_Penalty>
0.101981

> <r_epik_Ionization_Penalty_Charging>
0.00207989

> <r_epik_Ionization_Penalty_Neutral>
0.0999008

> <r_epik_State_Penalty>
0.0935668

> <r_epik_Charging_Adjusted_Penalty>
0.0956467

> <i_epik_Tot_Q>
1

> <i_epik_Tot_abs_Q>
1

> <r_epik_Metal_State_Penalty>
0.0787682

> <b_epik_Metal_Only>
0

> <s_lp_Force_Field>
OPLS_2005

> <r_lp_Energy>
43.2002

> <b_lp_Chiralities_Consistent>
1

> <s_lp_Variant>
AV-unprocessed.smi:829-1

> <Gold.Version>
5.8.1

> <Gold.Id.Protein>
6NUR|6NUR_protein|mol2

> <Gold.PLP.Fitness>
49.3258

> <Gold.PLP.PLP>
-44.1825

> <Gold.PLP.part.hbond>
-2.0000

> <Gold.PLP.part.metal>
0.0000

> <Gold.PLP.part.buried>
-5.7479

> <Gold.PLP.part.nonpolar>
-37.1114

> <Gold.PLP.part.repulsive>
0.2533

> <Gold.PLP.ligand.clash>
0.0000

> <Gold.PLP.ligand.torsion>
0.4507

> <Gold.PLP.Chemscore.Hbond>
1.0000

> <Gold.PLP.Chemscore.CHOScore>
1.0000

> <Gold.PLP.Chemscore.Metal>
0.0000

> <Gold.Chemscore.Hbonds>
donor molecule, donor type, donor heavy atom, donor atom, acceptor molecule, acceptor atom, score
      L1  H     3    23       P1  7948  0.01
      P1  H 10752 10764       L1     1  1.00
      L1  C     6    25       P1 10747  1.00

> <Gold.PLP.Chemscore.Internal.Correction>
0.0447

> <Gold.Rescore>
     Score         DG    S(hbond)    S(metal)    S(lipo)     H(rot)  DE(clash)    DE(int)     intcor
     18.70     -20.41       1.00        0.00     128.52       1.35       0.03       1.69       ----

> <Gold.Chemscore.Fitness>
18.6972

> <Gold.Chemscore.DG>
-20.4125

> <Gold.Chemscore.ZeroCoef>
-5.4800

> <Gold.Chemscore.Hbond>
0.9999

> <Gold.Chemscore.Metal>
0.0000

> <Gold.Chemscore.Lipo>
128.5229

> <Gold.Chemscore.Internal_Hbond>
0.0000

> <Gold.Chemscore.DEClash>
0.0290

> <Gold.Chemscore.DEInternal>
1.6863

> <Gold.Chemscore.Rot>
1.3455

> <Gold.Chemscore.Internal.Correction>
   9.000000E+99

> <Gold.Chemscore.Hbonds>
donor molecule, donor type, donor heavy atom, donor atom, acceptor molecule, acceptor atom, score
      L1  H     3    23       P1  7948  0.01
      P1  H 10752 10764       L1     1  1.00

> <Gold.Chemscore.Hbond.Weighted>
-3.3398

> <Gold.Chemscore.Metal.Weighted>
-0.0000

> <Gold.Chemscore.Lipo.Weighted>
-15.0372

> <Gold.Chemscore.Internal_Hbond.Weighted>
0.0000

> <Gold.Chemscore.DEClash.Weighted>
0.0290

> <Gold.Chemscore.DEInternal.Weighted>
1.6863

> <Gold.Chemscore.Rot.Weighted>
3.4445

> <Gold.Chemscore.Internal.Correction.Weighted>
   9.000000E+99

> <Gold.Protein.RotatedTorsions>
[ 6907 6896 6895 6894 ] final  -57.34 input  -60.11 | X-H torsion
[ 7974 7965 7964 7962 ] final  -70.84 input  175.53 | X-H torsion
[ 8008 7997 7996 7995 ] final -114.79 input   59.86 | X-H torsion
[ 10167 10162 10161 10158 ] final   93.32 input  -65.29 | X-H torsion
[ 10718 10713 10712 10709 ] final   81.13 input   66.30 | X-H torsion
[ 10763 10752 10751 10750 ] final  -55.13 input  -60.55 | X-H torsion
[ 11005 11000 10999 10996 ] final   82.14 input  -57.11 | X-H torsion

> <Gold.Protein.ActiveResidues>
 VAL166  LYS551  ARG553  GLY616  TRP617  ASP618  TYR619  PRO620  LYS621  CYS622 
 ASP623  PHE694  ASN695  SER759  ASP760  ASP761  ALA762  ILE779  LEU786  VAL792 
 PHE793  MET794  SER795  GLU796  ALA797  LYS798  CYS799  TRP800  GLU811  SER814 

> <Gold.Protein.RotatedAtoms>
  150.8094  134.7239  159.6673 H   0  0  0  0  0  0  0  0  0  0  0  0  # atno 6907 bound_to 6896
  152.4214  134.5945  159.9993 H   0  0  0  0  0  0  0  0  0  0  0  0  # atno 6908 bound_to 6896
  151.6160  133.3306  159.3113 H   0  0  0  0  0  0  0  0  0  0  0  0  # atno 6909 bound_to 6896
  145.6858  140.9171  143.0808 H   0  0  0  0  0  0  0  0  0  0  0  0  # atno 7974 bound_to 7965
  155.0418  140.0392  157.2512 H   0  0  0  0  0  0  0  0  0  0  0  0  # atno 8008 bound_to 7997
  154.7210  140.2712  155.6517 H   0  0  0  0  0  0  0  0  0  0  0  0  # atno 8009 bound_to 7997
  156.2816  140.2703  156.1882 H   0  0  0  0  0  0  0  0  0  0  0  0  # atno 8010 bound_to 7997
  139.8191  144.6739  150.9542 H   0  0  0  0  0  0  0  0  0  0  0  0  # atno 10167 bound_to 10162
  157.6825  130.9990  150.2181 H   0  0  0  0  0  0  0  0  0  0  0  0  # atno 10718 bound_to 10713
  154.1859  135.6435  153.5047 H   0  0  0  0  0  0  0  0  0  0  0  0  # atno 10763 bound_to 10752
  153.0047  135.5417  154.6465 H   0  0  0  0  0  0  0  0  0  0  0  0  # atno 10764 bound_to 10752
  154.5842  135.2928  155.0675 H   0  0  0  0  0  0  0  0  0  0  0  0  # atno 10765 bound_to 10752
  139.9073  134.8049  156.2135 H   0  0  0  0  0  0  0  0  0  0  0  0  # atno 11005 bound_to 11000
  144.7012  139.8756  143.7443 LP  0  0  0  0  0  0  0  0  0  0  0  0  # atno 17320 bound_to 7965
  146.0925  139.3915  143.0397 LP  0  0  0  0  0  0  0  0  0  0  0  0  # atno 17321 bound_to 7965
  140.7814  143.4109  151.0994 LP  0  0  0  0  0  0  0  0  0  0  0  0  # atno 17342 bound_to 10162
  139.7771  143.8409  152.3131 LP  0  0  0  0  0  0  0  0  0  0  0  0  # atno 17343 bound_to 10162
  156.2838  130.3737  149.7908 LP  0  0  0  0  0  0  0  0  0  0  0  0  # atno 17370 bound_to 10713
  156.5589  130.8374  151.3322 LP  0  0  0  0  0  0  0  0  0  0  0  0  # atno 17371 bound_to 10713
  141.0450  133.6918  156.1667 LP  0  0  0  0  0  0  0  0  0  0  0  0  # atno 17394 bound_to 11000
  140.6897  134.4679  157.5588 LP  0  0  0  0  0  0  0  0  0  0  0  0  # atno 17395 bound_to 11000

$$$$
