AV-unprocessed.smi:2896|AV-procd|sdf|11136|dock10
  -GOLD-   2272016 13D 1   1.00000     0.00000
 Structure written by MMmdl.
 50 51  0  0  0  0  0  0  0  0  2 V2000
  143.2330  136.9519  152.9423 C   0  0  0  0  0  0  0  0  0  0  0  0
  144.6004  136.7414  153.6165 C   0  0  2  0  0  0  0  0  0  0  0  0
  144.7701  137.7537  154.7711 C   0  0  0  0  0  0  0  0  0  0  0  0
  145.5344  138.9344  154.3777 N   0  0  0  0  0  0  0  0  0  0  0  0
  145.9539  139.9110  155.2015 C   0  0  0  0  0  0  0  0  0  0  0  0
  145.7102  139.8978  156.4091 O   0  0  0  0  0  0  0  0  0  0  0  0
  146.7813  141.0734  154.5954 C   0  0  0  0  0  0  0  0  0  0  0  0
  146.9433  140.9410  153.0589 C   0  0  0  0  0  0  0  0  0  0  0  0
  146.0109  142.3940  154.8493 C   0  0  0  0  0  0  0  0  0  0  0  0
  148.1685  141.0492  155.2657 C   0  0  0  0  0  0  0  0  0  0  0  0
  148.3041  141.3489  156.6432 C   0  0  0  0  0  0  0  0  0  0  0  0
  149.5782  141.3230  157.2401 C   0  0  0  0  0  0  0  0  0  0  0  0
  150.6858  140.9971  156.4366 C   0  0  0  0  0  0  0  0  0  0  0  0
  150.5839  140.7090  155.1233 N   0  0  0  0  0  0  0  0  0  0  0  0
  149.3574  140.7368  154.5589 C   0  0  0  0  0  0  0  0  0  0  0  0
  145.7532  136.8282  152.5857 C   0  0  0  0  0  0  0  0  0  0  0  0
  146.3414  135.5082  152.2423 N   0  3  0  0  0  0  0  0  0  0  0  0
  146.5817  134.6715  153.4424 C   0  0  0  0  0  0  0  0  0  0  0  0
  147.2390  133.3380  153.0489 C   0  0  0  0  0  0  0  0  0  0  0  0
  146.4163  132.6616  152.1069 O   0  0  0  0  0  0  0  0  0  0  0  0
  146.2500  133.4132  150.9114 C   0  0  0  0  0  0  0  0  0  0  0  0
  145.5613  134.7510  151.2316 C   0  0  0  0  0  0  0  0  0  0  0  0
  143.1747  137.9288  152.4611 H   0  0  0  0  0  0  0  0  0  0  0  0
  142.4232  136.8928  153.6702 H   0  0  0  0  0  0  0  0  0  0  0  0
  143.0366  136.1943  152.1837 H   0  0  0  0  0  0  0  0  0  0  0  0
  144.5979  135.7481  154.0651 H   0  0  0  0  0  0  0  0  0  0  0  0
  143.7975  138.0333  155.1801 H   0  0  0  0  0  0  0  0  0  0  0  0
  145.3146  137.2849  155.5913 H   0  0  0  0  0  0  0  0  0  0  0  0
  145.7809  139.0095  153.4012 H   0  0  0  0  0  0  0  0  0  0  0  0
  147.4584  140.0271  152.7618 H   0  0  0  0  0  0  0  0  0  0  0  0
  147.5223  141.7735  152.6575 H   0  0  0  0  0  0  0  0  0  0  0  0
  145.9768  140.9485  152.5524 H   0  0  0  0  0  0  0  0  0  0  0  0
  145.8370  142.5818  155.9098 H   0  0  0  0  0  0  0  0  0  0  0  0
  145.0328  142.3794  154.3661 H   0  0  0  0  0  0  0  0  0  0  0  0
  146.5502  143.2529  154.4482 H   0  0  0  0  0  0  0  0  0  0  0  0
  147.4428  141.6018  157.2433 H   0  0  0  0  0  0  0  0  0  0  0  0
  149.7029  141.5486  158.2889 H   0  0  0  0  0  0  0  0  0  0  0  0
  151.6791  140.9669  156.8593 H   0  0  0  0  0  0  0  0  0  0  0  0
  149.3504  140.4967  153.5072 H   0  0  0  0  0  0  0  0  0  0  0  0
  145.3654  137.2973  151.6799 H   0  0  0  0  0  0  0  0  0  0  0  0
  146.5551  137.4745  152.9428 H   0  0  0  0  0  0  0  0  0  0  0  0
  147.2265  135.2038  154.1427 H   0  0  0  0  0  0  0  0  0  0  0  0
  145.6360  134.4852  153.9542 H   0  0  0  0  0  0  0  0  0  0  0  0
  148.2341  133.5011  152.6314 H   0  0  0  0  0  0  0  0  0  0  0  0
  147.3623  132.7059  153.9286 H   0  0  0  0  0  0  0  0  0  0  0  0
  147.2167  133.5773  150.4322 H   0  0  0  0  0  0  0  0  0  0  0  0
  145.6431  132.8361  150.2133 H   0  0  0  0  0  0  0  0  0  0  0  0
  144.5529  134.5694  151.6069 H   0  0  0  0  0  0  0  0  0  0  0  0
  145.4614  135.3282  150.3133 H   0  0  0  0  0  0  0  0  0  0  0  0
  147.2495  135.6921  151.8402 H   0  0  0  0  0  0  0  0  0  0  0  0
  1  2  1  0  0  0  0
  1 23  1  0  0  0  0
  1 24  1  0  0  0  0
  1 25  1  0  0  0  0
  2  3  1  0  0  0  0
  2 16  1  0  0  0  0
  2 26  1  0  0  0  0
  3  4  1  0  0  0  0
  3 27  1  0  0  0  0
  3 28  1  0  0  0  0
  4  5  1  0  0  0  0
  4 29  1  0  0  0  0
  5  6  2  0  0  0  0
  5  7  1  0  0  0  0
  7  8  1  0  0  0  0
  7  9  1  0  0  0  0
  7 10  1  0  0  0  0
  8 30  1  0  0  0  0
  8 31  1  0  0  0  0
  8 32  1  0  0  0  0
  9 33  1  0  0  0  0
  9 34  1  0  0  0  0
  9 35  1  0  0  0  0
 10 15  1  0  0  0  0
 10 11  2  0  0  0  0
 11 12  1  0  0  0  0
 11 36  1  0  0  0  0
 12 13  2  0  0  0  0
 12 37  1  0  0  0  0
 13 14  1  0  0  0  0
 13 38  1  0  0  0  0
 14 15  2  0  0  0  0
 15 39  1  0  0  0  0
 16 17  1  0  0  0  0
 16 40  1  0  0  0  0
 16 41  1  0  0  0  0
 17 22  1  0  0  0  0
 17 18  1  0  0  0  0
 17 50  1  0  0  0  0
 18 19  1  0  0  0  0
 18 42  1  0  0  0  0
 18 43  1  0  0  0  0
 19 20  1  0  0  0  0
 19 44  1  0  0  0  0
 19 45  1  0  0  0  0
 20 21  1  0  0  0  0
 21 22  1  0  0  0  0
 21 46  1  0  0  0  0
 21 47  1  0  0  0  0
 22 48  1  0  0  0  0
 22 49  1  0  0  0  0
M  CHG  1  17   1
M  END
> <s_m_source_file>
AV-unprocessed.smi

> <i_m_source_file_index>
2896

> <i_lp_mmshare_version>
43012

> <i_f3d_flags>
0

> <s_epik_input>
W0NIMl0xW0NIMl1PW0NIMl1bQ0gyXU4xW0NIMl1bQ0BIXShbQ0gzXSlbQ0gyXVtOSF1DKD1PKUMoW0NIM10pKFtDSDNdKWMyW2NIXVtjSF1bY0hdbltjSF0y

> <s_epik_cmdline>
J2VwaWtfcHl0aG9uJywgJy1waCcsICc3LjAnLCAnLXRuJywgJzgnLCAnLW1hJywgJzIwMCcsICctbWV0YWxfYmluZGluZycsICctaW1hZScsICc8aW5maWxlLm1hZT4nLCAnLW9tYWUnLCAnPG91dGZpbGUubWFlPic=

> <r_epik_Ionization_Penalty>
0.378644

> <r_epik_Ionization_Penalty_Charging>
0.372108

> <r_epik_Ionization_Penalty_Neutral>
0.0065361

> <r_epik_State_Penalty>
0.380038

> <r_epik_Charging_Adjusted_Penalty>
0.752147

> <i_epik_Tot_Q>
1

> <i_epik_Tot_abs_Q>
1

> <r_epik_Metal_State_Penalty>
0.375202

> <b_epik_Metal_Only>
0

> <s_lp_Force_Field>
OPLS_2005

> <r_lp_Energy>
28.248

> <b_lp_Chiralities_Consistent>
1

> <s_lp_Variant>
AV-unprocessed.smi:2896-1

> <Gold.Version>
5.8.1

> <Gold.Id.Protein>
6NUR|6NUR_protein|mol2

> <Gold.PLP.Fitness>
41.1147

> <Gold.PLP.PLP>
-32.3792

> <Gold.PLP.part.hbond>
-3.0000

> <Gold.PLP.part.metal>
0.0000

> <Gold.PLP.part.buried>
-2.9136

> <Gold.PLP.part.nonpolar>
-25.8496

> <Gold.PLP.part.repulsive>
0.2730

> <Gold.PLP.ligand.clash>
0.0000

> <Gold.PLP.ligand.torsion>
1.5200

> <Gold.PLP.Chemscore.Hbond>
2.8640

> <Gold.PLP.Chemscore.CHOScore>
1.0000

> <Gold.PLP.Chemscore.Metal>
0.0000

> <Gold.Chemscore.Hbonds>
donor molecule, donor type, donor heavy atom, donor atom, acceptor molecule, acceptor atom, score
      L1  H    17    50       P1  7948  2.00
      P1  H  7989  7998       L1    14  0.81
      L1  C    15    39       P1  7957  1.00

> <Gold.PLP.Chemscore.Internal.Correction>
0.1834

> <Gold.Rescore>
     Score         DG    S(hbond)    S(metal)    S(lipo)     H(rot)  DE(clash)    DE(int)     intcor
     13.26     -16.18       1.78        0.00      79.47       1.78       0.25       2.68       ----

> <Gold.Chemscore.Fitness>
13.2554

> <Gold.Chemscore.DG>
-16.1837

> <Gold.Chemscore.ZeroCoef>
-5.4800

> <Gold.Chemscore.Hbond>
1.7830

> <Gold.Chemscore.Metal>
0.0000

> <Gold.Chemscore.Lipo>
79.4674

> <Gold.Chemscore.Internal_Hbond>
0.0000

> <Gold.Chemscore.DEClash>
0.2458

> <Gold.Chemscore.DEInternal>
2.6825

> <Gold.Chemscore.Rot>
1.7771

> <Gold.Chemscore.Internal.Correction>
   9.000000E+99

> <Gold.Chemscore.Hbonds>
donor molecule, donor type, donor heavy atom, donor atom, acceptor molecule, acceptor atom, score
      L1  H    17    50       P1  7948  0.99
      P1  H  7989  7998       L1    14  0.15

> <Gold.Chemscore.Hbond.Weighted>
-5.9554

> <Gold.Chemscore.Metal.Weighted>
-0.0000

> <Gold.Chemscore.Lipo.Weighted>
-9.2977

> <Gold.Chemscore.Internal_Hbond.Weighted>
0.0000

> <Gold.Chemscore.DEClash.Weighted>
0.2458

> <Gold.Chemscore.DEInternal.Weighted>
2.6825

> <Gold.Chemscore.Rot.Weighted>
4.5494

> <Gold.Chemscore.Internal.Correction.Weighted>
   9.000000E+99

> <Gold.Protein.RotatedTorsions>
[ 6907 6896 6895 6894 ] final   23.11 input  -60.11 | X-H torsion
[ 7974 7965 7964 7962 ] final  -28.32 input  175.53 | X-H torsion
[ 8008 7997 7996 7995 ] final  110.78 input   59.86 | X-H torsion
[ 10167 10162 10161 10158 ] final   30.47 input  -65.29 | X-H torsion
[ 10718 10713 10712 10709 ] final   33.15 input   66.30 | X-H torsion
[ 10763 10752 10751 10750 ] final   14.98 input  -60.55 | X-H torsion
[ 11005 11000 10999 10996 ] final  137.95 input  -57.11 | X-H torsion

> <Gold.Protein.ActiveResidues>
 VAL166  LYS551  ARG553  GLY616  TRP617  ASP618  TYR619  PRO620  LYS621  CYS622 
 ASP623  PHE694  ASN695  SER759  ASP760  ASP761  ALA762  ILE779  LEU786  VAL792 
 PHE793  MET794  SER795  GLU796  ALA797  LYS798  CYS799  TRP800  GLU811  SER814 

> <Gold.Protein.RotatedAtoms>
  151.9374  135.0229  160.0533 H   0  0  0  0  0  0  0  0  0  0  0  0  # atno 6907 bound_to 6896
  152.2066  133.4875  159.5095 H   0  0  0  0  0  0  0  0  0  0  0  0  # atno 6908 bound_to 6896
  150.6966  134.1439  159.4158 H   0  0  0  0  0  0  0  0  0  0  0  0  # atno 6909 bound_to 6896
  146.1296  140.5267  142.8699 H   0  0  0  0  0  0  0  0  0  0  0  0  # atno 7974 bound_to 7965
  156.2078  140.3032  155.9664 H   0  0  0  0  0  0  0  0  0  0  0  0  # atno 8008 bound_to 7997
  155.2799  140.0437  157.3031 H   0  0  0  0  0  0  0  0  0  0  0  0  # atno 8009 bound_to 7997
  154.5657  140.2333  155.8276 H   0  0  0  0  0  0  0  0  0  0  0  0  # atno 8010 bound_to 7997
  140.4675  144.0813  150.6228 H   0  0  0  0  0  0  0  0  0  0  0  0  # atno 10167 bound_to 10162
  157.2942  130.7318  149.6628 H   0  0  0  0  0  0  0  0  0  0  0  0  # atno 10718 bound_to 10713
  153.1569  135.6789  153.8799 H   0  0  0  0  0  0  0  0  0  0  0  0  # atno 10763 bound_to 10752
  153.8207  135.3130  155.3411 H   0  0  0  0  0  0  0  0  0  0  0  0  # atno 10764 bound_to 10752
  154.7904  135.4838  154.0128 H   0  0  0  0  0  0  0  0  0  0  0  0  # atno 10765 bound_to 10752
  140.0149  134.9422  157.0356 H   0  0  0  0  0  0  0  0  0  0  0  0  # atno 11005 bound_to 11000
  144.7677  140.5568  143.6691 LP  0  0  0  0  0  0  0  0  0  0  0  0  # atno 17320 bound_to 7965
  145.5289  139.1475  143.3511 LP  0  0  0  0  0  0  0  0  0  0  0  0  # atno 17321 bound_to 7965
  140.4018  143.2700  151.9939 LP  0  0  0  0  0  0  0  0  0  0  0  0  # atno 17342 bound_to 10162
  139.4814  144.5991  151.7637 LP  0  0  0  0  0  0  0  0  0  0  0  0  # atno 17343 bound_to 10162
  155.9668  130.4299  150.4855 LP  0  0  0  0  0  0  0  0  0  0  0  0  # atno 17370 bound_to 10713
  157.2824  131.0609  151.2189 LP  0  0  0  0  0  0  0  0  0  0  0  0  # atno 17371 bound_to 10713
  140.4488  134.1604  155.7180 LP  0  0  0  0  0  0  0  0  0  0  0  0  # atno 17394 bound_to 11000
  141.1736  133.8559  157.1492 LP  0  0  0  0  0  0  0  0  0  0  0  0  # atno 17395 bound_to 11000

$$$$
