AV-unprocessed.smi:1005|AV-procd|sdf|4365|dock10
  -GOLD-   22720 2273D 1   1.00000     0.00000
 Structure written by MMmdl.
 56 58  0  0  0  0  0  0  0  0  2 V2000
  153.7631  142.2252  163.7809 C   0  0  0  0  0  0  0  0  0  0  0  0
  153.2242  142.4031  162.3723 C   0  0  0  0  0  0  0  0  0  0  0  0
  152.4443  143.5431  162.0739 C   0  0  0  0  0  0  0  0  0  0  0  0
  151.9237  143.7452  160.7769 C   0  0  0  0  0  0  0  0  0  0  0  0
  151.1472  144.7735  160.2706 N   0  0  0  0  0  0  0  0  0  0  0  0
  150.9885  144.3916  159.0067 C   0  0  0  0  0  0  0  0  0  0  0  0
  151.5705  143.2359  158.6335 N   0  0  0  0  0  0  0  0  0  0  0  0
  151.5318  142.6258  157.3161 C   0  0  0  0  0  0  0  0  0  0  0  0
  150.2128  141.8750  157.0509 C   0  0  1  0  0  0  0  0  0  0  0  0
  149.1235  142.6948  157.4296 O   0  0  0  0  0  0  0  0  0  0  0  0
  150.0629  141.5110  155.5594 C   0  0  0  0  0  0  0  0  0  0  0  0
  149.2696  140.3135  155.2730 N   0  0  0  0  0  0  0  0  0  0  0  0
  148.0790  140.2099  156.1139 C   0  0  0  0  0  0  0  0  0  0  0  0
  147.2863  138.9241  155.8276 C   0  0  0  0  0  0  0  0  0  0  0  0
  148.1392  137.7958  155.9861 O   0  0  0  0  0  0  0  0  0  0  0  0
  149.2723  137.8249  155.1220 C   0  0  2  0  0  0  0  0  0  0  0  0
  150.1141  136.5548  155.3525 C   0  0  0  0  0  0  0  0  0  0  0  0
  149.5791  135.3574  154.6529 N   0  3  0  0  0  0  0  0  0  0  0  0
  148.1583  135.0724  154.9595 C   0  0  0  0  0  0  0  0  0  0  0  0
  150.4284  134.1655  154.8734 C   0  0  0  0  0  0  0  0  0  0  0  0
  150.0714  139.1060  155.4396 C   0  0  0  0  0  0  0  0  0  0  0  0
  152.2063  142.7675  159.7784 C   0  0  0  0  0  0  0  0  0  0  0  0
  152.9827  141.6300  160.0629 C   0  0  0  0  0  0  0  0  0  0  0  0
  153.4953  141.4439  161.3638 C   0  0  0  0  0  0  0  0  0  0  0  0
  154.3328  140.2127  161.6608 C   0  0  0  0  0  0  0  0  0  0  0  0
  153.4585  143.0459  164.4311 H   0  0  0  0  0  0  0  0  0  0  0  0
  154.8528  142.1930  163.7714 H   0  0  0  0  0  0  0  0  0  0  0  0
  153.3924  141.2975  164.2176 H   0  0  0  0  0  0  0  0  0  0  0  0
  152.2387  144.2750  162.8411 H   0  0  0  0  0  0  0  0  0  0  0  0
  150.4164  144.9866  158.3098 H   0  0  0  0  0  0  0  0  0  0  0  0
  151.6913  143.4012  156.5659 H   0  0  0  0  0  0  0  0  0  0  0  0
  152.3760  141.9396  157.2366 H   0  0  0  0  0  0  0  0  0  0  0  0
  150.2005  140.9802  157.6717 H   0  0  0  0  0  0  0  0  0  0  0  0
  149.0675  143.4197  156.8266 H   0  0  0  0  0  0  0  0  0  0  0  0
  149.6196  142.3669  155.0479 H   0  0  0  0  0  0  0  0  0  0  0  0
  151.0549  141.3900  155.1212 H   0  0  0  0  0  0  0  0  0  0  0  0
  148.3660  140.2294  157.1662 H   0  0  0  0  0  0  0  0  0  0  0  0
  147.4207  141.0622  155.9528 H   0  0  0  0  0  0  0  0  0  0  0  0
  146.4458  138.8351  156.5158 H   0  0  0  0  0  0  0  0  0  0  0  0
  146.8740  138.9393  154.8174 H   0  0  0  0  0  0  0  0  0  0  0  0
  148.9433  137.8585  154.0815 H   0  0  0  0  0  0  0  0  0  0  0  0
  151.1137  136.7432  154.9579 H   0  0  0  0  0  0  0  0  0  0  0  0
  150.2401  136.3555  156.4178 H   0  0  0  0  0  0  0  0  0  0  0  0
  148.0052  134.9489  156.0323 H   0  0  0  0  0  0  0  0  0  0  0  0
  147.8324  134.1577  154.4632 H   0  0  0  0  0  0  0  0  0  0  0  0
  147.5081  135.8716  154.6059 H   0  0  0  0  0  0  0  0  0  0  0  0
  150.4457  133.8880  155.9283 H   0  0  0  0  0  0  0  0  0  0  0  0
  151.4535  134.3528  154.5515 H   0  0  0  0  0  0  0  0  0  0  0  0
  150.0568  133.3143  154.3017 H   0  0  0  0  0  0  0  0  0  0  0  0
  150.9433  139.1558  154.7860 H   0  0  0  0  0  0  0  0  0  0  0  0
  150.4519  139.0533  156.4612 H   0  0  0  0  0  0  0  0  0  0  0  0
  153.1827  140.9077  159.2855 H   0  0  0  0  0  0  0  0  0  0  0  0
  154.4555  139.5917  160.7729 H   0  0  0  0  0  0  0  0  0  0  0  0
  153.8576  139.6048  162.4310 H   0  0  0  0  0  0  0  0  0  0  0  0
  155.3257  140.4994  162.0081 H   0  0  0  0  0  0  0  0  0  0  0  0
  149.6282  135.5535  153.6631 H   0  0  0  0  0  0  0  0  0  0  0  0
  1  2  1  0  0  0  0
  1 26  1  0  0  0  0
  1 27  1  0  0  0  0
  1 28  1  0  0  0  0
  2 24  1  0  0  0  0
  2  3  2  0  0  0  0
  3  4  1  0  0  0  0
  3 29  1  0  0  0  0
  4 22  2  0  0  0  0
  4  5  1  0  0  0  0
  5  6  2  0  0  0  0
  6  7  1  0  0  0  0
  6 30  1  0  0  0  0
  7  8  1  0  0  0  0
  7 22  1  0  0  0  0
  8  9  1  0  0  0  0
  8 31  1  0  0  0  0
  8 32  1  0  0  0  0
  9 10  1  0  0  0  0
  9 11  1  0  0  0  0
  9 33  1  0  0  0  0
 10 34  1  0  0  0  0
 11 12  1  0  0  0  0
 11 35  1  0  0  0  0
 11 36  1  0  0  0  0
 12 21  1  0  0  0  0
 12 13  1  0  0  0  0
 13 14  1  0  0  0  0
 13 37  1  0  0  0  0
 13 38  1  0  0  0  0
 14 15  1  0  0  0  0
 14 39  1  0  0  0  0
 14 40  1  0  0  0  0
 15 16  1  0  0  0  0
 16 17  1  0  0  0  0
 16 21  1  0  0  0  0
 16 41  1  0  0  0  0
 17 18  1  0  0  0  0
 17 42  1  0  0  0  0
 17 43  1  0  0  0  0
 18 19  1  0  0  0  0
 18 20  1  0  0  0  0
 18 56  1  0  0  0  0
 19 44  1  0  0  0  0
 19 45  1  0  0  0  0
 19 46  1  0  0  0  0
 20 47  1  0  0  0  0
 20 48  1  0  0  0  0
 20 49  1  0  0  0  0
 21 50  1  0  0  0  0
 21 51  1  0  0  0  0
 22 23  1  0  0  0  0
 23 24  2  0  0  0  0
 23 52  1  0  0  0  0
 24 25  1  0  0  0  0
 25 53  1  0  0  0  0
 25 54  1  0  0  0  0
 25 55  1  0  0  0  0
M  CHG  1  18   1
M  END
> <s_m_source_file>
AV-unprocessed.smi

> <i_m_source_file_index>
1005

> <i_lp_mmshare_version>
43012

> <i_f3d_flags>
0

> <s_epik_input>
W0NIM11jKFtjSF0xKWMoW0NIM10pW2NIXWMoYzEyKW4oW2NIXW4yKVtDSDJdW0NASF0oW09IXSlbQ0gyXU4zW0NIMl1bQ0gyXU9bQ0BIXShbQ0gyXTMpW0NIMl1OKFtDSDNdKVtDSDNd

> <s_epik_cmdline>
J2VwaWtfcHl0aG9uJywgJy1waCcsICc3LjAnLCAnLXRuJywgJzgnLCAnLW1hJywgJzIwMCcsICctbWV0YWxfYmluZGluZycsICctaW1hZScsICc8aW5maWxlLm1hZT4nLCAnLW9tYWUnLCAnPG91dGZpbGUubWFlPic=

> <r_epik_Ionization_Penalty>
0.226781

> <r_epik_Ionization_Penalty_Charging>
0.00915946

> <r_epik_Ionization_Penalty_Neutral>
0.217622

> <r_epik_State_Penalty>
0.173018

> <r_epik_Charging_Adjusted_Penalty>
0.182178

> <i_epik_Tot_Q>
1

> <i_epik_Tot_abs_Q>
1

> <r_epik_Metal_State_Penalty>
0.0905268

> <b_epik_Metal_Only>
0

> <s_lp_Force_Field>
OPLS_2005

> <r_lp_Energy>
38.1997

> <b_lp_Chiralities_Consistent>
1

> <s_lp_Variant>
AV-unprocessed.smi:1005-4

> <Gold.Version>
5.8.1

> <Gold.Id.Protein>
6NUR|6NUR_protein|mol2

> <Gold.PLP.Fitness>
57.5904

> <Gold.PLP.PLP>
-48.5586

> <Gold.PLP.part.hbond>
-1.8290

> <Gold.PLP.part.metal>
0.0000

> <Gold.PLP.part.buried>
-6.4444

> <Gold.PLP.part.nonpolar>
-40.9892

> <Gold.PLP.part.repulsive>
0.2714

> <Gold.PLP.ligand.clash>
0.8794

> <Gold.PLP.ligand.torsion>
1.0791

> <Gold.PLP.Chemscore.Hbond>
3.0000

> <Gold.PLP.Chemscore.CHOScore>
0.9897

> <Gold.PLP.Chemscore.Metal>
0.0000

> <Gold.Chemscore.Hbonds>
donor molecule, donor type, donor heavy atom, donor atom, acceptor molecule, acceptor atom, score
      L1  H    10    34       P1  8028  1.00
      L1  H    18    56       P1  7948  1.60
      L1  C     6    30       P1  8029  0.13

> <Gold.PLP.Chemscore.Internal.Correction>
0.1002

> <Gold.Rescore>
     Score         DG    S(hbond)    S(metal)    S(lipo)     H(rot)  DE(clash)    DE(int)     intcor
     16.04     -19.25       1.68        0.00     122.42       2.41       0.05       3.16       ----

> <Gold.Chemscore.Fitness>
16.0356

> <Gold.Chemscore.DG>
-19.2462

> <Gold.Chemscore.ZeroCoef>
-5.4800

> <Gold.Chemscore.Hbond>
1.6832

> <Gold.Chemscore.Metal>
0.0000

> <Gold.Chemscore.Lipo>
122.4190

> <Gold.Chemscore.Internal_Hbond>
0.0000

> <Gold.Chemscore.DEClash>
0.0509

> <Gold.Chemscore.DEInternal>
3.1598

> <Gold.Chemscore.Rot>
2.4136

> <Gold.Chemscore.Internal.Correction>
   9.000000E+99

> <Gold.Chemscore.Hbonds>
donor molecule, donor type, donor heavy atom, donor atom, acceptor molecule, acceptor atom, score
      L1  H    10    34       P1  8028  0.85
      L1  H    18    56       P1  7948  0.11

> <Gold.Chemscore.Hbond.Weighted>
-5.6220

> <Gold.Chemscore.Metal.Weighted>
-0.0000

> <Gold.Chemscore.Lipo.Weighted>
-14.3230

> <Gold.Chemscore.Internal_Hbond.Weighted>
0.0000

> <Gold.Chemscore.DEClash.Weighted>
0.0509

> <Gold.Chemscore.DEInternal.Weighted>
3.1598

> <Gold.Chemscore.Rot.Weighted>
6.1788

> <Gold.Chemscore.Internal.Correction.Weighted>
   9.000000E+99

> <Gold.Protein.RotatedTorsions>
[ 6907 6896 6895 6894 ] final  165.85 input  -60.11 | X-H torsion
[ 7974 7965 7964 7962 ] final  -75.58 input  175.53 | X-H torsion
[ 8008 7997 7996 7995 ] final   56.44 input   59.86 | X-H torsion
[ 10167 10162 10161 10158 ] final -156.40 input  -65.29 | X-H torsion
[ 10718 10713 10712 10709 ] final -138.57 input   66.30 | X-H torsion
[ 10763 10752 10751 10750 ] final   98.45 input  -60.55 | X-H torsion
[ 11005 11000 10999 10996 ] final  -17.41 input  -57.11 | X-H torsion

> <Gold.Protein.ActiveResidues>
 VAL166  LYS551  ARG553  GLY616  TRP617  ASP618  TYR619  PRO620  LYS621  CYS622 
 ASP623  PHE694  ASN695  SER759  ASP760  ASP761  ALA762  ILE779  LEU786  VAL792 
 PHE793  MET794  SER795  GLU796  ALA797  LYS798  CYS799  TRP800  GLU811  SER814 

> <Gold.Protein.RotatedAtoms>
  151.8880  133.3509  159.3788 H   0  0  0  0  0  0  0  0  0  0  0  0  # atno 6907 bound_to 6896
  150.7110  134.4952  159.5544 H   0  0  0  0  0  0  0  0  0  0  0  0  # atno 6908 bound_to 6896
  152.2517  134.8126  160.0496 H   0  0  0  0  0  0  0  0  0  0  0  0  # atno 6909 bound_to 6896
  145.6242  140.9355  143.1122 H   0  0  0  0  0  0  0  0  0  0  0  0  # atno 7974 bound_to 7965
  155.5174  140.3479  155.4400 H   0  0  0  0  0  0  0  0  0  0  0  0  # atno 8008 bound_to 7997
  156.0808  140.1386  156.9742 H   0  0  0  0  0  0  0  0  0  0  0  0  # atno 8009 bound_to 7997
  154.4578  140.0946  156.6784 H   0  0  0  0  0  0  0  0  0  0  0  0  # atno 8010 bound_to 7997
  139.6853  143.9511  152.2358 H   0  0  0  0  0  0  0  0  0  0  0  0  # atno 10167 bound_to 10162
  156.3009  130.7428  151.1479 H   0  0  0  0  0  0  0  0  0  0  0  0  # atno 10718 bound_to 10713
  153.2892  135.4148  155.1151 H   0  0  0  0  0  0  0  0  0  0  0  0  # atno 10763 bound_to 10752
  154.8515  135.3514  154.6005 H   0  0  0  0  0  0  0  0  0  0  0  0  # atno 10764 bound_to 10752
  153.6427  135.7056  153.5294 H   0  0  0  0  0  0  0  0  0  0  0  0  # atno 10765 bound_to 10752
  140.8165  133.8100  155.9616 H   0  0  0  0  0  0  0  0  0  0  0  0  # atno 11005 bound_to 11000
  144.7219  139.8002  143.7379 LP  0  0  0  0  0  0  0  0  0  0  0  0  # atno 17320 bound_to 7965
  146.1408  139.4464  143.0110 LP  0  0  0  0  0  0  0  0  0  0  0  0  # atno 17321 bound_to 7965
  139.9313  144.6740  150.8360 LP  0  0  0  0  0  0  0  0  0  0  0  0  # atno 17342 bound_to 10162
  140.7666  143.3307  151.2417 LP  0  0  0  0  0  0  0  0  0  0  0  0  # atno 17343 bound_to 10162
  157.7367  131.0559  150.5396 LP  0  0  0  0  0  0  0  0  0  0  0  0  # atno 17370 bound_to 10713
  156.5523  130.4235  149.6102 LP  0  0  0  0  0  0  0  0  0  0  0  0  # atno 17371 bound_to 10713
  140.9143  134.2221  157.4966 LP  0  0  0  0  0  0  0  0  0  0  0  0  # atno 17394 bound_to 11000
  139.8711  134.9764  156.4920 LP  0  0  0  0  0  0  0  0  0  0  0  0  # atno 17395 bound_to 11000

$$$$
