AV-unprocessed.smi:2402|AV-procd|sdf|9505|dock1
  -GOLD-   2272013133D 1   1.00000     0.00000
 Structure written by MMmdl.
 38 39  0  0  0  0  0  0  0  0  1 V2000
  151.9428  145.8997  160.3160 C   0  0  0  0  0  0  0  0  0  0  0  0
  151.9522  144.5216  159.6885 C   0  0  0  0  0  0  0  0  0  0  0  0
  152.8016  143.5106  160.1775 C   0  0  0  0  0  0  0  0  0  0  0  0
  152.7630  142.2494  159.5511 C   0  0  0  0  0  0  0  0  0  0  0  0
  153.6537  141.1189  160.0218 C   0  0  0  0  0  0  0  0  0  0  0  0
  151.9527  141.9695  158.5079 N   0  0  0  0  0  0  0  0  0  0  0  0
  151.1299  142.9351  158.0286 C   0  0  0  0  0  0  0  0  0  0  0  0
  150.2459  142.7449  156.9330 N   0  0  0  0  0  0  0  0  0  0  0  0
  150.1784  141.6981  156.0914 C   0  0  0  0  0  0  0  0  0  0  0  0
  150.8669  140.6796  156.1626 O   0  0  0  0  0  0  0  0  0  0  0  0
  149.2498  141.8958  155.1445 N   0  0  0  0  0  0  0  0  0  0  0  0
  148.9322  140.9501  154.0802 C   0  0  2  0  0  0  0  0  0  0  0  0
  147.7119  141.3957  153.3223 C   0  0  0  0  0  0  0  0  0  0  0  0
  146.7685  140.4580  153.2705 C   0  0  0  0  0  0  0  0  0  0  0  0
  147.1596  139.1940  153.9900 C   0  0  2  0  0  0  0  0  0  0  0  0
  146.0962  138.7567  155.0110 C   0  0  0  0  0  0  0  0  0  0  0  0
  144.8360  138.6423  154.3850 O   0  0  0  0  0  0  0  0  0  0  0  0
  148.5318  139.5519  154.6200 C   0  0  0  0  0  0  0  0  0  0  0  0
  151.1065  144.2274  158.6000 C   0  0  0  0  0  0  0  0  0  0  0  0
  149.7620  140.8737  153.3752 H   0  0  0  0  0  0  0  0  0  0  0  0
  147.2872  138.4179  153.2342 H   0  0  0  0  0  0  0  0  0  0  0  0
  152.7505  146.0111  161.0400 H   0  0  0  0  0  0  0  0  0  0  0  0
  150.9968  146.0736  160.8294 H   0  0  0  0  0  0  0  0  0  0  0  0
  152.0652  146.6660  159.5501 H   0  0  0  0  0  0  0  0  0  0  0  0
  153.4656  143.6967  161.0091 H   0  0  0  0  0  0  0  0  0  0  0  0
  154.1164  141.3538  160.9807 H   0  0  0  0  0  0  0  0  0  0  0  0
  154.4461  140.9367  159.2954 H   0  0  0  0  0  0  0  0  0  0  0  0
  153.0770  140.2010  160.1396 H   0  0  0  0  0  0  0  0  0  0  0  0
  149.6006  143.5012  156.7606 H   0  0  0  0  0  0  0  0  0  0  0  0
  148.7259  142.7585  155.1598 H   0  0  0  0  0  0  0  0  0  0  0  0
  147.6435  142.3710  152.8632 H   0  0  0  0  0  0  0  0  0  0  0  0
  145.8200  140.5608  152.7642 H   0  0  0  0  0  0  0  0  0  0  0  0
  146.3618  137.8029  155.4686 H   0  0  0  0  0  0  0  0  0  0  0  0
  146.0163  139.4894  155.8145 H   0  0  0  0  0  0  0  0  0  0  0  0
  144.7572  139.3273  153.7388 H   0  0  0  0  0  0  0  0  0  0  0  0
  149.2855  138.8046  154.3696 H   0  0  0  0  0  0  0  0  0  0  0  0
  148.4582  139.5662  155.7087 H   0  0  0  0  0  0  0  0  0  0  0  0
  150.4469  144.9887  158.2084 H   0  0  0  0  0  0  0  0  0  0  0  0
  1  2  1  0  0  0  0
  1 22  1  0  0  0  0
  1 23  1  0  0  0  0
  1 24  1  0  0  0  0
  2 19  1  0  0  0  0
  2  3  2  0  0  0  0
  3  4  1  0  0  0  0
  3 25  1  0  0  0  0
  4  5  1  0  0  0  0
  4  6  2  0  0  0  0
  5 26  1  0  0  0  0
  5 27  1  0  0  0  0
  5 28  1  0  0  0  0
  6  7  1  0  0  0  0
  7  8  1  0  0  0  0
  7 19  2  0  0  0  0
  8  9  1  0  0  0  0
  8 29  1  0  0  0  0
  9 10  2  0  0  0  0
  9 11  1  0  0  0  0
 11 12  1  0  0  0  0
 11 30  1  0  0  0  0
 12 20  1  0  0  0  0
 12 18  1  0  0  0  0
 12 13  1  0  0  0  0
 13 14  2  0  0  0  0
 13 31  1  0  0  0  0
 14 15  1  0  0  0  0
 14 32  1  0  0  0  0
 15 21  1  0  0  0  0
 15 16  1  0  0  0  0
 15 18  1  0  0  0  0
 16 17  1  0  0  0  0
 16 33  1  0  0  0  0
 16 34  1  0  0  0  0
 17 35  1  0  0  0  0
 18 36  1  0  0  0  0
 18 37  1  0  0  0  0
 19 38  1  0  0  0  0
M  END
> <s_m_source_file>
AV-unprocessed.smi

> <i_m_source_file_index>
2402

> <i_lp_mmshare_version>
43012

> <i_f3d_flags>
0

> <s_epik_input>
W0NIM11jMVtjSF1jKFtDSDNdKW5jKFtjSF0xKVtOSF1DKD1PKVtOSF1bQ0BASF0yW0NIXT1bQ0hdW0NAQEhdKFtDSDJdMilbQ0gyXVtPSF0=

> <s_epik_cmdline>
J2VwaWtfcHl0aG9uJywgJy1waCcsICc3LjAnLCAnLXRuJywgJzgnLCAnLW1hJywgJzIwMCcsICctbWV0YWxfYmluZGluZycsICctaW1hZScsICc8aW5maWxlLm1hZT4nLCAnLW9tYWUnLCAnPG91dGZpbGUubWFlPic=

> <r_lp_tautomer_probability>
1

> <r_epik_Ionization_Penalty>
0.000257495

> <r_epik_Ionization_Penalty_Charging>
0

> <r_epik_Ionization_Penalty_Neutral>
0.000257495

> <r_epik_State_Penalty>
-0

> <r_epik_Charging_Adjusted_Penalty>
0

> <i_epik_Tot_Q>
0

> <i_epik_Tot_abs_Q>
0

> <r_epik_Metal_State_Penalty>
-0

> <b_epik_Metal_Only>
0

> <s_lp_Force_Field>
OPLS_2005

> <r_lp_Energy>
18.4158

> <b_lp_Chiralities_Consistent>
1

> <s_lp_Variant>
AV-unprocessed.smi:2402-1

> <Gold.Version>
5.8.1

> <Gold.Id.Protein>
6NUR|6NUR_protein|mol2

> <Gold.PLP.Fitness>
47.2584

> <Gold.PLP.PLP>
-38.8290

> <Gold.PLP.part.hbond>
-3.0000

> <Gold.PLP.part.metal>
0.0000

> <Gold.PLP.part.buried>
-3.7588

> <Gold.PLP.part.nonpolar>
-33.4591

> <Gold.PLP.part.repulsive>
0.2335

> <Gold.PLP.ligand.clash>
0.0000

> <Gold.PLP.ligand.torsion>
0.0885

> <Gold.PLP.Chemscore.Hbond>
2.8640

> <Gold.PLP.Chemscore.CHOScore>
0.0000

> <Gold.PLP.Chemscore.Metal>
0.0000

> <Gold.Chemscore.Hbonds>
donor molecule, donor type, donor heavy atom, donor atom, acceptor molecule, acceptor atom, score
      L1  H     8    29       P1  8028  1.00
      L1  H    11    30       P1  8028  0.86
      L1  H    17    35       P1 10175  1.00

> <Gold.PLP.Chemscore.Internal.Correction>
0.0144

> <Gold.Rescore>
     Score         DG    S(hbond)    S(metal)    S(lipo)     H(rot)  DE(clash)    DE(int)     intcor
     19.47     -22.29       2.77        0.00     103.63       1.78       0.84       1.98       ----

> <Gold.Chemscore.Fitness>
19.4689

> <Gold.Chemscore.DG>
-22.2903

> <Gold.Chemscore.ZeroCoef>
-5.4800

> <Gold.Chemscore.Hbond>
2.7705

> <Gold.Chemscore.Metal>
0.0000

> <Gold.Chemscore.Lipo>
103.6320

> <Gold.Chemscore.Internal_Hbond>
0.0000

> <Gold.Chemscore.DEClash>
0.8391

> <Gold.Chemscore.DEInternal>
1.9823

> <Gold.Chemscore.Rot>
1.7844

> <Gold.Chemscore.Internal.Correction>
   9.000000E+99

> <Gold.Chemscore.Hbonds>
donor molecule, donor type, donor heavy atom, donor atom, acceptor molecule, acceptor atom, score
      L1  H     8    29       P1  8028  0.95
      L1  H    11    30       P1  8028  0.80
      L1  H    17    35       P1 10175  0.92

> <Gold.Chemscore.Hbond.Weighted>
-9.2535

> <Gold.Chemscore.Metal.Weighted>
-0.0000

> <Gold.Chemscore.Lipo.Weighted>
-12.1249

> <Gold.Chemscore.Internal_Hbond.Weighted>
0.0000

> <Gold.Chemscore.DEClash.Weighted>
0.8391

> <Gold.Chemscore.DEInternal.Weighted>
1.9823

> <Gold.Chemscore.Rot.Weighted>
4.5681

> <Gold.Chemscore.Internal.Correction.Weighted>
   9.000000E+99

> <Gold.Protein.RotatedTorsions>
[ 6907 6896 6895 6894 ] final -179.43 input  -60.11 | X-H torsion
[ 7974 7965 7964 7962 ] final    4.52 input  175.53 | X-H torsion
[ 8008 7997 7996 7995 ] final  -87.42 input   59.86 | X-H torsion
[ 10167 10162 10161 10158 ] final  -93.42 input  -65.29 | X-H torsion
[ 10718 10713 10712 10709 ] final   29.65 input   66.30 | X-H torsion
[ 10763 10752 10751 10750 ] final  122.29 input  -60.55 | X-H torsion
[ 11005 11000 10999 10996 ] final -170.67 input  -57.11 | X-H torsion

> <Gold.Protein.ActiveResidues>
 VAL166  LYS551  ARG553  GLY616  TRP617  ASP618  TYR619  PRO620  LYS621  CYS622 
 ASP623  PHE694  ASN695  SER759  ASP760  ASP761  ALA762  ILE779  LEU786  VAL792 
 PHE793  MET794  SER795  GLU796  ALA797  LYS798  CYS799  TRP800  GLU811  SER814 

> <Gold.Protein.RotatedAtoms>
  151.6533  133.3320  159.3156 H   0  0  0  0  0  0  0  0  0  0  0  0  # atno 6907 bound_to 6896
  150.7949  134.7006  159.6557 H   0  0  0  0  0  0  0  0  0  0  0  0  # atno 6908 bound_to 6896
  152.4035  134.6250  160.0112 H   0  0  0  0  0  0  0  0  0  0  0  0  # atno 6909 bound_to 6896
  146.2443  140.0523  142.8374 H   0  0  0  0  0  0  0  0  0  0  0  0  # atno 7974 bound_to 7965
  154.6630  140.0566  157.0083 H   0  0  0  0  0  0  0  0  0  0  0  0  # atno 8008 bound_to 7997
  155.1200  140.3246  155.4481 H   0  0  0  0  0  0  0  0  0  0  0  0  # atno 8009 bound_to 7997
  156.2626  140.1999  156.6322 H   0  0  0  0  0  0  0  0  0  0  0  0  # atno 8010 bound_to 7997
  140.3248  143.3028  152.0006 H   0  0  0  0  0  0  0  0  0  0  0  0  # atno 10167 bound_to 10162
  157.2493  130.7107  149.6397 H   0  0  0  0  0  0  0  0  0  0  0  0  # atno 10718 bound_to 10713
  153.6274  135.3402  155.3030 H   0  0  0  0  0  0  0  0  0  0  0  0  # atno 10763 bound_to 10752
  154.8587  135.4287  154.2142 H   0  0  0  0  0  0  0  0  0  0  0  0  # atno 10764 bound_to 10752
  153.3030  135.7026  153.7259 H   0  0  0  0  0  0  0  0  0  0  0  0  # atno 10765 bound_to 10752
  140.5169  134.5747  157.5036 H   0  0  0  0  0  0  0  0  0  0  0  0  # atno 11005 bound_to 11000
  145.0973  140.9323  143.4733 LP  0  0  0  0  0  0  0  0  0  0  0  0  # atno 17320 bound_to 7965
  145.0708  139.3033  143.5833 LP  0  0  0  0  0  0  0  0  0  0  0  0  # atno 17321 bound_to 7965
  139.4867  144.6282  151.7123 LP  0  0  0  0  0  0  0  0  0  0  0  0  # atno 17342 bound_to 10162
  140.5450  144.0517  150.6103 LP  0  0  0  0  0  0  0  0  0  0  0  0  # atno 17343 bound_to 10162
  155.9667  130.4433  150.5414 LP  0  0  0  0  0  0  0  0  0  0  0  0  # atno 17370 bound_to 10713
  157.3295  131.0697  151.1872 LP  0  0  0  0  0  0  0  0  0  0  0  0  # atno 17371 bound_to 10713
  139.9627  134.7424  156.0202 LP  0  0  0  0  0  0  0  0  0  0  0  0  # atno 17394 bound_to 11000
  141.1355  133.6576  156.3583 LP  0  0  0  0  0  0  0  0  0  0  0  0  # atno 17395 bound_to 11000

$$$$
