AV-unprocessed.smi:2227|AV-procd|sdf|9022|dock10
  -GOLD-   2272012223D 1   1.00000     0.00000
 Structure written by MMmdl.
 42 44  0  0  0  0  0  0  0  0  1 V2000
  146.7838  142.3572  153.9599 C   0  0  0  0  0  0  0  0  0  0  0  0
  146.7830  141.1454  154.9027 C   0  0  0  0  0  0  0  0  0  0  0  0
  146.6361  141.5606  156.3739 C   0  0  0  0  0  0  0  0  0  0  0  0
  147.9955  140.2808  154.6853 C   0  0  0  0  0  0  0  0  0  0  0  0
  147.9210  139.0101  154.2960 N   0  0  0  0  0  0  0  0  0  0  0  0
  149.2377  138.5700  154.2409 C   0  0  0  0  0  0  0  0  0  0  0  0
  150.0735  139.5950  154.6084 C   0  0  0  0  0  0  0  0  0  0  0  0
  149.2665  140.6887  154.8991 N   0  0  0  0  0  0  0  0  0  0  0  0
  149.7504  141.9882  155.3432 C   0  0  0  0  0  0  0  0  0  0  0  0
  150.4164  141.9008  156.7190 C   0  0  0  0  0  0  0  0  0  0  0  0
  150.7899  140.8123  157.1558 O   0  0  0  0  0  0  0  0  0  0  0  0
  150.5480  143.0551  157.3909 N   0  0  0  0  0  0  0  0  0  0  0  0
  151.1182  143.2060  158.7249 C   0  0  0  0  0  0  0  0  0  0  0  0
  151.3244  144.6686  159.0746 C   0  0  0  0  0  0  0  0  0  0  0  0
  151.9145  145.0885  160.4003 C   0  0  0  0  0  0  0  0  0  0  0  0
  150.4569  145.3561  160.1012 C   0  0  0  0  0  0  0  0  0  0  0  0
  152.4179  142.4360  158.8962 C   0  0  0  0  0  0  0  0  0  0  0  0
  152.4473  141.0648  159.5302 C   0  0  0  0  0  0  0  0  0  0  0  0
  153.0457  142.2463  160.2574 C   0  0  0  0  0  0  0  0  0  0  0  0
  146.8236  142.0398  152.9173 H   0  0  0  0  0  0  0  0  0  0  0  0
  147.6426  143.0037  154.1436 H   0  0  0  0  0  0  0  0  0  0  0  0
  145.8824  142.9566  154.0887 H   0  0  0  0  0  0  0  0  0  0  0  0
  145.8929  140.5669  154.6642 H   0  0  0  0  0  0  0  0  0  0  0  0
  146.5764  140.6864  157.0229 H   0  0  0  0  0  0  0  0  0  0  0  0
  145.7304  142.1477  156.5276 H   0  0  0  0  0  0  0  0  0  0  0  0
  147.4820  142.1645  156.7042 H   0  0  0  0  0  0  0  0  0  0  0  0
  149.4790  137.5594  153.9462 H   0  0  0  0  0  0  0  0  0  0  0  0
  151.1496  139.6340  154.6916 H   0  0  0  0  0  0  0  0  0  0  0  0
  150.4810  142.3582  154.6229 H   0  0  0  0  0  0  0  0  0  0  0  0
  148.9238  142.6997  155.3414 H   0  0  0  0  0  0  0  0  0  0  0  0
  150.2116  143.8975  156.9478 H   0  0  0  0  0  0  0  0  0  0  0  0
  150.4009  142.8070  159.4455 H   0  0  0  0  0  0  0  0  0  0  0  0
  151.6136  145.2793  158.2209 H   0  0  0  0  0  0  0  0  0  0  0  0
  152.1368  144.3137  161.1310 H   0  0  0  0  0  0  0  0  0  0  0  0
  152.5930  145.9391  160.4009 H   0  0  0  0  0  0  0  0  0  0  0  0
  150.1623  146.3844  159.9017 H   0  0  0  0  0  0  0  0  0  0  0  0
  149.7217  144.7545  160.6313 H   0  0  0  0  0  0  0  0  0  0  0  0
  153.1203  142.5914  158.0793 H   0  0  0  0  0  0  0  0  0  0  0  0
  151.5152  140.6611  159.9198 H   0  0  0  0  0  0  0  0  0  0  0  0
  153.1323  140.3319  159.1088 H   0  0  0  0  0  0  0  0  0  0  0  0
  154.1303  142.3025  160.3214 H   0  0  0  0  0  0  0  0  0  0  0  0
  152.5069  142.6176  161.1265 H   0  0  0  0  0  0  0  0  0  0  0  0
  1  2  1  0  0  0  0
  1 20  1  0  0  0  0
  1 21  1  0  0  0  0
  1 22  1  0  0  0  0
  2  3  1  0  0  0  0
  2  4  1  0  0  0  0
  2 23  1  0  0  0  0
  3 24  1  0  0  0  0
  3 25  1  0  0  0  0
  3 26  1  0  0  0  0
  4  8  1  0  0  0  0
  4  5  2  0  0  0  0
  5  6  1  0  0  0  0
  6  7  2  0  0  0  0
  6 27  1  0  0  0  0
  7  8  1  0  0  0  0
  7 28  1  0  0  0  0
  8  9  1  0  0  0  0
  9 10  1  0  0  0  0
  9 29  1  0  0  0  0
  9 30  1  0  0  0  0
 10 11  2  0  0  0  0
 10 12  1  0  0  0  0
 12 13  1  0  0  0  0
 12 31  1  0  0  0  0
 13 14  1  0  0  0  0
 13 17  1  0  0  0  0
 13 32  1  0  0  0  0
 14 16  1  0  0  0  0
 14 15  1  0  0  0  0
 14 33  1  0  0  0  0
 15 16  1  0  0  0  0
 15 34  1  0  0  0  0
 15 35  1  0  0  0  0
 16 36  1  0  0  0  0
 16 37  1  0  0  0  0
 17 19  1  0  0  0  0
 17 18  1  0  0  0  0
 17 38  1  0  0  0  0
 18 19  1  0  0  0  0
 18 39  1  0  0  0  0
 18 40  1  0  0  0  0
 19 41  1  0  0  0  0
 19 42  1  0  0  0  0
M  END
> <s_m_source_file>
AV-unprocessed.smi

> <i_m_source_file_index>
2227

> <i_lp_mmshare_version>
43012

> <i_f3d_flags>
0

> <s_epik_input>
W0NIM11bQ0hdKFtDSDNdKWMxbltjSF1bY0hdbjFbQ0gyXUMoPU8pW05IXVtDSF0oW0NIXTJbQ0gyXVtDSDJdMilbQ0hdM1tDSDJdW0NIMl0z

> <s_epik_cmdline>
J2VwaWtfcHl0aG9uJywgJy1waCcsICc3LjAnLCAnLXRuJywgJzgnLCAnLW1hJywgJzIwMCcsICctbWV0YWxfYmluZGluZycsICctaW1hZScsICc8aW5maWxlLm1hZT4nLCAnLW9tYWUnLCAnPG91dGZpbGUubWFlPic=

> <r_lp_tautomer_probability>
1

> <r_epik_Ionization_Penalty>
0.615412

> <r_epik_Ionization_Penalty_Charging>
0.615412

> <r_epik_Ionization_Penalty_Neutral>
4.7269e-08

> <r_epik_State_Penalty>
0.630977

> <r_epik_Charging_Adjusted_Penalty>
1.24639

> <i_epik_Tot_Q>
0

> <i_epik_Tot_abs_Q>
0

> <r_epik_Metal_State_Penalty>
0.305199

> <b_epik_Metal_Only>
0

> <s_lp_Force_Field>
OPLS_2005

> <r_lp_Energy>
23.5493

> <b_lp_Chiralities_Consistent>
1

> <s_lp_Variant>
AV-unprocessed.smi:2227-2

> <Gold.Version>
5.8.1

> <Gold.Id.Protein>
6NUR|6NUR_protein|mol2

> <Gold.PLP.Fitness>
45.4575

> <Gold.PLP.PLP>
-40.9148

> <Gold.PLP.part.hbond>
-1.0000

> <Gold.PLP.part.metal>
0.0000

> <Gold.PLP.part.buried>
-3.1230

> <Gold.PLP.part.nonpolar>
-37.1787

> <Gold.PLP.part.repulsive>
0.1682

> <Gold.PLP.ligand.clash>
0.0000

> <Gold.PLP.ligand.torsion>
1.7475

> <Gold.PLP.Chemscore.Hbond>
0.9913

> <Gold.PLP.Chemscore.CHOScore>
0.9578

> <Gold.PLP.Chemscore.Metal>
0.0000

> <Gold.Chemscore.Hbonds>
donor molecule, donor type, donor heavy atom, donor atom, acceptor molecule, acceptor atom, score
      L1  H    12    31       P1  8028  0.96
      L1  C     6    27       P1  7948  1.00

> <Gold.PLP.Chemscore.Internal.Correction>
2.1906

> <Gold.Rescore>
     Score         DG    S(hbond)    S(metal)    S(lipo)     H(rot)  DE(clash)    DE(int)     intcor
     12.00     -17.14       1.00        0.00     107.53       1.66       0.00       5.14       ----

> <Gold.Chemscore.Fitness>
11.9995

> <Gold.Chemscore.DG>
-17.1411

> <Gold.Chemscore.ZeroCoef>
-5.4800

> <Gold.Chemscore.Hbond>
0.9991

> <Gold.Chemscore.Metal>
0.0000

> <Gold.Chemscore.Lipo>
107.5268

> <Gold.Chemscore.Internal_Hbond>
0.0000

> <Gold.Chemscore.DEClash>
0.0043

> <Gold.Chemscore.DEInternal>
5.1373

> <Gold.Chemscore.Rot>
1.6627

> <Gold.Chemscore.Internal.Correction>
   9.000000E+99

> <Gold.Chemscore.Hbonds>
donor molecule, donor type, donor heavy atom, donor atom, acceptor molecule, acceptor atom, score
      L1  H    12    31       P1  8028  0.86

> <Gold.Chemscore.Hbond.Weighted>
-3.3369

> <Gold.Chemscore.Metal.Weighted>
-0.0000

> <Gold.Chemscore.Lipo.Weighted>
-12.5806

> <Gold.Chemscore.Internal_Hbond.Weighted>
0.0000

> <Gold.Chemscore.DEClash.Weighted>
0.0043

> <Gold.Chemscore.DEInternal.Weighted>
5.1373

> <Gold.Chemscore.Rot.Weighted>
4.2565

> <Gold.Chemscore.Internal.Correction.Weighted>
   9.000000E+99

> <Gold.Protein.RotatedTorsions>
[ 6907 6896 6895 6894 ] final  121.29 input  -60.11 | X-H torsion
[ 7974 7965 7964 7962 ] final  165.35 input  175.53 | X-H torsion
[ 8008 7997 7996 7995 ] final  -82.08 input   59.86 | X-H torsion
[ 10167 10162 10161 10158 ] final -138.59 input  -65.29 | X-H torsion
[ 10718 10713 10712 10709 ] final   21.02 input   66.30 | X-H torsion
[ 10763 10752 10751 10750 ] final  -87.52 input  -60.55 | X-H torsion
[ 11005 11000 10999 10996 ] final -135.32 input  -57.11 | X-H torsion

> <Gold.Protein.ActiveResidues>
 VAL166  LYS551  ARG553  GLY616  TRP617  ASP618  TYR619  PRO620  LYS621  CYS622 
 ASP623  PHE694  ASN695  SER759  ASP760  ASP761  ALA762  ILE779  LEU786  VAL792 
 PHE793  MET794  SER795  GLU796  ALA797  LYS798  CYS799  TRP800  GLU811  SER814 

> <Gold.Protein.RotatedAtoms>
  152.4333  133.7316  159.6590 H   0  0  0  0  0  0  0  0  0  0  0  0  # atno 6907 bound_to 6896
  150.8214  133.8235  159.3143 H   0  0  0  0  0  0  0  0  0  0  0  0  # atno 6908 bound_to 6896
  151.5916  135.1055  160.0092 H   0  0  0  0  0  0  0  0  0  0  0  0  # atno 6909 bound_to 6896
  144.7506  139.8457  143.6367 H   0  0  0  0  0  0  0  0  0  0  0  0  # atno 7974 bound_to 7965
  154.6050  140.0638  156.9418 H   0  0  0  0  0  0  0  0  0  0  0  0  # atno 8008 bound_to 7997
  155.2069  140.3319  155.4316 H   0  0  0  0  0  0  0  0  0  0  0  0  # atno 8009 bound_to 7997
  156.2342  140.1855  156.7148 H   0  0  0  0  0  0  0  0  0  0  0  0  # atno 8010 bound_to 7997
  139.8463  143.7256  152.2660 H   0  0  0  0  0  0  0  0  0  0  0  0  # atno 10167 bound_to 10162
  157.1327  130.6598  149.5956 H   0  0  0  0  0  0  0  0  0  0  0  0  # atno 10718 bound_to 10713
  154.6345  135.5410  153.7718 H   0  0  0  0  0  0  0  0  0  0  0  0  # atno 10763 bound_to 10752
  153.0301  135.6444  154.1252 H   0  0  0  0  0  0  0  0  0  0  0  0  # atno 10764 bound_to 10752
  154.1180  135.2922  155.3195 H   0  0  0  0  0  0  0  0  0  0  0  0  # atno 10765 bound_to 10752
  140.8909  134.1813  157.4528 H   0  0  0  0  0  0  0  0  0  0  0  0  # atno 11005 bound_to 11000
  146.1451  139.4518  143.0084 LP  0  0  0  0  0  0  0  0  0  0  0  0  # atno 17320 bound_to 7965
  145.6957  141.0151  143.1531 LP  0  0  0  0  0  0  0  0  0  0  0  0  # atno 17321 bound_to 7965
  139.7509  144.7534  151.0508 LP  0  0  0  0  0  0  0  0  0  0  0  0  # atno 17342 bound_to 10162
  140.7792  143.4861  150.9954 LP  0  0  0  0  0  0  0  0  0  0  0  0  # atno 17343 bound_to 10162
  155.9804  130.4805  150.6773 LP  0  0  0  0  0  0  0  0  0  0  0  0  # atno 17370 bound_to 10713
  157.4378  131.0857  151.0974 LP  0  0  0  0  0  0  0  0  0  0  0  0  # atno 17371 bound_to 10713
  139.8729  134.9858  156.5296 LP  0  0  0  0  0  0  0  0  0  0  0  0  # atno 17394 bound_to 11000
  140.8348  133.8251  155.9018 LP  0  0  0  0  0  0  0  0  0  0  0  0  # atno 17395 bound_to 11000

$$$$
