#       Name:                AV-unprocessed.smi:57
#       Creating user name   scv26
#       Creation time:       Thu Mar 26 16:48:14 2020


#       File generated by GOLD software.
#

@<TRIPOS>MOLECULE
AV-unprocessed.smi:57
    35    36     1
SMALL
NO_CHARGES


@<TRIPOS>ATOM
      1 ****         0.2133   1.8899   3.2273 N.pl3          1 S1                 0.0000
      2 ****        -0.3962   1.9179   2.0348 C.2            1 S1                 0.0000
      3 ****        -0.9471   3.1349   1.6391 N.am           1 S1                 0.0000
      4 ****        -1.6170   3.3378   0.4253 C.2            1 S1                 0.0000
      5 ****        -2.0713   4.4491   0.1618 O.2            1 S1                 0.0000
      6 ****        -1.6703   2.1432  -0.3693 C.2            1 S1                 0.0000
      7 ****        -2.2327   1.9216  -1.6237 N.2            1 S1                 0.0000
      8 ****        -1.9842   0.6647  -1.8684 C.2            1 S1                 0.0000
      9 ****        -1.3001   0.0275  -0.8634 N.pl3          1 S1                 0.0000
     10 ****        -0.8537  -1.3495  -0.7937 C.3            1 S1                 0.0000
     11 ****         0.5136  -1.3558  -1.0360 O.3            1 S1                 0.0000
     12 ****         1.1183  -2.6182  -0.8110 C.3            1 S1                 0.0000
     13 ****         2.6136  -2.5032  -1.1229 C.3            1 S1                 0.0000
     14 ****         3.2459  -3.7469  -0.9134 O.3            1 S1                 0.0000
     15 ****        -1.0948   0.9821   0.1081 C.2            1 S1                 0.0000
     16 ****        -0.4471   0.8188   1.3032 N.2            1 S1                 0.0000
     17 ****         0.2608   2.7229   3.7958 H              1 S1                 0.0000
     18 ****         0.6282   1.0300   3.5565 H              1 S1                 0.0000
     19 ****        -0.8662   3.9315   2.2539 H              1 S1                 0.0000
     20 ****        -2.2891   0.1748  -2.7817 H              1 S1                 0.0000
     21 ****        -1.3786  -1.9378  -1.5481 H              1 S1                 0.0000
     22 ****        -1.0883  -1.7397   0.1985 H              1 S1                 0.0000
     23 ****         0.9748  -2.9244   0.2268 H              1 S1                 0.0000
     24 ****         0.6553  -3.3737  -1.4483 H              1 S1                 0.0000
     25 ****         2.7669  -2.1942  -2.1572 H              1 S1                 0.0000
     26 ****         3.0800  -1.7526  -0.4841 H              1 S1                 0.0000
     27 ****         4.1657  -3.6518  -1.1093 H              1 S1                 0.0000
     28 ****        -1.9616   5.2011   0.8118 LP             1 S1                 0.0000
     29 ****        -2.5506   4.6013  -0.7026 LP             1 S1                 0.0000
     30 ****        -2.7165   2.5765  -2.2043 LP             1 S1                 0.0000
     31 ****         0.9457  -0.6851  -0.4331 LP             1 S1                 0.0000
     32 ****         0.6681  -1.0954  -1.9891 LP             1 S1                 0.0000
     33 ****         2.8423  -4.4362  -1.5149 LP             1 S1                 0.0000
     34 ****         3.1311  -4.0276   0.0395 LP             1 S1                 0.0000
     35 ****        -0.0496  -0.0511   1.5951 LP             1 S1                 0.0000
@<TRIPOS>BOND
    1    1    2 1     
    2    1   18 1     
    3    1   17 1     
    4    2   16 2     
    5    2    3 1     
    6    3   19 1     
    7    3    4 am    
    8    4    5 2     
    9    4    6 1     
   10    6   15 2     
   11    6    7 1     
   12    7    8 2     
   13    8   20 1     
   14    8    9 1     
   15    9   10 1     
   16    9   15 1     
   17   10   11 1     
   18   10   21 1     
   19   10   22 1     
   20   11   12 1     
   21   12   13 1     
   22   12   23 1     
   23   12   24 1     
   24   13   14 1     
   25   13   25 1     
   26   13   26 1     
   27   14   27 1     
   28   15   16 1     
   29    5   28 1     
   30    5   29 1     
   31    7   30 1     
   32   11   31 1     
   33   11   32 1     
   34   14   33 1     
   35   14   34 1     
   36   16   35 1     
@<TRIPOS>SUBSTRUCTURE
      1 S1             1
@<TRIPOS>SET
LONE_PAIRS      STATIC     ATOMS    <user>   **** ""
8 28 29 30 31 32 33 34 35
DONOR_HYDROGENS      STATIC     ATOMS    <user>   **** ""
4 18 17 19 27
ATOM$BLUE        STATIC     ATOMS    COLORGROUP SYSTEM
8 28 29 30 31 32 33 34 35
ATOM$RED        STATIC     ATOMS    COLORGROUP SYSTEM
4 18 17 19 27
