AV-unprocessed.smi:266|AV-procd|sdf|2037|dock3
  -GOLD-   2262021253D 1   1.00000     0.00000
 Structure written by MMmdl.
 52 55  0  0  0  0  0  0  0  0  1 V2000
  149.8494  143.9806  159.5442 C   0  0  0  0  0  0  0  0  0  0  0  0
  150.6706  142.7379  159.1588 C   0  0  2  0  0  0  0  0  0  0  0  0
  151.4945  142.4262  160.2841 O   0  0  0  0  0  0  0  0  0  0  0  0
  152.8528  142.2993  159.8887 C   0  0  0  0  0  0  0  0  0  0  0  0
  152.9578  143.1824  158.6552 C   0  0  0  0  0  0  0  0  0  0  0  0
  151.6309  142.9122  157.9545 C   0  0  2  0  0  0  0  0  0  0  0  0
  151.3025  144.0295  157.1475 O   0  0  0  0  0  0  0  0  0  0  0  0
  151.6331  141.6448  157.0575 C   0  0  0  0  0  0  0  0  0  0  0  0
  150.7309  140.5927  157.5014 N   0  0  0  0  0  0  0  0  0  0  0  0
  149.3566  140.6060  157.4304 C   0  0  0  0  0  0  0  0  0  0  0  0
  148.7657  139.5397  157.8943 N   0  0  0  0  0  0  0  0  0  0  0  0
  149.8102  138.7153  158.2976 C   0  0  0  0  0  0  0  0  0  0  0  0
  149.8943  137.4156  158.8791 C   0  0  0  0  0  0  0  0  0  0  0  0
  148.8413  136.6197  159.1871 N   0  0  0  0  0  0  0  0  0  0  0  0
  148.4642  135.7393  158.0899 C   0  0  0  0  0  0  0  0  0  0  0  0
  148.7285  136.0763  160.5405 C   0  0  0  0  0  0  0  0  0  0  0  0
  147.3886  135.3623  160.8204 C   0  0  1  0  0  0  0  0  0  0  0  0
  147.3627  134.6327  162.1792 C   0  0  0  0  0  0  0  0  0  0  0  0
  145.9192  134.2211  162.4861 C   0  0  0  0  0  0  0  0  0  0  0  0
  144.8655  135.5317  161.7603 S   0  0  0  0  0  0  0  0  0  0  0  0
  143.9012  134.9130  160.8381 O   0  0  0  0  0  0  0  0  0  0  0  0
  144.4192  136.4492  162.8196 O   0  0  0  0  0  0  0  0  0  0  0  0
  146.2019  136.3365  160.7982 C   0  0  0  0  0  0  0  0  0  0  0  0
  151.1303  136.9314  159.1609 N   0  0  0  0  0  0  0  0  0  0  0  0
  152.2179  137.6534  158.8772 C   0  0  0  0  0  0  0  0  0  0  0  0
  152.2934  138.8662  158.3270 N   0  0  0  0  0  0  0  0  0  0  0  0
  151.0541  139.3664  158.0564 C   0  0  0  0  0  0  0  0  0  0  0  0
  149.1564  144.2608  158.7506 H   0  0  0  0  0  0  0  0  0  0  0  0
  150.4939  144.8362  159.7488 H   0  0  0  0  0  0  0  0  0  0  0  0
  149.2580  143.7901  160.4401 H   0  0  0  0  0  0  0  0  0  0  0  0
  149.9833  141.9086  158.9851 H   0  0  0  0  0  0  0  0  0  0  0  0
  153.5309  142.6056  160.6855 H   0  0  0  0  0  0  0  0  0  0  0  0
  153.0644  141.2583  159.6420 H   0  0  0  0  0  0  0  0  0  0  0  0
  153.0142  144.2250  158.9727 H   0  0  0  0  0  0  0  0  0  0  0  0
  153.8434  142.9793  158.0548 H   0  0  0  0  0  0  0  0  0  0  0  0
  150.3872  143.9757  156.9181 H   0  0  0  0  0  0  0  0  0  0  0  0
  151.3613  141.9056  156.0338 H   0  0  0  0  0  0  0  0  0  0  0  0
  152.6400  141.2288  157.0001 H   0  0  0  0  0  0  0  0  0  0  0  0
  148.8020  141.4422  157.0298 H   0  0  0  0  0  0  0  0  0  0  0  0
  148.2138  136.3097  157.1947 H   0  0  0  0  0  0  0  0  0  0  0  0
  147.5907  135.1435  158.3561 H   0  0  0  0  0  0  0  0  0  0  0  0
  149.2799  135.0568  157.8480 H   0  0  0  0  0  0  0  0  0  0  0  0
  149.5429  135.3675  160.6937 H   0  0  0  0  0  0  0  0  0  0  0  0
  148.8932  136.8731  161.2654 H   0  0  0  0  0  0  0  0  0  0  0  0
  147.1955  134.6182  160.0473 H   0  0  0  0  0  0  0  0  0  0  0  0
  148.0294  133.7699  162.1892 H   0  0  0  0  0  0  0  0  0  0  0  0
  147.7101  135.3124  162.9585 H   0  0  0  0  0  0  0  0  0  0  0  0
  145.6728  133.2797  161.9948 H   0  0  0  0  0  0  0  0  0  0  0  0
  145.7203  134.1219  163.5533 H   0  0  0  0  0  0  0  0  0  0  0  0
  146.4524  137.2728  161.2979 H   0  0  0  0  0  0  0  0  0  0  0  0
  145.8563  136.5634  159.7895 H   0  0  0  0  0  0  0  0  0  0  0  0
  153.1629  137.1937  159.1265 H   0  0  0  0  0  0  0  0  0  0  0  0
  1  2  1  0  0  0  0
  1 28  1  0  0  0  0
  1 29  1  0  0  0  0
  1 30  1  0  0  0  0
  2  6  1  0  0  0  0
  2  3  1  0  0  0  0
  2 31  1  0  0  0  0
  3  4  1  0  0  0  0
  4  5  1  0  0  0  0
  4 32  1  0  0  0  0
  4 33  1  0  0  0  0
  5  6  1  0  0  0  0
  5 34  1  0  0  0  0
  5 35  1  0  0  0  0
  6  7  1  0  0  0  0
  6  8  1  0  0  0  0
  7 36  1  0  0  0  0
  8  9  1  0  0  0  0
  8 37  1  0  0  0  0
  8 38  1  0  0  0  0
  9 27  1  0  0  0  0
  9 10  1  0  0  0  0
 10 11  2  0  0  0  0
 10 39  1  0  0  0  0
 11 12  1  0  0  0  0
 12 27  2  0  0  0  0
 12 13  1  0  0  0  0
 13 14  1  0  0  0  0
 13 24  2  0  0  0  0
 14 15  1  0  0  0  0
 14 16  1  0  0  0  0
 15 40  1  0  0  0  0
 15 41  1  0  0  0  0
 15 42  1  0  0  0  0
 16 17  1  0  0  0  0
 16 43  1  0  0  0  0
 16 44  1  0  0  0  0
 17 23  1  0  0  0  0
 17 18  1  0  0  0  0
 17 45  1  0  0  0  0
 18 19  1  0  0  0  0
 18 46  1  0  0  0  0
 18 47  1  0  0  0  0
 19 20  1  0  0  0  0
 19 48  1  0  0  0  0
 19 49  1  0  0  0  0
 20 21  2  0  0  0  0
 20 22  2  0  0  0  0
 20 23  1  0  0  0  0
 23 50  1  0  0  0  0
 23 51  1  0  0  0  0
 24 25  1  0  0  0  0
 25 26  2  0  0  0  0
 25 52  1  0  0  0  0
 26 27  1  0  0  0  0
M  END
> <s_m_source_file>
AV-unprocessed.smi

> <i_m_source_file_index>
266

> <i_lp_mmshare_version>
43012

> <i_f3d_flags>
0

> <s_epik_input>
W0NIMl0xW0NIMl1PW0NAQEhdKFtDSDNdKVtDQEBdMShbT0hdKVtDSDJdbihbY0hdbjIpYyhjMjMpbltjSF1uYzNOKFtDSDNdKVtDSDJdW0NAQEhdKFtDSDJdNClbQ0gyXVtDSDJdUzQoPU8pPU8=

> <s_epik_cmdline>
J2VwaWtfcHl0aG9uJywgJy1waCcsICc3LjAnLCAnLXRuJywgJzgnLCAnLW1hJywgJzIwMCcsICctbWV0YWxfYmluZGluZycsICctaW1hZScsICc8aW5maWxlLm1hZT4nLCAnLW9tYWUnLCAnPG91dGZpbGUubWFlPic=

> <r_lp_tautomer_probability>
1

> <r_epik_Ionization_Penalty>
0.00155497

> <r_epik_Ionization_Penalty_Charging>
0

> <r_epik_Ionization_Penalty_Neutral>
0.00155497

> <r_epik_State_Penalty>
-0

> <r_epik_Charging_Adjusted_Penalty>
0

> <i_epik_Tot_Q>
0

> <i_epik_Tot_abs_Q>
0

> <r_epik_Metal_State_Penalty>
-0

> <b_epik_Metal_Only>
0

> <s_lp_Force_Field>
OPLS_2005

> <r_lp_Energy>
32.6677

> <b_lp_Chiralities_Consistent>
1

> <s_lp_Variant>
AV-unprocessed.smi:266-7

> <Gold.Version>
5.8.1

> <Gold.Id.Protein>
6NUR|6NUR_protein|mol2

> <Gold.PLP.Fitness>
42.4815

> <Gold.PLP.PLP>
-39.4332

> <Gold.PLP.part.hbond>
-3.0000

> <Gold.PLP.part.metal>
0.0000

> <Gold.PLP.part.buried>
-7.5843

> <Gold.PLP.part.nonpolar>
-29.3858

> <Gold.PLP.part.repulsive>
0.0842

> <Gold.PLP.ligand.clash>
0.0000

> <Gold.PLP.ligand.torsion>
1.7476

> <Gold.PLP.Chemscore.Hbond>
1.9513

> <Gold.PLP.Chemscore.CHOScore>
0.0000

> <Gold.PLP.Chemscore.Metal>
0.0000

> <Gold.Chemscore.Hbonds>
donor molecule, donor type, donor heavy atom, donor atom, acceptor molecule, acceptor atom, score
      L1  H     7    36       P1  8028  0.79
      P1  H  6896  6909       L1    24  1.00

> <Gold.PLP.Chemscore.Internal.Correction>
0.6898

> <Gold.Rescore>
     Score         DG    S(hbond)    S(metal)    S(lipo)     H(rot)  DE(clash)    DE(int)     intcor
     12.84     -14.91       1.64        0.00      94.31       2.76       0.28       1.80       ----

> <Gold.Chemscore.Fitness>
12.8350

> <Gold.Chemscore.DG>
-14.9118

> <Gold.Chemscore.ZeroCoef>
-5.4800

> <Gold.Chemscore.Hbond>
1.6386

> <Gold.Chemscore.Metal>
0.0000

> <Gold.Chemscore.Lipo>
94.3059

> <Gold.Chemscore.Internal_Hbond>
0.0000

> <Gold.Chemscore.DEClash>
0.2807

> <Gold.Chemscore.DEInternal>
1.7960

> <Gold.Chemscore.Rot>
2.7637

> <Gold.Chemscore.Internal.Correction>
   9.000000E+99

> <Gold.Chemscore.Hbonds>
donor molecule, donor type, donor heavy atom, donor atom, acceptor molecule, acceptor atom, score
      L1  H     7    36       P1  8028  0.73
      P1  H  6896  6909       L1    24  0.93

> <Gold.Chemscore.Hbond.Weighted>
-5.4730

> <Gold.Chemscore.Metal.Weighted>
-0.0000

> <Gold.Chemscore.Lipo.Weighted>
-11.0338

> <Gold.Chemscore.Internal_Hbond.Weighted>
0.0000

> <Gold.Chemscore.DEClash.Weighted>
0.2807

> <Gold.Chemscore.DEInternal.Weighted>
1.7960

> <Gold.Chemscore.Rot.Weighted>
7.0750

> <Gold.Chemscore.Internal.Correction.Weighted>
   9.000000E+99

> <Gold.Protein.RotatedTorsions>
[ 6907 6896 6895 6894 ] final  100.20 input  -60.11 | X-H torsion
[ 7974 7965 7964 7962 ] final  115.80 input  175.53 | X-H torsion
[ 8008 7997 7996 7995 ] final  165.25 input   59.86 | X-H torsion
[ 10167 10162 10161 10158 ] final   77.57 input  -65.29 | X-H torsion
[ 10718 10713 10712 10709 ] final   38.57 input   66.30 | X-H torsion
[ 10763 10752 10751 10750 ] final  -29.90 input  -60.55 | X-H torsion
[ 11005 11000 10999 10996 ] final   -2.41 input  -57.11 | X-H torsion

> <Gold.Protein.ActiveResidues>
 VAL166  LYS551  ARG553  GLY616  TRP617  ASP618  TYR619  PRO620  LYS621  CYS622 
 ASP623  PHE694  ASN695  SER759  ASP760  ASP761  ALA762  ILE779  LEU786  VAL792 
 PHE793  MET794  SER795  GLU796  ALA797  LYS798  CYS799  TRP800  GLU811  SER814 

> <Gold.Protein.RotatedAtoms>
  152.5377  134.0312  159.8025 H   0  0  0  0  0  0  0  0  0  0  0  0  # atno 6907 bound_to 6896
  151.0483  133.5638  159.2652 H   0  0  0  0  0  0  0  0  0  0  0  0  # atno 6908 bound_to 6896
  151.2582  135.0653  159.9142 H   0  0  0  0  0  0  0  0  0  0  0  0  # atno 6909 bound_to 6896
  145.1874  139.3018  143.4386 H   0  0  0  0  0  0  0  0  0  0  0  0  # atno 7974 bound_to 7965
  156.1816  140.1675  156.8264 H   0  0  0  0  0  0  0  0  0  0  0  0  # atno 8008 bound_to 7997
  154.5366  140.0745  156.8471 H   0  0  0  0  0  0  0  0  0  0  0  0  # atno 8009 bound_to 7997
  155.3299  140.3378  155.4242 H   0  0  0  0  0  0  0  0  0  0  0  0  # atno 8010 bound_to 7997
  139.9802  144.5832  150.7908 H   0  0  0  0  0  0  0  0  0  0  0  0  # atno 10167 bound_to 10162
  157.3604  130.7646  149.7043 H   0  0  0  0  0  0  0  0  0  0  0  0  # atno 10718 bound_to 10713
  153.7722  135.6911  153.4904 H   0  0  0  0  0  0  0  0  0  0  0  0  # atno 10763 bound_to 10752
  153.1866  135.4486  155.0095 H   0  0  0  0  0  0  0  0  0  0  0  0  # atno 10764 bound_to 10752
  154.8113  135.3379  154.7231 H   0  0  0  0  0  0  0  0  0  0  0  0  # atno 10765 bound_to 10752
  140.6580  133.9345  155.8419 H   0  0  0  0  0  0  0  0  0  0  0  0  # atno 11005 bound_to 11000
  146.3442  140.2075  142.8589 LP  0  0  0  0  0  0  0  0  0  0  0  0  # atno 17320 bound_to 7965
  145.0075  140.8685  143.5244 LP  0  0  0  0  0  0  0  0  0  0  0  0  # atno 17321 bound_to 7965
  140.7492  143.2934  151.3269 LP  0  0  0  0  0  0  0  0  0  0  0  0  # atno 17342 bound_to 10162
  139.6416  144.0529  152.2558 LP  0  0  0  0  0  0  0  0  0  0  0  0  # atno 17343 bound_to 10162
  155.9736  130.4115  150.3986 LP  0  0  0  0  0  0  0  0  0  0  0  0  # atno 17370 bound_to 10713
  157.2062  131.0449  151.2624 LP  0  0  0  0  0  0  0  0  0  0  0  0  # atno 17371 bound_to 10713
  141.0486  134.0517  157.3812 LP  0  0  0  0  0  0  0  0  0  0  0  0  # atno 17394 bound_to 11000
  139.9022  135.0168  156.7324 LP  0  0  0  0  0  0  0  0  0  0  0  0  # atno 17395 bound_to 11000

$$$$
