AV-unprocessed.smi:1973|AV-procd|sdf|7979|dock2
  -GOLD-   2272010153D 1   1.00000     0.00000
 Structure written by MMmdl.
 48 50  0  0  0  0  0  0  0  0  2 V2000
  152.5991  142.0356  159.4766 C   0  0  0  0  0  0  0  0  0  0  0  0
  152.8486  140.6532  159.2914 O   0  0  0  0  0  0  0  0  0  0  0  0
  152.2969  140.1593  158.0828 C   0  0  0  0  0  0  0  0  0  0  0  0
  152.8194  138.7349  157.8417 C   0  0  0  0  0  0  0  0  0  0  0  0
  152.1522  138.1023  156.6992 N   0  0  0  0  0  0  0  0  0  0  0  0
  151.4144  136.9764  157.0269 N   0  0  0  0  0  0  0  0  0  0  0  0
  150.7797  136.3249  156.1063 C   0  0  0  0  0  0  0  0  0  0  0  0
  149.9751  135.1099  156.4158 C   0  0  0  0  0  0  0  0  0  0  0  0
  149.6846  134.7988  157.5721 O   0  0  0  0  0  0  0  0  0  0  0  0
  149.5932  134.3830  155.3503 N   0  0  0  0  0  0  0  0  0  0  0  0
  148.7917  133.1648  155.4079 C   0  0  0  0  0  0  0  0  0  0  0  0
  147.6758  133.1535  154.3461 C   0  0  1  0  0  0  0  0  0  0  0  0
  146.8087  134.4090  154.3417 C   0  0  0  0  0  0  0  0  0  0  0  0
  146.1617  134.3577  152.9608 C   0  0  0  0  0  0  0  0  0  0  0  0
  147.1999  133.8096  152.0620 N   0  3  2  0  0  0  0  0  0  0  0  0
  146.6598  133.0390  150.9220 C   0  0  0  0  0  0  0  0  0  0  0  0
  145.3598  133.5886  150.3848 C   0  0  0  0  0  0  0  0  0  0  0  0
  145.3610  132.3340  151.2314 C   0  0  0  0  0  0  0  0  0  0  0  0
  148.1708  133.0611  152.8945 C   0  0  0  0  0  0  0  0  0  0  0  0
  150.8279  136.7583  154.7200 C   0  0  0  0  0  0  0  0  0  0  0  0
  151.5576  137.8537  154.4151 C   0  0  0  0  0  0  0  0  0  0  0  0
  152.2886  138.6061  155.4355 C   0  0  0  0  0  0  0  0  0  0  0  0
  152.9682  139.5999  155.1808 O   0  0  0  0  0  0  0  0  0  0  0  0
  153.0484  142.3675  160.4125 H   0  0  0  0  0  0  0  0  0  0  0  0
  151.5287  142.2395  159.5270 H   0  0  0  0  0  0  0  0  0  0  0  0
  153.0304  142.6269  158.6678 H   0  0  0  0  0  0  0  0  0  0  0  0
  151.2075  140.1587  158.1446 H   0  0  0  0  0  0  0  0  0  0  0  0
  152.5799  140.8087  157.2527 H   0  0  0  0  0  0  0  0  0  0  0  0
  153.8970  138.7679  157.6717 H   0  0  0  0  0  0  0  0  0  0  0  0
  152.6869  138.1315  158.7415 H   0  0  0  0  0  0  0  0  0  0  0  0
  149.8666  134.7097  154.4344 H   0  0  0  0  0  0  0  0  0  0  0  0
  149.4357  132.2920  155.2886 H   0  0  0  0  0  0  0  0  0  0  0  0
  148.3596  133.0927  156.4065 H   0  0  0  0  0  0  0  0  0  0  0  0
  147.0161  132.3036  154.5311 H   0  0  0  0  0  0  0  0  0  0  0  0
  146.0770  134.4224  155.1500 H   0  0  0  0  0  0  0  0  0  0  0  0
  147.4290  135.3020  154.4300 H   0  0  0  0  0  0  0  0  0  0  0  0
  145.3023  133.6854  152.9886 H   0  0  0  0  0  0  0  0  0  0  0  0
  145.8134  135.3339  152.6226 H   0  0  0  0  0  0  0  0  0  0  0  0
  147.3890  132.5892  150.2502 H   0  0  0  0  0  0  0  0  0  0  0  0
  144.9605  134.4974  150.8320 H   0  0  0  0  0  0  0  0  0  0  0  0
  145.1655  133.4706  149.3207 H   0  0  0  0  0  0  0  0  0  0  0  0
  145.1687  131.3907  150.7241 H   0  0  0  0  0  0  0  0  0  0  0  0
  144.9615  132.4086  152.2413 H   0  0  0  0  0  0  0  0  0  0  0  0
  149.1446  133.5390  152.7818 H   0  0  0  0  0  0  0  0  0  0  0  0
  148.2786  132.0217  152.5798 H   0  0  0  0  0  0  0  0  0  0  0  0
  150.2989  136.2220  153.9455 H   0  0  0  0  0  0  0  0  0  0  0  0
  151.6044  138.1859  153.3885 H   0  0  0  0  0  0  0  0  0  0  0  0
  147.7027  134.5992  151.6824 H   0  0  0  0  0  0  0  0  0  0  0  0
  1  2  1  0  0  0  0
  1 24  1  0  0  0  0
  1 25  1  0  0  0  0
  1 26  1  0  0  0  0
  2  3  1  0  0  0  0
  3  4  1  0  0  0  0
  3 27  1  0  0  0  0
  3 28  1  0  0  0  0
  4  5  1  0  0  0  0
  4 29  1  0  0  0  0
  4 30  1  0  0  0  0
  5 22  1  0  0  0  0
  5  6  1  0  0  0  0
  6  7  2  0  0  0  0
  7  8  1  0  0  0  0
  7 20  1  0  0  0  0
  8  9  2  0  0  0  0
  8 10  1  0  0  0  0
 10 11  1  0  0  0  0
 10 31  1  0  0  0  0
 11 12  1  0  0  0  0
 11 32  1  0  0  0  0
 11 33  1  0  0  0  0
 12 19  1  0  0  0  0
 12 13  1  0  0  0  0
 12 34  1  0  0  0  0
 13 14  1  0  0  0  0
 13 35  1  0  0  0  0
 13 36  1  0  0  0  0
 14 15  1  0  0  0  0
 14 37  1  0  0  0  0
 14 38  1  0  0  0  0
 15 16  1  0  0  0  0
 15 19  1  0  0  0  0
 15 48  1  0  0  0  0
 16 18  1  0  0  0  0
 16 17  1  0  0  0  0
 16 39  1  0  0  0  0
 17 18  1  0  0  0  0
 17 40  1  0  0  0  0
 17 41  1  0  0  0  0
 18 42  1  0  0  0  0
 18 43  1  0  0  0  0
 19 44  1  0  0  0  0
 19 45  1  0  0  0  0
 20 21  2  0  0  0  0
 20 46  1  0  0  0  0
 21 22  1  0  0  0  0
 21 47  1  0  0  0  0
 22 23  2  0  0  0  0
M  CHG  1  15   1
M  END
> <s_m_source_file>
AV-unprocessed.smi

> <i_m_source_file_index>
1973

> <i_lp_mmshare_version>
43012

> <i_f3d_flags>
0

> <s_epik_input>
W0NIM11PW0NIMl1bQ0gyXW4xbmMoW2NIXVtjSF1jMT1PKUMoPU8pW05IXVtDSDJdW0NAQEhdMltDSDJdW0NIMl1OKFtDSDJdMilbQ0hdM1tDSDJdW0NIMl0z

> <s_epik_cmdline>
J2VwaWtfcHl0aG9uJywgJy1waCcsICc3LjAnLCAnLXRuJywgJzgnLCAnLW1hJywgJzIwMCcsICctbWV0YWxfYmluZGluZycsICctaW1hZScsICc8aW5maWxlLm1hZT4nLCAnLW9tYWUnLCAnPG91dGZpbGUubWFlPic=

> <r_lp_tautomer_probability>
1

> <r_epik_Ionization_Penalty>
0.000225706

> <r_epik_Ionization_Penalty_Charging>
0.000223776

> <r_epik_Ionization_Penalty_Neutral>
1.93004e-06

> <r_epik_State_Penalty>
-0

> <r_epik_Charging_Adjusted_Penalty>
0.000223776

> <i_epik_Tot_Q>
1

> <i_epik_Tot_abs_Q>
1

> <r_epik_Metal_State_Penalty>
-0

> <b_epik_Metal_Only>
0

> <s_lp_Force_Field>
OPLS_2005

> <r_lp_Energy>
57.1885

> <b_lp_Chiralities_Consistent>
1

> <s_lp_Variant>
AV-unprocessed.smi:1973-4

> <Gold.Version>
5.8.1

> <Gold.Id.Protein>
6NUR|6NUR_protein|mol2

> <Gold.PLP.Fitness>
47.1283

> <Gold.PLP.PLP>
-35.9262

> <Gold.PLP.part.hbond>
-3.4185

> <Gold.PLP.part.metal>
0.0000

> <Gold.PLP.part.buried>
-4.2629

> <Gold.PLP.part.nonpolar>
-29.3054

> <Gold.PLP.part.repulsive>
0.0773

> <Gold.PLP.ligand.clash>
0.0000

> <Gold.PLP.ligand.torsion>
0.8836

> <Gold.PLP.Chemscore.Hbond>
3.8160

> <Gold.PLP.Chemscore.CHOScore>
0.0000

> <Gold.PLP.Chemscore.Metal>
0.0000

> <Gold.Chemscore.Hbonds>
donor molecule, donor type, donor heavy atom, donor atom, acceptor molecule, acceptor atom, score
      L1  H    15    48       P1  7948  2.00
      P1  H  6896  6909       L1     9  0.64
      P1  H  7997  8010       L1    23  1.00

> <Gold.PLP.Chemscore.Internal.Correction>
1.5214

> <Gold.Rescore>
     Score         DG    S(hbond)    S(metal)    S(lipo)     H(rot)  DE(clash)    DE(int)     intcor
     17.51     -18.38       2.66        0.00      77.56       1.97       0.03       0.84       ----

> <Gold.Chemscore.Fitness>
17.5081

> <Gold.Chemscore.DG>
-18.3769

> <Gold.Chemscore.ZeroCoef>
-5.4800

> <Gold.Chemscore.Hbond>
2.6553

> <Gold.Chemscore.Metal>
0.0000

> <Gold.Chemscore.Lipo>
77.5570

> <Gold.Chemscore.Internal_Hbond>
0.0000

> <Gold.Chemscore.DEClash>
0.0318

> <Gold.Chemscore.DEInternal>
0.8369

> <Gold.Chemscore.Rot>
1.9711

> <Gold.Chemscore.Internal.Correction>
   9.000000E+99

> <Gold.Chemscore.Hbonds>
donor molecule, donor type, donor heavy atom, donor atom, acceptor molecule, acceptor atom, score
      L1  H    15    48       P1  7948  0.24
      P1  H  6896  6909       L1     9  0.62
      P1  H  7989  7998       L1    23  0.01
      P1  H  7997  8010       L1    23  1.00

> <Gold.Chemscore.Hbond.Weighted>
-8.8688

> <Gold.Chemscore.Metal.Weighted>
-0.0000

> <Gold.Chemscore.Lipo.Weighted>
-9.0742

> <Gold.Chemscore.Internal_Hbond.Weighted>
0.0000

> <Gold.Chemscore.DEClash.Weighted>
0.0318

> <Gold.Chemscore.DEInternal.Weighted>
0.8369

> <Gold.Chemscore.Rot.Weighted>
5.0460

> <Gold.Chemscore.Internal.Correction.Weighted>
   9.000000E+99

> <Gold.Protein.RotatedTorsions>
[ 6907 6896 6895 6894 ] final   15.06 input  -60.11 | X-H torsion
[ 7974 7965 7964 7962 ] final  -40.68 input  175.53 | X-H torsion
[ 8008 7997 7996 7995 ] final  105.67 input   59.86 | X-H torsion
[ 10167 10162 10161 10158 ] final  175.68 input  -65.29 | X-H torsion
[ 10718 10713 10712 10709 ] final  -65.18 input   66.30 | X-H torsion
[ 10763 10752 10751 10750 ] final  -97.62 input  -60.55 | X-H torsion
[ 11005 11000 10999 10996 ] final   52.05 input  -57.11 | X-H torsion

> <Gold.Protein.ActiveResidues>
 VAL166  LYS551  ARG553  GLY616  TRP617  ASP618  TYR619  PRO620  LYS621  CYS622 
 ASP623  PHE694  ASN695  SER759  ASP760  ASP761  ALA762  ILE779  LEU786  VAL792 
 PHE793  MET794  SER795  GLU796  ALA797  LYS798  CYS799  TRP800  GLU811  SER814 

> <Gold.Protein.RotatedAtoms>
  151.8121  135.0677  160.0413 H   0  0  0  0  0  0  0  0  0  0  0  0  # atno 6907 bound_to 6896
  152.3013  133.5654  159.5628 H   0  0  0  0  0  0  0  0  0  0  0  0  # atno 6908 bound_to 6896
  150.7275  134.0203  159.3741 H   0  0  0  0  0  0  0  0  0  0  0  0  # atno 6909 bound_to 6896
  146.0282  140.6765  142.9145 H   0  0  0  0  0  0  0  0  0  0  0  0  # atno 7974 bound_to 7965
  156.1678  140.3126  155.8920 H   0  0  0  0  0  0  0  0  0  0  0  0  # atno 8008 bound_to 7997
  155.3649  140.0478  157.3063 H   0  0  0  0  0  0  0  0  0  0  0  0  # atno 8009 bound_to 7997
  154.5210  140.2198  155.8986 H   0  0  0  0  0  0  0  0  0  0  0  0  # atno 8010 bound_to 7997
  139.5186  144.3004  152.0384 H   0  0  0  0  0  0  0  0  0  0  0  0  # atno 10167 bound_to 10162
  156.0685  130.4243  150.1526 H   0  0  0  0  0  0  0  0  0  0  0  0  # atno 10718 bound_to 10713
  154.7344  135.5039  153.9017 H   0  0  0  0  0  0  0  0  0  0  0  0  # atno 10763 bound_to 10752
  153.0981  135.6677  153.9733 H   0  0  0  0  0  0  0  0  0  0  0  0  # atno 10764 bound_to 10752
  153.9527  135.3056  155.3417 H   0  0  0  0  0  0  0  0  0  0  0  0  # atno 10765 bound_to 10752
  140.0882  134.5246  155.8878 H   0  0  0  0  0  0  0  0  0  0  0  0  # atno 11005 bound_to 11000
  144.7018  140.3688  143.7149 LP  0  0  0  0  0  0  0  0  0  0  0  0  # atno 17320 bound_to 7965
  145.7084  139.1678  143.2553 LP  0  0  0  0  0  0  0  0  0  0  0  0  # atno 17321 bound_to 7965
  140.2452  144.4228  150.6244 LP  0  0  0  0  0  0  0  0  0  0  0  0  # atno 17342 bound_to 10162
  140.6263  143.2182  151.6589 LP  0  0  0  0  0  0  0  0  0  0  0  0  # atno 17343 bound_to 10162
  156.9582  130.9796  151.3484 LP  0  0  0  0  0  0  0  0  0  0  0  0  # atno 17370 bound_to 10713
  157.5741  130.8331  149.8432 LP  0  0  0  0  0  0  0  0  0  0  0  0  # atno 17371 bound_to 10713
  141.2069  133.6659  156.6273 LP  0  0  0  0  0  0  0  0  0  0  0  0  # atno 17394 bound_to 11000
  140.3390  134.7865  157.4383 LP  0  0  0  0  0  0  0  0  0  0  0  0  # atno 17395 bound_to 11000

$$$$
