#       Name:                AV-unprocessed.smi:868
#       Creating user name   scv26
#       Creation time:       Fri Mar 27 01:48:30 2020


#       File generated by GOLD software.
#

@<TRIPOS>MOLECULE
AV-unprocessed.smi:868
    51    53     1
SMALL
NO_CHARGES


@<TRIPOS>ATOM
      1 ****        -2.4160   0.1242   2.9918 C.3            1 S1                 0.0000
      2 ****        -2.1220   0.7141   1.6027 C.3            1 S1                 0.0000
      3 ****        -2.6254   2.1632   1.5214 C.3            1 S1                 0.0000
      4 ****        -2.7093  -0.1258   0.4377 C.3            1 S1                 0.0000
      5 ****        -2.2725  -1.6043   0.3342 C.3            1 S1                 0.0000
      6 ****        -0.7269  -1.7095   0.3138 C.2            1 S1                 0.0000
      7 ****        -0.1168  -2.2906   1.2119 O.2            1 S1                 0.0000
      8 ****        -0.1041  -1.1192  -0.7192 N.am           1 S1                 0.0000
      9 ****         1.3406  -1.0389  -0.8931 C.3            1 S1                 0.0000
     10 ****         1.9413   0.0956  -0.0480 C.3            1 S1                 0.0000
     11 ****         3.4191   0.2324  -0.2410 C.2            1 S1                 0.0000
     12 ****         4.3224  -0.4365   0.4859 N.2            1 S1                 0.0000
     13 ****         5.5520  -0.0829  -0.0319 N.2            1 S1                 0.0000
     14 ****         5.2675   0.7574  -1.0257 C.2            1 S1                 0.0000
     15 ****         3.9607   1.0114  -1.2005 N.pl3          1 S1                 0.0000
     16 ****         3.3166   1.8295  -2.2147 C.3            1 S1                 0.0000
     17 ****         3.9760   3.1656  -2.4761 C.3            1 S1                 0.0000
     18 ****         2.6886   3.0983  -1.6857 C.3            1 S1                 0.0000
     19 ****        -2.9475  -2.6190   1.2952 C.3            1 S1                 0.0000
     20 ****        -3.1432  -3.5966   0.1375 C.3            1 S1                 0.0000
     21 ****        -2.8882  -2.4326  -0.8196 C.3            1 S1                 0.0000
     22 ****        -3.4863  -0.0166   3.1456 H              1 S1                 0.0000
     23 ****        -2.0514   0.7818   3.7815 H              1 S1                 0.0000
     24 ****        -1.9244  -0.8377   3.1314 H              1 S1                 0.0000
     25 ****        -1.0385   0.7599   1.4907 H              1 S1                 0.0000
     26 ****        -3.7084   2.2141   1.6388 H              1 S1                 0.0000
     27 ****        -2.3723   2.6152   0.5620 H              1 S1                 0.0000
     28 ****        -2.1770   2.7803   2.3006 H              1 S1                 0.0000
     29 ****        -3.7969  -0.0861   0.5109 H              1 S1                 0.0000
     30 ****        -2.4821   0.3793  -0.5023 H              1 S1                 0.0000
     31 ****        -0.6745  -0.6676  -1.4195 H              1 S1                 0.0000
     32 ****         1.8059  -1.9938  -0.6423 H              1 S1                 0.0000
     33 ****         1.5428  -0.8620  -1.9497 H              1 S1                 0.0000
     34 ****         1.4524   1.0407  -0.2832 H              1 S1                 0.0000
     35 ****         1.7506  -0.0868   1.0105 H              1 S1                 0.0000
     36 ****         6.0354   1.1957  -1.6461 H              1 S1                 0.0000
     37 ****         2.8504   1.2592  -3.0156 H              1 S1                 0.0000
     38 ****         4.8798   3.4233  -1.9272 H              1 S1                 0.0000
     39 ****         3.9199   3.5615  -3.4879 H              1 S1                 0.0000
     40 ****         1.7821   3.4498  -2.1740 H              1 S1                 0.0000
     41 ****         2.7468   3.2944  -0.6165 H              1 S1                 0.0000
     42 ****        -2.3343  -3.0178   2.1037 H              1 S1                 0.0000
     43 ****        -3.8969  -2.2522   1.6882 H              1 S1                 0.0000
     44 ****        -2.3641  -4.3590   0.0924 H              1 S1                 0.0000
     45 ****        -4.1414  -4.0301   0.0719 H              1 S1                 0.0000
     46 ****        -3.8130  -1.9962  -1.2003 H              1 S1                 0.0000
     47 ****        -2.2166  -2.6846  -1.6417 H              1 S1                 0.0000
     48 ****        -0.6193  -2.7045   1.9711 LP             1 S1                 0.0000
     49 ****         0.8811  -2.3486   1.1821 LP             1 S1                 0.0000
     50 ****         4.1437  -1.0619   1.2455 LP             1 S1                 0.0000
     51 ****         6.4545  -0.3890   0.2712 LP             1 S1                 0.0000
@<TRIPOS>BOND
    1    1    2 1     
    2    1   22 1     
    3    1   23 1     
    4    1   24 1     
    5    2    3 1     
    6    2    4 1     
    7    2   25 1     
    8    3   26 1     
    9    3   27 1     
   10    3   28 1     
   11    4    5 1     
   12    4   29 1     
   13    4   30 1     
   14    5   21 1     
   15    5    6 1     
   16    5   19 1     
   17    6    7 2     
   18    6    8 am    
   19    8    9 1     
   20    8   31 1     
   21    9   10 1     
   22    9   32 1     
   23    9   33 1     
   24   10   11 1     
   25   10   34 1     
   26   10   35 1     
   27   11   15 1     
   28   11   12 2     
   29   12   13 1     
   30   13   14 2     
   31   14   15 1     
   32   14   36 1     
   33   15   16 1     
   34   16   18 1     
   35   16   17 1     
   36   16   37 1     
   37   17   18 1     
   38   17   38 1     
   39   17   39 1     
   40   18   40 1     
   41   18   41 1     
   42   19   20 1     
   43   19   42 1     
   44   19   43 1     
   45   20   21 1     
   46   20   44 1     
   47   20   45 1     
   48   21   46 1     
   49   21   47 1     
   50    7   48 1     
   51    7   49 1     
   52   12   50 1     
   53   13   51 1     
@<TRIPOS>SUBSTRUCTURE
      1 S1             1
@<TRIPOS>SET
LONE_PAIRS      STATIC     ATOMS    <user>   **** ""
4 48 49 50 51
DONOR_HYDROGENS      STATIC     ATOMS    <user>   **** ""
1 31
ATOM$BLUE        STATIC     ATOMS    COLORGROUP SYSTEM
4 48 49 50 51
ATOM$RED        STATIC     ATOMS    COLORGROUP SYSTEM
1 31
