#       Name:                AV-unprocessed.smi:2453
#       Creating user name   scv26
#       Creation time:       Fri Mar 27 13:33:02 2020


#       File generated by GOLD software.
#

@<TRIPOS>MOLECULE
AV-unprocessed.smi:2453
    45    46     1
SMALL
NO_CHARGES


@<TRIPOS>ATOM
      1 ****        -4.2438  -0.5477  -1.1672 C.3            1 S1                 0.0000
      2 ****        -4.0598   0.8844  -0.6955 C.ar           1 S1                 0.0000
      3 ****        -5.1655   1.7628  -0.6921 C.ar           1 S1                 0.0000
      4 ****        -5.0183   3.0368  -0.2718 N.pl3          1 S1                 1.0000
      5 ****        -3.8400   3.5307   0.1614 C.ar           1 S1                 0.0000
      6 ****        -2.6978   2.7060   0.1827 C.ar           1 S1                 0.0000
      7 ****        -2.7960   1.3626  -0.2627 C.ar           1 S1                 0.0000
      8 ****        -1.6939   0.4612  -0.2475 N.am           1 S1                 0.0000
      9 ****        -0.3801   0.7417  -0.2955 C.2            1 S1                 0.0000
     10 ****         0.0998   1.8683  -0.4180 O.2            1 S1                 0.0000
     11 ****         0.3553  -0.3765  -0.2071 N.am           1 S1                 0.0000
     12 ****         1.8165  -0.4469  -0.2163 C.3            1 S1                 0.0000
     13 ****         2.2655  -1.1686  -1.5029 C.3            1 S1                 0.0000
     14 ****         3.7885  -1.3481  -1.5543 C.3            1 S1                 0.0000
     15 ****         4.2905  -2.0915  -0.3106 C.3            1 S1                 0.0000
     16 ****         3.8685  -1.3621   0.9728 C.3            1 S1                 0.0000
     17 ****         2.3375  -1.1645   1.0575 C.3            1 S1                 0.0000
     18 ****         1.9498  -0.4108   2.3498 C.3            1 S1                 0.0000
     19 ****         2.2586  -1.1790   3.4939 O.3            1 S1                 0.0000
     20 ****        -5.2737  -0.7357  -1.4723 H              1 S1                 0.0000
     21 ****        -3.9964  -1.2470  -0.3681 H              1 S1                 0.0000
     22 ****        -3.5970  -0.7538  -2.0205 H              1 S1                 0.0000
     23 ****        -6.1609   1.4864  -1.0089 H              1 S1                 0.0000
     24 ****        -3.8466   4.5618   0.4835 H              1 S1                 0.0000
     25 ****        -1.7714   3.1165   0.5541 H              1 S1                 0.0000
     26 ****        -1.9370  -0.5185  -0.2476 H              1 S1                 0.0000
     27 ****        -0.1322  -1.2560  -0.1171 H              1 S1                 0.0000
     28 ****         2.2434   0.5576  -0.2309 H              1 S1                 0.0000
     29 ****         1.7868  -2.1472  -1.5645 H              1 S1                 0.0000
     30 ****         1.9355  -0.6090  -2.3791 H              1 S1                 0.0000
     31 ****         4.0693  -1.8953  -2.4546 H              1 S1                 0.0000
     32 ****         4.2716  -0.3724  -1.6204 H              1 S1                 0.0000
     33 ****         3.8934  -3.1074  -0.3031 H              1 S1                 0.0000
     34 ****         5.3764  -2.1837  -0.3455 H              1 S1                 0.0000
     35 ****         4.2247  -1.9270   1.8347 H              1 S1                 0.0000
     36 ****         4.3661  -0.3924   1.0163 H              1 S1                 0.0000
     37 ****         1.8739  -2.1523   1.0937 H              1 S1                 0.0000
     38 ****         2.4665   0.5477   2.4079 H              1 S1                 0.0000
     39 ****         0.8814  -0.1989   2.3806 H              1 S1                 0.0000
     40 ****         2.0232  -0.6819   4.2625 H              1 S1                 0.0000
     41 ****        -5.8333   3.6508  -0.2762 H              1 S1                 0.0000
     42 ****        -0.5026   2.6632  -0.4907 LP             1 S1                 0.0000
     43 ****         1.0922   1.9888  -0.4449 LP             1 S1                 0.0000
     44 ****         3.2379  -1.3811   3.5100 LP             1 S1                 0.0000
     45 ****         1.7419  -2.0350   3.4747 LP             1 S1                 0.0000
@<TRIPOS>BOND
    1    1    2 1     
    2    1   20 1     
    3    1   21 1     
    4    1   22 1     
    5    2    7 ar    
    6    2    3 ar    
    7    3    4 ar    
    8    3   23 1     
    9    4    5 ar    
   10    4   41 1     
   11    5    6 ar    
   12    5   24 1     
   13    6    7 ar    
   14    6   25 1     
   15    7    8 1     
   16    8    9 am    
   17    8   26 1     
   18    9   10 2     
   19    9   11 am    
   20   11   12 1     
   21   11   27 1     
   22   12   17 1     
   23   12   13 1     
   24   12   28 1     
   25   13   14 1     
   26   13   29 1     
   27   13   30 1     
   28   14   15 1     
   29   14   31 1     
   30   14   32 1     
   31   15   16 1     
   32   15   33 1     
   33   15   34 1     
   34   16   17 1     
   35   16   35 1     
   36   16   36 1     
   37   17   18 1     
   38   17   37 1     
   39   18   19 1     
   40   18   38 1     
   41   18   39 1     
   42   19   40 1     
   43   10   42 1     
   44   10   43 1     
   45   19   44 1     
   46   19   45 1     
@<TRIPOS>SUBSTRUCTURE
      1 S1             1
@<TRIPOS>SET
LONE_PAIRS      STATIC     ATOMS    <user>   **** ""
4 42 43 44 45
DONOR_HYDROGENS      STATIC     ATOMS    <user>   **** ""
4 41 26 27 40
ATOM$BLUE        STATIC     ATOMS    COLORGROUP SYSTEM
4 42 43 44 45
ATOM$RED        STATIC     ATOMS    COLORGROUP SYSTEM
4 41 26 27 40
