AV-unprocessed.smi:765|AV-procd|sdf|3650|dock7
  -GOLD-   22720 1 53D 1   1.00000     0.00000
 Structure written by MMmdl.
 39 40  0  0  0  0  0  0  0  0  1 V2000
  153.7993  138.5041  154.4787 C   0  0  0  0  0  0  0  0  0  0  0  0
  152.4049  138.6183  155.1095 C   0  0  1  0  0  0  0  0  0  0  0  0
  151.3445  137.8827  154.2703 C   0  0  0  0  0  0  0  0  0  0  0  0
  149.9496  137.9833  154.9044 C   0  0  0  0  0  0  0  0  0  0  0  0
  149.9596  137.4805  156.3596 C   0  0  0  0  0  0  0  0  0  0  0  0
  151.0031  138.2096  157.2346 C   0  0  2  0  0  0  0  0  0  0  0  0
  151.0301  137.5718  158.5644 C   0  0  0  0  0  0  0  0  0  0  0  0
  151.0513  137.0730  159.6084 N   0  0  0  0  0  0  0  0  0  0  0  0
  150.6041  139.6154  157.3423 N   0  0  0  0  0  0  0  0  0  0  0  0
  151.4095  140.6812  157.4865 C   0  0  0  0  0  0  0  0  0  0  0  0
  152.6207  140.5912  157.6879 O   0  0  0  0  0  0  0  0  0  0  0  0
  150.7308  142.0530  157.3421 C   0  0  1  0  0  0  0  0  0  0  0  0
  149.2092  142.0062  157.5904 C   0  0  0  0  0  0  0  0  0  0  0  0
  151.3942  143.0270  158.2034 N   0  0  0  0  0  0  0  0  0  0  0  0
  151.2698  144.4018  158.1853 C   0  0  0  0  0  0  0  0  0  0  0  0
  152.1204  144.9042  159.1277 C   0  0  0  0  0  0  0  0  0  0  0  0
  152.7404  143.7469  159.6745 C   0  0  0  0  0  0  0  0  0  0  0  0
  152.3100  142.6276  159.1169 N   0  0  0  0  0  0  0  0  0  0  0  0
  152.3943  138.0908  156.5608 C   0  0  0  0  0  0  0  0  0  0  0  0
  154.1277  137.4657  154.4243 H   0  0  0  0  0  0  0  0  0  0  0  0
  154.5381  139.0580  155.0584 H   0  0  0  0  0  0  0  0  0  0  0  0
  153.8054  138.9091  153.4664 H   0  0  0  0  0  0  0  0  0  0  0  0
  152.1480  139.6782  155.1248 H   0  0  0  0  0  0  0  0  0  0  0  0
  151.3165  138.2933  153.2602 H   0  0  0  0  0  0  0  0  0  0  0  0
  151.6198  136.8320  154.1680 H   0  0  0  0  0  0  0  0  0  0  0  0
  149.6047  139.0172  154.8678 H   0  0  0  0  0  0  0  0  0  0  0  0
  149.2360  137.4035  154.3184 H   0  0  0  0  0  0  0  0  0  0  0  0
  148.9645  137.5885  156.7932 H   0  0  0  0  0  0  0  0  0  0  0  0
  150.1728  136.4103  156.3611 H   0  0  0  0  0  0  0  0  0  0  0  0
  149.6227  139.8028  157.1988 H   0  0  0  0  0  0  0  0  0  0  0  0
  150.8822  142.3766  156.3110 H   0  0  0  0  0  0  0  0  0  0  0  0
  148.7171  141.3278  156.8927 H   0  0  0  0  0  0  0  0  0  0  0  0
  148.7637  142.9921  157.4546 H   0  0  0  0  0  0  0  0  0  0  0  0
  148.9696  141.6725  158.6008 H   0  0  0  0  0  0  0  0  0  0  0  0
  150.5966  144.9046  157.5068 H   0  0  0  0  0  0  0  0  0  0  0  0
  152.2799  145.9409  159.3842 H   0  0  0  0  0  0  0  0  0  0  0  0
  153.4884  143.6867  160.4513 H   0  0  0  0  0  0  0  0  0  0  0  0
  152.7013  137.0438  156.5614 H   0  0  0  0  0  0  0  0  0  0  0  0
  153.1473  138.6158  157.1493 H   0  0  0  0  0  0  0  0  0  0  0  0
  1  2  1  0  0  0  0
  1 20  1  0  0  0  0
  1 21  1  0  0  0  0
  1 22  1  0  0  0  0
  2 19  1  0  0  0  0
  2  3  1  0  0  0  0
  2 23  1  0  0  0  0
  3  4  1  0  0  0  0
  3 24  1  0  0  0  0
  3 25  1  0  0  0  0
  4  5  1  0  0  0  0
  4 26  1  0  0  0  0
  4 27  1  0  0  0  0
  5  6  1  0  0  0  0
  5 28  1  0  0  0  0
  5 29  1  0  0  0  0
  6  7  1  0  0  0  0
  6  9  1  0  0  0  0
  6 19  1  0  0  0  0
  7  8  3  0  0  0  0
  9 10  1  0  0  0  0
  9 30  1  0  0  0  0
 10 11  2  0  0  0  0
 10 12  1  0  0  0  0
 12 13  1  0  0  0  0
 12 14  1  0  0  0  0
 12 31  1  0  0  0  0
 13 32  1  0  0  0  0
 13 33  1  0  0  0  0
 13 34  1  0  0  0  0
 14 18  1  0  0  0  0
 14 15  1  0  0  0  0
 15 16  2  0  0  0  0
 15 35  1  0  0  0  0
 16 17  1  0  0  0  0
 16 36  1  0  0  0  0
 17 18  2  0  0  0  0
 17 37  1  0  0  0  0
 19 38  1  0  0  0  0
 19 39  1  0  0  0  0
M  END
> <s_m_source_file>
AV-unprocessed.smi

> <i_m_source_file_index>
765

> <i_lp_mmshare_version>
43012

> <i_f3d_flags>
0

> <s_epik_input>
W0NIM11bQ0BASF0oW0NIMl0xKVtDSDJdW0NIMl1bQ0gyXVtDQEBdMShDI04pW05IXUMoPU8pW0NASF0oW0NIM10pbjJbY0hdW2NIXVtjSF1uMg==

> <s_epik_cmdline>
J2VwaWtfcHl0aG9uJywgJy1waCcsICc3LjAnLCAnLXRuJywgJzgnLCAnLW1hJywgJzIwMCcsICctbWV0YWxfYmluZGluZycsICctaW1hZScsICc8aW5maWxlLm1hZT4nLCAnLW9tYWUnLCAnPG91dGZpbGUubWFlPic=

> <r_lp_tautomer_probability>
1

> <r_epik_Ionization_Penalty>
2.71142e-05

> <r_epik_Ionization_Penalty_Charging>
0

> <r_epik_Ionization_Penalty_Neutral>
2.71142e-05

> <r_epik_State_Penalty>
-0

> <r_epik_Charging_Adjusted_Penalty>
0

> <i_epik_Tot_Q>
0

> <i_epik_Tot_abs_Q>
0

> <r_epik_Metal_State_Penalty>
-0

> <b_epik_Metal_Only>
0

> <s_lp_Force_Field>
OPLS_2005

> <r_lp_Energy>
11.0403

> <b_lp_Chiralities_Consistent>
1

> <s_lp_Variant>
AV-unprocessed.smi:765-8

> <Gold.Version>
5.8.1

> <Gold.Id.Protein>
6NUR|6NUR_protein|mol2

> <Gold.PLP.Fitness>
40.6478

> <Gold.PLP.PLP>
-35.1066

> <Gold.PLP.part.hbond>
-2.0000

> <Gold.PLP.part.metal>
0.0000

> <Gold.PLP.part.buried>
-3.1145

> <Gold.PLP.part.nonpolar>
-30.4447

> <Gold.PLP.part.repulsive>
0.0206

> <Gold.PLP.ligand.clash>
0.0000

> <Gold.PLP.ligand.torsion>
1.3782

> <Gold.PLP.Chemscore.Hbond>
1.7301

> <Gold.PLP.Chemscore.CHOScore>
1.0024

> <Gold.PLP.Chemscore.Metal>
0.0000

> <Gold.Chemscore.Hbonds>
donor molecule, donor type, donor heavy atom, donor atom, acceptor molecule, acceptor atom, score
      P1  H  6896  6909       L1     8  1.00
      P1  H  7997  8009       L1    11  0.70
      L1  C    15    35       P1  8028  1.00
      L1  C    15    35       P1  8029  0.01

> <Gold.PLP.Chemscore.Internal.Correction>
0.1001

> <Gold.Rescore>
     Score         DG    S(hbond)    S(metal)    S(lipo)     H(rot)  DE(clash)    DE(int)     intcor
     14.69     -19.41       1.89        0.00      96.08       1.42       0.24       4.48       ----

> <Gold.Chemscore.Fitness>
14.6941

> <Gold.Chemscore.DG>
-19.4124

> <Gold.Chemscore.ZeroCoef>
-5.4800

> <Gold.Chemscore.Hbond>
1.8927

> <Gold.Chemscore.Metal>
0.0000

> <Gold.Chemscore.Lipo>
96.0831

> <Gold.Chemscore.Internal_Hbond>
0.0000

> <Gold.Chemscore.DEClash>
0.2426

> <Gold.Chemscore.DEInternal>
4.4757

> <Gold.Chemscore.Rot>
1.4183

> <Gold.Chemscore.Internal.Correction>
   9.000000E+99

> <Gold.Chemscore.Hbonds>
donor molecule, donor type, donor heavy atom, donor atom, acceptor molecule, acceptor atom, score
      P1  H  6896  6909       L1     8  0.98
      P1  H  7997  8009       L1    11  0.68

> <Gold.Chemscore.Hbond.Weighted>
-6.3216

> <Gold.Chemscore.Metal.Weighted>
-0.0000

> <Gold.Chemscore.Lipo.Weighted>
-11.2417

> <Gold.Chemscore.Internal_Hbond.Weighted>
0.0000

> <Gold.Chemscore.DEClash.Weighted>
0.2426

> <Gold.Chemscore.DEInternal.Weighted>
4.4757

> <Gold.Chemscore.Rot.Weighted>
3.6309

> <Gold.Chemscore.Internal.Correction.Weighted>
   9.000000E+99

> <Gold.Protein.RotatedTorsions>
[ 6907 6896 6895 6894 ] final  109.52 input  -60.11 | X-H torsion
[ 7974 7965 7964 7962 ] final  176.37 input  175.53 | X-H torsion
[ 8008 7997 7996 7995 ] final  174.18 input   59.86 | X-H torsion
[ 10167 10162 10161 10158 ] final -113.89 input  -65.29 | X-H torsion
[ 10718 10713 10712 10709 ] final -169.30 input   66.30 | X-H torsion
[ 10763 10752 10751 10750 ] final  125.04 input  -60.55 | X-H torsion
[ 11005 11000 10999 10996 ] final   -3.27 input  -57.11 | X-H torsion

> <Gold.Protein.ActiveResidues>
 VAL166  LYS551  ARG553  GLY616  TRP617  ASP618  TYR619  PRO620  LYS621  CYS622 
 ASP623  PHE694  ASN695  SER759  ASP760  ASP761  ALA762  ILE779  LEU786  VAL792 
 PHE793  MET794  SER795  GLU796  ALA797  LYS798  CYS799  TRP800  GLU811  SER814 

> <Gold.Protein.RotatedAtoms>
  152.5063  133.8932  159.7404 H   0  0  0  0  0  0  0  0  0  0  0  0  # atno 6907 bound_to 6896
  150.9366  133.6696  159.2806 H   0  0  0  0  0  0  0  0  0  0  0  0  # atno 6908 bound_to 6896
  151.4022  135.0977  159.9612 H   0  0  0  0  0  0  0  0  0  0  0  0  # atno 6909 bound_to 6896
  144.7185  140.0086  143.6440 H   0  0  0  0  0  0  0  0  0  0  0  0  # atno 7974 bound_to 7965
  156.1000  140.1441  156.9480 H   0  0  0  0  0  0  0  0  0  0  0  0  # atno 8008 bound_to 7997
  154.4696  140.0914  156.7156 H   0  0  0  0  0  0  0  0  0  0  0  0  # atno 8009 bound_to 7997
  155.4776  140.3444  155.4337 H   0  0  0  0  0  0  0  0  0  0  0  0  # atno 8010 bound_to 7997
  140.1069  143.4562  152.1777 H   0  0  0  0  0  0  0  0  0  0  0  0  # atno 10167 bound_to 10162
  156.7095  130.9228  151.3088 H   0  0  0  0  0  0  0  0  0  0  0  0  # atno 10718 bound_to 10713
  153.6710  135.3330  155.3153 H   0  0  0  0  0  0  0  0  0  0  0  0  # atno 10763 bound_to 10752
  154.8491  135.4386  154.1705 H   0  0  0  0  0  0  0  0  0  0  0  0  # atno 10764 bound_to 10752
  153.2696  135.6999  153.7570 H   0  0  0  0  0  0  0  0  0  0  0  0  # atno 10765 bound_to 10752
  140.6675  133.9266  155.8474 H   0  0  0  0  0  0  0  0  0  0  0  0  # atno 11005 bound_to 11000
  146.0277  139.3307  143.0774 LP  0  0  0  0  0  0  0  0  0  0  0  0  # atno 17320 bound_to 7965
  145.8491  140.9539  143.0759 LP  0  0  0  0  0  0  0  0  0  0  0  0  # atno 17321 bound_to 7965
  139.5640  144.7424  151.4073 LP  0  0  0  0  0  0  0  0  0  0  0  0  # atno 17342 bound_to 10162
  140.6947  143.7777  150.7308 LP  0  0  0  0  0  0  0  0  0  0  0  0  # atno 17343 bound_to 10162
  157.6941  130.9264  150.0596 LP  0  0  0  0  0  0  0  0  0  0  0  0  # atno 17370 bound_to 10713
  156.1671  130.3645  149.9217 LP  0  0  0  0  0  0  0  0  0  0  0  0  # atno 17371 bound_to 10713
  141.0418  134.0611  157.3893 LP  0  0  0  0  0  0  0  0  0  0  0  0  # atno 17394 bound_to 11000
  139.8992  135.0158  156.7186 LP  0  0  0  0  0  0  0  0  0  0  0  0  # atno 17395 bound_to 11000

$$$$
