AV-unprocessed.smi:1695|AV-procd|sdf|6792|dock1
  -GOLD-   22720 7553D 1   1.00000     0.00000
 Structure written by MMmdl.
 51 53  0  0  0  0  0  0  0  0  2 V2000
  150.4156  145.2621  159.8532 C   0  0  0  0  0  0  0  0  0  0  0  0
  151.3579  144.1006  160.1154 C   0  0  0  0  0  0  0  0  0  0  0  0
  152.0061  144.0105  161.3676 C   0  0  0  0  0  0  0  0  0  0  0  0
  152.8898  142.9462  161.6508 C   0  0  0  0  0  0  0  0  0  0  0  0
  153.6200  142.6646  162.7925 N   0  0  0  0  0  0  0  0  0  0  0  0
  154.2430  141.5440  162.4422 C   0  0  0  0  0  0  0  0  0  0  0  0
  154.0149  141.0715  161.2011 N   0  0  0  0  0  0  0  0  0  0  0  0
  154.5866  139.8766  160.6003 C   0  0  0  0  0  0  0  0  0  0  0  0
  156.1233  139.7834  160.7326 C   0  0  1  0  0  0  0  0  0  0  0  0
  156.7050  140.9435  160.1697 O   0  0  0  0  0  0  0  0  0  0  0  0
  156.6037  139.6442  162.1950 C   0  0  0  0  0  0  0  0  0  0  0  0
  156.3859  138.2831  162.7487 N   0  3  1  0  0  0  0  0  0  0  0  0
  157.1171  138.0701  164.0243 C   0  0  0  0  0  0  0  0  0  0  0  0
  156.9980  136.6107  164.4938 C   0  0  0  0  0  0  0  0  0  0  0  0
  155.5231  136.1912  164.6475 C   0  0  2  0  0  0  0  0  0  0  0  0
  155.4093  134.7153  165.0522 C   0  0  0  0  0  0  0  0  0  0  0  0
  154.9347  134.4506  166.2720 N   0  0  0  0  0  0  0  0  0  0  0  0
  155.7459  133.8243  164.2744 O   0  0  0  0  0  0  0  0  0  0  0  0
  154.7830  136.4617  163.3233 C   0  0  0  0  0  0  0  0  0  0  0  0
  154.9488  137.9256  162.8837 C   0  0  0  0  0  0  0  0  0  0  0  0
  153.1108  141.9670  160.6383 C   0  0  0  0  0  0  0  0  0  0  0  0
  152.4691  142.0447  159.3897 C   0  0  0  0  0  0  0  0  0  0  0  0
  151.5894  143.1145  159.1231 C   0  0  0  0  0  0  0  0  0  0  0  0
  150.9036  143.1898  157.7705 C   0  0  0  0  0  0  0  0  0  0  0  0
  150.3565  145.9299  160.7132 H   0  0  0  0  0  0  0  0  0  0  0  0
  149.4098  144.8980  159.6426 H   0  0  0  0  0  0  0  0  0  0  0  0
  150.7586  145.8472  158.9996 H   0  0  0  0  0  0  0  0  0  0  0  0
  151.8283  144.7602  162.1247 H   0  0  0  0  0  0  0  0  0  0  0  0
  154.9119  141.0409  163.1249 H   0  0  0  0  0  0  0  0  0  0  0  0
  154.1262  139.0081  161.0733 H   0  0  0  0  0  0  0  0  0  0  0  0
  154.2920  139.8411  159.5504 H   0  0  0  0  0  0  0  0  0  0  0  0
  156.4500  138.9318  160.1375 H   0  0  0  0  0  0  0  0  0  0  0  0
  157.6445  140.8908  160.2551 H   0  0  0  0  0  0  0  0  0  0  0  0
  157.6662  139.8897  162.2381 H   0  0  0  0  0  0  0  0  0  0  0  0
  156.0997  140.3721  162.8329 H   0  0  0  0  0  0  0  0  0  0  0  0
  158.1718  138.3143  163.8917 H   0  0  0  0  0  0  0  0  0  0  0  0
  156.7281  138.7469  164.7869 H   0  0  0  0  0  0  0  0  0  0  0  0
  157.5041  135.9623  163.7763 H   0  0  0  0  0  0  0  0  0  0  0  0
  157.5230  136.4891  165.4423 H   0  0  0  0  0  0  0  0  0  0  0  0
  155.0688  136.8038  165.4286 H   0  0  0  0  0  0  0  0  0  0  0  0
  154.8414  133.4953  166.5853 H   0  0  0  0  0  0  0  0  0  0  0  0
  154.6697  135.2119  166.8807 H   0  0  0  0  0  0  0  0  0  0  0  0
  155.1596  135.8061  162.5359 H   0  0  0  0  0  0  0  0  0  0  0  0
  153.7220  136.2328  163.4339 H   0  0  0  0  0  0  0  0  0  0  0  0
  154.4738  138.5894  163.6081 H   0  0  0  0  0  0  0  0  0  0  0  0
  154.4271  138.0706  161.9386 H   0  0  0  0  0  0  0  0  0  0  0  0
  152.6546  141.2874  158.6423 H   0  0  0  0  0  0  0  0  0  0  0  0
  151.1956  142.3570  157.1301 H   0  0  0  0  0  0  0  0  0  0  0  0
  151.1695  144.1144  157.2577 H   0  0  0  0  0  0  0  0  0  0  0  0
  149.8203  143.1571  157.8888 H   0  0  0  0  0  0  0  0  0  0  0  0
  156.7921  137.6387  162.0855 H   0  0  0  0  0  0  0  0  0  0  0  0
  1  2  1  0  0  0  0
  1 25  1  0  0  0  0
  1 26  1  0  0  0  0
  1 27  1  0  0  0  0
  2 23  1  0  0  0  0
  2  3  2  0  0  0  0
  3  4  1  0  0  0  0
  3 28  1  0  0  0  0
  4 21  2  0  0  0  0
  4  5  1  0  0  0  0
  5  6  2  0  0  0  0
  6  7  1  0  0  0  0
  6 29  1  0  0  0  0
  7  8  1  0  0  0  0
  7 21  1  0  0  0  0
  8  9  1  0  0  0  0
  8 30  1  0  0  0  0
  8 31  1  0  0  0  0
  9 10  1  0  0  0  0
  9 11  1  0  0  0  0
  9 32  1  0  0  0  0
 10 33  1  0  0  0  0
 11 12  1  0  0  0  0
 11 34  1  0  0  0  0
 11 35  1  0  0  0  0
 12 20  1  0  0  0  0
 12 13  1  0  0  0  0
 12 51  1  0  0  0  0
 13 14  1  0  0  0  0
 13 36  1  0  0  0  0
 13 37  1  0  0  0  0
 14 15  1  0  0  0  0
 14 38  1  0  0  0  0
 14 39  1  0  0  0  0
 15 16  1  0  0  0  0
 15 19  1  0  0  0  0
 15 40  1  0  0  0  0
 16 17  1  0  0  0  0
 16 18  2  0  0  0  0
 17 41  1  0  0  0  0
 17 42  1  0  0  0  0
 19 20  1  0  0  0  0
 19 43  1  0  0  0  0
 19 44  1  0  0  0  0
 20 45  1  0  0  0  0
 20 46  1  0  0  0  0
 21 22  1  0  0  0  0
 22 23  2  0  0  0  0
 22 47  1  0  0  0  0
 23 24  1  0  0  0  0
 24 48  1  0  0  0  0
 24 49  1  0  0  0  0
 24 50  1  0  0  0  0
M  CHG  1  12   1
M  END
> <s_m_source_file>
AV-unprocessed.smi

> <i_m_source_file_index>
1695

> <i_lp_mmshare_version>
43012

> <i_f3d_flags>
0

> <s_epik_input>
W0NIM11jKFtjSF0xKWMoW0NIM10pW2NIXWMoYzEyKW4oW2NIXW4yKVtDSDJdW0NASF0oW09IXSlbQ0gyXU4zW0NIMl1bQ0gyXVtDSF0oQyg9TylbTkgyXSlbQ0gyXVtDSDJdMw==

> <s_epik_cmdline>
J2VwaWtfcHl0aG9uJywgJy1waCcsICc3LjAnLCAnLXRuJywgJzgnLCAnLW1hJywgJzIwMCcsICctbWV0YWxfYmluZGluZycsICctaW1hZScsICc8aW5maWxlLm1hZT4nLCAnLW9tYWUnLCAnPG91dGZpbGUubWFlPic=

> <r_epik_Ionization_Penalty>
0.113899

> <r_epik_Ionization_Penalty_Charging>
0.0258844

> <r_epik_Ionization_Penalty_Neutral>
0.0880147

> <r_epik_State_Penalty>
0.0974403

> <r_epik_Charging_Adjusted_Penalty>
0.123325

> <i_epik_Tot_Q>
1

> <i_epik_Tot_abs_Q>
1

> <r_epik_Metal_State_Penalty>
0.0851148

> <b_epik_Metal_Only>
0

> <s_lp_Force_Field>
OPLS_2005

> <r_lp_Energy>
20.1405

> <b_lp_Chiralities_Consistent>
1

> <s_lp_Variant>
AV-unprocessed.smi:1695-4

> <Gold.Version>
5.8.1

> <Gold.Id.Protein>
6NUR|6NUR_protein|mol2

> <Gold.PLP.Fitness>
52.7512

> <Gold.PLP.PLP>
-53.3167

> <Gold.PLP.part.hbond>
-2.0000

> <Gold.PLP.part.metal>
0.0000

> <Gold.PLP.part.buried>
-5.5509

> <Gold.PLP.part.nonpolar>
-45.5880

> <Gold.PLP.part.repulsive>
0.1591

> <Gold.PLP.ligand.clash>
0.0000

> <Gold.PLP.ligand.torsion>
0.3725

> <Gold.PLP.Chemscore.Hbond>
0.0000

> <Gold.PLP.Chemscore.CHOScore>
0.0000

> <Gold.PLP.Chemscore.Metal>
0.0000

> <Gold.PLP.Chemscore.Internal.Correction>
0.1795

> <Gold.Rescore>
     Score         DG    S(hbond)    S(metal)    S(lipo)     H(rot)  DE(clash)    DE(int)     intcor
     12.20     -14.25       0.00        0.00     137.23       2.85       1.53       0.52       ----

> <Gold.Chemscore.Fitness>
12.1965

> <Gold.Chemscore.DG>
-14.2494

> <Gold.Chemscore.ZeroCoef>
-5.4800

> <Gold.Chemscore.Hbond>
0.0000

> <Gold.Chemscore.Metal>
0.0000

> <Gold.Chemscore.Lipo>
137.2315

> <Gold.Chemscore.Internal_Hbond>
0.0000

> <Gold.Chemscore.DEClash>
1.5340

> <Gold.Chemscore.DEInternal>
0.5189

> <Gold.Chemscore.Rot>
2.8464

> <Gold.Chemscore.Internal.Correction>
   9.000000E+99

> <Gold.Chemscore.Hbond.Weighted>
-0.0000

> <Gold.Chemscore.Metal.Weighted>
-0.0000

> <Gold.Chemscore.Lipo.Weighted>
-16.0561

> <Gold.Chemscore.Internal_Hbond.Weighted>
0.0000

> <Gold.Chemscore.DEClash.Weighted>
1.5340

> <Gold.Chemscore.DEInternal.Weighted>
0.5189

> <Gold.Chemscore.Rot.Weighted>
7.2867

> <Gold.Chemscore.Internal.Correction.Weighted>
   9.000000E+99

> <Gold.Protein.RotatedTorsions>
[ 6907 6896 6895 6894 ] final  -40.63 input  -60.11 | X-H torsion
[ 7974 7965 7964 7962 ] final  162.09 input  175.53 | X-H torsion
[ 8008 7997 7996 7995 ] final  125.06 input   59.86 | X-H torsion
[ 10167 10162 10161 10158 ] final  -10.18 input  -65.29 | X-H torsion
[ 10718 10713 10712 10709 ] final  -15.58 input   66.30 | X-H torsion
[ 10763 10752 10751 10750 ] final  -31.28 input  -60.55 | X-H torsion
[ 11005 11000 10999 10996 ] final -104.65 input  -57.11 | X-H torsion

> <Gold.Protein.ActiveResidues>
 VAL166  LYS551  ARG553  GLY616  TRP617  ASP618  TYR619  PRO620  LYS621  CYS622 
 ASP623  PHE694  ASN695  SER759  ASP760  ASP761  ALA762  ILE779  LEU786  VAL792 
 PHE793  MET794  SER795  GLU796  ALA797  LYS798  CYS799  TRP800  GLU811  SER814 

> <Gold.Protein.RotatedAtoms>
  150.9762  134.9126  159.7817 H   0  0  0  0  0  0  0  0  0  0  0  0  # atno 6907 bound_to 6896
  152.5207  134.3473  159.9248 H   0  0  0  0  0  0  0  0  0  0  0  0  # atno 6908 bound_to 6896
  151.3481  133.3895  159.2712 H   0  0  0  0  0  0  0  0  0  0  0  0  # atno 6909 bound_to 6896
  144.7653  139.7991  143.6317 H   0  0  0  0  0  0  0  0  0  0  0  0  # atno 7974 bound_to 7965
  156.2822  140.2725  156.1888 H   0  0  0  0  0  0  0  0  0  0  0  0  # atno 8008 bound_to 7997
  155.0480  140.0386  157.2551 H   0  0  0  0  0  0  0  0  0  0  0  0  # atno 8009 bound_to 7997
  154.7219  140.2689  155.6539 H   0  0  0  0  0  0  0  0  0  0  0  0  # atno 8010 bound_to 7997
  140.7107  143.5776  150.9026 H   0  0  0  0  0  0  0  0  0  0  0  0  # atno 10167 bound_to 10162
  156.5998  130.4821  149.6244 H   0  0  0  0  0  0  0  0  0  0  0  0  # atno 10718 bound_to 10713
  153.7947  135.6895  153.4865 H   0  0  0  0  0  0  0  0  0  0  0  0  # atno 10763 bound_to 10752
  153.1726  135.4536  154.9922 H   0  0  0  0  0  0  0  0  0  0  0  0  # atno 10764 bound_to 10752
  154.8030  135.3345  154.7441 H   0  0  0  0  0  0  0  0  0  0  0  0  # atno 10765 bound_to 10752
  141.1090  133.8741  157.1637 H   0  0  0  0  0  0  0  0  0  0  0  0  # atno 11005 bound_to 11000
  146.1755  139.4924  142.9900 LP  0  0  0  0  0  0  0  0  0  0  0  0  # atno 17320 bound_to 7965
  145.6489  141.0268  143.1771 LP  0  0  0  0  0  0  0  0  0  0  0  0  # atno 17321 bound_to 7965
  139.9502  143.6281  152.3031 LP  0  0  0  0  0  0  0  0  0  0  0  0  # atno 17342 bound_to 10162
  139.6796  144.7656  151.1632 LP  0  0  0  0  0  0  0  0  0  0  0  0  # atno 17343 bound_to 10162
  156.2479  130.6890  151.1617 LP  0  0  0  0  0  0  0  0  0  0  0  0  # atno 17370 bound_to 10713
  157.7282  131.0633  150.5829 LP  0  0  0  0  0  0  0  0  0  0  0  0  # atno 17371 bound_to 10713
  139.9974  135.0041  157.0114 LP  0  0  0  0  0  0  0  0  0  0  0  0  # atno 17394 bound_to 11000
  140.4825  134.1275  155.7219 LP  0  0  0  0  0  0  0  0  0  0  0  0  # atno 17395 bound_to 11000

$$$$
