AV-unprocessed.smi:51|AV-procd|sdf|499|dock3
  -GOLD-   2262016373D 1   1.00000     0.00000
 Structure written by MMmdl.
 25 26  0  0  0  0  0  0  0  0  2 V2000
  153.0125  136.5657  156.5449 O   0  0  0  0  0  0  0  0  0  0  0  0
  152.8897  137.7170  157.0166 C   0  0  0  0  0  0  0  0  0  0  0  0
  153.7476  138.3126  157.7064 O   0  5  0  0  0  0  0  0  0  0  0  0
  151.5701  138.4453  156.7292 C   0  0  2  0  0  0  0  0  0  0  0  0
  150.6968  137.7243  155.6834 C   0  0  0  0  0  0  0  0  0  0  0  0
  150.9229  138.5282  154.4047 C   0  0  1  0  0  0  0  0  0  0  0  0
  149.8416  138.4280  153.5019 O   0  0  0  0  0  0  0  0  0  0  0  0
  151.1076  139.9454  154.9416 C   0  0  0  0  0  0  0  0  0  0  0  0
  151.8501  139.7737  156.1826 N   0  0  0  0  0  0  0  0  0  0  0  0
  151.7746  140.8381  157.0916 C   0  0  0  0  0  0  0  0  0  0  0  0
  152.4854  140.7682  158.3078 C   0  0  0  0  0  0  0  0  0  0  0  0
  152.3599  141.8725  159.1739 C   0  0  0  0  0  0  0  0  0  0  0  0
  151.6032  142.9449  158.8552 N   0  0  0  0  0  0  0  0  0  0  0  0
  150.9746  142.9060  157.6776 C   0  0  0  0  0  0  0  0  0  0  0  0
  151.0187  141.9187  156.7801 N   0  0  0  0  0  0  0  0  0  0  0  0
  151.0148  138.5149  157.6661 H   0  0  0  0  0  0  0  0  0  0  0  0
  150.9327  136.6661  155.5614 H   0  0  0  0  0  0  0  0  0  0  0  0
  149.6515  137.7918  155.9894 H   0  0  0  0  0  0  0  0  0  0  0  0
  151.8388  138.1943  153.9147 H   0  0  0  0  0  0  0  0  0  0  0  0
  149.9488  139.0888  152.8352 H   0  0  0  0  0  0  0  0  0  0  0  0
  151.6555  140.5730  154.2381 H   0  0  0  0  0  0  0  0  0  0  0  0
  150.1406  140.4149  155.1311 H   0  0  0  0  0  0  0  0  0  0  0  0
  153.0893  139.9105  158.5655 H   0  0  0  0  0  0  0  0  0  0  0  0
  152.8701  141.8960  160.1253 H   0  0  0  0  0  0  0  0  0  0  0  0
  150.3701  143.7639  157.4232 H   0  0  0  0  0  0  0  0  0  0  0  0
  1  2  2  0  0  0  0
  2  3  1  0  0  0  0
  2  4  1  0  0  0  0
  4  9  1  0  0  0  0
  4  5  1  0  0  0  0
  4 16  1  0  0  0  0
  5  6  1  0  0  0  0
  5 17  1  0  0  0  0
  5 18  1  0  0  0  0
  6  7  1  0  0  0  0
  6  8  1  0  0  0  0
  6 19  1  0  0  0  0
  7 20  1  0  0  0  0
  8  9  1  0  0  0  0
  8 21  1  0  0  0  0
  8 22  1  0  0  0  0
  9 10  1  0  0  0  0
 10 15  1  0  0  0  0
 10 11  2  0  0  0  0
 11 12  1  0  0  0  0
 11 23  1  0  0  0  0
 12 13  2  0  0  0  0
 12 24  1  0  0  0  0
 13 14  1  0  0  0  0
 14 15  2  0  0  0  0
 14 25  1  0  0  0  0
M  CHG  1   3  -1
M  END
> <s_m_source_file>
AV-unprocessed.smi

> <i_m_source_file_index>
51

> <i_lp_mmshare_version>
43012

> <i_f3d_flags>
0

> <s_epik_input>
Tz1DKFtPSF0pW0NAQEhdMVtDSDJdW0NAQEhdKFtPSF0pW0NIMl1OMWMyW2NIXVtjSF1uW2NIXW4y

> <s_epik_cmdline>
J2VwaWtfcHl0aG9uJywgJy1waCcsICc3LjAnLCAnLXRuJywgJzgnLCAnLW1hJywgJzIwMCcsICctbWV0YWxfYmluZGluZycsICctaW1hZScsICc8aW5maWxlLm1hZT4nLCAnLW9tYWUnLCAnPG91dGZpbGUubWFlPic=

> <r_lp_tautomer_probability>
1

> <r_epik_Ionization_Penalty>
0.225251

> <r_epik_Ionization_Penalty_Charging>
0.000248217

> <r_epik_Ionization_Penalty_Neutral>
0.225002

> <r_epik_State_Penalty>
0.21284

> <r_epik_Charging_Adjusted_Penalty>
0.213088

> <i_epik_Tot_Q>
-1

> <i_epik_Tot_abs_Q>
1

> <r_epik_Metal_State_Penalty>
0.154111

> <b_epik_Metal_Only>
0

> <s_lp_Force_Field>
OPLS_2005

> <r_lp_Energy>
17.878

> <b_lp_Chiralities_Consistent>
1

> <s_lp_Variant>
AV-unprocessed.smi:51-1

> <Gold.Version>
5.8.1

> <Gold.Id.Protein>
6NUR|6NUR_protein|mol2

> <Gold.PLP.Fitness>
38.7850

> <Gold.PLP.PLP>
-21.1990

> <Gold.PLP.part.hbond>
-4.0000

> <Gold.PLP.part.metal>
0.0000

> <Gold.PLP.part.buried>
-2.2641

> <Gold.PLP.part.nonpolar>
-14.3999

> <Gold.PLP.part.repulsive>
0.0908

> <Gold.PLP.ligand.clash>
0.0000

> <Gold.PLP.ligand.torsion>
0.2326

> <Gold.PLP.Chemscore.Hbond>
4.9840

> <Gold.PLP.Chemscore.CHOScore>
1.0000

> <Gold.PLP.Chemscore.Metal>
0.0000

> <Gold.Chemscore.Hbonds>
donor molecule, donor type, donor heavy atom, donor atom, acceptor molecule, acceptor atom, score
      L1  H     7    20       P1  7957  1.00
      P1  H  7997  8010       L1     3  2.00
      P1  H 10752 10763       L1     1  2.00
      L1  C    14    25       P1  8028  1.00

> <Gold.PLP.Chemscore.Internal.Correction>
0.0992

> <Gold.Rescore>
     Score         DG    S(hbond)    S(metal)    S(lipo)     H(rot)  DE(clash)    DE(int)     intcor
     11.83     -13.98       2.81        0.00      41.12       2.23       0.68       1.48       ----

> <Gold.Chemscore.Fitness>
11.8272

> <Gold.Chemscore.DG>
-13.9820

> <Gold.Chemscore.ZeroCoef>
-5.4800

> <Gold.Chemscore.Hbond>
2.8132

> <Gold.Chemscore.Metal>
0.0000

> <Gold.Chemscore.Lipo>
41.1185

> <Gold.Chemscore.Internal_Hbond>
0.0000

> <Gold.Chemscore.DEClash>
0.6789

> <Gold.Chemscore.DEInternal>
1.4759

> <Gold.Chemscore.Rot>
2.2285

> <Gold.Chemscore.Internal.Correction>
   9.000000E+99

> <Gold.Chemscore.Hbonds>
donor molecule, donor type, donor heavy atom, donor atom, acceptor molecule, acceptor atom, score
      L1  H     7    20       P1  7957  0.86
      P1  H  7997  8010       L1     3  0.89
      P1  H 10752 10763       L1     1  0.94

> <Gold.Chemscore.Hbond.Weighted>
-9.3961

> <Gold.Chemscore.Metal.Weighted>
-0.0000

> <Gold.Chemscore.Lipo.Weighted>
-4.8109

> <Gold.Chemscore.Internal_Hbond.Weighted>
0.0000

> <Gold.Chemscore.DEClash.Weighted>
0.6789

> <Gold.Chemscore.DEInternal.Weighted>
1.4759

> <Gold.Chemscore.Rot.Weighted>
5.7050

> <Gold.Chemscore.Internal.Correction.Weighted>
   9.000000E+99

> <Gold.Protein.RotatedTorsions>
[ 6907 6896 6895 6894 ] final  -83.52 input  -60.11 | X-H torsion
[ 7974 7965 7964 7962 ] final  163.23 input  175.53 | X-H torsion
[ 8008 7997 7996 7995 ] final   31.87 input   59.86 | X-H torsion
[ 10167 10162 10161 10158 ] final  167.47 input  -65.29 | X-H torsion
[ 10718 10713 10712 10709 ] final  -80.87 input   66.30 | X-H torsion
[ 10763 10752 10751 10750 ] final  112.28 input  -60.55 | X-H torsion
[ 11005 11000 10999 10996 ] final  -71.45 input  -57.11 | X-H torsion

> <Gold.Protein.ActiveResidues>
 VAL166  LYS551  ARG553  GLY616  TRP617  ASP618  TYR619  PRO620  LYS621  CYS622 
 ASP623  PHE694  ASN695  SER759  ASP760  ASP761  ALA762  ILE779  LEU786  VAL792 
 PHE793  MET794  SER795  GLU796  ALA797  LYS798  CYS799  TRP800  GLU811  SER814 

> <Gold.Protein.RotatedAtoms>
  150.6885  134.3499  159.4904 H   0  0  0  0  0  0  0  0  0  0  0  0  # atno 6907 bound_to 6896
  152.1342  134.9109  160.0566 H   0  0  0  0  0  0  0  0  0  0  0  0  # atno 6908 bound_to 6896
  152.0267  133.3886  159.4317 H   0  0  0  0  0  0  0  0  0  0  0  0  # atno 6909 bound_to 6896
  144.7599  139.8153  143.6336 H   0  0  0  0  0  0  0  0  0  0  0  0  # atno 7974 bound_to 7965
  155.1134  140.3241  155.4516 H   0  0  0  0  0  0  0  0  0  0  0  0  # atno 8008 bound_to 7997
  156.2684  140.2040  156.6206 H   0  0  0  0  0  0  0  0  0  0  0  0  # atno 8009 bound_to 7997
  154.6738  140.0533  157.0181 H   0  0  0  0  0  0  0  0  0  0  0  0  # atno 8010 bound_to 7997
  139.4946  144.3918  151.9508 H   0  0  0  0  0  0  0  0  0  0  0  0  # atno 10167 bound_to 10162
  156.0061  130.4587  150.3866 H   0  0  0  0  0  0  0  0  0  0  0  0  # atno 10718 bound_to 10713
  153.4755  135.3691  155.2414 H   0  0  0  0  0  0  0  0  0  0  0  0  # atno 10763 bound_to 10752
  154.8756  135.3942  154.3761 H   0  0  0  0  0  0  0  0  0  0  0  0  # atno 10764 bound_to 10752
  153.4356  135.7083  153.6267 H   0  0  0  0  0  0  0  0  0  0  0  0  # atno 10765 bound_to 10752
  141.1592  133.6818  156.6908 H   0  0  0  0  0  0  0  0  0  0  0  0  # atno 11005 bound_to 11000
  146.1651  139.4779  142.9963 LP  0  0  0  0  0  0  0  0  0  0  0  0  # atno 17320 bound_to 7965
  145.6654  141.0230  143.1686 LP  0  0  0  0  0  0  0  0  0  0  0  0  # atno 17321 bound_to 7965
  140.3356  144.3265  150.5978 LP  0  0  0  0  0  0  0  0  0  0  0  0  # atno 17342 bound_to 10162
  140.5609  143.2192  151.7767 LP  0  0  0  0  0  0  0  0  0  0  0  0  # atno 17343 bound_to 10162
  157.1942  131.0422  151.2684 LP  0  0  0  0  0  0  0  0  0  0  0  0  # atno 17370 bound_to 10713
  157.4033  130.7345  149.6784 LP  0  0  0  0  0  0  0  0  0  0  0  0  # atno 17371 bound_to 10713
  140.3032  134.8147  157.4115 LP  0  0  0  0  0  0  0  0  0  0  0  0  # atno 17394 bound_to 11000
  140.1244  134.5178  155.8157 LP  0  0  0  0  0  0  0  0  0  0  0  0  # atno 17395 bound_to 11000

$$$$
