AV-unprocessed.smi:1033|AV-procd|sdf|4500|dock9
  -GOLD-   22720 2493D 1   1.00000     0.00000
 Structure written by MMmdl.
 57 59  0  0  0  0  0  0  0  0  3 V2000
  152.2715  143.3159  160.1400 C   0  0  0  0  0  0  0  0  0  0  0  0
  151.9024  142.3395  159.0361 C   0  0  0  0  0  0  0  0  0  0  0  0
  151.0872  142.7963  157.9762 C   0  0  0  0  0  0  0  0  0  0  0  0
  150.7654  141.8792  156.9827 C   0  0  0  0  0  0  0  0  0  0  0  0
  149.9935  142.0172  155.8274 N   0  3  0  0  0  0  0  0  0  0  0  0
  149.9632  140.8327  155.1565 C   0  0  0  0  0  0  0  0  0  0  0  0
  150.7029  139.9382  155.8675 N   0  0  0  0  0  0  0  0  0  0  0  0
  150.9983  138.5271  155.5781 C   0  0  0  0  0  0  0  0  0  0  0  0
  149.9988  137.8932  154.5905 C   0  0  2  0  0  0  0  0  0  0  0  0
  150.1807  138.4561  153.3058 O   0  0  0  0  0  0  0  0  0  0  0  0
  148.5400  138.1300  155.0310 C   0  0  0  0  0  0  0  0  0  0  0  0
  147.5502  137.5012  154.1194 N   0  3  0  0  0  0  0  0  0  0  0  0
  146.5563  138.4788  153.6049 C   0  0  0  0  0  0  0  0  0  0  0  0
  145.5907  137.7980  152.6128 C   0  0  0  0  0  0  0  0  0  0  0  0
  144.8950  136.6446  153.1828 N   0  0  0  0  0  0  0  0  0  0  0  0
  143.8722  137.0281  154.1670 C   0  0  0  0  0  0  0  0  0  0  0  0
  142.6367  136.1064  154.2813 C   0  0  1  0  0  0  0  0  0  0  0  0
  141.9156  135.8326  152.9522 C   0  0  0  0  0  0  0  0  0  0  0  0
  142.9749  134.8926  154.9208 O   0  0  0  0  0  0  0  0  0  0  0  0
  145.8993  135.6982  153.6743 C   0  0  0  0  0  0  0  0  0  0  0  0
  146.8671  136.3155  154.7029 C   0  0  0  0  0  0  0  0  0  0  0  0
  151.2253  140.5480  157.0152 C   0  0  0  0  0  0  0  0  0  0  0  0
  152.0297  140.0821  158.0530 C   0  0  0  0  0  0  0  0  0  0  0  0
  152.3677  140.9994  159.0738 C   0  0  0  0  0  0  0  0  0  0  0  0
  153.2423  140.5187  160.2193 C   0  0  0  0  0  0  0  0  0  0  0  0
  151.8173  144.2937  159.9762 H   0  0  0  0  0  0  0  0  0  0  0  0
  153.3521  143.4538  160.1837 H   0  0  0  0  0  0  0  0  0  0  0  0
  151.9295  142.9486  161.1077 H   0  0  0  0  0  0  0  0  0  0  0  0
  150.7297  143.8151  157.9406 H   0  0  0  0  0  0  0  0  0  0  0  0
  149.4474  140.6399  154.2265 H   0  0  0  0  0  0  0  0  0  0  0  0
  152.0040  138.4945  155.1566 H   0  0  0  0  0  0  0  0  0  0  0  0
  151.0444  137.9684  156.5134 H   0  0  0  0  0  0  0  0  0  0  0  0
  150.2098  136.8263  154.5270 H   0  0  0  0  0  0  0  0  0  0  0  0
  149.8700  137.8392  152.6603 H   0  0  0  0  0  0  0  0  0  0  0  0
  148.3803  137.7568  156.0437 H   0  0  0  0  0  0  0  0  0  0  0  0
  148.3636  139.2062  155.0732 H   0  0  0  0  0  0  0  0  0  0  0  0
  146.0101  138.9269  154.4360 H   0  0  0  0  0  0  0  0  0  0  0  0
  147.0752  139.2921  153.0965 H   0  0  0  0  0  0  0  0  0  0  0  0
  144.8654  138.5240  152.2440 H   0  0  0  0  0  0  0  0  0  0  0  0
  146.1557  137.4743  151.7375 H   0  0  0  0  0  0  0  0  0  0  0  0
  144.3126  137.1732  155.1533 H   0  0  0  0  0  0  0  0  0  0  0  0
  143.4936  138.0098  153.8790 H   0  0  0  0  0  0  0  0  0  0  0  0
  141.9261  136.5969  154.9472 H   0  0  0  0  0  0  0  0  0  0  0  0
  141.6346  136.7653  152.4624 H   0  0  0  0  0  0  0  0  0  0  0  0
  141.0031  135.2582  153.1150 H   0  0  0  0  0  0  0  0  0  0  0  0
  142.5399  135.2669  152.2601 H   0  0  0  0  0  0  0  0  0  0  0  0
  142.5323  134.1851  154.4773 H   0  0  0  0  0  0  0  0  0  0  0  0
  145.4208  134.8147  154.0935 H   0  0  0  0  0  0  0  0  0  0  0  0
  146.4803  135.3319  152.8267 H   0  0  0  0  0  0  0  0  0  0  0  0
  147.5990  135.5612  154.9886 H   0  0  0  0  0  0  0  0  0  0  0  0
  146.3373  136.5968  155.6137 H   0  0  0  0  0  0  0  0  0  0  0  0
  152.3824  139.0620  158.0866 H   0  0  0  0  0  0  0  0  0  0  0  0
  153.5339  139.4761  160.0891 H   0  0  0  0  0  0  0  0  0  0  0  0
  152.7096  140.5997  161.1671 H   0  0  0  0  0  0  0  0  0  0  0  0
  154.1541  141.1130  160.2816 H   0  0  0  0  0  0  0  0  0  0  0  0
  148.0676  137.1774  153.3142 H   0  0  0  0  0  0  0  0  0  0  0  0
  149.5240  142.8579  155.5155 H   0  0  0  0  0  0  0  0  0  0  0  0
  1  2  1  0  0  0  0
  1 26  1  0  0  0  0
  1 27  1  0  0  0  0
  1 28  1  0  0  0  0
  2 24  1  0  0  0  0
  2  3  2  0  0  0  0
  3  4  1  0  0  0  0
  3 29  1  0  0  0  0
  4 22  2  0  0  0  0
  4  5  1  0  0  0  0
  5  6  2  0  0  0  0
  5 57  1  0  0  0  0
  6  7  1  0  0  0  0
  6 30  1  0  0  0  0
  7  8  1  0  0  0  0
  7 22  1  0  0  0  0
  8  9  1  0  0  0  0
  8 31  1  0  0  0  0
  8 32  1  0  0  0  0
  9 10  1  0  0  0  0
  9 11  1  0  0  0  0
  9 33  1  0  0  0  0
 10 34  1  0  0  0  0
 11 12  1  0  0  0  0
 11 35  1  0  0  0  0
 11 36  1  0  0  0  0
 12 21  1  0  0  0  0
 12 13  1  0  0  0  0
 12 56  1  0  0  0  0
 13 14  1  0  0  0  0
 13 37  1  0  0  0  0
 13 38  1  0  0  0  0
 14 15  1  0  0  0  0
 14 39  1  0  0  0  0
 14 40  1  0  0  0  0
 15 16  1  0  0  0  0
 15 20  1  0  0  0  0
 16 17  1  0  0  0  0
 16 41  1  0  0  0  0
 16 42  1  0  0  0  0
 17 18  1  0  0  0  0
 17 19  1  0  0  0  0
 17 43  1  0  0  0  0
 18 44  1  0  0  0  0
 18 45  1  0  0  0  0
 18 46  1  0  0  0  0
 19 47  1  0  0  0  0
 20 21  1  0  0  0  0
 20 48  1  0  0  0  0
 20 49  1  0  0  0  0
 21 50  1  0  0  0  0
 21 51  1  0  0  0  0
 22 23  1  0  0  0  0
 23 24  2  0  0  0  0
 23 52  1  0  0  0  0
 24 25  1  0  0  0  0
 25 53  1  0  0  0  0
 25 54  1  0  0  0  0
 25 55  1  0  0  0  0
M  CHG  1   5   1
M  CHG  1  12   1
M  END
> <s_m_source_file>
AV-unprocessed.smi

> <i_m_source_file_index>
1033

> <i_lp_mmshare_version>
43012

> <i_f3d_flags>
0

> <s_epik_input>
W0NIM11jKFtjSF0xKWMoW0NIM10pW2NIXWMoYzEyKW4oW2NIXW4yKVtDSDJdW0NASF0oW09IXSlbQ0gyXU4zW0NIMl1bQ0gyXU4oW0NIMl1bQ0gyXTMpW0NIMl1bQ0BIXShbQ0gzXSlbT0hd

> <s_epik_cmdline>
J2VwaWtfcHl0aG9uJywgJy1waCcsICc3LjAnLCAnLXRuJywgJzgnLCAnLW1hJywgJzIwMCcsICctbWV0YWxfYmluZGluZycsICctaW1hZScsICc8aW5maWxlLm1hZT4nLCAnLW9tYWUnLCAnPG91dGZpbGUubWFlPic=

> <r_epik_Ionization_Penalty>
1.22049

> <r_epik_Ionization_Penalty_Charging>
1.17952

> <r_epik_Ionization_Penalty_Neutral>
0.0409743

> <r_epik_State_Penalty>
1.61468

> <r_epik_Charging_Adjusted_Penalty>
2.7942

> <i_epik_Tot_Q>
2

> <i_epik_Tot_abs_Q>
2

> <r_epik_Metal_State_Penalty>
5.63169

> <b_epik_Metal_Only>
0

> <s_lp_Force_Field>
OPLS_2005

> <r_lp_Energy>
46.6999

> <b_lp_Chiralities_Consistent>
1

> <s_lp_Variant>
AV-unprocessed.smi:1033-11

> <Gold.Version>
5.8.1

> <Gold.Id.Protein>
6NUR|6NUR_protein|mol2

> <Gold.PLP.Fitness>
55.9355

> <Gold.PLP.PLP>
-40.7624

> <Gold.PLP.part.hbond>
-5.8188

> <Gold.PLP.part.metal>
0.0000

> <Gold.PLP.part.buried>
-3.7904

> <Gold.PLP.part.nonpolar>
-32.0797

> <Gold.PLP.part.repulsive>
0.2464

> <Gold.PLP.ligand.clash>
0.0000

> <Gold.PLP.ligand.torsion>
1.4346

> <Gold.PLP.Chemscore.Hbond>
5.9760

> <Gold.PLP.Chemscore.CHOScore>
0.0000

> <Gold.PLP.Chemscore.Metal>
0.0000

> <Gold.Chemscore.Hbonds>
donor molecule, donor type, donor heavy atom, donor atom, acceptor molecule, acceptor atom, score
      L1  H     5    57       P1  8028  2.00
      L1  H    10    34       P1  7948  1.00
      L1  H    12    56       P1  7948  2.00

> <Gold.PLP.Chemscore.Internal.Correction>
0.1144

> <Gold.Rescore>
     Score         DG    S(hbond)    S(metal)    S(lipo)     H(rot)  DE(clash)    DE(int)     intcor
     18.16     -20.67       3.51        0.00      98.51       3.15       0.18       2.33       ----

> <Gold.Chemscore.Fitness>
18.1570

> <Gold.Chemscore.DG>
-20.6719

> <Gold.Chemscore.ZeroCoef>
-5.4800

> <Gold.Chemscore.Hbond>
3.5107

> <Gold.Chemscore.Metal>
0.0000

> <Gold.Chemscore.Lipo>
98.5127

> <Gold.Chemscore.Internal_Hbond>
0.0000

> <Gold.Chemscore.DEClash>
0.1828

> <Gold.Chemscore.DEInternal>
2.3321

> <Gold.Chemscore.Rot>
3.1483

> <Gold.Chemscore.Internal.Correction>
   9.000000E+99

> <Gold.Chemscore.Hbonds>
donor molecule, donor type, donor heavy atom, donor atom, acceptor molecule, acceptor atom, score
      L1  H     5    57       P1  8028  0.97
      L1  H    10    34       P1  7948  0.25
      L1  H    12    56       P1  7948  0.99
      L1  H    19    47       P1 10957  0.04

> <Gold.Chemscore.Hbond.Weighted>
-11.7256

> <Gold.Chemscore.Metal.Weighted>
-0.0000

> <Gold.Chemscore.Lipo.Weighted>
-11.5260

> <Gold.Chemscore.Internal_Hbond.Weighted>
0.0000

> <Gold.Chemscore.DEClash.Weighted>
0.1828

> <Gold.Chemscore.DEInternal.Weighted>
2.3321

> <Gold.Chemscore.Rot.Weighted>
8.0597

> <Gold.Chemscore.Internal.Correction.Weighted>
   9.000000E+99

> <Gold.Protein.RotatedTorsions>
[ 6907 6896 6895 6894 ] final  -36.86 input  -60.11 | X-H torsion
[ 7974 7965 7964 7962 ] final -100.04 input  175.53 | X-H torsion
[ 8008 7997 7996 7995 ] final  -75.02 input   59.86 | X-H torsion
[ 10167 10162 10161 10158 ] final  -56.43 input  -65.29 | X-H torsion
[ 10718 10713 10712 10709 ] final   85.75 input   66.30 | X-H torsion
[ 10763 10752 10751 10750 ] final  -77.17 input  -60.55 | X-H torsion
[ 11005 11000 10999 10996 ] final   68.06 input  -57.11 | X-H torsion

> <Gold.Protein.ActiveResidues>
 VAL166  LYS551  ARG553  GLY616  TRP617  ASP618  TYR619  PRO620  LYS621  CYS622 
 ASP623  PHE694  ASN695  SER759  ASP760  ASP761  ALA762  ILE779  LEU786  VAL792 
 PHE793  MET794  SER795  GLU796  ALA797  LYS798  CYS799  TRP800  GLU811  SER814 

> <Gold.Protein.RotatedAtoms>
  151.0219  134.9475  159.8063 H   0  0  0  0  0  0  0  0  0  0  0  0  # atno 6907 bound_to 6896
  152.5327  134.2893  159.9047 H   0  0  0  0  0  0  0  0  0  0  0  0  # atno 6908 bound_to 6896
  151.2900  133.4127  159.2666 H   0  0  0  0  0  0  0  0  0  0  0  0  # atno 6909 bound_to 6896
  145.2997  140.9374  143.2831 H   0  0  0  0  0  0  0  0  0  0  0  0  # atno 7974 bound_to 7965
  154.5381  140.0751  156.8462 H   0  0  0  0  0  0  0  0  0  0  0  0  # atno 8008 bound_to 7997
  155.3237  140.3397  155.4222 H   0  0  0  0  0  0  0  0  0  0  0  0  # atno 8009 bound_to 7997
  156.1847  140.1665  156.8193 H   0  0  0  0  0  0  0  0  0  0  0  0  # atno 8010 bound_to 7997
  140.6317  143.2463  151.5223 H   0  0  0  0  0  0  0  0  0  0  0  0  # atno 10167 bound_to 10162
  157.6919  131.0187  150.2870 H   0  0  0  0  0  0  0  0  0  0  0  0  # atno 10718 bound_to 10713
  154.5094  135.5773  153.6593 H   0  0  0  0  0  0  0  0  0  0  0  0  # atno 10763 bound_to 10752
  152.9894  135.6155  154.2899 H   0  0  0  0  0  0  0  0  0  0  0  0  # atno 10764 bound_to 10752
  154.2812  135.2851  155.2676 H   0  0  0  0  0  0  0  0  0  0  0  0  # atno 10765 bound_to 10752
  139.9734  134.6863  156.0402 H   0  0  0  0  0  0  0  0  0  0  0  0  # atno 11005 bound_to 11000
  144.9104  139.4536  143.6590 LP  0  0  0  0  0  0  0  0  0  0  0  0  # atno 17320 bound_to 7965
  146.3156  139.7909  142.8986 LP  0  0  0  0  0  0  0  0  0  0  0  0  # atno 17321 bound_to 7965
  139.5531  144.2345  152.1565 LP  0  0  0  0  0  0  0  0  0  0  0  0  # atno 17342 bound_to 10162
  140.1590  144.5043  150.6643 LP  0  0  0  0  0  0  0  0  0  0  0  0  # atno 17343 bound_to 10162
  156.3407  130.3815  149.7411 LP  0  0  0  0  0  0  0  0  0  0  0  0  # atno 17370 bound_to 10713
  156.4921  130.8090  151.3099 LP  0  0  0  0  0  0  0  0  0  0  0  0  # atno 17371 bound_to 10713
  141.1412  133.6564  156.3735 LP  0  0  0  0  0  0  0  0  0  0  0  0  # atno 17394 bound_to 11000
  140.5246  134.6271  157.5330 LP  0  0  0  0  0  0  0  0  0  0  0  0  # atno 17395 bound_to 11000

$$$$
