AV-unprocessed.smi:3290|AV-procd|sdf|12612|dock6
  -GOLD-   2272018543D 1   1.00000     0.00000
 Structure written by MMmdl.
 43 44  0  0  0  0  0  0  0  0  2 V2000
  145.3325  134.2992  154.0722 C   0  0  0  0  0  0  0  0  0  0  0  0
  146.1281  134.7495  152.8302 C   0  0  1  0  0  0  0  0  0  0  0  0
  146.8531  133.5632  152.1592 C   0  0  0  0  0  0  0  0  0  0  0  0
  145.8869  132.6349  151.4052 C   0  0  0  0  0  0  0  0  0  0  0  0
  145.0582  133.4166  150.3763 C   0  0  0  0  0  0  0  0  0  0  0  0
  144.3185  134.5945  151.0295 C   0  0  0  0  0  0  0  0  0  0  0  0
  145.2879  135.5323  151.7807 C   0  0  1  0  0  0  0  0  0  0  0  0
  144.5421  136.7546  152.3546 C   0  0  0  0  0  0  0  0  0  0  0  0
  145.2679  138.0126  152.0902 N   0  3  0  0  0  0  0  0  0  0  0  0
  146.4114  138.2511  152.9930 C   0  0  0  0  0  0  0  0  0  0  0  0
  146.7370  139.7506  153.1045 C   0  0  2  0  0  0  0  0  0  0  0  0
  146.8096  140.2975  151.8019 O   0  0  0  0  0  0  0  0  0  0  0  0
  148.0235  139.9765  153.8827 C   0  0  0  0  0  0  0  0  0  0  0  0
  148.3663  141.2671  154.3375 C   0  0  0  0  0  0  0  0  0  0  0  0
  149.5650  141.4308  155.0608 C   0  0  0  0  0  0  0  0  0  0  0  0
  150.4042  140.4123  155.3450 N   0  0  0  0  0  0  0  0  0  0  0  0
  150.0705  139.1785  154.9099 C   0  0  0  0  0  0  0  0  0  0  0  0
  148.8965  138.9071  154.1791 C   0  0  0  0  0  0  0  0  0  0  0  0
  144.4802  133.6729  153.8106 H   0  0  0  0  0  0  0  0  0  0  0  0
  144.9571  135.1508  154.6389 H   0  0  0  0  0  0  0  0  0  0  0  0
  145.9641  133.7249  154.7501 H   0  0  0  0  0  0  0  0  0  0  0  0
  146.9089  135.4169  153.1963 H   0  0  0  0  0  0  0  0  0  0  0  0
  147.5932  133.9478  151.4559 H   0  0  0  0  0  0  0  0  0  0  0  0
  147.4136  132.9931  152.9010 H   0  0  0  0  0  0  0  0  0  0  0  0
  146.4485  131.8458  150.9040 H   0  0  0  0  0  0  0  0  0  0  0  0
  145.2228  132.1349  152.1106 H   0  0  0  0  0  0  0  0  0  0  0  0
  145.7142  133.7900  149.5889 H   0  0  0  0  0  0  0  0  0  0  0  0
  144.3436  132.7509  149.8916 H   0  0  0  0  0  0  0  0  0  0  0  0
  143.7850  135.1519  150.2585 H   0  0  0  0  0  0  0  0  0  0  0  0
  143.5557  134.2165  151.7107 H   0  0  0  0  0  0  0  0  0  0  0  0
  145.9876  135.9147  151.0353 H   0  0  0  0  0  0  0  0  0  0  0  0
  143.5550  136.8288  151.8961 H   0  0  0  0  0  0  0  0  0  0  0  0
  144.3766  136.6399  153.4260 H   0  0  0  0  0  0  0  0  0  0  0  0
  145.6178  137.9863  151.1427 H   0  0  0  0  0  0  0  0  0  0  0  0
  146.1628  137.8528  153.9777 H   0  0  0  0  0  0  0  0  0  0  0  0
  147.2820  137.6994  152.6343 H   0  0  0  0  0  0  0  0  0  0  0  0
  145.9246  140.2588  153.6261 H   0  0  0  0  0  0  0  0  0  0  0  0
  147.6963  140.2046  151.4868 H   0  0  0  0  0  0  0  0  0  0  0  0
  147.7293  142.1165  154.1398 H   0  0  0  0  0  0  0  0  0  0  0  0
  149.8559  142.4062  155.4218 H   0  0  0  0  0  0  0  0  0  0  0  0
  150.7588  138.3826  155.1528 H   0  0  0  0  0  0  0  0  0  0  0  0
  148.6754  137.8999  153.8572 H   0  0  0  0  0  0  0  0  0  0  0  0
  144.6215  138.7841  152.1736 H   0  0  0  0  0  0  0  0  0  0  0  0
  1  2  1  0  0  0  0
  1 19  1  0  0  0  0
  1 20  1  0  0  0  0
  1 21  1  0  0  0  0
  2  7  1  0  0  0  0
  2  3  1  0  0  0  0
  2 22  1  0  0  0  0
  3  4  1  0  0  0  0
  3 23  1  0  0  0  0
  3 24  1  0  0  0  0
  4  5  1  0  0  0  0
  4 25  1  0  0  0  0
  4 26  1  0  0  0  0
  5  6  1  0  0  0  0
  5 27  1  0  0  0  0
  5 28  1  0  0  0  0
  6  7  1  0  0  0  0
  6 29  1  0  0  0  0
  6 30  1  0  0  0  0
  7  8  1  0  0  0  0
  7 31  1  0  0  0  0
  8  9  1  0  0  0  0
  8 32  1  0  0  0  0
  8 33  1  0  0  0  0
  9 10  1  0  0  0  0
  9 34  1  0  0  0  0
  9 43  1  0  0  0  0
 10 11  1  0  0  0  0
 10 35  1  0  0  0  0
 10 36  1  0  0  0  0
 11 12  1  0  0  0  0
 11 13  1  0  0  0  0
 11 37  1  0  0  0  0
 12 38  1  0  0  0  0
 13 18  1  0  0  0  0
 13 14  2  0  0  0  0
 14 15  1  0  0  0  0
 14 39  1  0  0  0  0
 15 16  2  0  0  0  0
 15 40  1  0  0  0  0
 16 17  1  0  0  0  0
 17 18  2  0  0  0  0
 17 41  1  0  0  0  0
 18 42  1  0  0  0  0
M  CHG  1   9   1
M  END
> <s_m_source_file>
AV-unprocessed.smi

> <i_m_source_file_index>
3290

> <i_lp_mmshare_version>
43012

> <i_f3d_flags>
0

> <s_epik_input>
W0NIM11bQ0BASF0xW0NIMl1bQ0gyXVtDSDJdW0NIMl1bQ0BIXTFbQ0gyXVtOSF1bQ0gyXVtDQEhdKFtPSF0pYzJbY0hdW2NIXW5bY0hdW2NIXTI=

> <s_epik_cmdline>
J2VwaWtfcHl0aG9uJywgJy1waCcsICc3LjAnLCAnLXRuJywgJzgnLCAnLW1hJywgJzIwMCcsICctbWV0YWxfYmluZGluZycsICctaW1hZScsICc8aW5maWxlLm1hZT4nLCAnLW9tYWUnLCAnPG91dGZpbGUubWFlPic=

> <r_lp_tautomer_probability>
1

> <r_epik_Ionization_Penalty>
0.00420552

> <r_epik_Ionization_Penalty_Charging>
0.00207255

> <r_epik_Ionization_Penalty_Neutral>
0.00213297

> <r_epik_State_Penalty>
-0

> <r_epik_Charging_Adjusted_Penalty>
0.00207255

> <i_epik_Tot_Q>
1

> <i_epik_Tot_abs_Q>
1

> <r_epik_Metal_State_Penalty>
-0

> <b_epik_Metal_Only>
0

> <s_lp_Force_Field>
OPLS_2005

> <r_lp_Energy>
18.26

> <b_lp_Chiralities_Consistent>
1

> <s_lp_Variant>
AV-unprocessed.smi:3290-2

> <Gold.Version>
5.8.1

> <Gold.Id.Protein>
6NUR|6NUR_protein|mol2

> <Gold.PLP.Fitness>
45.9427

> <Gold.PLP.PLP>
-34.4111

> <Gold.PLP.part.hbond>
-4.5485

> <Gold.PLP.part.metal>
0.0000

> <Gold.PLP.part.buried>
-1.2218

> <Gold.PLP.part.nonpolar>
-28.2161

> <Gold.PLP.part.repulsive>
0.0899

> <Gold.PLP.ligand.clash>
0.0000

> <Gold.PLP.ligand.torsion>
1.1061

> <Gold.PLP.Chemscore.Hbond>
3.5686

> <Gold.PLP.Chemscore.CHOScore>
1.0000

> <Gold.PLP.Chemscore.Metal>
0.0000

> <Gold.Chemscore.Hbonds>
donor molecule, donor type, donor heavy atom, donor atom, acceptor molecule, acceptor atom, score
      L1  H     9    34       P1 10171  0.05
      L1  H     9    43       P1 10175  2.00
      L1  H    12    38       P1  7957  1.00
      P1  H  7989  7998       L1    16  0.15
      L1  C    15    40       P1  8028  1.00

> <Gold.PLP.Chemscore.Internal.Correction>
0.0379

> <Gold.Rescore>
     Score         DG    S(hbond)    S(metal)    S(lipo)     H(rot)  DE(clash)    DE(int)     intcor
     15.78     -16.94       2.04        0.00      84.45       2.05       0.16       0.99       ----

> <Gold.Chemscore.Fitness>
15.7811

> <Gold.Chemscore.DG>
-16.9364

> <Gold.Chemscore.ZeroCoef>
-5.4800

> <Gold.Chemscore.Hbond>
2.0427

> <Gold.Chemscore.Metal>
0.0000

> <Gold.Chemscore.Lipo>
84.4543

> <Gold.Chemscore.Internal_Hbond>
0.0000

> <Gold.Chemscore.DEClash>
0.1615

> <Gold.Chemscore.DEInternal>
0.9938

> <Gold.Chemscore.Rot>
2.0498

> <Gold.Chemscore.Internal.Correction>
   9.000000E+99

> <Gold.Chemscore.Hbonds>
donor molecule, donor type, donor heavy atom, donor atom, acceptor molecule, acceptor atom, score
      L1  H     9    34       P1 10171  0.05
      L1  H     9    43       P1 10175  0.99
      L1  H    12    38       P1  7957  1.00

> <Gold.Chemscore.Hbond.Weighted>
-6.8227

> <Gold.Chemscore.Metal.Weighted>
-0.0000

> <Gold.Chemscore.Lipo.Weighted>
-9.8812

> <Gold.Chemscore.Internal_Hbond.Weighted>
0.0000

> <Gold.Chemscore.DEClash.Weighted>
0.1615

> <Gold.Chemscore.DEInternal.Weighted>
0.9938

> <Gold.Chemscore.Rot.Weighted>
5.2475

> <Gold.Chemscore.Internal.Correction.Weighted>
   9.000000E+99

> <Gold.Protein.RotatedTorsions>
[ 6907 6896 6895 6894 ] final  129.08 input  -60.11 | X-H torsion
[ 7974 7965 7964 7962 ] final  153.83 input  175.53 | X-H torsion
[ 8008 7997 7996 7995 ] final -128.34 input   59.86 | X-H torsion
[ 10167 10162 10161 10158 ] final   45.49 input  -65.29 | X-H torsion
[ 10718 10713 10712 10709 ] final -133.32 input   66.30 | X-H torsion
[ 10763 10752 10751 10750 ] final  -21.45 input  -60.55 | X-H torsion
[ 11005 11000 10999 10996 ] final -148.84 input  -57.11 | X-H torsion

> <Gold.Protein.ActiveResidues>
 VAL166  LYS551  ARG553  GLY616  TRP617  ASP618  TYR619  PRO620  LYS621  CYS622 
 ASP623  PHE694  ASN695  SER759  ASP760  ASP761  ALA762  ILE779  LEU786  VAL792 
 PHE793  MET794  SER795  GLU796  ALA797  LYS798  CYS799  TRP800  GLU811  SER814 

> <Gold.Protein.RotatedAtoms>
  152.3658  133.6355  159.6049 H   0  0  0  0  0  0  0  0  0  0  0  0  # atno 6907 bound_to 6896
  150.7633  133.9350  159.3447 H   0  0  0  0  0  0  0  0  0  0  0  0  # atno 6908 bound_to 6896
  151.7181  135.0901  160.0330 H   0  0  0  0  0  0  0  0  0  0  0  0  # atno 6909 bound_to 6896
  144.8128  139.6853  143.6134 H   0  0  0  0  0  0  0  0  0  0  0  0  # atno 7974 bound_to 7965
  155.2610  140.0436  157.2997 H   0  0  0  0  0  0  0  0  0  0  0  0  # atno 8008 bound_to 7997
  154.5710  140.2374  155.8160 H   0  0  0  0  0  0  0  0  0  0  0  0  # atno 8009 bound_to 7997
  156.2123  140.2995  155.9767 H   0  0  0  0  0  0  0  0  0  0  0  0  # atno 8010 bound_to 7997
  140.3236  144.2675  150.6179 H   0  0  0  0  0  0  0  0  0  0  0  0  # atno 10167 bound_to 10162
  156.2437  130.7111  151.0983 H   0  0  0  0  0  0  0  0  0  0  0  0  # atno 10718 bound_to 10713
  153.6363  135.6987  153.5257 H   0  0  0  0  0  0  0  0  0  0  0  0  # atno 10763 bound_to 10752
  153.2819  135.4183  155.1086 H   0  0  0  0  0  0  0  0  0  0  0  0  # atno 10764 bound_to 10752
  154.8510  135.3604  154.5906 H   0  0  0  0  0  0  0  0  0  0  0  0  # atno 10765 bound_to 10752
  140.7570  134.3342  157.5111 H   0  0  0  0  0  0  0  0  0  0  0  0  # atno 11005 bound_to 11000
  146.2429  139.6037  142.9479 LP  0  0  0  0  0  0  0  0  0  0  0  0  # atno 17320 bound_to 7965
  145.5283  141.0428  143.2397 LP  0  0  0  0  0  0  0  0  0  0  0  0  # atno 17321 bound_to 7965
  140.5461  143.2214  151.8005 LP  0  0  0  0  0  0  0  0  0  0  0  0  # atno 17342 bound_to 10162
  139.4869  144.4538  151.9623 LP  0  0  0  0  0  0  0  0  0  0  0  0  # atno 17343 bound_to 10162
  157.7186  131.0695  150.6227 LP  0  0  0  0  0  0  0  0  0  0  0  0  # atno 17370 bound_to 10713
  156.6302  130.4430  149.5789 LP  0  0  0  0  0  0  0  0  0  0  0  0  # atno 17371 bound_to 10713
  139.8777  134.9178  156.3187 LP  0  0  0  0  0  0  0  0  0  0  0  0  # atno 17394 bound_to 11000
  140.9698  133.7334  156.0519 LP  0  0  0  0  0  0  0  0  0  0  0  0  # atno 17395 bound_to 11000

$$$$
