AV-unprocessed.smi:2973|AV-procd|sdf|11340|dock3
  -GOLD-   2272016253D 1   1.00000     0.00000
 Structure written by MMmdl.
 49 51  0  0  0  0  0  0  0  0  1 V2000
  145.4606  133.3662  159.7410 C   0  0  0  0  0  0  0  0  0  0  0  0
  146.5617  132.4911  160.3765 C   0  0  1  0  0  0  0  0  0  0  0  0
  146.5868  131.0898  159.7285 C   0  0  0  0  0  0  0  0  0  0  0  0
  147.6087  130.1673  160.4112 C   0  0  0  0  0  0  0  0  0  0  0  0
  149.0149  130.7829  160.4034 C   0  0  0  0  0  0  0  0  0  0  0  0
  149.0141  132.1827  161.0439 C   0  0  0  0  0  0  0  0  0  0  0  0
  147.9803  133.1443  160.4049 C   0  0  2  0  0  0  0  0  0  0  0  0
  147.9648  134.3992  161.1366 N   0  0  0  0  0  0  0  0  0  0  0  0
  148.3474  135.4477  160.3974 C   0  0  0  0  0  0  0  0  0  0  0  0
  148.4231  136.6078  160.7985 O   0  0  0  0  0  0  0  0  0  0  0  0
  148.6265  135.0102  159.1572 N   0  0  0  0  0  0  0  0  0  0  0  0
  149.0935  135.8730  158.0639 C   0  0  0  0  0  0  0  0  0  0  0  0
  150.1346  136.9125  158.5031 C   0  0  0  0  0  0  0  0  0  0  0  0
  151.1191  136.5868  159.1685 O   0  0  0  0  0  0  0  0  0  0  0  0
  149.9002  138.1727  158.1084 N   0  0  0  0  0  0  0  0  0  0  0  0
  150.7512  139.3183  158.4081 C   0  0  0  0  0  0  0  0  0  0  0  0
  150.3510  140.5540  157.5847 C   0  0  0  0  0  0  0  0  0  0  0  0
  150.8979  141.8397  158.1760 C   0  0  0  0  0  0  0  0  0  0  0  0
  150.6034  143.0875  157.5854 C   0  0  0  0  0  0  0  0  0  0  0  0
  151.1327  144.2511  158.1766 C   0  0  0  0  0  0  0  0  0  0  0  0
  151.9302  144.1233  159.3301 C   0  0  0  0  0  0  0  0  0  0  0  0
  152.1640  142.8319  159.8435 C   0  0  0  0  0  0  0  0  0  0  0  0
  151.6621  141.7100  159.2839 N   0  0  0  0  0  0  0  0  0  0  0  0
  148.4555  133.6850  159.0540 C   0  0  0  0  0  0  0  0  0  0  0  0
  148.6404  132.9962  158.0505 O   0  0  0  0  0  0  0  0  0  0  0  0
  145.6409  133.5376  158.6794 H   0  0  0  0  0  0  0  0  0  0  0  0
  145.3861  134.3382  160.2288 H   0  0  0  0  0  0  0  0  0  0  0  0
  144.4854  132.8871  159.8309 H   0  0  0  0  0  0  0  0  0  0  0  0
  146.2649  132.3469  161.4166 H   0  0  0  0  0  0  0  0  0  0  0  0
  145.5976  130.6354  159.7932 H   0  0  0  0  0  0  0  0  0  0  0  0
  146.8133  131.1659  158.6648 H   0  0  0  0  0  0  0  0  0  0  0  0
  147.2990  129.9789  161.4399 H   0  0  0  0  0  0  0  0  0  0  0  0
  147.6252  129.1981  159.9122 H   0  0  0  0  0  0  0  0  0  0  0  0
  149.7041  130.1325  160.9424 H   0  0  0  0  0  0  0  0  0  0  0  0
  149.3876  130.8353  159.3805 H   0  0  0  0  0  0  0  0  0  0  0  0
  148.7994  132.0814  162.1088 H   0  0  0  0  0  0  0  0  0  0  0  0
  150.0180  132.6061  160.9827 H   0  0  0  0  0  0  0  0  0  0  0  0
  147.6999  134.4591  162.1091 H   0  0  0  0  0  0  0  0  0  0  0  0
  149.5242  135.2676  157.2647 H   0  0  0  0  0  0  0  0  0  0  0  0
  148.2435  136.3911  157.6164 H   0  0  0  0  0  0  0  0  0  0  0  0
  149.0685  138.3525  157.5647 H   0  0  0  0  0  0  0  0  0  0  0  0
  150.6579  139.5372  159.4721 H   0  0  0  0  0  0  0  0  0  0  0  0
  151.7980  139.0620  158.2348 H   0  0  0  0  0  0  0  0  0  0  0  0
  150.7107  140.4595  156.5590 H   0  0  0  0  0  0  0  0  0  0  0  0
  149.2642  140.6228  157.5218 H   0  0  0  0  0  0  0  0  0  0  0  0
  149.9865  143.1539  156.7011 H   0  0  0  0  0  0  0  0  0  0  0  0
  150.9304  145.2238  157.7531 H   0  0  0  0  0  0  0  0  0  0  0  0
  152.3529  144.9935  159.8100 H   0  0  0  0  0  0  0  0  0  0  0  0
  152.7697  142.6965  160.7274 H   0  0  0  0  0  0  0  0  0  0  0  0
  1  2  1  0  0  0  0
  1 26  1  0  0  0  0
  1 27  1  0  0  0  0
  1 28  1  0  0  0  0
  2  7  1  0  0  0  0
  2  3  1  0  0  0  0
  2 29  1  0  0  0  0
  3  4  1  0  0  0  0
  3 30  1  0  0  0  0
  3 31  1  0  0  0  0
  4  5  1  0  0  0  0
  4 32  1  0  0  0  0
  4 33  1  0  0  0  0
  5  6  1  0  0  0  0
  5 34  1  0  0  0  0
  5 35  1  0  0  0  0
  6  7  1  0  0  0  0
  6 36  1  0  0  0  0
  6 37  1  0  0  0  0
  7 24  1  0  0  0  0
  7  8  1  0  0  0  0
  8  9  1  0  0  0  0
  8 38  1  0  0  0  0
  9 10  2  0  0  0  0
  9 11  1  0  0  0  0
 11 12  1  0  0  0  0
 11 24  1  0  0  0  0
 12 13  1  0  0  0  0
 12 39  1  0  0  0  0
 12 40  1  0  0  0  0
 13 14  2  0  0  0  0
 13 15  1  0  0  0  0
 15 16  1  0  0  0  0
 15 41  1  0  0  0  0
 16 17  1  0  0  0  0
 16 42  1  0  0  0  0
 16 43  1  0  0  0  0
 17 18  1  0  0  0  0
 17 44  1  0  0  0  0
 17 45  1  0  0  0  0
 18 23  1  0  0  0  0
 18 19  2  0  0  0  0
 19 20  1  0  0  0  0
 19 46  1  0  0  0  0
 20 21  2  0  0  0  0
 20 47  1  0  0  0  0
 21 22  1  0  0  0  0
 21 48  1  0  0  0  0
 22 23  2  0  0  0  0
 22 49  1  0  0  0  0
 24 25  2  0  0  0  0
M  END
> <s_m_source_file>
AV-unprocessed.smi

> <i_m_source_file_index>
2973

> <i_lp_mmshare_version>
43012

> <i_f3d_flags>
0

> <s_epik_input>
W0NIMl0xW0NIMl1bQ0gyXVtDSDJdW0NAQEhdKFtDSDNdKVtDQF0xMltOSF1DKD1PKU4oQzI9TylbQ0gyXUMoPU8pW05IXVtDSDJdW0NIMl1jM1tjSF1bY0hdW2NIXVtjSF1uMw==

> <s_epik_cmdline>
J2VwaWtfcHl0aG9uJywgJy1waCcsICc3LjAnLCAnLXRuJywgJzgnLCAnLW1hJywgJzIwMCcsICctbWV0YWxfYmluZGluZycsICctaW1hZScsICc8aW5maWxlLm1hZT4nLCAnLW9tYWUnLCAnPG91dGZpbGUubWFlPic=

> <r_lp_tautomer_probability>
1

> <r_epik_Ionization_Penalty>
0.0245152

> <r_epik_Ionization_Penalty_Charging>
0

> <r_epik_Ionization_Penalty_Neutral>
0.0245152

> <r_epik_State_Penalty>
0.0198648

> <r_epik_Charging_Adjusted_Penalty>
0.0198648

> <i_epik_Tot_Q>
0

> <i_epik_Tot_abs_Q>
0

> <r_epik_Metal_State_Penalty>
0.0400162

> <b_epik_Metal_Only>
0

> <s_lp_Force_Field>
OPLS_2005

> <r_lp_Energy>
16.769

> <b_lp_Chiralities_Consistent>
1

> <s_lp_Variant>
AV-unprocessed.smi:2973-4

> <Gold.Version>
5.8.1

> <Gold.Id.Protein>
6NUR|6NUR_protein|mol2

> <Gold.PLP.Fitness>
47.4746

> <Gold.PLP.PLP>
-40.5185

> <Gold.PLP.part.hbond>
-2.8006

> <Gold.PLP.part.metal>
0.0000

> <Gold.PLP.part.buried>
-5.0664

> <Gold.PLP.part.nonpolar>
-33.0970

> <Gold.PLP.part.repulsive>
0.2240

> <Gold.PLP.ligand.clash>
0.0000

> <Gold.PLP.ligand.torsion>
0.4906

> <Gold.PLP.Chemscore.Hbond>
2.6344

> <Gold.PLP.Chemscore.CHOScore>
0.0000

> <Gold.PLP.Chemscore.Metal>
0.0000

> <Gold.Chemscore.Hbonds>
donor molecule, donor type, donor heavy atom, donor atom, acceptor molecule, acceptor atom, score
      P1  H  6896  6908       L1    14  0.77
      P1  H  6931  6943       L1    10  0.91

> <Gold.PLP.Chemscore.Internal.Correction>
0.0342

> <Gold.Rescore>
     Score         DG    S(hbond)    S(metal)    S(lipo)     H(rot)  DE(clash)    DE(int)     intcor
     19.56     -21.42       2.65        0.00     101.18       1.86       0.03       1.83       ----

> <Gold.Chemscore.Fitness>
19.5581

> <Gold.Chemscore.DG>
-21.4162

> <Gold.Chemscore.ZeroCoef>
-5.4800

> <Gold.Chemscore.Hbond>
2.6491

> <Gold.Chemscore.Metal>
0.0000

> <Gold.Chemscore.Lipo>
101.1793

> <Gold.Chemscore.Internal_Hbond>
0.0000

> <Gold.Chemscore.DEClash>
0.0324

> <Gold.Chemscore.DEInternal>
1.8256

> <Gold.Chemscore.Rot>
1.8553

> <Gold.Chemscore.Internal.Correction>
   9.000000E+99

> <Gold.Chemscore.Hbonds>
donor molecule, donor type, donor heavy atom, donor atom, acceptor molecule, acceptor atom, score
      P1  H  6896  6908       L1    14  0.59
      P1  H  6931  6943       L1    10  0.85

> <Gold.Chemscore.Hbond.Weighted>
-8.8479

> <Gold.Chemscore.Metal.Weighted>
-0.0000

> <Gold.Chemscore.Lipo.Weighted>
-11.8380

> <Gold.Chemscore.Internal_Hbond.Weighted>
0.0000

> <Gold.Chemscore.DEClash.Weighted>
0.0324

> <Gold.Chemscore.DEInternal.Weighted>
1.8256

> <Gold.Chemscore.Rot.Weighted>
4.7497

> <Gold.Chemscore.Internal.Correction.Weighted>
   9.000000E+99

> <Gold.Protein.RotatedTorsions>
[ 6907 6896 6895 6894 ] final -163.10 input  -60.11 | X-H torsion
[ 7974 7965 7964 7962 ] final   -1.23 input  175.53 | X-H torsion
[ 8008 7997 7996 7995 ] final -157.13 input   59.86 | X-H torsion
[ 10167 10162 10161 10158 ] final  160.00 input  -65.29 | X-H torsion
[ 10718 10713 10712 10709 ] final   -4.69 input   66.30 | X-H torsion
[ 10763 10752 10751 10750 ] final  169.63 input  -60.55 | X-H torsion
[ 11005 11000 10999 10996 ] final  -50.33 input  -57.11 | X-H torsion

> <Gold.Protein.ActiveResidues>
 VAL166  LYS551  ARG553  GLY616  TRP617  ASP618  TYR619  PRO620  LYS621  CYS622 
 ASP623  PHE694  ASN695  SER759  ASP760  ASP761  ALA762  ILE779  LEU786  VAL792 
 PHE793  MET794  SER795  GLU796  ALA797  LYS798  CYS799  TRP800  GLU811  SER814 

> <Gold.Protein.RotatedAtoms>
  151.3906  133.3790  159.2720 H   0  0  0  0  0  0  0  0  0  0  0  0  # atno 6907 bound_to 6896
  150.9508  134.8909  159.7681 H   0  0  0  0  0  0  0  0  0  0  0  0  # atno 6908 bound_to 6896
  152.5111  134.3862  159.9420 H   0  0  0  0  0  0  0  0  0  0  0  0  # atno 6909 bound_to 6896
  146.2419  140.1389  142.8336 H   0  0  0  0  0  0  0  0  0  0  0  0  # atno 7974 bound_to 7965
  155.7277  140.0798  157.2303 H   0  0  0  0  0  0  0  0  0  0  0  0  # atno 8008 bound_to 7997
  154.4037  140.1601  156.2528 H   0  0  0  0  0  0  0  0  0  0  0  0  # atno 8009 bound_to 7997
  155.9138  140.3402  155.6122 H   0  0  0  0  0  0  0  0  0  0  0  0  # atno 8010 bound_to 7997
  139.4836  144.4676  151.8621 H   0  0  0  0  0  0  0  0  0  0  0  0  # atno 10167 bound_to 10162
  156.7576  130.5259  149.5791 H   0  0  0  0  0  0  0  0  0  0  0  0  # atno 10718 bound_to 10713
  154.3860  135.2753  155.2183 H   0  0  0  0  0  0  0  0  0  0  0  0  # atno 10763 bound_to 10752
  154.4269  135.5986  153.6048 H   0  0  0  0  0  0  0  0  0  0  0  0  # atno 10764 bound_to 10752
  152.9833  135.5986  154.4109 H   0  0  0  0  0  0  0  0  0  0  0  0  # atno 10765 bound_to 10752
  141.0810  133.6653  156.3716 H   0  0  0  0  0  0  0  0  0  0  0  0  # atno 11005 bound_to 11000
  145.0263  140.8835  143.5136 LP  0  0  0  0  0  0  0  0  0  0  0  0  # atno 17320 bound_to 7965
  145.1446  139.2551  143.5472 LP  0  0  0  0  0  0  0  0  0  0  0  0  # atno 17321 bound_to 7965
  140.4142  144.2329  150.5888 LP  0  0  0  0  0  0  0  0  0  0  0  0  # atno 17342 bound_to 10162
  140.4937  143.2339  151.8781 LP  0  0  0  0  0  0  0  0  0  0  0  0  # atno 17343 bound_to 10162
  156.1360  130.6211  151.0401 LP  0  0  0  0  0  0  0  0  0  0  0  0  # atno 17370 bound_to 10713
  157.6749  131.0853  150.7520 LP  0  0  0  0  0  0  0  0  0  0  0  0  # atno 17371 bound_to 10713
  140.5468  134.6066  157.5396 LP  0  0  0  0  0  0  0  0  0  0  0  0  # atno 17394 bound_to 11000
  139.9624  134.7430  156.0209 LP  0  0  0  0  0  0  0  0  0  0  0  0  # atno 17395 bound_to 11000

$$$$
