AV-unprocessed.smi:262|AV-procd|sdf|1999|dock3
  -GOLD-   2262021193D 1   1.00000     0.00000
 Structure written by MMmdl.
 60 64  0  0  0  0  0  0  0  0  2 V2000
  151.6412  136.6001  154.1375 O   0  0  0  0  0  0  0  0  0  0  0  0
  151.3185  137.2405  155.3602 C   0  0  0  0  0  0  0  0  0  0  0  0
  151.0756  136.1389  156.4217 C   0  0  0  0  0  0  0  0  0  0  0  0
  149.8052  135.4440  156.2763 N   0  0  0  0  0  0  0  0  0  0  0  0
  149.1888  135.0938  155.0952 C   0  0  0  0  0  0  0  0  0  0  0  0
  148.0497  134.4687  155.2245 N   0  0  0  0  0  0  0  0  0  0  0  0
  147.8730  134.3758  156.5985 C   0  0  0  0  0  0  0  0  0  0  0  0
  146.8627  133.8226  157.4270 C   0  0  0  0  0  0  0  0  0  0  0  0
  145.7741  133.2112  156.9112 N   0  0  0  0  0  0  0  0  0  0  0  0
  144.9747  134.0126  155.9914 C   0  0  0  0  0  0  0  0  0  0  0  0
  145.4196  133.8264  154.5281 C   0  0  0  0  0  0  0  0  0  0  0  0
  145.4813  132.3855  154.1640 N   0  3  0  0  0  0  0  0  0  0  0  0
  145.8272  132.1414  152.7397 C   0  0  0  0  0  0  0  0  0  0  0  0
  144.7873  132.7129  151.7547 C   0  0  2  0  0  0  0  0  0  0  0  0
  144.7527  132.0274  150.4026 C   0  0  0  0  0  0  0  0  0  0  0  0
  144.0461  133.0675  149.5380 C   0  0  0  0  0  0  0  0  0  0  0  0
  144.3847  134.3336  150.0969 O   0  0  0  0  0  0  0  0  0  0  0  0
  145.0678  134.1555  151.3338 C   0  0  0  0  0  0  0  0  0  0  0  0
  146.3611  131.6236  155.0880 C   0  0  0  0  0  0  0  0  0  0  0  0
  145.9314  131.8051  156.5567 C   0  0  0  0  0  0  0  0  0  0  0  0
  147.0186  133.9157  158.7727 N   0  0  0  0  0  0  0  0  0  0  0  0
  148.1039  134.5116  159.2774 C   0  0  0  0  0  0  0  0  0  0  0  0
  149.1291  135.0679  158.6277 N   0  0  0  0  0  0  0  0  0  0  0  0
  148.9684  134.9789  157.2759 C   0  0  0  0  0  0  0  0  0  0  0  0
  152.5101  138.1278  155.7727 C   0  0  0  0  0  0  0  0  0  0  0  0
  152.6825  139.3405  154.8405 C   0  0  0  0  0  0  0  0  0  0  0  0
  151.4751  140.0904  154.7894 O   0  0  0  0  0  0  0  0  0  0  0  0
  150.3918  139.3484  154.2429 C   0  0  0  0  0  0  0  0  0  0  0  0
  150.0788  138.1333  155.1339 C   0  0  0  0  0  0  0  0  0  0  0  0
  151.9501  137.2536  153.5288 H   0  0  0  0  0  0  0  0  0  0  0  0
  151.8741  135.3963  156.3846 H   0  0  0  0  0  0  0  0  0  0  0  0
  151.1123  136.5699  157.4231 H   0  0  0  0  0  0  0  0  0  0  0  0
  149.6131  135.3210  154.1278 H   0  0  0  0  0  0  0  0  0  0  0  0
  143.9325  133.7102  156.0998 H   0  0  0  0  0  0  0  0  0  0  0  0
  145.0200  135.0670  156.2683 H   0  0  0  0  0  0  0  0  0  0  0  0
  144.7177  134.3568  153.8869 H   0  0  0  0  0  0  0  0  0  0  0  0
  146.3970  134.2830  154.3663 H   0  0  0  0  0  0  0  0  0  0  0  0
  146.8147  132.5548  152.5295 H   0  0  0  0  0  0  0  0  0  0  0  0
  145.9044  131.0656  152.5738 H   0  0  0  0  0  0  0  0  0  0  0  0
  143.7889  132.6867  152.1915 H   0  0  0  0  0  0  0  0  0  0  0  0
  145.7652  131.8598  150.0322 H   0  0  0  0  0  0  0  0  0  0  0  0
  144.2313  131.0699  150.4191 H   0  0  0  0  0  0  0  0  0  0  0  0
  144.3362  133.0030  148.4891 H   0  0  0  0  0  0  0  0  0  0  0  0
  142.9645  132.9410  149.5987 H   0  0  0  0  0  0  0  0  0  0  0  0
  144.7381  134.8809  152.0780 H   0  0  0  0  0  0  0  0  0  0  0  0
  146.1337  134.3109  151.1609 H   0  0  0  0  0  0  0  0  0  0  0  0
  146.3325  130.5627  154.8374 H   0  0  0  0  0  0  0  0  0  0  0  0
  147.3933  131.9489  154.9523 H   0  0  0  0  0  0  0  0  0  0  0  0
  146.6497  131.3244  157.2228 H   0  0  0  0  0  0  0  0  0  0  0  0
  144.9756  131.3077  156.7247 H   0  0  0  0  0  0  0  0  0  0  0  0
  148.1602  134.5482  160.3556 H   0  0  0  0  0  0  0  0  0  0  0  0
  152.3513  138.4947  156.7877 H   0  0  0  0  0  0  0  0  0  0  0  0
  153.4311  137.5443  155.8006 H   0  0  0  0  0  0  0  0  0  0  0  0
  153.4785  139.9853  155.2138 H   0  0  0  0  0  0  0  0  0  0  0  0
  152.9743  139.0285  153.8365 H   0  0  0  0  0  0  0  0  0  0  0  0
  149.5188  139.9984  154.1821 H   0  0  0  0  0  0  0  0  0  0  0  0
  150.6255  139.0388  153.2231 H   0  0  0  0  0  0  0  0  0  0  0  0
  149.2604  137.5611  154.6961 H   0  0  0  0  0  0  0  0  0  0  0  0
  149.7188  138.4965  156.0974 H   0  0  0  0  0  0  0  0  0  0  0  0
  144.5518  132.0142  154.2981 H   0  0  0  0  0  0  0  0  0  0  0  0
  1  2  1  0  0  0  0
  1 30  1  0  0  0  0
  2 29  1  0  0  0  0
  2  3  1  0  0  0  0
  2 25  1  0  0  0  0
  3  4  1  0  0  0  0
  3 31  1  0  0  0  0
  3 32  1  0  0  0  0
  4 24  1  0  0  0  0
  4  5  1  0  0  0  0
  5  6  2  0  0  0  0
  5 33  1  0  0  0  0
  6  7  1  0  0  0  0
  7 24  2  0  0  0  0
  7  8  1  0  0  0  0
  8  9  1  0  0  0  0
  8 21  2  0  0  0  0
  9 20  1  0  0  0  0
  9 10  1  0  0  0  0
 10 11  1  0  0  0  0
 10 34  1  0  0  0  0
 10 35  1  0  0  0  0
 11 12  1  0  0  0  0
 11 36  1  0  0  0  0
 11 37  1  0  0  0  0
 12 13  1  0  0  0  0
 12 19  1  0  0  0  0
 12 60  1  0  0  0  0
 13 14  1  0  0  0  0
 13 38  1  0  0  0  0
 13 39  1  0  0  0  0
 14 18  1  0  0  0  0
 14 15  1  0  0  0  0
 14 40  1  0  0  0  0
 15 16  1  0  0  0  0
 15 41  1  0  0  0  0
 15 42  1  0  0  0  0
 16 17  1  0  0  0  0
 16 43  1  0  0  0  0
 16 44  1  0  0  0  0
 17 18  1  0  0  0  0
 18 45  1  0  0  0  0
 18 46  1  0  0  0  0
 19 20  1  0  0  0  0
 19 47  1  0  0  0  0
 19 48  1  0  0  0  0
 20 49  1  0  0  0  0
 20 50  1  0  0  0  0
 21 22  1  0  0  0  0
 22 23  2  0  0  0  0
 22 51  1  0  0  0  0
 23 24  1  0  0  0  0
 25 26  1  0  0  0  0
 25 52  1  0  0  0  0
 25 53  1  0  0  0  0
 26 27  1  0  0  0  0
 26 54  1  0  0  0  0
 26 55  1  0  0  0  0
 27 28  1  0  0  0  0
 28 29  1  0  0  0  0
 28 56  1  0  0  0  0
 28 57  1  0  0  0  0
 29 58  1  0  0  0  0
 29 59  1  0  0  0  0
M  CHG  1  12   1
M  END
> <s_m_source_file>
AV-unprocessed.smi

> <i_m_source_file_index>
262

> <i_lp_mmshare_version>
43012

> <i_f3d_flags>
0

> <s_epik_input>
W0NIMl0xW0NIMl1PW0NIMl1bQ0gyXUMxKFtPSF0pW0NIMl1uKFtjSF1uMiljKGMyMyluW2NIXW5jM040W0NIMl1bQ0gyXU4oW0NIMl1bQ0gyXTQpW0NIMl1bQ0BASF01W0NIMl1bQ0gyXU9bQ0gyXTU=

> <s_epik_cmdline>
J2VwaWtfcHl0aG9uJywgJy1waCcsICc3LjAnLCAnLXRuJywgJzgnLCAnLW1hJywgJzIwMCcsICctbWV0YWxfYmluZGluZycsICctaW1hZScsICc8aW5maWxlLm1hZT4nLCAnLW9tYWUnLCAnPG91dGZpbGUubWFlPic=

> <r_lp_tautomer_probability>
1

> <r_epik_Ionization_Penalty>
0.010889

> <r_epik_Ionization_Penalty_Charging>
0.0108222

> <r_epik_Ionization_Penalty_Neutral>
6.6801e-05

> <r_epik_State_Penalty>
0.00829663

> <r_epik_Charging_Adjusted_Penalty>
0.0191189

> <i_epik_Tot_Q>
1

> <i_epik_Tot_abs_Q>
1

> <r_epik_Metal_State_Penalty>
0.00842341

> <b_epik_Metal_Only>
0

> <s_lp_Force_Field>
OPLS_2005

> <r_lp_Energy>
57.8888

> <b_lp_Chiralities_Consistent>
1

> <s_lp_Variant>
AV-unprocessed.smi:262-1

> <Gold.Version>
5.8.1

> <Gold.Id.Protein>
6NUR|6NUR_protein|mol2

> <Gold.PLP.Fitness>
47.2843

> <Gold.PLP.PLP>
-33.1349

> <Gold.PLP.part.hbond>
-4.9135

> <Gold.PLP.part.metal>
0.0000

> <Gold.PLP.part.buried>
-4.2532

> <Gold.PLP.part.nonpolar>
-25.4165

> <Gold.PLP.part.repulsive>
0.8906

> <Gold.PLP.ligand.clash>
0.0000

> <Gold.PLP.ligand.torsion>
1.1749

> <Gold.PLP.Chemscore.Hbond>
4.3500

> <Gold.PLP.Chemscore.CHOScore>
0.9829

> <Gold.PLP.Chemscore.Metal>
0.0000

> <Gold.Chemscore.Hbonds>
donor molecule, donor type, donor heavy atom, donor atom, acceptor molecule, acceptor atom, score
      L1  H    12    60       P1 10957  1.70
      P1  H  6896  6908       L1    23  1.00
      P1  H  7989  7998       L1    27  0.58
      P1  H 10752 10763       L1     1  1.00
      L1  C     5    33       P1  7948  0.95

> <Gold.PLP.Chemscore.Internal.Correction>
0.5004

> <Gold.Rescore>
     Score         DG    S(hbond)    S(metal)    S(lipo)     H(rot)  DE(clash)    DE(int)     intcor
     12.53     -15.31       2.30        0.00      73.62       2.53       0.04       2.74       ----

> <Gold.Chemscore.Fitness>
12.5315

> <Gold.Chemscore.DG>
-15.3103

> <Gold.Chemscore.ZeroCoef>
-5.4800

> <Gold.Chemscore.Hbond>
2.3027

> <Gold.Chemscore.Metal>
0.0000

> <Gold.Chemscore.Lipo>
73.6161

> <Gold.Chemscore.Internal_Hbond>
0.0000

> <Gold.Chemscore.DEClash>
0.0371

> <Gold.Chemscore.DEInternal>
2.7417

> <Gold.Chemscore.Rot>
2.5288

> <Gold.Chemscore.Internal.Correction>
   9.000000E+99

> <Gold.Chemscore.Hbonds>
donor molecule, donor type, donor heavy atom, donor atom, acceptor molecule, acceptor atom, score
      L1  H    12    60       P1 10957  0.15
      P1  H  6896  6908       L1    23  0.55
      P1  H  7989  7998       L1    27  0.01
      P1  H 10752 10763       L1     1  0.32

> <Gold.Chemscore.Hbond.Weighted>
-7.6910

> <Gold.Chemscore.Metal.Weighted>
-0.0000

> <Gold.Chemscore.Lipo.Weighted>
-8.6131

> <Gold.Chemscore.Internal_Hbond.Weighted>
0.0000

> <Gold.Chemscore.DEClash.Weighted>
0.0371

> <Gold.Chemscore.DEInternal.Weighted>
2.7417

> <Gold.Chemscore.Rot.Weighted>
6.4738

> <Gold.Chemscore.Internal.Correction.Weighted>
   9.000000E+99

> <Gold.Protein.RotatedTorsions>
[ 6907 6896 6895 6894 ] final  169.36 input  -60.11 | X-H torsion
[ 7974 7965 7964 7962 ] final   64.32 input  175.53 | X-H torsion
[ 8008 7997 7996 7995 ] final    6.44 input   59.86 | X-H torsion
[ 10167 10162 10161 10158 ] final   53.08 input  -65.29 | X-H torsion
[ 10718 10713 10712 10709 ] final  -17.77 input   66.30 | X-H torsion
[ 10763 10752 10751 10750 ] final   56.40 input  -60.55 | X-H torsion
[ 11005 11000 10999 10996 ] final  125.76 input  -57.11 | X-H torsion

> <Gold.Protein.ActiveResidues>
 VAL166  LYS551  ARG553  GLY616  TRP617  ASP618  TYR619  PRO620  LYS621  CYS622 
 ASP623  PHE694  ASN695  SER759  ASP760  ASP761  ALA762  ILE779  LEU786  VAL792 
 PHE793  MET794  SER795  GLU796  ALA797  LYS798  CYS799  TRP800  GLU811  SER814 

> <Gold.Protein.RotatedAtoms>
  151.8332  133.3412  159.3619 H   0  0  0  0  0  0  0  0  0  0  0  0  # atno 6907 bound_to 6896
  150.7258  134.5463  159.5781 H   0  0  0  0  0  0  0  0  0  0  0  0  # atno 6908 bound_to 6896
  152.2921  134.7711  160.0427 H   0  0  0  0  0  0  0  0  0  0  0  0  # atno 6909 bound_to 6896
  145.8516  139.3257  143.0872 H   0  0  0  0  0  0  0  0  0  0  0  0  # atno 7974 bound_to 7965
  154.7411  140.2749  155.6372 H   0  0  0  0  0  0  0  0  0  0  0  0  # atno 8008 bound_to 7997
  156.2874  140.2697  156.2064 H   0  0  0  0  0  0  0  0  0  0  0  0  # atno 8009 bound_to 7997
  155.0257  140.0371  157.2444 H   0  0  0  0  0  0  0  0  0  0  0  0  # atno 8010 bound_to 7997
  140.2445  144.3547  150.6369 H   0  0  0  0  0  0  0  0  0  0  0  0  # atno 10167 bound_to 10162
  156.5689  130.4744  149.6372 H   0  0  0  0  0  0  0  0  0  0  0  0  # atno 10718 bound_to 10713
  152.9831  135.5677  154.5223 H   0  0  0  0  0  0  0  0  0  0  0  0  # atno 10763 bound_to 10752
  154.4709  135.2785  155.1645 H   0  0  0  0  0  0  0  0  0  0  0  0  # atno 10764 bound_to 10752
  154.3194  135.6272  153.5554 H   0  0  0  0  0  0  0  0  0  0  0  0  # atno 10765 bound_to 10752
  139.9422  134.9634  156.8607 H   0  0  0  0  0  0  0  0  0  0  0  0  # atno 11005 bound_to 11000
  145.9351  140.9020  143.0336 LP  0  0  0  0  0  0  0  0  0  0  0  0  # atno 17320 bound_to 7965
  144.6729  140.1472  143.7433 LP  0  0  0  0  0  0  0  0  0  0  0  0  # atno 17321 bound_to 7965
  140.6088  143.2168  151.6928 LP  0  0  0  0  0  0  0  0  0  0  0  0  # atno 17342 bound_to 10162
  139.5066  144.3675  152.0502 LP  0  0  0  0  0  0  0  0  0  0  0  0  # atno 17343 bound_to 10162
  156.2732  130.7029  151.1832 LP  0  0  0  0  0  0  0  0  0  0  0  0  # atno 17370 bound_to 10713
  157.7352  131.0574  150.5480 LP  0  0  0  0  0  0  0  0  0  0  0  0  # atno 17371 bound_to 10713
  140.5922  134.0251  155.7504 LP  0  0  0  0  0  0  0  0  0  0  0  0  # atno 17394 bound_to 11000
  141.1061  133.9691  157.2994 LP  0  0  0  0  0  0  0  0  0  0  0  0  # atno 17395 bound_to 11000

$$$$
