AV-unprocessed.smi:3027|AV-procd|sdf|11516|dock8
  -GOLD-   2272016453D 1   1.00000     0.00000
 Structure written by MMmdl.
 37 38  0  0  0  0  0  0  0  0  2 V2000
  150.6599  135.9902  154.9012 C   0  0  0  0  0  0  0  0  0  0  0  0
  150.7811  137.4855  154.9634 C   0  0  0  0  0  0  0  0  0  0  0  0
  150.5106  138.4293  153.9319 C   0  0  0  0  0  0  0  0  0  0  0  0
  150.7141  139.6797  154.3134 N   0  0  0  0  0  0  0  0  0  0  0  0
  151.1231  139.5783  155.5959 N   0  0  0  0  0  0  0  0  0  0  0  0
  151.4303  140.7780  156.3523 C   0  0  0  0  0  0  0  0  0  0  0  0
  150.2866  141.8131  156.3204 C   0  0  1  0  0  0  0  0  0  0  0  0
  149.2216  141.4797  157.3734 C   0  0  0  0  0  0  0  0  0  0  0  0
  150.7984  143.1834  156.5569 N   0  3  0  0  0  0  0  0  0  0  0  0
  151.1700  143.4919  157.9554 C   0  0  0  0  0  0  0  0  0  0  0  0
  149.9990  144.0687  158.7490 C   0  0  0  0  0  0  0  0  0  0  0  0
  150.6580  144.7653  159.9431 C   0  0  0  0  0  0  0  0  0  0  0  0
  152.0732  145.1520  159.4832 C   0  0  0  0  0  0  0  0  0  0  0  0
  152.2396  144.5816  158.0688 C   0  0  0  0  0  0  0  0  0  0  0  0
  151.1750  138.2655  156.0133 C   0  0  0  0  0  0  0  0  0  0  0  0
  150.3662  135.6477  153.9088 H   0  0  0  0  0  0  0  0  0  0  0  0
  149.9138  135.6181  155.6033 H   0  0  0  0  0  0  0  0  0  0  0  0
  151.6033  135.5004  155.1433 H   0  0  0  0  0  0  0  0  0  0  0  0
  150.1721  138.2433  152.9231 H   0  0  0  0  0  0  0  0  0  0  0  0
  151.6329  140.4779  157.3814 H   0  0  0  0  0  0  0  0  0  0  0  0
  152.3556  141.2133  155.9707 H   0  0  0  0  0  0  0  0  0  0  0  0
  149.7993  141.7694  155.3452 H   0  0  0  0  0  0  0  0  0  0  0  0
  148.8018  140.4870  157.2070 H   0  0  0  0  0  0  0  0  0  0  0  0
  148.3975  142.1932  157.3373 H   0  0  0  0  0  0  0  0  0  0  0  0
  149.6372  141.5001  158.3814 H   0  0  0  0  0  0  0  0  0  0  0  0
  151.6163  143.3267  155.9823 H   0  0  0  0  0  0  0  0  0  0  0  0
  151.5174  142.5896  158.4600 H   0  0  0  0  0  0  0  0  0  0  0  0
  149.4652  144.8071  158.1485 H   0  0  0  0  0  0  0  0  0  0  0  0
  149.2817  143.3057  159.0535 H   0  0  0  0  0  0  0  0  0  0  0  0
  150.0814  145.6296  160.2741 H   0  0  0  0  0  0  0  0  0  0  0  0
  150.7229  144.0748  160.7851 H   0  0  0  0  0  0  0  0  0  0  0  0
  152.2191  146.2326  159.4895 H   0  0  0  0  0  0  0  0  0  0  0  0
  152.8134  144.7204  160.1582 H   0  0  0  0  0  0  0  0  0  0  0  0
  153.2468  144.2035  157.8916 H   0  0  0  0  0  0  0  0  0  0  0  0
  152.0497  145.3695  157.3382 H   0  0  0  0  0  0  0  0  0  0  0  0
  151.4803  137.9977  157.0144 H   0  0  0  0  0  0  0  0  0  0  0  0
  150.0836  143.8338  156.2626 H   0  0  0  0  0  0  0  0  0  0  0  0
  1  2  1  0  0  0  0
  1 16  1  0  0  0  0
  1 17  1  0  0  0  0
  1 18  1  0  0  0  0
  2 15  2  0  0  0  0
  2  3  1  0  0  0  0
  3  4  2  0  0  0  0
  3 19  1  0  0  0  0
  4  5  1  0  0  0  0
  5  6  1  0  0  0  0
  5 15  1  0  0  0  0
  6  7  1  0  0  0  0
  6 20  1  0  0  0  0
  6 21  1  0  0  0  0
  7  8  1  0  0  0  0
  7  9  1  0  0  0  0
  7 22  1  0  0  0  0
  8 23  1  0  0  0  0
  8 24  1  0  0  0  0
  8 25  1  0  0  0  0
  9 10  1  0  0  0  0
  9 26  1  0  0  0  0
  9 37  1  0  0  0  0
 10 14  1  0  0  0  0
 10 11  1  0  0  0  0
 10 27  1  0  0  0  0
 11 12  1  0  0  0  0
 11 28  1  0  0  0  0
 11 29  1  0  0  0  0
 12 13  1  0  0  0  0
 12 30  1  0  0  0  0
 12 31  1  0  0  0  0
 13 14  1  0  0  0  0
 13 32  1  0  0  0  0
 13 33  1  0  0  0  0
 14 34  1  0  0  0  0
 14 35  1  0  0  0  0
 15 36  1  0  0  0  0
M  CHG  1   9   1
M  END
> <s_m_source_file>
AV-unprocessed.smi

> <i_m_source_file_index>
3027

> <i_lp_mmshare_version>
43012

> <i_f3d_flags>
0

> <s_epik_input>
W0NIM11jMVtjSF1ubihbY0hdMSlbQ0gyXVtDQEhdKFtDSDNdKVtOSF1bQ0hdMltDSDJdW0NIMl1bQ0gyXVtDSDJdMg==

> <s_epik_cmdline>
J2VwaWtfcHl0aG9uJywgJy1waCcsICc3LjAnLCAnLXRuJywgJzgnLCAnLW1hJywgJzIwMCcsICctbWV0YWxfYmluZGluZycsICctaW1hZScsICc8aW5maWxlLm1hZT4nLCAnLW9tYWUnLCAnPG91dGZpbGUubWFlPic=

> <r_lp_tautomer_probability>
1

> <r_epik_Ionization_Penalty>
0.00150056

> <r_epik_Ionization_Penalty_Charging>
0.00149132

> <r_epik_Ionization_Penalty_Neutral>
9.24096e-06

> <r_epik_State_Penalty>
0.00099871

> <r_epik_Charging_Adjusted_Penalty>
0.00249003

> <i_epik_Tot_Q>
1

> <i_epik_Tot_abs_Q>
1

> <r_epik_Metal_State_Penalty>
-0

> <b_epik_Metal_Only>
0

> <s_lp_Force_Field>
OPLS_2005

> <r_lp_Energy>
25.7776

> <b_lp_Chiralities_Consistent>
1

> <s_lp_Variant>
AV-unprocessed.smi:3027-2

> <Gold.Version>
5.8.1

> <Gold.Id.Protein>
6NUR|6NUR_protein|mol2

> <Gold.PLP.Fitness>
48.7783

> <Gold.PLP.PLP>
-35.3739

> <Gold.PLP.part.hbond>
-2.0000

> <Gold.PLP.part.metal>
0.0000

> <Gold.PLP.part.buried>
-4.8335

> <Gold.PLP.part.nonpolar>
-29.6511

> <Gold.PLP.part.repulsive>
0.2081

> <Gold.PLP.ligand.clash>
0.0000

> <Gold.PLP.ligand.torsion>
0.7420

> <Gold.PLP.Chemscore.Hbond>
3.0000

> <Gold.PLP.Chemscore.CHOScore>
1.9540

> <Gold.PLP.Chemscore.Metal>
0.0000

> <Gold.Chemscore.Hbonds>
donor molecule, donor type, donor heavy atom, donor atom, acceptor molecule, acceptor atom, score
      L1  H     9    37       P1  8028  2.00
      P1  H  7989  7998       L1     4  1.00
      L1  C     3    19       P1  7948  0.95
      L1  C     3    19       P1  7949  0.04
      L1  C     3    19       P1  7957  0.87

> <Gold.PLP.Chemscore.Internal.Correction>
0.0264

> <Gold.Rescore>
     Score         DG    S(hbond)    S(metal)    S(lipo)     H(rot)  DE(clash)    DE(int)     intcor
     19.24     -20.02       1.99        0.00      98.10       1.40       0.03       0.74       ----

> <Gold.Chemscore.Fitness>
19.2447

> <Gold.Chemscore.DG>
-20.0201

> <Gold.Chemscore.ZeroCoef>
-5.4800

> <Gold.Chemscore.Hbond>
1.9893

> <Gold.Chemscore.Metal>
0.0000

> <Gold.Chemscore.Lipo>
98.1007

> <Gold.Chemscore.Internal_Hbond>
0.0000

> <Gold.Chemscore.DEClash>
0.0320

> <Gold.Chemscore.DEInternal>
0.7434

> <Gold.Chemscore.Rot>
1.3991

> <Gold.Chemscore.Internal.Correction>
   9.000000E+99

> <Gold.Chemscore.Hbonds>
donor molecule, donor type, donor heavy atom, donor atom, acceptor molecule, acceptor atom, score
      L1  H     9    37       P1  8028  0.98
      P1  H  7989  7998       L1     4  0.78

> <Gold.Chemscore.Hbond.Weighted>
-6.6441

> <Gold.Chemscore.Metal.Weighted>
-0.0000

> <Gold.Chemscore.Lipo.Weighted>
-11.4778

> <Gold.Chemscore.Internal_Hbond.Weighted>
0.0000

> <Gold.Chemscore.DEClash.Weighted>
0.0320

> <Gold.Chemscore.DEInternal.Weighted>
0.7434

> <Gold.Chemscore.Rot.Weighted>
3.5818

> <Gold.Chemscore.Internal.Correction.Weighted>
   9.000000E+99

> <Gold.Protein.RotatedTorsions>
[ 6907 6896 6895 6894 ] final  -51.85 input  -60.11 | X-H torsion
[ 7974 7965 7964 7962 ] final  -93.89 input  175.53 | X-H torsion
[ 8008 7997 7996 7995 ] final   34.40 input   59.86 | X-H torsion
[ 10167 10162 10161 10158 ] final  -69.60 input  -65.29 | X-H torsion
[ 10718 10713 10712 10709 ] final   32.70 input   66.30 | X-H torsion
[ 10763 10752 10751 10750 ] final  -12.70 input  -60.55 | X-H torsion
[ 11005 11000 10999 10996 ] final  -66.09 input  -57.11 | X-H torsion

> <Gold.Protein.ActiveResidues>
 VAL166  LYS551  ARG553  GLY616  TRP617  ASP618  TYR619  PRO620  LYS621  CYS622 
 ASP623  PHE694  ASN695  SER759  ASP760  ASP761  ALA762  ILE779  LEU786  VAL792 
 PHE793  MET794  SER795  GLU796  ALA797  LYS798  CYS799  TRP800  GLU811  SER814 

> <Gold.Protein.RotatedAtoms>
  150.8573  134.7915  159.7054 H   0  0  0  0  0  0  0  0  0  0  0  0  # atno 6907 bound_to 6896
  152.4620  134.5158  159.9777 H   0  0  0  0  0  0  0  0  0  0  0  0  # atno 6908 bound_to 6896
  151.5268  133.3418  159.2947 H   0  0  0  0  0  0  0  0  0  0  0  0  # atno 6909 bound_to 6896
  145.3805  140.9517  143.2396 H   0  0  0  0  0  0  0  0  0  0  0  0  # atno 7974 bound_to 7965
  155.1543  140.3277  155.4424 H   0  0  0  0  0  0  0  0  0  0  0  0  # atno 8008 bound_to 7997
  156.2564  140.1971  156.6603 H   0  0  0  0  0  0  0  0  0  0  0  0  # atno 8009 bound_to 7997
  154.6451  140.0565  156.9877 H   0  0  0  0  0  0  0  0  0  0  0  0  # atno 8010 bound_to 7997
  140.5418  143.2314  151.7075 H   0  0  0  0  0  0  0  0  0  0  0  0  # atno 10167 bound_to 10162
  157.2886  130.7291  149.6597 H   0  0  0  0  0  0  0  0  0  0  0  0  # atno 10718 bound_to 10713
  153.5024  135.7017  153.5824 H   0  0  0  0  0  0  0  0  0  0  0  0  # atno 10763 bound_to 10752
  153.3950  135.3886  155.1949 H   0  0  0  0  0  0  0  0  0  0  0  0  # atno 10764 bound_to 10752
  154.8709  135.3867  154.4496 H   0  0  0  0  0  0  0  0  0  0  0  0  # atno 10765 bound_to 10752
  141.1472  133.6693  156.6086 H   0  0  0  0  0  0  0  0  0  0  0  0  # atno 11005 bound_to 11000
  144.8511  139.5321  143.6856 LP  0  0  0  0  0  0  0  0  0  0  0  0  # atno 17320 bound_to 7965
  146.2844  139.6964  142.9206 LP  0  0  0  0  0  0  0  0  0  0  0  0  # atno 17321 bound_to 7965
  139.4992  144.3957  152.0234 LP  0  0  0  0  0  0  0  0  0  0  0  0  # atno 17342 bound_to 10162
  140.3067  144.3585  150.6045 LP  0  0  0  0  0  0  0  0  0  0  0  0  # atno 17343 bound_to 10162
  155.9666  130.4316  150.4926 LP  0  0  0  0  0  0  0  0  0  0  0  0  # atno 17370 bound_to 10713
  157.2884  131.0621  151.2150 LP  0  0  0  0  0  0  0  0  0  0  0  0  # atno 17371 bound_to 10713
  140.3632  134.7669  157.4548 LP  0  0  0  0  0  0  0  0  0  0  0  0  # atno 17394 bound_to 11000
  140.0768  134.5786  155.8582 LP  0  0  0  0  0  0  0  0  0  0  0  0  # atno 17395 bound_to 11000

$$$$
