#       Name:                AV-unprocessed.smi:2072
#       Creating user name   scv26
#       Creation time:       Fri Mar 27 11:14:25 2020


#       File generated by GOLD software.
#

@<TRIPOS>MOLECULE
AV-unprocessed.smi:2072
    43    45     1
SMALL
NO_CHARGES


@<TRIPOS>ATOM
      1 ****         1.6053   1.5500   0.2014 O.2            1 S1                 0.0000
      2 ****         1.4117   0.4894   0.7940 C.2            1 S1                 0.0000
      3 ****         2.3531  -0.4187   1.1030 N.am           1 S1                 0.0000
      4 ****         3.7474  -0.3918   0.8256 C.ar           1 S1                 0.0000
      5 ****         4.4734   0.7669   0.4552 C.ar           1 S1                 0.0000
      6 ****         5.8569   0.6554   0.2180 C.ar           1 S1                 0.0000
      7 ****         6.4663  -0.6052   0.3658 C.ar           1 S1                 0.0000
      8 ****         5.7902  -1.7150   0.7294 N.ar           1 S1                 0.0000
      9 ****         4.4642  -1.6006   0.9549 C.ar           1 S1                 0.0000
     10 ****         0.1985   0.0839   1.1962 N.am           1 S1                 0.0000
     11 ****        -1.0424   0.8382   1.0247 C.3            1 S1                 0.0000
     12 ****        -2.1101   0.4856   2.0783 C.3            1 S1                 0.0000
     13 ****        -3.4293   0.4580   1.2995 C.3            1 S1                 0.0000
     14 ****        -3.0191  -0.0303  -0.0221 N.4            1 S1                 1.0000
     15 ****        -3.9897   0.0386  -1.1332 C.3            1 S1                 0.0000
     16 ****        -3.3915  -0.7000  -2.3497 C.3            1 S1                 0.0000
     17 ****        -1.9764  -0.1907  -2.7055 C.3            1 S1                 0.0000
     18 ****        -1.0478  -0.1655  -1.4721 C.3            1 S1                 0.0000
     19 ****        -1.7370   0.6212  -0.3420 C.3            1 S1                 0.0000
     20 ****         2.0225  -1.2638   1.5455 H              1 S1                 0.0000
     21 ****         4.0090   1.7351   0.3583 H              1 S1                 0.0000
     22 ****         6.4390   1.5189  -0.0679 H              1 S1                 0.0000
     23 ****         7.5255  -0.7242   0.1913 H              1 S1                 0.0000
     24 ****         3.9570  -2.5092   1.2450 H              1 S1                 0.0000
     25 ****         0.1306  -0.8045   1.6712 H              1 S1                 0.0000
     26 ****        -0.8173   1.9020   1.1265 H              1 S1                 0.0000
     27 ****        -1.9193  -0.5048   2.4945 H              1 S1                 0.0000
     28 ****        -2.1315   1.1921   2.9089 H              1 S1                 0.0000
     29 ****        -4.1777  -0.1877   1.7599 H              1 S1                 0.0000
     30 ****        -3.8445   1.4630   1.2097 H              1 S1                 0.0000
     31 ****        -4.9279  -0.4292  -0.8331 H              1 S1                 0.0000
     32 ****        -4.2087   1.0790  -1.3779 H              1 S1                 0.0000
     33 ****        -3.3386  -1.7667  -2.1284 H              1 S1                 0.0000
     34 ****        -4.0530  -0.5993  -3.2108 H              1 S1                 0.0000
     35 ****        -1.5407  -0.8107  -3.4897 H              1 S1                 0.0000
     36 ****        -2.0523   0.8161  -3.1183 H              1 S1                 0.0000
     37 ****        -0.8267  -1.1835  -1.1482 H              1 S1                 0.0000
     38 ****        -0.0981   0.2977  -1.7404 H              1 S1                 0.0000
     39 ****        -1.9655   1.6181  -0.7258 H              1 S1                 0.0000
     40 ****        -2.8065  -1.0088   0.1099 H              1 S1                 0.0000
     41 ****         2.5284   1.7966  -0.0938 LP             1 S1                 0.0000
     42 ****         0.8396   2.1655   0.0148 LP             1 S1                 0.0000
     43 ****         6.2566  -2.5940   0.8286 LP             1 S1                 0.0000
@<TRIPOS>BOND
    1    1    2 2     
    2    2    3 am    
    3    2   10 am    
    4    3    4 1     
    5    3   20 1     
    6    4    9 ar    
    7    4    5 ar    
    8    5    6 ar    
    9    5   21 1     
   10    6    7 ar    
   11    6   22 1     
   12    7    8 ar    
   13    7   23 1     
   14    8    9 ar    
   15    9   24 1     
   16   10   11 1     
   17   10   25 1     
   18   11   19 1     
   19   11   12 1     
   20   11   26 1     
   21   12   13 1     
   22   12   27 1     
   23   12   28 1     
   24   13   14 1     
   25   13   29 1     
   26   13   30 1     
   27   14   19 1     
   28   14   15 1     
   29   14   40 1     
   30   15   16 1     
   31   15   31 1     
   32   15   32 1     
   33   16   17 1     
   34   16   33 1     
   35   16   34 1     
   36   17   18 1     
   37   17   35 1     
   38   17   36 1     
   39   18   19 1     
   40   18   37 1     
   41   18   38 1     
   42   19   39 1     
   43    1   41 1     
   44    1   42 1     
   45    8   43 1     
@<TRIPOS>SUBSTRUCTURE
      1 S1             1
@<TRIPOS>SET
LONE_PAIRS      STATIC     ATOMS    <user>   **** ""
3 41 42 43
DONOR_HYDROGENS      STATIC     ATOMS    <user>   **** ""
3 20 25 40
ATOM$BLUE        STATIC     ATOMS    COLORGROUP SYSTEM
3 41 42 43
ATOM$RED        STATIC     ATOMS    COLORGROUP SYSTEM
3 20 25 40
