AV-unprocessed.smi:287|AV-procd|sdf|2177|dock8
  -GOLD-   2262021543D 1   1.00000     0.00000
 Structure written by MMmdl.
 55 58  0  0  0  0  0  0  0  0  1 V2000
  152.3861  138.8036  155.1080 C   0  0  0  0  0  0  0  0  0  0  0  0
  150.9598  139.1349  154.8308 C   0  0  0  0  0  0  0  0  0  0  0  0
  150.0276  138.6437  153.9643 C   0  0  0  0  0  0  0  0  0  0  0  0
  148.8264  139.3886  154.1625 C   0  0  0  0  0  0  0  0  0  0  0  0
  147.5128  139.1936  153.4173 C   0  0  1  0  0  0  0  0  0  0  0  0
  147.0313  140.5398  152.8526 C   0  0  0  0  0  0  0  0  0  0  0  0
  147.6422  138.3386  152.2975 O   0  0  0  0  0  0  0  0  0  0  0  0
  146.4123  138.5658  154.3035 C   0  0  0  0  0  0  0  0  0  0  0  0
  145.1035  138.5498  153.6579 N   0  0  0  0  0  0  0  0  0  0  0  0
  144.4115  137.3964  153.5529 C   0  0  0  0  0  0  0  0  0  0  0  0
  143.4462  137.0740  154.4532 N   0  0  0  0  0  0  0  0  0  0  0  0
  142.7727  135.9259  154.3285 C   0  0  0  0  0  0  0  0  0  0  0  0
  142.9024  134.9785  153.3964 N   0  0  0  0  0  0  0  0  0  0  0  0
  143.8707  135.3019  152.4908 C   0  0  0  0  0  0  0  0  0  0  0  0
  144.6644  136.4815  152.4988 C   0  0  0  0  0  0  0  0  0  0  0  0
  145.5417  136.4648  151.4222 N   0  0  0  0  0  0  0  0  0  0  0  0
  145.2738  135.3404  150.8131 C   0  0  0  0  0  0  0  0  0  0  0  0
  144.2756  134.5823  151.3888 N   0  0  0  0  0  0  0  0  0  0  0  0
  143.7152  133.2657  150.9575 C   0  0  2  0  0  0  0  0  0  0  0  0
  144.3299  132.2671  151.7206 O   0  0  0  0  0  0  0  0  0  0  0  0
  145.0729  131.3718  150.8930 C   0  0  2  0  0  0  0  0  0  0  0  0
  146.3449  130.9112  151.6217 C   0  0  0  0  0  0  0  0  0  0  0  0
  147.2282  131.9990  151.7883 O   0  0  0  0  0  0  0  0  0  0  0  0
  145.3547  132.1946  149.6358 C   0  0  1  0  0  0  0  0  0  0  0  0
  145.6313  131.4054  148.4950 O   0  0  0  0  0  0  0  0  0  0  0  0
  144.0824  133.0145  149.4897 C   0  0  1  0  0  0  0  0  0  0  0  0
  143.0432  132.3234  148.8202 O   0  0  0  0  0  0  0  0  0  0  0  0
  149.1267  140.2747  155.1691 C   0  0  0  0  0  0  0  0  0  0  0  0
  148.3499  141.3257  155.8911 C   0  0  0  0  0  0  0  0  0  0  0  0
  150.4195  140.1327  155.5743 O   0  0  0  0  0  0  0  0  0  0  0  0
  142.6458  133.3433  151.1578 H   0  0  0  0  0  0  0  0  0  0  0  0
  144.4358  130.5232  150.6356 H   0  0  0  0  0  0  0  0  0  0  0  0
  146.1957  132.8665  149.8164 H   0  0  0  0  0  0  0  0  0  0  0  0
  144.2605  133.9508  148.9586 H   0  0  0  0  0  0  0  0  0  0  0  0
  152.7657  138.0828  154.3838 H   0  0  0  0  0  0  0  0  0  0  0  0
  152.4961  138.3731  156.1033 H   0  0  0  0  0  0  0  0  0  0  0  0
  153.0088  139.6967  155.0527 H   0  0  0  0  0  0  0  0  0  0  0  0
  150.1905  137.8425  153.2587 H   0  0  0  0  0  0  0  0  0  0  0  0
  146.8695  141.2666  153.6496 H   0  0  0  0  0  0  0  0  0  0  0  0
  146.0901  140.4332  152.3116 H   0  0  0  0  0  0  0  0  0  0  0  0
  147.7623  140.9658  152.1639 H   0  0  0  0  0  0  0  0  0  0  0  0
  148.2788  138.7121  151.7076 H   0  0  0  0  0  0  0  0  0  0  0  0
  146.6820  137.5295  154.5131 H   0  0  0  0  0  0  0  0  0  0  0  0
  146.3533  139.0730  155.2678 H   0  0  0  0  0  0  0  0  0  0  0  0
  144.7725  139.4355  153.3021 H   0  0  0  0  0  0  0  0  0  0  0  0
  142.0213  135.7414  155.0821 H   0  0  0  0  0  0  0  0  0  0  0  0
  145.8009  135.0384  149.9203 H   0  0  0  0  0  0  0  0  0  0  0  0
  146.0935  130.5403  152.6158 H   0  0  0  0  0  0  0  0  0  0  0  0
  146.8387  130.0983  151.0893 H   0  0  0  0  0  0  0  0  0  0  0  0
  148.0003  131.8415  151.2667 H   0  0  0  0  0  0  0  0  0  0  0  0
  145.1386  130.6014  148.5646 H   0  0  0  0  0  0  0  0  0  0  0  0
  142.2561  132.8444  148.8718 H   0  0  0  0  0  0  0  0  0  0  0  0
  147.3905  140.9345  156.2292 H   0  0  0  0  0  0  0  0  0  0  0  0
  148.1586  142.1794  155.2411 H   0  0  0  0  0  0  0  0  0  0  0  0
  148.8905  141.6841  156.7673 H   0  0  0  0  0  0  0  0  0  0  0  0
  1  2  1  0  0  0  0
  1 35  1  0  0  0  0
  1 36  1  0  0  0  0
  1 37  1  0  0  0  0
  2 30  1  0  0  0  0
  2  3  2  0  0  0  0
  3  4  1  0  0  0  0
  3 38  1  0  0  0  0
  4  5  1  0  0  0  0
  4 28  2  0  0  0  0
  5  6  1  0  0  0  0
  5  7  1  0  0  0  0
  5  8  1  0  0  0  0
  6 39  1  0  0  0  0
  6 40  1  0  0  0  0
  6 41  1  0  0  0  0
  7 42  1  0  0  0  0
  8  9  1  0  0  0  0
  8 43  1  0  0  0  0
  8 44  1  0  0  0  0
  9 10  1  0  0  0  0
  9 45  1  0  0  0  0
 10 15  1  0  0  0  0
 10 11  2  0  0  0  0
 11 12  1  0  0  0  0
 12 13  2  0  0  0  0
 12 46  1  0  0  0  0
 13 14  1  0  0  0  0
 14 18  1  0  0  0  0
 14 15  2  0  0  0  0
 15 16  1  0  0  0  0
 16 17  2  0  0  0  0
 17 18  1  0  0  0  0
 17 47  1  0  0  0  0
 18 19  1  0  0  0  0
 19 31  1  0  0  0  0
 19 26  1  0  0  0  0
 19 20  1  0  0  0  0
 20 21  1  0  0  0  0
 21 32  1  0  0  0  0
 21 22  1  0  0  0  0
 21 24  1  0  0  0  0
 22 23  1  0  0  0  0
 22 48  1  0  0  0  0
 22 49  1  0  0  0  0
 23 50  1  0  0  0  0
 24 33  1  0  0  0  0
 24 25  1  0  0  0  0
 24 26  1  0  0  0  0
 25 51  1  0  0  0  0
 26 34  1  0  0  0  0
 26 27  1  0  0  0  0
 27 52  1  0  0  0  0
 28 29  1  0  0  0  0
 28 30  1  0  0  0  0
 29 53  1  0  0  0  0
 29 54  1  0  0  0  0
 29 55  1  0  0  0  0
M  END
> <s_m_source_file>
AV-unprocessed.smi

> <i_m_source_file_index>
287

> <i_lp_mmshare_version>
43012

> <i_f3d_flags>
0

> <s_epik_input>
W0NIM11jMVtjSF1jKGMobzEpW0NIM10pW0NAQF0oW0NIM10pKFtPSF0pW0NIMl1bTkhdYyhuW2NIXW4yKWMoYzIzKW5bY0hdbjNbQ0BASF00T1tDQEhdKFtDSDJdW09IXSlbQ0BASF0oW09IXSlbQ0BIXTRbT0hd

> <s_epik_cmdline>
J2VwaWtfcHl0aG9uJywgJy1waCcsICc3LjAnLCAnLXRuJywgJzgnLCAnLW1hJywgJzIwMCcsICctbWV0YWxfYmluZGluZycsICctaW1hZScsICc8aW5maWxlLm1hZT4nLCAnLW9tYWUnLCAnPG91dGZpbGUubWFlPic=

> <r_lp_tautomer_probability>
1

> <r_epik_Ionization_Penalty>
0.000992612

> <r_epik_Ionization_Penalty_Charging>
0

> <r_epik_Ionization_Penalty_Neutral>
0.000992612

> <r_epik_State_Penalty>
-0

> <r_epik_Charging_Adjusted_Penalty>
0

> <i_epik_Tot_Q>
0

> <i_epik_Tot_abs_Q>
0

> <r_epik_Metal_State_Penalty>
-0

> <b_epik_Metal_Only>
0

> <s_epik_Chemistry_Notes>
This compound contains an acetal/aminal-like group ( X-CH(R)-Y where X, Y are N, S, or O) that may be acid/base labile, releasing an aldehyde.

> <s_lp_Force_Field>
OPLS_2005

> <r_lp_Energy>
40.3349

> <b_lp_Chiralities_Consistent>
1

> <s_lp_Variant>
AV-unprocessed.smi:287-1

> <Gold.Version>
5.8.1

> <Gold.Id.Protein>
6NUR|6NUR_protein|mol2

> <Gold.PLP.Fitness>
63.2714

> <Gold.PLP.PLP>
-49.4024

> <Gold.PLP.part.hbond>
-8.5441

> <Gold.PLP.part.metal>
0.0000

> <Gold.PLP.part.buried>
-4.5568

> <Gold.PLP.part.nonpolar>
-39.0318

> <Gold.PLP.part.repulsive>
0.7683

> <Gold.PLP.ligand.clash>
0.0000

> <Gold.PLP.ligand.torsion>
1.6727

> <Gold.PLP.Chemscore.Hbond>
4.3766

> <Gold.PLP.Chemscore.CHOScore>
1.3022

> <Gold.PLP.Chemscore.Metal>
0.0000

> <Gold.Chemscore.Hbonds>
donor molecule, donor type, donor heavy atom, donor atom, acceptor molecule, acceptor atom, score
      L1  H     7    42       P1  7957  1.00
      L1  H     9    45       P1 10175  1.00
      L1  H    23    50       P1 10747  1.00
      L1  H    27    52       P1 10186  0.81
      P1  H 10785 10796       L1    27  0.61
      L1  C    12    46       P1 11000  0.23
      L1  C    17    47       P1  7921  1.00

> <Gold.PLP.Chemscore.Internal.Correction>
0.1780

> <Gold.Rescore>
     Score         DG    S(hbond)    S(metal)    S(lipo)     H(rot)  DE(clash)    DE(int)     intcor
     15.52     -18.80       4.57        0.00      98.65       5.27       1.63       1.65       ----

> <Gold.Chemscore.Fitness>
15.5224

> <Gold.Chemscore.DG>
-18.7951

> <Gold.Chemscore.ZeroCoef>
-5.4800

> <Gold.Chemscore.Hbond>
4.5680

> <Gold.Chemscore.Metal>
0.0000

> <Gold.Chemscore.Lipo>
98.6500

> <Gold.Chemscore.Internal_Hbond>
0.0000

> <Gold.Chemscore.DEClash>
1.6259

> <Gold.Chemscore.DEInternal>
1.6468

> <Gold.Chemscore.Rot>
5.2672

> <Gold.Chemscore.Internal.Correction>
   9.000000E+99

> <Gold.Chemscore.Hbonds>
donor molecule, donor type, donor heavy atom, donor atom, acceptor molecule, acceptor atom, score
      L1  H     7    42       P1  7957  0.64
      L1  H     9    45       P1 10175  0.98
      L1  H    23    50       P1 10747  0.97
      L1  H    27    52       P1 10186  0.80
      P1  H 10785 10796       L1    27  0.56

> <Gold.Chemscore.Hbond.Weighted>
-15.2570

> <Gold.Chemscore.Metal.Weighted>
-0.0000

> <Gold.Chemscore.Lipo.Weighted>
-11.5421

> <Gold.Chemscore.Internal_Hbond.Weighted>
0.0000

> <Gold.Chemscore.DEClash.Weighted>
1.6259

> <Gold.Chemscore.DEInternal.Weighted>
1.6468

> <Gold.Chemscore.Rot.Weighted>
13.4839

> <Gold.Chemscore.Internal.Correction.Weighted>
   9.000000E+99

> <Gold.Protein.RotatedTorsions>
[ 6907 6896 6895 6894 ] final   27.48 input  -60.11 | X-H torsion
[ 7974 7965 7964 7962 ] final -113.11 input  175.53 | X-H torsion
[ 8008 7997 7996 7995 ] final  140.27 input   59.86 | X-H torsion
[ 10167 10162 10161 10158 ] final   19.16 input  -65.29 | X-H torsion
[ 10718 10713 10712 10709 ] final  153.00 input   66.30 | X-H torsion
[ 10763 10752 10751 10750 ] final -118.10 input  -60.55 | X-H torsion
[ 11005 11000 10999 10996 ] final -157.52 input  -57.11 | X-H torsion

> <Gold.Protein.ActiveResidues>
 VAL166  LYS551  ARG553  GLY616  TRP617  ASP618  TYR619  PRO620  LYS621  CYS622 
 ASP623  PHE694  ASN695  SER759  ASP760  ASP761  ALA762  ILE779  LEU786  VAL792 
 PHE793  MET794  SER795  GLU796  ALA797  LYS798  CYS799  TRP800  GLU811  SER814 

> <Gold.Protein.RotatedAtoms>
  152.0029  134.9918  160.0565 H   0  0  0  0  0  0  0  0  0  0  0  0  # atno 6907 bound_to 6896
  152.1502  133.4512  159.4818 H   0  0  0  0  0  0  0  0  0  0  0  0  # atno 6908 bound_to 6896
  150.6874  134.2116  159.4404 H   0  0  0  0  0  0  0  0  0  0  0  0  # atno 6909 bound_to 6896
  145.1359  140.8751  143.3730 H   0  0  0  0  0  0  0  0  0  0  0  0  # atno 7974 bound_to 7965
  156.2981  140.2346  156.4373 H   0  0  0  0  0  0  0  0  0  0  0  0  # atno 8008 bound_to 7997
  154.8217  140.0437  157.1435 H   0  0  0  0  0  0  0  0  0  0  0  0  # atno 8009 bound_to 7997
  154.9308  140.3016  155.5172 H   0  0  0  0  0  0  0  0  0  0  0  0  # atno 8010 bound_to 7997
  140.5600  143.9355  150.6636 H   0  0  0  0  0  0  0  0  0  0  0  0  # atno 10167 bound_to 10162
  157.2505  131.0778  151.1733 H   0  0  0  0  0  0  0  0  0  0  0  0  # atno 10718 bound_to 10713
  154.8576  135.4286  154.2084 H   0  0  0  0  0  0  0  0  0  0  0  0  # atno 10763 bound_to 10752
  153.3115  135.6976  153.7117 H   0  0  0  0  0  0  0  0  0  0  0  0  # atno 10764 bound_to 10752
  153.6207  135.3502  155.2984 H   0  0  0  0  0  0  0  0  0  0  0  0  # atno 10765 bound_to 10752
  140.6637  134.4322  157.5234 H   0  0  0  0  0  0  0  0  0  0  0  0  # atno 11005 bound_to 11000
  145.0585  139.3124  143.5892 LP  0  0  0  0  0  0  0  0  0  0  0  0  # atno 17320 bound_to 7965
  146.3510  140.0018  142.8675 LP  0  0  0  0  0  0  0  0  0  0  0  0  # atno 17321 bound_to 7965
  140.2803  143.3394  152.1157 LP  0  0  0  0  0  0  0  0  0  0  0  0  # atno 17342 bound_to 10162
  139.5065  144.6816  151.5995 LP  0  0  0  0  0  0  0  0  0  0  0  0  # atno 17343 bound_to 10162
  157.3283  130.6972  149.6309 LP  0  0  0  0  0  0  0  0  0  0  0  0  # atno 17370 bound_to 10713
  155.9666  130.4315  150.4922 LP  0  0  0  0  0  0  0  0  0  0  0  0  # atno 17371 bound_to 10713
  139.9004  134.8569  156.1919 LP  0  0  0  0  0  0  0  0  0  0  0  0  # atno 17394 bound_to 11000
  141.0445  133.6920  156.1659 LP  0  0  0  0  0  0  0  0  0  0  0  0  # atno 17395 bound_to 11000

$$$$
