AV-unprocessed.smi:1756|AV-procd|sdf|7074|dock9
  -GOLD-   22720 8293D 1   1.00000     0.00000
 Structure written by MMmdl.
 37 38  0  0  0  0  0  0  0  0  2 V2000
  147.5159  132.5229  155.0476 O   0  0  0  0  0  0  0  0  0  0  0  0
  148.2671  133.2831  154.4371 C   0  0  0  0  0  0  0  0  0  0  0  0
  147.8316  134.1965  153.5576 N   0  0  0  0  0  0  0  0  0  0  0  0
  146.4369  134.4291  153.1954 C   0  0  0  0  0  0  0  0  0  0  0  0
  146.0803  133.8094  151.8319 C   0  0  1  0  0  0  0  0  0  0  0  0
  146.3714  132.2954  151.7473 C   0  0  0  0  0  0  0  0  0  0  0  0
  145.8966  131.7254  150.4061 C   0  0  0  0  0  0  0  0  0  0  0  0
  144.4294  132.0985  150.1740 C   0  0  0  0  0  0  0  0  0  0  0  0
  144.2343  133.6141  150.3327 C   0  0  0  0  0  0  0  0  0  0  0  0
  144.6876  134.0294  151.6177 O   0  0  0  0  0  0  0  0  0  0  0  0
  149.6089  133.3120  154.5263 N   0  0  0  0  0  0  0  0  0  0  0  0
  150.4723  132.5426  155.3250 C   0  0  0  0  0  0  0  0  0  0  0  0
  150.9534  131.3118  154.9946 C   0  0  0  0  0  0  0  0  0  0  0  0
  151.8367  130.5572  155.8747 C   0  0  0  0  0  0  0  0  0  0  0  0
  152.4687  129.2296  155.4949 C   0  0  0  0  0  0  0  0  0  0  0  0
  153.1567  128.7150  156.5146 F   0  0  0  0  0  0  0  0  0  0  0  0
  151.5213  128.3584  155.1512 F   0  0  0  0  0  0  0  0  0  0  0  0
  153.2959  129.3741  154.4595 F   0  0  0  0  0  0  0  0  0  0  0  0
  152.1194  131.2378  157.0431 C   0  0  0  0  0  0  0  0  0  0  0  0
  151.6663  132.4413  157.4571 N   0  5  0  0  0  0  0  0  0  0  0  0
  150.8397  133.1375  156.6268 C   0  0  0  0  0  0  0  0  0  0  0  0
  150.3964  134.2432  156.9394 O   0  0  0  0  0  0  0  0  0  0  0  0
  148.5203  134.7740  153.0983 H   0  0  0  0  0  0  0  0  0  0  0  0
  145.7594  134.0657  153.9700 H   0  0  0  0  0  0  0  0  0  0  0  0
  146.2915  135.5087  153.1498 H   0  0  0  0  0  0  0  0  0  0  0  0
  146.6390  134.3330  151.0539 H   0  0  0  0  0  0  0  0  0  0  0  0
  147.4372  132.1005  151.8658 H   0  0  0  0  0  0  0  0  0  0  0  0
  145.8670  131.7785  152.5646 H   0  0  0  0  0  0  0  0  0  0  0  0
  146.5107  132.1279  149.5994 H   0  0  0  0  0  0  0  0  0  0  0  0
  146.0230  130.6428  150.3872 H   0  0  0  0  0  0  0  0  0  0  0  0
  144.1100  131.7773  149.1824 H   0  0  0  0  0  0  0  0  0  0  0  0
  143.7993  131.5733  150.8928 H   0  0  0  0  0  0  0  0  0  0  0  0
  144.7671  134.1599  149.5526 H   0  0  0  0  0  0  0  0  0  0  0  0
  143.1789  133.8682  150.2334 H   0  0  0  0  0  0  0  0  0  0  0  0
  150.0834  133.9571  153.9115 H   0  0  0  0  0  0  0  0  0  0  0  0
  150.6791  130.8389  154.0665 H   0  0  0  0  0  0  0  0  0  0  0  0
  152.8191  130.7429  157.7501 H   0  0  0  0  0  0  0  0  0  0  0  0
  1  2  2  0  0  0  0
  2  3  1  0  0  0  0
  2 11  1  0  0  0  0
  3  4  1  0  0  0  0
  3 23  1  0  0  0  0
  4  5  1  0  0  0  0
  4 24  1  0  0  0  0
  4 25  1  0  0  0  0
  5 10  1  0  0  0  0
  5  6  1  0  0  0  0
  5 26  1  0  0  0  0
  6  7  1  0  0  0  0
  6 27  1  0  0  0  0
  6 28  1  0  0  0  0
  7  8  1  0  0  0  0
  7 29  1  0  0  0  0
  7 30  1  0  0  0  0
  8  9  1  0  0  0  0
  8 31  1  0  0  0  0
  8 32  1  0  0  0  0
  9 10  1  0  0  0  0
  9 33  1  0  0  0  0
  9 34  1  0  0  0  0
 11 12  1  0  0  0  0
 11 35  1  0  0  0  0
 12 21  1  0  0  0  0
 12 13  2  0  0  0  0
 13 14  1  0  0  0  0
 13 36  1  0  0  0  0
 14 15  1  0  0  0  0
 14 19  2  0  0  0  0
 15 16  1  0  0  0  0
 15 17  1  0  0  0  0
 15 18  1  0  0  0  0
 19 20  1  0  0  0  0
 19 37  1  0  0  0  0
 20 21  1  0  0  0  0
 21 22  2  0  0  0  0
M  CHG  1  20  -1
M  END
> <s_m_source_file>
AV-unprocessed.smi

> <i_m_source_file_index>
1756

> <i_lp_mmshare_version>
43012

> <i_f3d_flags>
0

> <s_epik_input>
Tz1jMVtuSF1bY0hdYyhDKEYpKEYpRilbY0hdYzFbTkhdQyg9TylbTkhdW0NIMl1bQ0BASF0yW0NIMl1bQ0gyXVtDSDJdW0NIMl1PMg==

> <s_epik_cmdline>
J2VwaWtfcHl0aG9uJywgJy1waCcsICc3LjAnLCAnLXRuJywgJzgnLCAnLW1hJywgJzIwMCcsICctbWV0YWxfYmluZGluZycsICctaW1hZScsICc8aW5maWxlLm1hZT4nLCAnLW9tYWUnLCAnPG91dGZpbGUubWFlPic=

> <r_lp_tautomer_probability>
1

> <r_epik_Ionization_Penalty>
3.16985

> <r_epik_Ionization_Penalty_Charging>
0.174782

> <r_epik_Ionization_Penalty_Neutral>
2.99507

> <r_epik_State_Penalty>
2.99125

> <r_epik_Charging_Adjusted_Penalty>
3.16603

> <i_epik_Tot_Q>
-1

> <i_epik_Tot_abs_Q>
1

> <r_epik_Metal_State_Penalty>
0.453096

> <b_epik_Metal_Only>
1

> <s_lp_Force_Field>
OPLS_2005

> <r_lp_Energy>
20.8362

> <b_lp_Chiralities_Consistent>
1

> <s_lp_Variant>
AV-unprocessed.smi:1756-4

> <Gold.Version>
5.8.1

> <Gold.Id.Protein>
6NUR|6NUR_protein|mol2

> <Gold.PLP.Fitness>
39.8106

> <Gold.PLP.PLP>
-32.7860

> <Gold.PLP.part.hbond>
-2.5094

> <Gold.PLP.part.metal>
0.0000

> <Gold.PLP.part.buried>
-5.0214

> <Gold.PLP.part.nonpolar>
-25.1152

> <Gold.PLP.part.repulsive>
0.1340

> <Gold.PLP.ligand.clash>
0.0000

> <Gold.PLP.ligand.torsion>
1.0179

> <Gold.PLP.Chemscore.Hbond>
3.0000

> <Gold.PLP.Chemscore.CHOScore>
0.0000

> <Gold.PLP.Chemscore.Metal>
0.0000

> <Gold.Chemscore.Hbonds>
donor molecule, donor type, donor heavy atom, donor atom, acceptor molecule, acceptor atom, score
      L1  H     3    23       P1  7948  1.00
      P1  H  6896  6907       L1    20  2.00

> <Gold.PLP.Chemscore.Internal.Correction>
0.0604

> <Gold.Rescore>
     Score         DG    S(hbond)    S(metal)    S(lipo)     H(rot)  DE(clash)    DE(int)     intcor
     14.44     -15.46       1.56        0.00      69.78       1.32       0.04       0.99       ----

> <Gold.Chemscore.Fitness>
14.4401

> <Gold.Chemscore.DG>
-15.4614

> <Gold.Chemscore.ZeroCoef>
-5.4800

> <Gold.Chemscore.Hbond>
1.5594

> <Gold.Chemscore.Metal>
0.0000

> <Gold.Chemscore.Lipo>
69.7822

> <Gold.Chemscore.Internal_Hbond>
0.0000

> <Gold.Chemscore.DEClash>
0.0358

> <Gold.Chemscore.DEInternal>
0.9855

> <Gold.Chemscore.Rot>
1.3248

> <Gold.Chemscore.Internal.Correction>
   9.000000E+99

> <Gold.Chemscore.Hbonds>
donor molecule, donor type, donor heavy atom, donor atom, acceptor molecule, acceptor atom, score
      L1  H     3    23       P1  7948  0.47
      P1  H  6896  6907       L1    20  0.68

> <Gold.Chemscore.Hbond.Weighted>
-5.2084

> <Gold.Chemscore.Metal.Weighted>
-0.0000

> <Gold.Chemscore.Lipo.Weighted>
-8.1645

> <Gold.Chemscore.Internal_Hbond.Weighted>
0.0000

> <Gold.Chemscore.DEClash.Weighted>
0.0358

> <Gold.Chemscore.DEInternal.Weighted>
0.9855

> <Gold.Chemscore.Rot.Weighted>
3.3915

> <Gold.Chemscore.Internal.Correction.Weighted>
   9.000000E+99

> <Gold.Protein.RotatedTorsions>
[ 6907 6896 6895 6894 ] final  175.83 input  -60.11 | X-H torsion
[ 7974 7965 7964 7962 ] final   70.32 input  175.53 | X-H torsion
[ 8008 7997 7996 7995 ] final   61.91 input   59.86 | X-H torsion
[ 10167 10162 10161 10158 ] final   -4.45 input  -65.29 | X-H torsion
[ 10718 10713 10712 10709 ] final   77.72 input   66.30 | X-H torsion
[ 10763 10752 10751 10750 ] final  -95.35 input  -60.55 | X-H torsion
[ 11005 11000 10999 10996 ] final -118.10 input  -57.11 | X-H torsion

> <Gold.Protein.ActiveResidues>
 VAL166  LYS551  ARG553  GLY616  TRP617  ASP618  TYR619  PRO620  LYS621  CYS622 
 ASP623  PHE694  ASN695  SER759  ASP760  ASP761  ALA762  ILE779  LEU786  VAL792 
 PHE793  MET794  SER795  GLU796  ALA797  LYS798  CYS799  TRP800  GLU811  SER814 

> <Gold.Protein.RotatedAtoms>
  151.7299  133.3317  159.3337 H   0  0  0  0  0  0  0  0  0  0  0  0  # atno 6907 bound_to 6896
  150.7617  134.6372  159.6227 H   0  0  0  0  0  0  0  0  0  0  0  0  # atno 6908 bound_to 6896
  152.3598  134.6890  160.0262 H   0  0  0  0  0  0  0  0  0  0  0  0  # atno 6909 bound_to 6896
  145.7796  139.2881  143.1273 H   0  0  0  0  0  0  0  0  0  0  0  0  # atno 7974 bound_to 7965
  155.6060  140.3494  155.4608 H   0  0  0  0  0  0  0  0  0  0  0  0  # atno 8008 bound_to 7997
  156.0192  140.1250  157.0400 H   0  0  0  0  0  0  0  0  0  0  0  0  # atno 8009 bound_to 7997
  154.4309  140.1066  156.5925 H   0  0  0  0  0  0  0  0  0  0  0  0  # atno 8010 bound_to 7997
  140.6928  143.6422  150.8425 H   0  0  0  0  0  0  0  0  0  0  0  0  # atno 10167 bound_to 10162
  157.6720  130.9835  150.1682 H   0  0  0  0  0  0  0  0  0  0  0  0  # atno 10718 bound_to 10713
  154.7140  135.5124  153.8710 H   0  0  0  0  0  0  0  0  0  0  0  0  # atno 10763 bound_to 10752
  153.0805  135.6630  154.0064 H   0  0  0  0  0  0  0  0  0  0  0  0  # atno 10764 bound_to 10752
  153.9901  135.3020  155.3392 H   0  0  0  0  0  0  0  0  0  0  0  0  # atno 10765 bound_to 10752
  141.0309  133.9983  157.3144 H   0  0  0  0  0  0  0  0  0  0  0  0  # atno 11005 bound_to 11000
  146.0088  140.8454  142.9981 LP  0  0  0  0  0  0  0  0  0  0  0  0  # atno 17320 bound_to 7965
  144.6798  140.2459  143.7338 LP  0  0  0  0  0  0  0  0  0  0  0  0  # atno 17321 bound_to 7965
  140.0137  143.5615  152.2829 LP  0  0  0  0  0  0  0  0  0  0  0  0  # atno 17342 bound_to 10162
  139.6348  144.7649  151.2460 LP  0  0  0  0  0  0  0  0  0  0  0  0  # atno 17343 bound_to 10162
  156.2442  130.3694  149.8303 LP  0  0  0  0  0  0  0  0  0  0  0  0  # atno 17370 bound_to 10713
  156.6094  130.8580  151.3451 LP  0  0  0  0  0  0  0  0  0  0  0  0  # atno 17371 bound_to 10713
  139.9207  135.0200  156.8054 LP  0  0  0  0  0  0  0  0  0  0  0  0  # atno 17394 bound_to 11000
  140.6408  133.9820  155.7707 LP  0  0  0  0  0  0  0  0  0  0  0  0  # atno 17395 bound_to 11000

$$$$
