AV-unprocessed.smi:3330|AV-procd|sdf|12809|dock5
  -GOLD-   2272019173D 1   1.00000     0.00000
 Structure written by MMmdl.
 38 39  0  0  0  0  0  0  0  0  3 V2000
  151.9974  143.6683  156.8489 C   0  0  0  0  0  0  0  0  0  0  0  0
  151.1590  142.7424  157.7459 C   0  0  2  0  0  0  0  0  0  0  0  0
  149.8679  142.4860  157.0686 N   0  3  0  0  0  0  0  0  0  0  0  0
  149.8127  141.2484  156.2622 C   0  0  0  0  0  0  0  0  0  0  0  0
  151.1758  140.9171  155.6273 C   0  0  0  0  0  0  0  0  0  0  0  0
  151.2940  139.5000  155.2597 N   0  0  0  0  0  0  0  0  0  0  0  0
  150.4256  138.8420  154.4846 C   0  0  0  0  0  0  0  0  0  0  0  0
  149.4065  139.2814  153.9522 O   0  0  0  0  0  0  0  0  0  0  0  0
  150.9333  137.4279  154.3300 C   0  0  0  0  0  0  0  0  0  0  0  0
  152.1569  137.4552  155.0985 N   0  5  0  0  0  0  0  0  0  0  0  0
  152.3106  138.6939  155.6201 C   0  0  0  0  0  0  0  0  0  0  0  0
  153.2400  139.0874  156.3236 O   0  0  0  0  0  0  0  0  0  0  0  0
  150.9215  143.3312  159.1633 C   0  0  2  0  0  0  0  0  0  0  0  0
  150.8973  144.8718  159.1867 C   0  0  0  0  0  0  0  0  0  0  0  0
  151.9059  142.8383  160.1203 N   0  0  0  0  0  0  0  0  0  0  0  0
  153.0156  142.0552  159.8761 C   0  0  0  0  0  0  0  0  0  0  0  0
  153.6431  141.8506  161.0713 C   0  0  0  0  0  0  0  0  0  0  0  0
  152.8322  142.5549  162.0040 C   0  0  0  0  0  0  0  0  0  0  0  0
  151.7952  143.1453  161.4328 N   0  0  0  0  0  0  0  0  0  0  0  0
  153.0083  143.7991  157.2340 H   0  0  0  0  0  0  0  0  0  0  0  0
  151.5416  144.6549  156.7578 H   0  0  0  0  0  0  0  0  0  0  0  0
  152.0928  143.2542  155.8444 H   0  0  0  0  0  0  0  0  0  0  0  0
  151.7052  141.8021  157.8416 H   0  0  0  0  0  0  0  0  0  0  0  0
  149.1361  142.4538  157.7637 H   0  0  0  0  0  0  0  0  0  0  0  0
  149.4939  140.4251  156.9027 H   0  0  0  0  0  0  0  0  0  0  0  0
  149.0605  141.3518  155.4804 H   0  0  0  0  0  0  0  0  0  0  0  0
  151.3309  141.5371  154.7431 H   0  0  0  0  0  0  0  0  0  0  0  0
  151.9734  141.1937  156.3188 H   0  0  0  0  0  0  0  0  0  0  0  0
  150.1959  136.7236  154.7169 H   0  0  0  0  0  0  0  0  0  0  0  0
  151.0928  137.2043  153.2747 H   0  0  0  0  0  0  0  0  0  0  0  0
  149.9457  142.9884  159.5115 H   0  0  0  0  0  0  0  0  0  0  0  0
  150.0502  145.2702  158.6291 H   0  0  0  0  0  0  0  0  0  0  0  0
  151.8071  145.2939  158.7585 H   0  0  0  0  0  0  0  0  0  0  0  0
  150.8078  145.2454  160.2075 H   0  0  0  0  0  0  0  0  0  0  0  0
  153.2652  141.7118  158.8827 H   0  0  0  0  0  0  0  0  0  0  0  0
  154.5432  141.2820  161.2531 H   0  0  0  0  0  0  0  0  0  0  0  0
  152.9656  142.6546  163.0712 H   0  0  0  0  0  0  0  0  0  0  0  0
  149.6822  143.2611  156.4481 H   0  0  0  0  0  0  0  0  0  0  0  0
  1  2  1  0  0  0  0
  1 20  1  0  0  0  0
  1 21  1  0  0  0  0
  1 22  1  0  0  0  0
  2  3  1  0  0  0  0
  2 13  1  0  0  0  0
  2 23  1  0  0  0  0
  3  4  1  0  0  0  0
  3 24  1  0  0  0  0
  3 38  1  0  0  0  0
  4  5  1  0  0  0  0
  4 25  1  0  0  0  0
  4 26  1  0  0  0  0
  5  6  1  0  0  0  0
  5 27  1  0  0  0  0
  5 28  1  0  0  0  0
  6 11  1  0  0  0  0
  6  7  1  0  0  0  0
  7  8  2  0  0  0  0
  7  9  1  0  0  0  0
  9 10  1  0  0  0  0
  9 29  1  0  0  0  0
  9 30  1  0  0  0  0
 10 11  1  0  0  0  0
 11 12  2  0  0  0  0
 13 14  1  0  0  0  0
 13 15  1  0  0  0  0
 13 31  1  0  0  0  0
 14 32  1  0  0  0  0
 14 33  1  0  0  0  0
 14 34  1  0  0  0  0
 15 19  1  0  0  0  0
 15 16  1  0  0  0  0
 16 17  2  0  0  0  0
 16 35  1  0  0  0  0
 17 18  1  0  0  0  0
 17 36  1  0  0  0  0
 18 19  2  0  0  0  0
 18 37  1  0  0  0  0
M  CHG  1   3   1
M  CHG  1  10  -1
M  END
> <s_m_source_file>
AV-unprocessed.smi

> <i_m_source_file_index>
3330

> <i_lp_mmshare_version>
43012

> <i_f3d_flags>
0

> <s_epik_input>
bjFbY0hdW2NIXVtjSF1uMVtDQEBIXShbQ0gzXSlbQ0BIXShbQ0gzXSlbTkhdW0NIMl1bQ0gyXU4yQyg9TylbQ0gyXVtOSF1DMj1P

> <s_epik_cmdline>
J2VwaWtfcHl0aG9uJywgJy1waCcsICc3LjAnLCAnLXRuJywgJzgnLCAnLW1hJywgJzIwMCcsICctbWV0YWxfYmluZGluZycsICctaW1hZScsICc8aW5maWxlLm1hZT4nLCAnLW9tYWUnLCAnPG91dGZpbGUubWFlPic=

> <r_lp_tautomer_probability>
1

> <r_epik_Ionization_Penalty>
5.18149

> <r_epik_Ionization_Penalty_Charging>
5.18148

> <r_epik_Ionization_Penalty_Neutral>
9.83265e-06

> <r_epik_State_Penalty>
5.18201

> <r_epik_Charging_Adjusted_Penalty>
10.3635

> <i_epik_Tot_Q>
0

> <i_epik_Tot_abs_Q>
2

> <r_epik_Metal_State_Penalty>
1.25422

> <b_epik_Metal_Only>
1

> <s_lp_Force_Field>
OPLS_2005

> <r_lp_Energy>
23.9108

> <b_lp_Chiralities_Consistent>
1

> <s_lp_Variant>
AV-unprocessed.smi:3330-9

> <Gold.Version>
5.8.1

> <Gold.Id.Protein>
6NUR|6NUR_protein|mol2

> <Gold.PLP.Fitness>
53.0696

> <Gold.PLP.PLP>
-42.5290

> <Gold.PLP.part.hbond>
-3.3002

> <Gold.PLP.part.metal>
0.0000

> <Gold.PLP.part.buried>
-6.2431

> <Gold.PLP.part.nonpolar>
-34.4558

> <Gold.PLP.part.repulsive>
0.7158

> <Gold.PLP.ligand.clash>
0.0000

> <Gold.PLP.ligand.torsion>
1.7429

> <Gold.PLP.Chemscore.Hbond>
4.6177

> <Gold.PLP.Chemscore.CHOScore>
0.0000

> <Gold.PLP.Chemscore.Metal>
0.0000

> <Gold.Chemscore.Hbonds>
donor molecule, donor type, donor heavy atom, donor atom, acceptor molecule, acceptor atom, score
      L1  H     3    38       P1  8028  2.00
      P1  H  6933  6945       L1    19  0.09
      P1  H  7997  8010       L1    12  1.00
      P1  H 10752 10765       L1    10  1.43

> <Gold.PLP.Chemscore.Internal.Correction>
0.1733

> <Gold.Rescore>
     Score         DG    S(hbond)    S(metal)    S(lipo)     H(rot)  DE(clash)    DE(int)     intcor
     15.43     -18.86       2.68        0.00      94.58       2.59       1.64       1.79       ----

> <Gold.Chemscore.Fitness>
15.4271

> <Gold.Chemscore.DG>
-18.8565

> <Gold.Chemscore.ZeroCoef>
-5.4800

> <Gold.Chemscore.Hbond>
2.6772

> <Gold.Chemscore.Metal>
0.0000

> <Gold.Chemscore.Lipo>
94.5800

> <Gold.Chemscore.Internal_Hbond>
0.0000

> <Gold.Chemscore.DEClash>
1.6411

> <Gold.Chemscore.DEInternal>
1.7883

> <Gold.Chemscore.Rot>
2.5903

> <Gold.Chemscore.Internal.Correction>
   9.000000E+99

> <Gold.Chemscore.Hbonds>
donor molecule, donor type, donor heavy atom, donor atom, acceptor molecule, acceptor atom, score
      L1  H     3    38       P1  8028  1.00
      P1  H  6933  6945       L1    19  0.01
      P1  H  7997  8010       L1    12  0.89
      P1  H 10752 10765       L1    10  0.21

> <Gold.Chemscore.Hbond.Weighted>
-8.9418

> <Gold.Chemscore.Metal.Weighted>
-0.0000

> <Gold.Chemscore.Lipo.Weighted>
-11.0659

> <Gold.Chemscore.Internal_Hbond.Weighted>
0.0000

> <Gold.Chemscore.DEClash.Weighted>
1.6411

> <Gold.Chemscore.DEInternal.Weighted>
1.7883

> <Gold.Chemscore.Rot.Weighted>
6.6311

> <Gold.Chemscore.Internal.Correction.Weighted>
   9.000000E+99

> <Gold.Protein.RotatedTorsions>
[ 6907 6896 6895 6894 ] final  102.98 input  -60.11 | X-H torsion
[ 7974 7965 7964 7962 ] final  -36.92 input  175.53 | X-H torsion
[ 8008 7997 7996 7995 ] final   87.53 input   59.86 | X-H torsion
[ 10167 10162 10161 10158 ] final  -16.87 input  -65.29 | X-H torsion
[ 10718 10713 10712 10709 ] final   -7.85 input   66.30 | X-H torsion
[ 10763 10752 10751 10750 ] final -178.45 input  -60.55 | X-H torsion
[ 11005 11000 10999 10996 ] final  144.61 input  -57.11 | X-H torsion

> <Gold.Protein.ActiveResidues>
 VAL166  LYS551  ARG553  GLY616  TRP617  ASP618  TYR619  PRO620  LYS621  CYS622 
 ASP623  PHE694  ASN695  SER759  ASP760  ASP761  ALA762  ILE779  LEU786  VAL792 
 PHE793  MET794  SER795  GLU796  ALA797  LYS798  CYS799  TRP800  GLU811  SER814 

> <Gold.Protein.RotatedAtoms>
  152.5308  133.9894  159.7843 H   0  0  0  0  0  0  0  0  0  0  0  0  # atno 6907 bound_to 6896
  151.0133  133.5937  159.2687 H   0  0  0  0  0  0  0  0  0  0  0  0  # atno 6908 bound_to 6896
  151.3003  135.0773  159.9289 H   0  0  0  0  0  0  0  0  0  0  0  0  # atno 6909 bound_to 6896
  146.0619  140.6336  142.8993 H   0  0  0  0  0  0  0  0  0  0  0  0  # atno 7974 bound_to 7965
  155.9765  140.3381  155.6623 H   0  0  0  0  0  0  0  0  0  0  0  0  # atno 8008 bound_to 7997
  155.6605  140.0715  157.2573 H   0  0  0  0  0  0  0  0  0  0  0  0  # atno 8009 bound_to 7997
  154.4180  140.1709  156.1759 H   0  0  0  0  0  0  0  0  0  0  0  0  # atno 8010 bound_to 7997
  140.7240  143.5072  150.9795 H   0  0  0  0  0  0  0  0  0  0  0  0  # atno 10167 bound_to 10162
  156.7112  130.5122  149.5891 H   0  0  0  0  0  0  0  0  0  0  0  0  # atno 10718 bound_to 10713
  154.5475  135.2810  155.1039 H   0  0  0  0  0  0  0  0  0  0  0  0  # atno 10763 bound_to 10752
  154.2498  135.6341  153.5240 H   0  0  0  0  0  0  0  0  0  0  0  0  # atno 10764 bound_to 10752
  152.9994  135.5580  154.6031 H   0  0  0  0  0  0  0  0  0  0  0  0  # atno 10765 bound_to 10752
  140.0646  134.9186  157.1242 H   0  0  0  0  0  0  0  0  0  0  0  0  # atno 11005 bound_to 11000
  144.7180  140.4276  143.7030 LP  0  0  0  0  0  0  0  0  0  0  0  0  # atno 17320 bound_to 7965
  145.6544  139.1570  143.2843 LP  0  0  0  0  0  0  0  0  0  0  0  0  # atno 17321 bound_to 7965
  139.8784  143.7103  152.3159 LP  0  0  0  0  0  0  0  0  0  0  0  0  # atno 17342 bound_to 10162
  139.7377  144.7567  151.0702 LP  0  0  0  0  0  0  0  0  0  0  0  0  # atno 17343 bound_to 10162
  156.1660  130.6405  151.0778 LP  0  0  0  0  0  0  0  0  0  0  0  0  # atno 17370 bound_to 10713
  157.6935  131.0802  150.7037 LP  0  0  0  0  0  0  0  0  0  0  0  0  # atno 17371 bound_to 10713
  140.3719  134.2381  155.7177 LP  0  0  0  0  0  0  0  0  0  0  0  0  # atno 17394 bound_to 11000
  141.1987  133.8029  157.0569 LP  0  0  0  0  0  0  0  0  0  0  0  0  # atno 17395 bound_to 11000

$$$$
