AV-unprocessed.smi:2772|AV-procd|sdf|10668|dock7
  -GOLD-   2272015113D 1   1.00000     0.00000
 Structure written by MMmdl.
 54 56  0  0  0  0  0  0  0  0  2 V2000
  154.1904  141.7078  160.4033 C   0  0  0  0  0  0  0  0  0  0  0  0
  153.0654  142.0353  159.4438 C   0  0  0  0  0  0  0  0  0  0  0  0
  152.7806  143.3701  159.0892 C   0  0  0  0  0  0  0  0  0  0  0  0
  151.7211  143.6179  158.1955 C   0  0  0  0  0  0  0  0  0  0  0  0
  150.9783  142.5217  157.6948 C   0  0  0  0  0  0  0  0  0  0  0  0
  149.9014  142.6427  156.7761 N   0  0  0  0  0  0  0  0  0  0  0  0
  149.1432  141.6663  156.2490 C   0  0  0  0  0  0  0  0  0  0  0  0
  149.2816  140.4623  156.4653 O   0  0  0  0  0  0  0  0  0  0  0  0
  148.2110  142.1677  155.4265 N   0  0  0  0  0  0  0  0  0  0  0  0
  147.2387  141.3780  154.6768 C   0  0  0  0  0  0  0  0  0  0  0  0
  146.6233  140.3078  155.5812 C   0  0  0  0  0  0  0  0  0  0  0  0
  145.6790  139.3864  154.7900 C   0  0  0  0  0  0  0  0  0  0  0  0
  146.3731  138.7040  153.6837 N   0  0  0  0  0  0  0  0  0  0  0  0
  145.4761  137.7665  152.9693 C   0  0  2  0  0  0  0  0  0  0  0  0
  144.9745  136.6280  153.8998 C   0  0  0  0  0  0  0  0  0  0  0  0
  144.1558  135.5619  153.1546 C   0  0  0  0  0  0  0  0  0  0  0  0
  144.9296  134.9819  152.0355 N   0  3  1  0  0  0  0  0  0  0  0  0
  144.2255  133.8555  151.3857 C   0  0  0  0  0  0  0  0  0  0  0  0
  145.3365  136.0283  151.0723 C   0  0  0  0  0  0  0  0  0  0  0  0
  146.1905  137.1078  151.7567 C   0  0  0  0  0  0  0  0  0  0  0  0
  146.9034  139.7366  152.7763 C   0  0  0  0  0  0  0  0  0  0  0  0
  147.8973  140.6727  153.4852 C   0  0  0  0  0  0  0  0  0  0  0  0
  151.3609  141.2266  158.1030 C   0  0  0  0  0  0  0  0  0  0  0  0
  152.3747  140.9805  158.9598 N   0  0  0  0  0  0  0  0  0  0  0  0
  154.6683  142.6139  160.7771 H   0  0  0  0  0  0  0  0  0  0  0  0
  154.9491  141.1034  159.9058 H   0  0  0  0  0  0  0  0  0  0  0  0
  153.8099  141.1479  161.2582 H   0  0  0  0  0  0  0  0  0  0  0  0
  153.3615  144.1888  159.4877 H   0  0  0  0  0  0  0  0  0  0  0  0
  151.5101  144.6349  157.9031 H   0  0  0  0  0  0  0  0  0  0  0  0
  149.7255  143.5764  156.4351 H   0  0  0  0  0  0  0  0  0  0  0  0
  148.1738  143.1691  155.3053 H   0  0  0  0  0  0  0  0  0  0  0  0
  146.4413  142.0315  154.3172 H   0  0  0  0  0  0  0  0  0  0  0  0
  147.4097  139.7082  156.0428 H   0  0  0  0  0  0  0  0  0  0  0  0
  146.0759  140.7806  156.3974 H   0  0  0  0  0  0  0  0  0  0  0  0
  145.2900  138.6702  155.5096 H   0  0  0  0  0  0  0  0  0  0  0  0
  144.8287  139.9525  154.4062 H   0  0  0  0  0  0  0  0  0  0  0  0
  144.6109  138.3230  152.6050 H   0  0  0  0  0  0  0  0  0  0  0  0
  145.8232  136.1526  154.3941 H   0  0  0  0  0  0  0  0  0  0  0  0
  144.3274  137.0134  154.6860 H   0  0  0  0  0  0  0  0  0  0  0  0
  143.8725  134.7713  153.8508 H   0  0  0  0  0  0  0  0  0  0  0  0
  143.2296  135.9965  152.7746 H   0  0  0  0  0  0  0  0  0  0  0  0
  143.2908  134.1869  150.9310 H   0  0  0  0  0  0  0  0  0  0  0  0
  143.9947  133.0757  152.1123 H   0  0  0  0  0  0  0  0  0  0  0  0
  144.8460  133.4102  150.6076 H   0  0  0  0  0  0  0  0  0  0  0  0
  145.9082  135.5751  150.2614 H   0  0  0  0  0  0  0  0  0  0  0  0
  144.4505  136.4786  150.6219 H   0  0  0  0  0  0  0  0  0  0  0  0
  146.4294  137.8401  150.9876 H   0  0  0  0  0  0  0  0  0  0  0  0
  147.1370  136.6703  152.0784 H   0  0  0  0  0  0  0  0  0  0  0  0
  147.4502  139.2909  151.9490 H   0  0  0  0  0  0  0  0  0  0  0  0
  146.0826  140.3124  152.3456 H   0  0  0  0  0  0  0  0  0  0  0  0
  148.2726  141.4091  152.7736 H   0  0  0  0  0  0  0  0  0  0  0  0
  148.7623  140.0976  153.8198 H   0  0  0  0  0  0  0  0  0  0  0  0
  150.8341  140.3581  157.7355 H   0  0  0  0  0  0  0  0  0  0  0  0
  145.7781  134.6025  152.4315 H   0  0  0  0  0  0  0  0  0  0  0  0
  1  2  1  0  0  0  0
  1 25  1  0  0  0  0
  1 26  1  0  0  0  0
  1 27  1  0  0  0  0
  2 24  1  0  0  0  0
  2  3  2  0  0  0  0
  3  4  1  0  0  0  0
  3 28  1  0  0  0  0
  4  5  2  0  0  0  0
  4 29  1  0  0  0  0
  5  6  1  0  0  0  0
  5 23  1  0  0  0  0
  6  7  1  0  0  0  0
  6 30  1  0  0  0  0
  7  8  2  0  0  0  0
  7  9  1  0  0  0  0
  9 10  1  0  0  0  0
  9 31  1  0  0  0  0
 10 22  1  0  0  0  0
 10 11  1  0  0  0  0
 10 32  1  0  0  0  0
 11 12  1  0  0  0  0
 11 33  1  0  0  0  0
 11 34  1  0  0  0  0
 12 13  1  0  0  0  0
 12 35  1  0  0  0  0
 12 36  1  0  0  0  0
 13 14  1  0  0  0  0
 13 21  1  0  0  0  0
 14 20  1  0  0  0  0
 14 15  1  0  0  0  0
 14 37  1  0  0  0  0
 15 16  1  0  0  0  0
 15 38  1  0  0  0  0
 15 39  1  0  0  0  0
 16 17  1  0  0  0  0
 16 40  1  0  0  0  0
 16 41  1  0  0  0  0
 17 18  1  0  0  0  0
 17 19  1  0  0  0  0
 17 54  1  0  0  0  0
 18 42  1  0  0  0  0
 18 43  1  0  0  0  0
 18 44  1  0  0  0  0
 19 20  1  0  0  0  0
 19 45  1  0  0  0  0
 19 46  1  0  0  0  0
 20 47  1  0  0  0  0
 20 48  1  0  0  0  0
 21 22  1  0  0  0  0
 21 49  1  0  0  0  0
 21 50  1  0  0  0  0
 22 51  1  0  0  0  0
 22 52  1  0  0  0  0
 23 24  2  0  0  0  0
 23 53  1  0  0  0  0
M  CHG  1  17   1
M  END
> <s_m_source_file>
AV-unprocessed.smi

> <i_m_source_file_index>
2772

> <i_lp_mmshare_version>
43012

> <i_f3d_flags>
0

> <s_epik_input>
W0NIM11jMVtjSF1bY0hdYyhbY0hdbjEpW05IXUMoPU8pW05IXVtDSF0yW0NIMl1bQ0gyXU4oW0NIMl1bQ0gyXTIpW0NIXTNbQ0gyXVtDSDJdTihbQ0gzXSlbQ0gyXVtDSDJdMw==

> <s_epik_cmdline>
J2VwaWtfcHl0aG9uJywgJy1waCcsICc3LjAnLCAnLXRuJywgJzgnLCAnLW1hJywgJzIwMCcsICctbWV0YWxfYmluZGluZycsICctaW1hZScsICc8aW5maWxlLm1hZT4nLCAnLW9tYWUnLCAnPG91dGZpbGUubWFlPic=

> <r_epik_Ionization_Penalty>
1.02952

> <r_epik_Ionization_Penalty_Charging>
0.000974969

> <r_epik_Ionization_Penalty_Neutral>
1.02854

> <r_epik_State_Penalty>
1.11259

> <r_epik_Charging_Adjusted_Penalty>
1.11356

> <i_epik_Tot_Q>
1

> <i_epik_Tot_abs_Q>
1

> <r_epik_Metal_State_Penalty>
1.1091

> <b_epik_Metal_Only>
0

> <s_lp_Force_Field>
OPLS_2005

> <r_lp_Energy>
33.5329

> <b_lp_Chiralities_Consistent>
1

> <s_lp_Variant>
AV-unprocessed.smi:2772-5

> <Gold.Version>
5.8.1

> <Gold.Id.Protein>
6NUR|6NUR_protein|mol2

> <Gold.PLP.Fitness>
42.3179

> <Gold.PLP.PLP>
-36.7246

> <Gold.PLP.part.hbond>
-2.0000

> <Gold.PLP.part.metal>
0.0000

> <Gold.PLP.part.buried>
0.6135

> <Gold.PLP.part.nonpolar>
-35.9179

> <Gold.PLP.part.repulsive>
0.3622

> <Gold.PLP.ligand.clash>
0.0000

> <Gold.PLP.ligand.torsion>
0.1920

> <Gold.PLP.Chemscore.Hbond>
1.9920

> <Gold.PLP.Chemscore.CHOScore>
0.0000

> <Gold.PLP.Chemscore.Metal>
0.0000

> <Gold.Chemscore.Hbonds>
donor molecule, donor type, donor heavy atom, donor atom, acceptor molecule, acceptor atom, score
      L1  H     6    30       P1  8028  1.00
      L1  H     9    31       P1  8028  0.99

> <Gold.PLP.Chemscore.Internal.Correction>
0.0013

> <Gold.Rescore>
     Score         DG    S(hbond)    S(metal)    S(lipo)     H(rot)  DE(clash)    DE(int)     intcor
     18.61     -22.08       1.90        0.00     113.78       1.20       0.48       2.99       ----

> <Gold.Chemscore.Fitness>
18.6113

> <Gold.Chemscore.DG>
-22.0790

> <Gold.Chemscore.ZeroCoef>
-5.4800

> <Gold.Chemscore.Hbond>
1.9017

> <Gold.Chemscore.Metal>
0.0000

> <Gold.Chemscore.Lipo>
113.7828

> <Gold.Chemscore.Internal_Hbond>
0.0000

> <Gold.Chemscore.DEClash>
0.4781

> <Gold.Chemscore.DEInternal>
2.9896

> <Gold.Chemscore.Rot>
1.1974

> <Gold.Chemscore.Internal.Correction>
   9.000000E+99

> <Gold.Chemscore.Hbonds>
donor molecule, donor type, donor heavy atom, donor atom, acceptor molecule, acceptor atom, score
      L1  H     6    30       P1  8028  0.97
      L1  H     9    31       P1  8028  0.87

> <Gold.Chemscore.Hbond.Weighted>
-6.3517

> <Gold.Chemscore.Metal.Weighted>
-0.0000

> <Gold.Chemscore.Lipo.Weighted>
-13.3126

> <Gold.Chemscore.Internal_Hbond.Weighted>
0.0000

> <Gold.Chemscore.DEClash.Weighted>
0.4781

> <Gold.Chemscore.DEInternal.Weighted>
2.9896

> <Gold.Chemscore.Rot.Weighted>
3.0652

> <Gold.Chemscore.Internal.Correction.Weighted>
   9.000000E+99

> <Gold.Protein.RotatedTorsions>
[ 6907 6896 6895 6894 ] final  -54.76 input  -60.11 | X-H torsion
[ 7974 7965 7964 7962 ] final  -90.49 input  175.53 | X-H torsion
[ 8008 7997 7996 7995 ] final  163.72 input   59.86 | X-H torsion
[ 10167 10162 10161 10158 ] final   13.49 input  -65.29 | X-H torsion
[ 10718 10713 10712 10709 ] final   34.03 input   66.30 | X-H torsion
[ 10763 10752 10751 10750 ] final  175.65 input  -60.55 | X-H torsion
[ 11005 11000 10999 10996 ] final   -0.87 input  -57.11 | X-H torsion

> <Gold.Protein.ActiveResidues>
 VAL166  LYS551  ARG553  GLY616  TRP617  ASP618  TYR619  PRO620  LYS621  CYS622 
 ASP623  PHE694  ASN695  SER759  ASP760  ASP761  ALA762  ILE779  LEU786  VAL792 
 PHE793  MET794  SER795  GLU796  ALA797  LYS798  CYS799  TRP800  GLU811  SER814 

> <Gold.Protein.RotatedAtoms>
  150.8310  134.7563  159.6853 H   0  0  0  0  0  0  0  0  0  0  0  0  # atno 6907 bound_to 6896
  152.4414  134.5579  159.9895 H   0  0  0  0  0  0  0  0  0  0  0  0  # atno 6908 bound_to 6896
  151.5740  133.3348  159.3031 H   0  0  0  0  0  0  0  0  0  0  0  0  # atno 6909 bound_to 6896
  145.4257  140.9553  143.2156 H   0  0  0  0  0  0  0  0  0  0  0  0  # atno 7974 bound_to 7965
  156.1935  140.1716  156.8045 H   0  0  0  0  0  0  0  0  0  0  0  0  # atno 8008 bound_to 7997
  154.5500  140.0719  156.8684 H   0  0  0  0  0  0  0  0  0  0  0  0  # atno 8009 bound_to 7997
  155.3046  140.3363  155.4248 H   0  0  0  0  0  0  0  0  0  0  0  0  # atno 8010 bound_to 7997
  140.5999  143.8626  150.6955 H   0  0  0  0  0  0  0  0  0  0  0  0  # atno 10167 bound_to 10162
  157.3052  130.7371  149.6691 H   0  0  0  0  0  0  0  0  0  0  0  0  # atno 10718 bound_to 10713
  154.4704  135.2771  155.1646 H   0  0  0  0  0  0  0  0  0  0  0  0  # atno 10763 bound_to 10752
  154.3397  135.6172  153.5594 H   0  0  0  0  0  0  0  0  0  0  0  0  # atno 10764 bound_to 10752
  152.9863  135.5785  154.5085 H   0  0  0  0  0  0  0  0  0  0  0  0  # atno 10765 bound_to 10752
  140.6410  133.9489  155.8326 H   0  0  0  0  0  0  0  0  0  0  0  0  # atno 11005 bound_to 11000
  144.8215  139.5783  143.6984 LP  0  0  0  0  0  0  0  0  0  0  0  0  # atno 17320 bound_to 7965
  146.2633  139.6461  142.9347 LP  0  0  0  0  0  0  0  0  0  0  0  0  # atno 17321 bound_to 7965
  140.2169  143.3839  152.1674 LP  0  0  0  0  0  0  0  0  0  0  0  0  # atno 17342 bound_to 10162
  139.5284  144.7130  151.5146 LP  0  0  0  0  0  0  0  0  0  0  0  0  # atno 17343 bound_to 10162
  155.9674  130.4268  150.4714 LP  0  0  0  0  0  0  0  0  0  0  0  0  # atno 17370 bound_to 10713
  157.2702  131.0585  151.2264 LP  0  0  0  0  0  0  0  0  0  0  0  0  # atno 17371 bound_to 10713
  141.0606  134.0351  157.3663 LP  0  0  0  0  0  0  0  0  0  0  0  0  # atno 17394 bound_to 11000
  139.9080  135.0184  156.7570 LP  0  0  0  0  0  0  0  0  0  0  0  0  # atno 17395 bound_to 11000

$$$$
