AV-unprocessed.smi:288|AV-procd|sdf|2210|dock6
  -GOLD-   2262022 43D 1   1.00000     0.00000
 Structure written by MMmdl.
 33 34  0  0  0  0  0  0  0  0  1 V2000
  148.5569  138.7123  156.6952 O   0  0  0  0  0  0  0  0  0  0  0  0
  149.4762  139.3849  157.1655 C   0  0  0  0  0  0  0  0  0  0  0  0
  150.4068  138.8824  158.1703 C   0  0  0  0  0  0  0  0  0  0  0  0
  150.2627  137.6326  158.6427 F   0  0  0  0  0  0  0  0  0  0  0  0
  151.4151  139.6515  158.6350 C   0  0  0  0  0  0  0  0  0  0  0  0
  151.6383  140.9481  158.2001 N   0  0  0  0  0  0  0  0  0  0  0  0
  152.7805  141.7877  158.7312 C   0  0  1  0  0  0  0  0  0  0  0  0
  152.2424  143.0427  159.4418 C   0  0  0  0  0  0  0  0  0  0  0  0
  152.9901  143.0235  160.7595 C   0  0  0  0  0  0  0  0  0  0  0  0
  153.1942  141.5321  160.9807 C   0  0  0  0  0  0  0  0  0  0  0  0
  153.5084  141.0574  159.6777 O   0  0  0  0  0  0  0  0  0  0  0  0
  150.7856  141.5169  157.2291 C   0  0  0  0  0  0  0  0  0  0  0  0
  150.9779  142.6630  156.8163 O   0  0  0  0  0  0  0  0  0  0  0  0
  149.7190  140.7186  156.7537 N   0  0  0  0  0  0  0  0  0  0  0  0
  148.8372  141.2867  155.7471 C   0  0  0  0  0  0  0  0  0  0  0  0
  148.6749  140.3883  154.5002 C   0  0  2  0  0  0  0  0  0  0  0  0
  149.5444  140.8598  153.4888 O   0  0  0  0  0  0  0  0  0  0  0  0
  147.2392  140.4128  153.9403 C   0  0  0  0  0  0  0  0  0  0  0  0
  146.3705  140.0481  154.8837 F   0  0  0  0  0  0  0  0  0  0  0  0
  146.9324  141.6532  153.5599 F   0  0  0  0  0  0  0  0  0  0  0  0
  147.1225  139.6029  152.8868 F   0  0  0  0  0  0  0  0  0  0  0  0
  152.0667  139.2155  159.3764 H   0  0  0  0  0  0  0  0  0  0  0  0
  153.4214  141.9996  157.8735 H   0  0  0  0  0  0  0  0  0  0  0  0
  152.4296  143.9394  158.8503 H   0  0  0  0  0  0  0  0  0  0  0  0
  151.1688  142.9476  159.6136 H   0  0  0  0  0  0  0  0  0  0  0  0
  153.9546  143.5217  160.6521 H   0  0  0  0  0  0  0  0  0  0  0  0
  152.4425  143.5053  161.5700 H   0  0  0  0  0  0  0  0  0  0  0  0
  153.9927  141.3150  161.6901 H   0  0  0  0  0  0  0  0  0  0  0  0
  152.2765  141.0648  161.3404 H   0  0  0  0  0  0  0  0  0  0  0  0
  147.8789  141.4557  156.2404 H   0  0  0  0  0  0  0  0  0  0  0  0
  149.1844  142.2910  155.4983 H   0  0  0  0  0  0  0  0  0  0  0  0
  148.9405  139.3563  154.7341 H   0  0  0  0  0  0  0  0  0  0  0  0
  149.5236  140.2502  152.7669 H   0  0  0  0  0  0  0  0  0  0  0  0
  1  2  2  0  0  0  0
  2 14  1  0  0  0  0
  2  3  1  0  0  0  0
  3  4  1  0  0  0  0
  3  5  2  0  0  0  0
  5  6  1  0  0  0  0
  5 22  1  0  0  0  0
  6  7  1  0  0  0  0
  6 12  1  0  0  0  0
  7 11  1  0  0  0  0
  7  8  1  0  0  0  0
  7 23  1  0  0  0  0
  8  9  1  0  0  0  0
  8 24  1  0  0  0  0
  8 25  1  0  0  0  0
  9 10  1  0  0  0  0
  9 26  1  0  0  0  0
  9 27  1  0  0  0  0
 10 11  1  0  0  0  0
 10 28  1  0  0  0  0
 10 29  1  0  0  0  0
 12 13  2  0  0  0  0
 12 14  1  0  0  0  0
 14 15  1  0  0  0  0
 15 16  1  0  0  0  0
 15 30  1  0  0  0  0
 15 31  1  0  0  0  0
 16 17  1  0  0  0  0
 16 18  1  0  0  0  0
 16 32  1  0  0  0  0
 17 33  1  0  0  0  0
 18 19  1  0  0  0  0
 18 20  1  0  0  0  0
 18 21  1  0  0  0  0
M  END
> <s_m_source_file>
AV-unprocessed.smi

> <i_m_source_file_index>
288

> <i_lp_mmshare_version>
43012

> <i_f3d_flags>
0

> <s_epik_input>
TzFbQ0gyXVtDSDJdW0NIMl1bQ0BIXTFuKFtjSF1jKEYpYzI9TyljKD1PKW4yW0NIMl1bQ0BIXShbT0hdKUMoRikoRilG

> <s_epik_cmdline>
J2VwaWtfcHl0aG9uJywgJy1waCcsICc3LjAnLCAnLXRuJywgJzgnLCAnLW1hJywgJzIwMCcsICctbWV0YWxfYmluZGluZycsICctaW1hZScsICc8aW5maWxlLm1hZT4nLCAnLW9tYWUnLCAnPG91dGZpbGUubWFlPic=

> <r_lp_tautomer_probability>
1

> <r_epik_Ionization_Penalty>
0.000551119

> <r_epik_Ionization_Penalty_Charging>
2.51184e-08

> <r_epik_Ionization_Penalty_Neutral>
0.000551094

> <r_epik_State_Penalty>
0.000345115

> <r_epik_Charging_Adjusted_Penalty>
0.00034514

> <i_epik_Tot_Q>
0

> <i_epik_Tot_abs_Q>
0

> <r_epik_Metal_State_Penalty>
-0

> <b_epik_Metal_Only>
0

> <s_epik_Chemistry_Notes>
This compound contains an acetal/aminal-like group ( X-CH(R)-Y where X, Y are N, S, or O) that may be acid/base labile, releasing an aldehyde.

> <s_lp_Force_Field>
OPLS_2005

> <r_lp_Energy>
35.1555

> <b_lp_Chiralities_Consistent>
1

> <s_lp_Variant>
AV-unprocessed.smi:288-2

> <Gold.Version>
5.8.1

> <Gold.Id.Protein>
6NUR|6NUR_protein|mol2

> <Gold.PLP.Fitness>
41.6689

> <Gold.PLP.PLP>
-37.3138

> <Gold.PLP.part.hbond>
-2.7217

> <Gold.PLP.part.metal>
0.0000

> <Gold.PLP.part.buried>
-6.5331

> <Gold.PLP.part.nonpolar>
-28.4571

> <Gold.PLP.part.repulsive>
0.3148

> <Gold.PLP.ligand.clash>
0.0000

> <Gold.PLP.ligand.torsion>
0.6083

> <Gold.PLP.Chemscore.Hbond>
1.8540

> <Gold.PLP.Chemscore.CHOScore>
0.0000

> <Gold.PLP.Chemscore.Metal>
0.0000

> <Gold.Chemscore.Hbonds>
donor molecule, donor type, donor heavy atom, donor atom, acceptor molecule, acceptor atom, score
      L1  H    17    33       P1  7957  0.93
      P1  H  7989  7998       L1    17  0.17
      P1  H  8011  8017       L1    17  0.65

> <Gold.PLP.Chemscore.Internal.Correction>
0.0098

> <Gold.Rescore>
     Score         DG    S(hbond)    S(metal)    S(lipo)     H(rot)  DE(clash)    DE(int)     intcor
      6.48      -8.74       0.99        0.00      55.67       2.57       0.04       2.21       ----

> <Gold.Chemscore.Fitness>
6.4836

> <Gold.Chemscore.DG>
-8.7353

> <Gold.Chemscore.ZeroCoef>
-5.4800

> <Gold.Chemscore.Hbond>
0.9908

> <Gold.Chemscore.Metal>
0.0000

> <Gold.Chemscore.Lipo>
55.6741

> <Gold.Chemscore.Internal_Hbond>
0.0000

> <Gold.Chemscore.DEClash>
0.0434

> <Gold.Chemscore.DEInternal>
2.2083

> <Gold.Chemscore.Rot>
2.5656

> <Gold.Chemscore.Internal.Correction>
   9.000000E+99

> <Gold.Chemscore.Hbonds>
donor molecule, donor type, donor heavy atom, donor atom, acceptor molecule, acceptor atom, score
      L1  H    17    33       P1  7957  0.90
      P1  H  7989  7998       L1    17  0.01
      P1  H  8011  8017       L1    17  0.06

> <Gold.Chemscore.Hbond.Weighted>
-3.3093

> <Gold.Chemscore.Metal.Weighted>
-0.0000

> <Gold.Chemscore.Lipo.Weighted>
-6.5139

> <Gold.Chemscore.Internal_Hbond.Weighted>
0.0000

> <Gold.Chemscore.DEClash.Weighted>
0.0434

> <Gold.Chemscore.DEInternal.Weighted>
2.2083

> <Gold.Chemscore.Rot.Weighted>
6.5679

> <Gold.Chemscore.Internal.Correction.Weighted>
   9.000000E+99

> <Gold.Protein.RotatedTorsions>
[ 6907 6896 6895 6894 ] final  -32.69 input  -60.11 | X-H torsion
[ 7974 7965 7964 7962 ] final -159.92 input  175.53 | X-H torsion
[ 8008 7997 7996 7995 ] final  112.11 input   59.86 | X-H torsion
[ 10167 10162 10161 10158 ] final -157.53 input  -65.29 | X-H torsion
[ 10718 10713 10712 10709 ] final -127.51 input   66.30 | X-H torsion
[ 10763 10752 10751 10750 ] final   31.07 input  -60.55 | X-H torsion
[ 11005 11000 10999 10996 ] final  169.77 input  -57.11 | X-H torsion

> <Gold.Protein.ActiveResidues>
 VAL166  LYS551  ARG553  GLY616  TRP617  ASP618  TYR619  PRO620  LYS621  CYS622 
 ASP623  PHE694  ASN695  SER759  ASP760  ASP761  ALA762  ILE779  LEU786  VAL792 
 PHE793  MET794  SER795  GLU796  ALA797  LYS798  CYS799  TRP800  GLU811  SER814 

> <Gold.Protein.RotatedAtoms>
  151.0755  134.9825  159.8329 H   0  0  0  0  0  0  0  0  0  0  0  0  # atno 6907 bound_to 6896
  152.5413  134.2247  159.8811 H   0  0  0  0  0  0  0  0  0  0  0  0  # atno 6908 bound_to 6896
  151.2274  133.4425  159.2636 H   0  0  0  0  0  0  0  0  0  0  0  0  # atno 6909 bound_to 6896
  144.7447  140.3616  143.6095 H   0  0  0  0  0  0  0  0  0  0  0  0  # atno 7974 bound_to 7965
  156.2170  140.3006  155.9862 H   0  0  0  0  0  0  0  0  0  0  0  0  # atno 8008 bound_to 7997
  155.2580  140.0428  157.3011 H   0  0  0  0  0  0  0  0  0  0  0  0  # atno 8009 bound_to 7997
  154.5782  140.2368  155.8100 H   0  0  0  0  0  0  0  0  0  0  0  0  # atno 8010 bound_to 7997
  139.6763  143.9658  152.2312 H   0  0  0  0  0  0  0  0  0  0  0  0  # atno 10167 bound_to 10162
  156.1864  130.6766  151.0369 H   0  0  0  0  0  0  0  0  0  0  0  0  # atno 10718 bound_to 10713
  153.0336  135.6448  154.1142 H   0  0  0  0  0  0  0  0  0  0  0  0  # atno 10763 bound_to 10752
  154.0860  135.2870  155.3282 H   0  0  0  0  0  0  0  0  0  0  0  0  # atno 10764 bound_to 10752
  154.6497  135.5430  153.7951 H   0  0  0  0  0  0  0  0  0  0  0  0  # atno 10765 bound_to 10752
  140.3012  134.7593  157.3918 H   0  0  0  0  0  0  0  0  0  0  0  0  # atno 11005 bound_to 11000
  145.7171  139.1700  143.2506 LP  0  0  0  0  0  0  0  0  0  0  0  0  # atno 17320 bound_to 7965
  146.1305  140.7192  142.9414 LP  0  0  0  0  0  0  0  0  0  0  0  0  # atno 17321 bound_to 7965
  139.9436  144.6666  150.8242 LP  0  0  0  0  0  0  0  0  0  0  0  0  # atno 17342 bound_to 10162
  140.7636  143.3228  151.2583 LP  0  0  0  0  0  0  0  0  0  0  0  0  # atno 17343 bound_to 10162
  157.6901  131.0812  150.7131 LP  0  0  0  0  0  0  0  0  0  0  0  0  # atno 17370 bound_to 10713
  156.7187  130.4674  149.5528 LP  0  0  0  0  0  0  0  0  0  0  0  0  # atno 17371 bound_to 10713
  140.1107  134.5349  155.8268 LP  0  0  0  0  0  0  0  0  0  0  0  0  # atno 17394 bound_to 11000
  141.2127  133.6724  156.6684 LP  0  0  0  0  0  0  0  0  0  0  0  0  # atno 17395 bound_to 11000

$$$$
