AV-unprocessed.smi:348|AV-procd|sdf|2395|dock7
  -GOLD-   2262022323D 1   1.00000     0.00000
 Structure written by MMmdl.
 39 40  0  0  0  0  0  0  0  0  1 V2000
  151.4083  137.6292  154.9414 C   0  0  0  0  0  0  0  0  0  0  0  0
  151.6185  136.2551  155.2249 O   0  0  0  0  0  0  0  0  0  0  0  0
  151.5904  135.9379  156.6091 C   0  0  0  0  0  0  0  0  0  0  0  0
  150.2316  135.3471  157.0291 C   0  0  0  0  0  0  0  0  0  0  0  0
  149.8222  134.2432  156.1834 N   0  0  0  0  0  0  0  0  0  0  0  0
  149.2894  134.4052  154.9014 C   0  0  0  0  0  0  0  0  0  0  0  0
  149.1664  135.6960  154.4073 N   0  0  0  0  0  0  0  0  0  0  0  0
  148.9084  133.3452  154.1289 C   0  0  0  0  0  0  0  0  0  0  0  0
  148.3814  133.5504  152.8529 N   0  0  0  0  0  0  0  0  0  0  0  0
  147.9109  132.6022  151.8541 C   0  0  0  0  0  0  0  0  0  0  0  0
  146.5468  132.9559  151.2925 C   0  0  0  0  0  0  0  0  0  0  0  0
  145.9514  134.1973  151.6037 C   0  0  0  0  0  0  0  0  0  0  0  0
  144.6856  134.5273  151.0812 C   0  0  0  0  0  0  0  0  0  0  0  0
  144.0103  133.6186  150.2438 C   0  0  0  0  0  0  0  0  0  0  0  0
  144.6019  132.3802  149.9282 C   0  0  0  0  0  0  0  0  0  0  0  0
  145.8678  132.0498  150.4502 C   0  0  0  0  0  0  0  0  0  0  0  0
  149.0631  131.9718  154.6420 C   0  0  0  0  0  0  0  0  0  0  0  0
  148.7548  130.9308  154.0640 O   0  0  0  0  0  0  0  0  0  0  0  0
  149.6260  131.8779  155.9125 N   0  0  0  0  0  0  0  0  0  0  0  0
  150.0267  132.9453  156.7054 C   0  0  0  0  0  0  0  0  0  0  0  0
  150.5338  132.7242  157.8057 O   0  0  0  0  0  0  0  0  0  0  0  0
  149.7601  130.9506  156.2884 H   0  0  0  0  0  0  0  0  0  0  0  0
  151.4054  137.7791  153.8619 H   0  0  0  0  0  0  0  0  0  0  0  0
  152.1954  138.2565  155.3590 H   0  0  0  0  0  0  0  0  0  0  0  0
  150.4469  137.9691  155.3281 H   0  0  0  0  0  0  0  0  0  0  0  0
  152.4114  135.2681  156.8701 H   0  0  0  0  0  0  0  0  0  0  0  0
  151.7648  136.8655  157.1547 H   0  0  0  0  0  0  0  0  0  0  0  0
  150.2425  134.9992  158.0633 H   0  0  0  0  0  0  0  0  0  0  0  0
  149.4306  136.0840  156.9898 H   0  0  0  0  0  0  0  0  0  0  0  0
  149.4487  136.5022  154.9456 H   0  0  0  0  0  0  0  0  0  0  0  0
  148.8106  135.8799  153.4803 H   0  0  0  0  0  0  0  0  0  0  0  0
  148.2724  134.5147  152.5757 H   0  0  0  0  0  0  0  0  0  0  0  0
  148.6192  132.5683  151.0257 H   0  0  0  0  0  0  0  0  0  0  0  0
  147.8781  131.6054  152.2961 H   0  0  0  0  0  0  0  0  0  0  0  0
  146.4654  134.9001  152.2433 H   0  0  0  0  0  0  0  0  0  0  0  0
  144.2335  135.4778  151.3225 H   0  0  0  0  0  0  0  0  0  0  0  0
  143.0400  133.8718  149.8429 H   0  0  0  0  0  0  0  0  0  0  0  0
  144.0846  131.6833  149.2856 H   0  0  0  0  0  0  0  0  0  0  0  0
  146.3133  131.0974  150.2021 H   0  0  0  0  0  0  0  0  0  0  0  0
  1  2  1  0  0  0  0
  1 23  1  0  0  0  0
  1 24  1  0  0  0  0
  1 25  1  0  0  0  0
  2  3  1  0  0  0  0
  3  4  1  0  0  0  0
  3 26  1  0  0  0  0
  3 27  1  0  0  0  0
  4  5  1  0  0  0  0
  4 28  1  0  0  0  0
  4 29  1  0  0  0  0
  5 20  1  0  0  0  0
  5  6  1  0  0  0  0
  6  7  1  0  0  0  0
  6  8  2  0  0  0  0
  7 30  1  0  0  0  0
  7 31  1  0  0  0  0
  8  9  1  0  0  0  0
  8 17  1  0  0  0  0
  9 10  1  0  0  0  0
  9 32  1  0  0  0  0
 10 11  1  0  0  0  0
 10 33  1  0  0  0  0
 10 34  1  0  0  0  0
 11 16  1  0  0  0  0
 11 12  2  0  0  0  0
 12 13  1  0  0  0  0
 12 35  1  0  0  0  0
 13 14  2  0  0  0  0
 13 36  1  0  0  0  0
 14 15  1  0  0  0  0
 14 37  1  0  0  0  0
 15 16  2  0  0  0  0
 15 38  1  0  0  0  0
 16 39  1  0  0  0  0
 17 18  2  0  0  0  0
 17 19  1  0  0  0  0
 19 22  1  0  0  0  0
 19 20  1  0  0  0  0
 20 21  2  0  0  0  0
M  END
> <s_m_source_file>
AV-unprocessed.smi

> <i_m_source_file_index>
348

> <i_lp_mmshare_version>
43012

> <i_f3d_flags>
0

> <s_epik_input>
W0NIM11PW0NIMl1bQ0gyXW4xYyhbTkgyXSljKGMoPU8pW25IXWMxPU8pW05IXVtDSDJdYzJbY0hdW2NIXVtjSF1bY0hdW2NIXTI=

> <s_epik_cmdline>
J2VwaWtfcHl0aG9uJywgJy1waCcsICc3LjAnLCAnLXRuJywgJzgnLCAnLW1hJywgJzIwMCcsICctbWV0YWxfYmluZGluZycsICctaW1hZScsICc8aW5maWxlLm1hZT4nLCAnLW9tYWUnLCAnPG91dGZpbGUubWFlPic=

> <r_lp_tautomer_probability>
1

> <r_epik_Ionization_Penalty>
5.85579e-06

> <r_epik_Ionization_Penalty_Charging>
2.30036e-06

> <r_epik_Ionization_Penalty_Neutral>
3.55543e-06

> <r_epik_State_Penalty>
-0

> <r_epik_Charging_Adjusted_Penalty>
2.30036e-06

> <i_epik_Tot_Q>
0

> <i_epik_Tot_abs_Q>
0

> <r_epik_Metal_State_Penalty>
-0

> <b_epik_Metal_Only>
0

> <s_epik_Chemistry_Notes>
This compound has an imine and may undergo hydrolysis.

> <s_lp_Force_Field>
OPLS_2005

> <r_lp_Energy>
18.6076

> <b_lp_Chiralities_Consistent>
1

> <s_lp_Variant>
AV-unprocessed.smi:348-1

> <Gold.Version>
5.8.1

> <Gold.Id.Protein>
6NUR|6NUR_protein|mol2

> <Gold.PLP.Fitness>
42.9947

> <Gold.PLP.PLP>
-32.3108

> <Gold.PLP.part.hbond>
-4.0000

> <Gold.PLP.part.metal>
0.0000

> <Gold.PLP.part.buried>
-0.7201

> <Gold.PLP.part.nonpolar>
-28.4111

> <Gold.PLP.part.repulsive>
0.1743

> <Gold.PLP.ligand.clash>
0.0000

> <Gold.PLP.ligand.torsion>
0.6700

> <Gold.PLP.Chemscore.Hbond>
4.0000

> <Gold.PLP.Chemscore.CHOScore>
0.0000

> <Gold.PLP.Chemscore.Metal>
0.0000

> <Gold.Chemscore.Hbonds>
donor molecule, donor type, donor heavy atom, donor atom, acceptor molecule, acceptor atom, score
      L1  H     7    31       P1  7948  1.00
      L1  H     9    32       P1  7948  1.00
      P1  H  6896  6907       L1    21  1.00
      P1  H 10752 10765       L1     2  1.00

> <Gold.PLP.Chemscore.Internal.Correction>
0.0238

> <Gold.Rescore>
     Score         DG    S(hbond)    S(metal)    S(lipo)     H(rot)  DE(clash)    DE(int)     intcor
     16.75     -18.75       3.32        0.00      64.70       2.10       0.15       1.86       ----

> <Gold.Chemscore.Fitness>
16.7471

> <Gold.Chemscore.DG>
-18.7546

> <Gold.Chemscore.ZeroCoef>
-5.4800

> <Gold.Chemscore.Hbond>
3.3152

> <Gold.Chemscore.Metal>
0.0000

> <Gold.Chemscore.Lipo>
64.6980

> <Gold.Chemscore.Internal_Hbond>
0.0000

> <Gold.Chemscore.DEClash>
0.1461

> <Gold.Chemscore.DEInternal>
1.8614

> <Gold.Chemscore.Rot>
2.0968

> <Gold.Chemscore.Internal.Correction>
   9.000000E+99

> <Gold.Chemscore.Hbonds>
donor molecule, donor type, donor heavy atom, donor atom, acceptor molecule, acceptor atom, score
      L1  H     7    31       P1  7948  0.95
      L1  H     9    32       P1  7948  0.24
      P1  H  6896  6907       L1    21  0.99
      P1  H 10752 10765       L1     2  0.60

> <Gold.Chemscore.Hbond.Weighted>
-11.0727

> <Gold.Chemscore.Metal.Weighted>
-0.0000

> <Gold.Chemscore.Lipo.Weighted>
-7.5697

> <Gold.Chemscore.Internal_Hbond.Weighted>
0.0000

> <Gold.Chemscore.DEClash.Weighted>
0.1461

> <Gold.Chemscore.DEInternal.Weighted>
1.8614

> <Gold.Chemscore.Rot.Weighted>
5.3677

> <Gold.Chemscore.Internal.Correction.Weighted>
   9.000000E+99

> <Gold.Protein.RotatedTorsions>
[ 6907 6896 6895 6894 ] final -130.59 input  -60.11 | X-H torsion
[ 7974 7965 7964 7962 ] final -168.59 input  175.53 | X-H torsion
[ 8008 7997 7996 7995 ] final -172.32 input   59.86 | X-H torsion
[ 10167 10162 10161 10158 ] final -163.44 input  -65.29 | X-H torsion
[ 10718 10713 10712 10709 ] final   15.16 input   66.30 | X-H torsion
[ 10763 10752 10751 10750 ] final  178.97 input  -60.55 | X-H torsion
[ 11005 11000 10999 10996 ] final  -29.31 input  -57.11 | X-H torsion

> <Gold.Protein.ActiveResidues>
 VAL166  LYS551  ARG553  GLY616  TRP617  ASP618  TYR619  PRO620  LYS621  CYS622 
 ASP623  PHE694  ASN695  SER759  ASP760  ASP761  ALA762  ILE779  LEU786  VAL792 
 PHE793  MET794  SER795  GLU796  ALA797  LYS798  CYS799  TRP800  GLU811  SER814 

> <Gold.Protein.RotatedAtoms>
  150.9415  133.6651  159.2789 H   0  0  0  0  0  0  0  0  0  0  0  0  # atno 6907 bound_to 6896
  151.4039  135.0974  159.9574 H   0  0  0  0  0  0  0  0  0  0  0  0  # atno 6908 bound_to 6896
  152.5071  133.8902  159.7445 H   0  0  0  0  0  0  0  0  0  0  0  0  # atno 6909 bound_to 6896
  144.7200  140.2348  143.6299 H   0  0  0  0  0  0  0  0  0  0  0  0  # atno 7974 bound_to 7965
  155.9431  140.1112  157.1039 H   0  0  0  0  0  0  0  0  0  0  0  0  # atno 8008 bound_to 7997
  154.4093  140.1215  156.5019 H   0  0  0  0  0  0  0  0  0  0  0  0  # atno 8009 bound_to 7997
  155.6937  140.3472  155.4906 H   0  0  0  0  0  0  0  0  0  0  0  0  # atno 8010 bound_to 7997
  139.6321  144.0420  152.2024 H   0  0  0  0  0  0  0  0  0  0  0  0  # atno 10167 bound_to 10162
  157.0495  130.6264  149.5765 H   0  0  0  0  0  0  0  0  0  0  0  0  # atno 10718 bound_to 10713
  154.5146  135.2790  155.1314 H   0  0  0  0  0  0  0  0  0  0  0  0  # atno 10763 bound_to 10752
  154.2896  135.6269  153.5383 H   0  0  0  0  0  0  0  0  0  0  0  0  # atno 10764 bound_to 10752
  152.9925  135.5671  154.5619 H   0  0  0  0  0  0  0  0  0  0  0  0  # atno 10765 bound_to 10752
  140.9285  133.7353  156.0902 H   0  0  0  0  0  0  0  0  0  0  0  0  # atno 11005 bound_to 11000
  145.8376  139.2115  143.1846 LP  0  0  0  0  0  0  0  0  0  0  0  0  # atno 17320 bound_to 7965
  146.0375  140.8198  142.9845 LP  0  0  0  0  0  0  0  0  0  0  0  0  # atno 17321 bound_to 7965
  140.0088  144.6239  150.7665 LP  0  0  0  0  0  0  0  0  0  0  0  0  # atno 17342 bound_to 10162
  140.7445  143.2861  151.3460 LP  0  0  0  0  0  0  0  0  0  0  0  0  # atno 17343 bound_to 10162
  156.0012  130.5091  150.7670 LP  0  0  0  0  0  0  0  0  0  0  0  0  # atno 17370 bound_to 10713
  157.5041  131.0921  151.0278 LP  0  0  0  0  0  0  0  0  0  0  0  0  # atno 17371 bound_to 10713
  140.7894  134.3634  157.5468 LP  0  0  0  0  0  0  0  0  0  0  0  0  # atno 17394 bound_to 11000
  139.8791  134.9131  156.3075 LP  0  0  0  0  0  0  0  0  0  0  0  0  # atno 17395 bound_to 11000

$$$$
