AV-unprocessed.smi:2098|AV-procd|sdf|8568|dock8
  -GOLD-   2272011293D 1   1.00000     0.00000
 Structure written by MMmdl.
 37 39  0  0  0  0  0  0  0  0  2 V2000
  149.9413  138.2764  157.0135 O   0  0  0  0  0  0  0  0  0  0  0  0
  150.1964  138.5238  158.3822 C   0  0  1  0  0  0  0  0  0  0  0  0
  150.4536  137.1830  159.0845 C   0  0  0  0  0  0  0  0  0  0  0  0
  149.5212  136.2251  158.6006 O   0  0  0  0  0  0  0  0  0  0  0  0
  148.7223  135.5727  159.5146 C   0  0  0  0  0  0  0  0  0  0  0  0
  148.1333  134.3603  159.0992 C   0  0  0  0  0  0  0  0  0  0  0  0
  147.2991  133.6292  159.9670 C   0  0  0  0  0  0  0  0  0  0  0  0
  147.0469  134.1055  161.2666 C   0  0  0  0  0  0  0  0  0  0  0  0
  146.2443  133.4049  162.1021 F   0  0  0  0  0  0  0  0  0  0  0  0
  147.6307  135.3116  161.6959 C   0  0  0  0  0  0  0  0  0  0  0  0
  148.4639  136.0435  160.8274 C   0  0  0  0  0  0  0  0  0  0  0  0
  151.3827  139.4996  158.5211 C   0  0  0  0  0  0  0  0  0  0  0  0
  151.0394  140.8725  158.1293 N   0  0  0  0  0  0  0  0  0  0  0  0
  150.1689  141.3233  157.1857 C   0  0  0  0  0  0  0  0  0  0  0  0
  150.2059  142.6847  157.2095 N   0  3  0  0  0  0  0  0  0  0  0  0
  151.1153  143.1096  158.1809 C   0  0  0  0  0  0  0  0  0  0  0  0
  151.4973  144.3878  158.5764 C   0  0  0  0  0  0  0  0  0  0  0  0
  152.4565  144.4708  159.6074 C   0  0  0  0  0  0  0  0  0  0  0  0
  152.9980  143.3129  160.2028 C   0  0  0  0  0  0  0  0  0  0  0  0
  152.6044  142.0219  159.7932 C   0  0  0  0  0  0  0  0  0  0  0  0
  151.6552  141.9493  158.7746 C   0  0  0  0  0  0  0  0  0  0  0  0
  150.5850  138.7396  156.4995 H   0  0  0  0  0  0  0  0  0  0  0  0
  149.2973  138.9744  158.8038 H   0  0  0  0  0  0  0  0  0  0  0  0
  151.4679  136.8434  158.8670 H   0  0  0  0  0  0  0  0  0  0  0  0
  150.3601  137.3025  160.1654 H   0  0  0  0  0  0  0  0  0  0  0  0
  148.3210  133.9876  158.1028 H   0  0  0  0  0  0  0  0  0  0  0  0
  146.8528  132.7034  159.6351 H   0  0  0  0  0  0  0  0  0  0  0  0
  147.4395  135.6778  162.6937 H   0  0  0  0  0  0  0  0  0  0  0  0
  148.8939  136.9631  161.1937 H   0  0  0  0  0  0  0  0  0  0  0  0
  151.7560  139.5212  159.5457 H   0  0  0  0  0  0  0  0  0  0  0  0
  152.2163  139.1778  157.8952 H   0  0  0  0  0  0  0  0  0  0  0  0
  149.5571  140.7122  156.5380 H   0  0  0  0  0  0  0  0  0  0  0  0
  151.0844  145.2766  158.1222 H   0  0  0  0  0  0  0  0  0  0  0  0
  152.7834  145.4425  159.9485 H   0  0  0  0  0  0  0  0  0  0  0  0
  153.7304  143.4166  160.9903 H   0  0  0  0  0  0  0  0  0  0  0  0
  153.0233  141.1401  160.2558 H   0  0  0  0  0  0  0  0  0  0  0  0
  149.6496  143.2775  156.6068 H   0  0  0  0  0  0  0  0  0  0  0  0
  1  2  1  0  0  0  0
  1 22  1  0  0  0  0
  2  3  1  0  0  0  0
  2 12  1  0  0  0  0
  2 23  1  0  0  0  0
  3  4  1  0  0  0  0
  3 24  1  0  0  0  0
  3 25  1  0  0  0  0
  4  5  1  0  0  0  0
  5 11  1  0  0  0  0
  5  6  2  0  0  0  0
  6  7  1  0  0  0  0
  6 26  1  0  0  0  0
  7  8  2  0  0  0  0
  7 27  1  0  0  0  0
  8  9  1  0  0  0  0
  8 10  1  0  0  0  0
 10 11  2  0  0  0  0
 10 28  1  0  0  0  0
 11 29  1  0  0  0  0
 12 13  1  0  0  0  0
 12 30  1  0  0  0  0
 12 31  1  0  0  0  0
 13 21  1  0  0  0  0
 13 14  1  0  0  0  0
 14 15  2  0  0  0  0
 14 32  1  0  0  0  0
 15 16  1  0  0  0  0
 15 37  1  0  0  0  0
 16 21  2  0  0  0  0
 16 17  1  0  0  0  0
 17 18  2  0  0  0  0
 17 33  1  0  0  0  0
 18 19  1  0  0  0  0
 18 34  1  0  0  0  0
 19 20  2  0  0  0  0
 19 35  1  0  0  0  0
 20 21  1  0  0  0  0
 20 36  1  0  0  0  0
M  CHG  1  15   1
M  END
> <s_m_source_file>
AV-unprocessed.smi

> <i_m_source_file_index>
2098

> <i_lp_mmshare_version>
43012

> <i_f3d_flags>
0

> <s_epik_input>
W2NIXTFbY0hdW2NIXVtjSF1jKGMxMiluKFtjSF1uMilbQ0gyXVtDQEhdKFtPSF0pW0NIMl1PYzNbY0hdW2NIXWMoRilbY0hdW2NIXTM=

> <s_epik_cmdline>
J2VwaWtfcHl0aG9uJywgJy1waCcsICc3LjAnLCAnLXRuJywgJzgnLCAnLW1hJywgJzIwMCcsICctbWV0YWxfYmluZGluZycsICctaW1hZScsICc8aW5maWxlLm1hZT4nLCAnLW9tYWUnLCAnPG91dGZpbGUubWFlPic=

> <r_lp_tautomer_probability>
1

> <r_epik_Ionization_Penalty>
1.3832

> <r_epik_Ionization_Penalty_Charging>
1.38319

> <r_epik_Ionization_Penalty_Neutral>
2.3993e-06

> <r_epik_State_Penalty>
1.46389

> <r_epik_Charging_Adjusted_Penalty>
2.84709

> <i_epik_Tot_Q>
1

> <i_epik_Tot_abs_Q>
1

> <r_epik_Metal_State_Penalty>
5.50438

> <b_epik_Metal_Only>
0

> <s_lp_Force_Field>
OPLS_2005

> <r_lp_Energy>
18.1934

> <b_lp_Chiralities_Consistent>
1

> <s_lp_Variant>
AV-unprocessed.smi:2098-4

> <Gold.Version>
5.8.1

> <Gold.Id.Protein>
6NUR|6NUR_protein|mol2

> <Gold.PLP.Fitness>
49.8538

> <Gold.PLP.PLP>
-46.2420

> <Gold.PLP.part.hbond>
-1.5902

> <Gold.PLP.part.metal>
0.0000

> <Gold.PLP.part.buried>
-5.0589

> <Gold.PLP.part.nonpolar>
-40.2070

> <Gold.PLP.part.repulsive>
0.0352

> <Gold.PLP.ligand.clash>
0.0000

> <Gold.PLP.ligand.torsion>
1.2381

> <Gold.PLP.Chemscore.Hbond>
2.0154

> <Gold.PLP.Chemscore.CHOScore>
0.0000

> <Gold.PLP.Chemscore.Metal>
0.0000

> <Gold.Chemscore.Hbonds>
donor molecule, donor type, donor heavy atom, donor atom, acceptor molecule, acceptor atom, score
      L1  H    15    37       P1  8028  2.00

> <Gold.PLP.Chemscore.Internal.Correction>
0.0418

> <Gold.Rescore>
     Score         DG    S(hbond)    S(metal)    S(lipo)     H(rot)  DE(clash)    DE(int)     intcor
     15.22     -16.82       0.99        0.00     122.59       2.46       0.34       1.26       ----

> <Gold.Chemscore.Fitness>
15.2219

> <Gold.Chemscore.DG>
-16.8193

> <Gold.Chemscore.ZeroCoef>
-5.4800

> <Gold.Chemscore.Hbond>
0.9850

> <Gold.Chemscore.Metal>
0.0000

> <Gold.Chemscore.Lipo>
122.5900

> <Gold.Chemscore.Internal_Hbond>
0.0000

> <Gold.Chemscore.DEClash>
0.3403

> <Gold.Chemscore.DEInternal>
1.2572

> <Gold.Chemscore.Rot>
2.4584

> <Gold.Chemscore.Internal.Correction>
   9.000000E+99

> <Gold.Chemscore.Hbonds>
donor molecule, donor type, donor heavy atom, donor atom, acceptor molecule, acceptor atom, score
      L1  H    15    37       P1  8028  1.00

> <Gold.Chemscore.Hbond.Weighted>
-3.2899

> <Gold.Chemscore.Metal.Weighted>
-0.0000

> <Gold.Chemscore.Lipo.Weighted>
-14.3430

> <Gold.Chemscore.Internal_Hbond.Weighted>
0.0000

> <Gold.Chemscore.DEClash.Weighted>
0.3403

> <Gold.Chemscore.DEInternal.Weighted>
1.2572

> <Gold.Chemscore.Rot.Weighted>
6.2936

> <Gold.Chemscore.Internal.Correction.Weighted>
   9.000000E+99

> <Gold.Protein.RotatedTorsions>
[ 6907 6896 6895 6894 ] final  -57.05 input  -60.11 | X-H torsion
[ 7974 7965 7964 7962 ] final   67.98 input  175.53 | X-H torsion
[ 8008 7997 7996 7995 ] final   30.52 input   59.86 | X-H torsion
[ 10167 10162 10161 10158 ] final  123.55 input  -65.29 | X-H torsion
[ 10718 10713 10712 10709 ] final  157.25 input   66.30 | X-H torsion
[ 10763 10752 10751 10750 ] final   92.62 input  -60.55 | X-H torsion
[ 11005 11000 10999 10996 ] final -104.76 input  -57.11 | X-H torsion

> <Gold.Protein.ActiveResidues>
 VAL166  LYS551  ARG553  GLY616  TRP617  ASP618  TYR619  PRO620  LYS621  CYS622 
 ASP623  PHE694  ASN695  SER759  ASP760  ASP761  ALA762  ILE779  LEU786  VAL792 
 PHE793  MET794  SER795  GLU796  ALA797  LYS798  CYS799  TRP800  GLU811  SER814 

> <Gold.Protein.RotatedAtoms>
  150.8118  134.7277  159.6694 H   0  0  0  0  0  0  0  0  0  0  0  0  # atno 6907 bound_to 6896
  152.4237  134.5904  159.9982 H   0  0  0  0  0  0  0  0  0  0  0  0  # atno 6908 bound_to 6896
  151.6112  133.3310  159.3104 H   0  0  0  0  0  0  0  0  0  0  0  0  # atno 6909 bound_to 6896
  145.8081  139.3017  143.1115 H   0  0  0  0  0  0  0  0  0  0  0  0  # atno 7974 bound_to 7965
  155.0918  140.3221  155.4571 H   0  0  0  0  0  0  0  0  0  0  0  0  # atno 8008 bound_to 7997
  156.2740  140.2076  156.5991 H   0  0  0  0  0  0  0  0  0  0  0  0  # atno 8009 bound_to 7997
  154.6897  140.0517  157.0338 H   0  0  0  0  0  0  0  0  0  0  0  0  # atno 8010 bound_to 7997
  139.5793  144.6978  151.3570 H   0  0  0  0  0  0  0  0  0  0  0  0  # atno 10167 bound_to 10162
  157.1939  131.0661  151.2063 H   0  0  0  0  0  0  0  0  0  0  0  0  # atno 10718 bound_to 10713
  153.2212  135.4355  155.0491 H   0  0  0  0  0  0  0  0  0  0  0  0  # atno 10763 bound_to 10752
  154.8250  135.3356  154.6925 H   0  0  0  0  0  0  0  0  0  0  0  0  # atno 10764 bound_to 10752
  153.7357  135.7008  153.5035 H   0  0  0  0  0  0  0  0  0  0  0  0  # atno 10765 bound_to 10752
  141.1085  133.8750  157.1650 H   0  0  0  0  0  0  0  0  0  0  0  0  # atno 11005 bound_to 11000
  145.9807  140.8685  143.0116 LP  0  0  0  0  0  0  0  0  0  0  0  0  # atno 17320 bound_to 7965
  144.6760  140.2076  143.7380 LP  0  0  0  0  0  0  0  0  0  0  0  0  # atno 17321 bound_to 7965
  140.7073  143.7482  150.7504 LP  0  0  0  0  0  0  0  0  0  0  0  0  # atno 17342 bound_to 10162
  140.1010  143.4788  152.2425 LP  0  0  0  0  0  0  0  0  0  0  0  0  # atno 17343 bound_to 10162
  157.3833  130.7243  149.6645 LP  0  0  0  0  0  0  0  0  0  0  0  0  # atno 17370 bound_to 10713
  155.9708  130.4166  150.4240 LP  0  0  0  0  0  0  0  0  0  0  0  0  # atno 17371 bound_to 10713
  139.9967  135.0044  157.0099 LP  0  0  0  0  0  0  0  0  0  0  0  0  # atno 17394 bound_to 11000
  140.4837  134.1263  155.7221 LP  0  0  0  0  0  0  0  0  0  0  0  0  # atno 17395 bound_to 11000

$$$$
