#       Name:                AV-unprocessed.smi:148
#       Creating user name   scv26
#       Creation time:       Thu Mar 26 18:42:54 2020


#       File generated by GOLD software.
#

@<TRIPOS>MOLECULE
AV-unprocessed.smi:148
    73    77     1
SMALL
NO_CHARGES


@<TRIPOS>ATOM
      1 ****        -3.7220  -2.6670   0.8238 O.3            1 S1                 0.0000
      2 ****        -3.8010  -1.3202   1.2431 C.3            1 S1                 0.0000
      3 ****        -2.9978  -1.0846   2.5459 C.3            1 S1                 0.0000
      4 ****        -1.4777  -1.3198   2.3621 C.3            1 S1                 0.0000
      5 ****        -0.9120  -0.5506   1.2675 N.pl3          1 S1                 0.0000
      6 ****        -0.6313   0.7968   1.2730 C.2            1 S1                 0.0000
      7 ****        -0.1351   1.2661   0.1609 N.2            1 S1                 0.0000
      8 ****        -0.0620   0.1553  -0.6713 C.ar           1 S1                 0.0000
      9 ****         0.3775  -0.0596  -2.0085 C.ar           1 S1                 0.0000
     10 ****         0.8557   0.9039  -2.8253 N.3            1 S1                 0.0000
     11 ****        -0.2596   1.7583  -3.2408 C.3            1 S1                 0.0000
     12 ****         0.1484   2.7136  -4.3656 C.3            1 S1                 0.0000
     13 ****         1.3575   3.5398  -3.9274 C.3            1 S1                 0.0000
     14 ****         2.5004   2.6052  -3.5132 C.3            1 S1                 0.0000
     15 ****         2.0883   1.6021  -2.4000 C.3            1 S1                 0.0000
     16 ****         3.2859   0.6410  -2.0777 C.3            1 S1                 0.0000
     17 ****         3.1785  -0.2279  -0.8055 C.3            1 S1                 0.0000
     18 ****         4.6096  -0.6058  -0.3976 C.3            1 S1                 0.0000
     19 ****         5.5411   0.2336  -1.2763 C.3            1 S1                 0.0000
     20 ****         4.6558   1.3251  -1.8799 C.3            1 S1                 0.0000
     21 ****         4.5677   2.3962  -0.9564 O.3            1 S1                 0.0000
     22 ****         0.2857  -1.3131  -2.5169 N.ar           1 S1                 0.0000
     23 ****        -0.1851  -2.3070  -1.7576 C.ar           1 S1                 0.0000
     24 ****        -0.6177  -2.2614  -0.4955 N.ar           1 S1                 0.0000
     25 ****        -0.5415  -0.9972   0.0112 C.ar           1 S1                 0.0000
     26 ****        -3.5633  -1.8977   3.7381 C.3            1 S1                 0.0000
     27 ****        -2.9352  -1.5781   5.0833 C.3            1 S1                 0.0000
     28 ****        -3.9656  -2.1356   6.0582 C.3            1 S1                 0.0000
     29 ****        -5.2270  -1.9445   5.4285 O.3            1 S1                 0.0000
     30 ****        -5.0415  -1.6363   4.0503 C.3            1 S1                 0.0000
     31 ****        -4.2046  -2.7601   0.0167 H              1 S1                 0.0000
     32 ****        -3.4411  -0.6805   0.4374 H              1 S1                 0.0000
     33 ****        -4.8504  -1.0613   1.3815 H              1 S1                 0.0000
     34 ****        -3.1227  -0.0289   2.7921 H              1 S1                 0.0000
     35 ****        -0.9344  -1.0479   3.2670 H              1 S1                 0.0000
     36 ****        -1.2751  -2.3773   2.1891 H              1 S1                 0.0000
     37 ****        -0.8143   1.4256   2.1323 H              1 S1                 0.0000
     38 ****        -1.0964   1.1442  -3.5784 H              1 S1                 0.0000
     39 ****        -0.6156   2.3362  -2.3867 H              1 S1                 0.0000
     40 ****         0.3896   2.1464  -5.2656 H              1 S1                 0.0000
     41 ****        -0.6841   3.3696  -4.6209 H              1 S1                 0.0000
     42 ****         1.6800   4.1939  -4.7381 H              1 S1                 0.0000
     43 ****         1.0853   4.1852  -3.0913 H              1 S1                 0.0000
     44 ****         2.8466   2.0544  -4.3892 H              1 S1                 0.0000
     45 ****         3.3351   3.2268  -3.1926 H              1 S1                 0.0000
     46 ****         1.8544   2.1791  -1.5047 H              1 S1                 0.0000
     47 ****         3.3971  -0.0386  -2.9248 H              1 S1                 0.0000
     48 ****         2.7174   0.3445   0.0002 H              1 S1                 0.0000
     49 ****         2.5809  -1.1255  -0.9572 H              1 S1                 0.0000
     50 ****         4.7696  -0.3878   0.6589 H              1 S1                 0.0000
     51 ****         4.7987  -1.6698  -0.5434 H              1 S1                 0.0000
     52 ****         6.3972   0.6292  -0.7280 H              1 S1                 0.0000
     53 ****         5.9334  -0.3926  -2.0789 H              1 S1                 0.0000
     54 ****         5.0762   1.6935  -2.8161 H              1 S1                 0.0000
     55 ****         3.9798   3.0473  -1.3075 H              1 S1                 0.0000
     56 ****        -0.2205  -3.2779  -2.2292 H              1 S1                 0.0000
     57 ****        -3.4337  -2.9645   3.5471 H              1 S1                 0.0000
     58 ****        -1.9509  -2.0272   5.2185 H              1 S1                 0.0000
     59 ****        -2.8414  -0.4991   5.2150 H              1 S1                 0.0000
     60 ****        -3.8094  -3.2047   6.2065 H              1 S1                 0.0000
     61 ****        -3.9267  -1.6484   7.0326 H              1 S1                 0.0000
     62 ****        -5.2892  -0.5842   3.9028 H              1 S1                 0.0000
     63 ****        -5.7086  -2.2298   3.4246 H              1 S1                 0.0000
     64 ****        -4.1179  -3.2616   1.5236 LP             1 S1                 0.0000
     65 ****        -2.7655  -2.9181   0.6753 LP             1 S1                 0.0000
     66 ****         0.1311   2.2078  -0.0450 LP             1 S1                 0.0000
     67 ****         1.2302   0.4499  -3.6338 LP             1 S1                 0.0000
     68 ****         5.4729   2.7982  -0.8188 LP             1 S1                 0.0000
     69 ****         4.2159   2.0602  -0.0827 LP             1 S1                 0.0000
     70 ****         0.5698  -1.4937  -3.4585 LP             1 S1                 0.0000
     71 ****        -0.9547  -3.0533   0.0137 LP             1 S1                 0.0000
     72 ****        -5.7090  -1.1904   5.8746 LP             1 S1                 0.0000
     73 ****        -5.7684  -2.7812   5.5108 LP             1 S1                 0.0000
@<TRIPOS>BOND
    1    1    2 1     
    2    1   31 1     
    3    2    3 1     
    4    2   32 1     
    5    2   33 1     
    6    3    4 1     
    7    3   26 1     
    8    3   34 1     
    9    4    5 1     
   10    4   35 1     
   11    4   36 1     
   12    5   25 1     
   13    5    6 1     
   14    6    7 2     
   15    6   37 1     
   16    7    8 1     
   17    8   25 ar    
   18    8    9 ar    
   19    9   10 1     
   20    9   22 ar    
   21   10   15 1     
   22   10   11 1     
   23   11   12 1     
   24   11   38 1     
   25   11   39 1     
   26   12   13 1     
   27   12   40 1     
   28   12   41 1     
   29   13   14 1     
   30   13   42 1     
   31   13   43 1     
   32   14   15 1     
   33   14   44 1     
   34   14   45 1     
   35   15   16 1     
   36   15   46 1     
   37   16   20 1     
   38   16   17 1     
   39   16   47 1     
   40   17   18 1     
   41   17   48 1     
   42   17   49 1     
   43   18   19 1     
   44   18   50 1     
   45   18   51 1     
   46   19   20 1     
   47   19   52 1     
   48   19   53 1     
   49   20   21 1     
   50   20   54 1     
   51   21   55 1     
   52   22   23 ar    
   53   23   24 ar    
   54   23   56 1     
   55   24   25 ar    
   56   26   30 1     
   57   26   27 1     
   58   26   57 1     
   59   27   28 1     
   60   27   58 1     
   61   27   59 1     
   62   28   29 1     
   63   28   60 1     
   64   28   61 1     
   65   29   30 1     
   66   30   62 1     
   67   30   63 1     
   68    1   64 1     
   69    1   65 1     
   70    7   66 1     
   71   10   67 1     
   72   21   68 1     
   73   21   69 1     
   74   22   70 1     
   75   24   71 1     
   76   29   72 1     
   77   29   73 1     
@<TRIPOS>SUBSTRUCTURE
      1 S1             1
@<TRIPOS>SET
LONE_PAIRS      STATIC     ATOMS    <user>   **** ""
10 64 65 66 67 68 69 70 71 72 73
DONOR_HYDROGENS      STATIC     ATOMS    <user>   **** ""
2 31 55
ATOM$BLUE        STATIC     ATOMS    COLORGROUP SYSTEM
10 64 65 66 67 68 69 70 71 72 73
ATOM$RED        STATIC     ATOMS    COLORGROUP SYSTEM
2 31 55
