AV-unprocessed.smi:54|AV-procd|sdf|534|dock9
  -GOLD-   2262016413D 1   1.00000     0.00000
 Structure written by MMmdl.
 44 46  0  0  0  0  0  0  0  0  1 V2000
  145.2774  134.0080  150.6951 C   0  0  0  0  0  0  0  0  0  0  0  0
  146.4507  133.1081  151.1161 C   0  0  0  0  0  0  0  0  0  0  0  0
  145.9959  131.6523  151.3094 C   0  0  0  0  0  0  0  0  0  0  0  0
  147.1106  133.6441  152.3919 C   0  0  0  0  0  0  0  0  0  0  0  0
  146.6287  134.5797  153.0319 O   0  0  0  0  0  0  0  0  0  0  0  0
  148.3405  132.9779  152.7837 N   0  0  0  0  0  0  0  0  0  0  0  0
  149.1252  133.2567  153.8509 C   0  0  0  0  0  0  0  0  0  0  0  0
  149.3527  134.4890  154.2839 N   0  0  0  0  0  0  0  0  0  0  0  0
  150.1757  134.5660  155.3727 C   0  0  0  0  0  0  0  0  0  0  0  0
  150.7643  133.5107  156.0364 C   0  0  0  0  0  0  0  0  0  0  0  0
  151.5360  133.9811  157.0930 N   0  0  0  0  0  0  0  0  0  0  0  0
  151.3965  135.2768  157.0356 C   0  0  0  0  0  0  0  0  0  0  0  0
  150.5896  135.7151  156.0108 N   0  0  0  0  0  0  0  0  0  0  0  0
  150.1921  137.1110  155.6325 C   0  0  1  0  0  0  0  0  0  0  0  0
  150.5385  137.9688  156.6777 O   0  0  0  0  0  0  0  0  0  0  0  0
  151.7427  138.6548  156.3554 C   0  0  2  0  0  0  0  0  0  0  0  0
  151.9186  139.9140  157.2211 C   0  0  0  0  0  0  0  0  0  0  0  0
  153.0507  139.7741  158.0522 O   0  0  0  0  0  0  0  0  0  0  0  0
  151.5822  138.9028  154.8507 C   0  0  2  0  0  0  0  0  0  0  0  0
  150.7423  140.0171  154.6083 O   0  0  0  0  0  0  0  0  0  0  0  0
  150.9225  137.6179  154.3632 C   0  0  1  0  0  0  0  0  0  0  0  0
  151.9123  136.7314  153.8696 O   0  0  0  0  0  0  0  0  0  0  0  0
  150.5222  132.1708  155.5851 C   0  0  0  0  0  0  0  0  0  0  0  0
  150.9559  131.1196  156.0515 O   0  0  0  0  0  0  0  0  0  0  0  0
  149.6780  132.1339  154.4674 N   0  0  0  0  0  0  0  0  0  0  0  0
  149.1074  137.0672  155.5266 H   0  0  0  0  0  0  0  0  0  0  0  0
  152.5897  137.9813  156.4994 H   0  0  0  0  0  0  0  0  0  0  0  0
  152.5416  139.0938  154.3671 H   0  0  0  0  0  0  0  0  0  0  0  0
  150.1964  137.7999  153.5697 H   0  0  0  0  0  0  0  0  0  0  0  0
  145.5967  135.0434  150.5701 H   0  0  0  0  0  0  0  0  0  0  0  0
  144.4750  133.9934  151.4338 H   0  0  0  0  0  0  0  0  0  0  0  0
  144.8565  133.6795  149.7445 H   0  0  0  0  0  0  0  0  0  0  0  0
  147.1919  133.1266  150.3158 H   0  0  0  0  0  0  0  0  0  0  0  0
  146.8279  131.0124  151.6055 H   0  0  0  0  0  0  0  0  0  0  0  0
  145.5856  131.2465  150.3841 H   0  0  0  0  0  0  0  0  0  0  0  0
  145.2232  131.5709  152.0752 H   0  0  0  0  0  0  0  0  0  0  0  0
  148.6477  132.2295  152.1802 H   0  0  0  0  0  0  0  0  0  0  0  0
  151.8780  135.9388  157.7405 H   0  0  0  0  0  0  0  0  0  0  0  0
  152.0837  140.7854  156.5867 H   0  0  0  0  0  0  0  0  0  0  0  0
  151.0310  140.1117  157.8228 H   0  0  0  0  0  0  0  0  0  0  0  0
  152.9934  140.4117  158.7474 H   0  0  0  0  0  0  0  0  0  0  0  0
  150.6328  140.4918  155.4180 H   0  0  0  0  0  0  0  0  0  0  0  0
  151.7044  136.5248  152.9711 H   0  0  0  0  0  0  0  0  0  0  0  0
  149.4677  131.2206  154.0924 H   0  0  0  0  0  0  0  0  0  0  0  0
  1  2  1  0  0  0  0
  1 30  1  0  0  0  0
  1 31  1  0  0  0  0
  1 32  1  0  0  0  0
  2  3  1  0  0  0  0
  2  4  1  0  0  0  0
  2 33  1  0  0  0  0
  3 34  1  0  0  0  0
  3 35  1  0  0  0  0
  3 36  1  0  0  0  0
  4  5  2  0  0  0  0
  4  6  1  0  0  0  0
  6 37  1  0  0  0  0
  6  7  1  0  0  0  0
  7 25  1  0  0  0  0
  7  8  2  0  0  0  0
  8  9  1  0  0  0  0
  9 13  1  0  0  0  0
  9 10  2  0  0  0  0
 10 11  1  0  0  0  0
 10 23  1  0  0  0  0
 11 12  2  0  0  0  0
 12 13  1  0  0  0  0
 12 38  1  0  0  0  0
 13 14  1  0  0  0  0
 14 26  1  0  0  0  0
 14 21  1  0  0  0  0
 14 15  1  0  0  0  0
 15 16  1  0  0  0  0
 16 27  1  0  0  0  0
 16 17  1  0  0  0  0
 16 19  1  0  0  0  0
 17 18  1  0  0  0  0
 17 39  1  0  0  0  0
 17 40  1  0  0  0  0
 18 41  1  0  0  0  0
 19 28  1  0  0  0  0
 19 20  1  0  0  0  0
 19 21  1  0  0  0  0
 20 42  1  0  0  0  0
 21 29  1  0  0  0  0
 21 22  1  0  0  0  0
 22 43  1  0  0  0  0
 23 24  2  0  0  0  0
 23 25  1  0  0  0  0
 25 44  1  0  0  0  0
M  END
> <s_m_source_file>
AV-unprocessed.smi

> <i_m_source_file_index>
54

> <i_lp_mmshare_version>
43012

> <i_f3d_flags>
0

> <s_epik_input>
W0NIM11bQ0hdKFtDSDNdKUMoPU8pW05IXWMobjEpW25IXWMoPU8pYyhjMTIpbltjSF1uMltDQEBIXTNPW0NASF0oW0NIMl1bT0hdKVtDQEBIXShbT0hdKVtDQEhdM1tPSF0=

> <s_epik_cmdline>
J2VwaWtfcHl0aG9uJywgJy1waCcsICc3LjAnLCAnLXRuJywgJzgnLCAnLW1hJywgJzIwMCcsICctbWV0YWxfYmluZGluZycsICctaW1hZScsICc8aW5maWxlLm1hZT4nLCAnLW9tYWUnLCAnPG91dGZpbGUubWFlPic=

> <r_lp_tautomer_probability>
0.85571

> <r_epik_Ionization_Penalty>
0.0316551

> <r_epik_Ionization_Penalty_Charging>
0.0316043

> <r_epik_Ionization_Penalty_Neutral>
5.07097e-05

> <r_epik_State_Penalty>
3.15494e-07

> <r_epik_Charging_Adjusted_Penalty>
0.0316047

> <i_epik_Tot_Q>
0

> <i_epik_Tot_abs_Q>
0

> <r_epik_Metal_State_Penalty>
0.421206

> <b_epik_Metal_Only>
0

> <s_epik_Chemistry_Notes>
This compound contains an acetal/aminal-like group ( X-CH(R)-Y where X, Y are N, S, or O) that may be acid/base labile, releasing an aldehyde.

> <s_lp_Force_Field>
OPLS_2005

> <r_lp_Energy>
41.1485

> <b_lp_Chiralities_Consistent>
1

> <s_lp_Variant>
AV-unprocessed.smi:54-6

> <Gold.Version>
5.8.1

> <Gold.Id.Protein>
6NUR|6NUR_protein|mol2

> <Gold.PLP.Fitness>
46.5041

> <Gold.PLP.PLP>
-36.0100

> <Gold.PLP.part.hbond>
-5.0672

> <Gold.PLP.part.metal>
0.0000

> <Gold.PLP.part.buried>
-6.6606

> <Gold.PLP.part.nonpolar>
-27.0523

> <Gold.PLP.part.repulsive>
1.3975

> <Gold.PLP.ligand.clash>
0.0000

> <Gold.PLP.ligand.torsion>
1.4214

> <Gold.PLP.Chemscore.Hbond>
4.4317

> <Gold.PLP.Chemscore.CHOScore>
0.0000

> <Gold.PLP.Chemscore.Metal>
0.0000

> <Gold.Chemscore.Hbonds>
donor molecule, donor type, donor heavy atom, donor atom, acceptor molecule, acceptor atom, score
      L1  H     6    37       P1 10747  0.19
      L1  H    22    43       P1  7949  1.00
      P1  H  6896  6907       L1    11  0.21
      P1  H  7989  7998       L1    20  1.00
      P1  H  7997  8008       L1    18  1.00
      P1  H 10752 10763       L1    22  0.91

> <Gold.PLP.Chemscore.Internal.Correction>
0.0417

> <Gold.Rescore>
     Score         DG    S(hbond)    S(metal)    S(lipo)     H(rot)  DE(clash)    DE(int)     intcor
      7.97     -11.18       2.90        0.00      54.58       4.05       0.75       2.46       ----

> <Gold.Chemscore.Fitness>
7.9715

> <Gold.Chemscore.DG>
-11.1795

> <Gold.Chemscore.ZeroCoef>
-5.4800

> <Gold.Chemscore.Hbond>
2.8983

> <Gold.Chemscore.Metal>
0.0000

> <Gold.Chemscore.Lipo>
54.5771

> <Gold.Chemscore.Internal_Hbond>
0.0000

> <Gold.Chemscore.DEClash>
0.7460

> <Gold.Chemscore.DEInternal>
2.4620

> <Gold.Chemscore.Rot>
4.0493

> <Gold.Chemscore.Internal.Correction>
   9.000000E+99

> <Gold.Chemscore.Hbonds>
donor molecule, donor type, donor heavy atom, donor atom, acceptor molecule, acceptor atom, score
      L1  H     6    37       P1 10747  0.21
      L1  H    22    43       P1  7949  0.99
      P1  H  6896  6907       L1    11  0.13
      P1  H  7989  7998       L1    20  0.28
      P1  H  7997  8008       L1    18  0.58
      P1  H 10752 10763       L1    22  0.19

> <Gold.Chemscore.Hbond.Weighted>
-9.6802

> <Gold.Chemscore.Metal.Weighted>
-0.0000

> <Gold.Chemscore.Lipo.Weighted>
-6.3855

> <Gold.Chemscore.Internal_Hbond.Weighted>
0.0000

> <Gold.Chemscore.DEClash.Weighted>
0.7460

> <Gold.Chemscore.DEInternal.Weighted>
2.4620

> <Gold.Chemscore.Rot.Weighted>
10.3662

> <Gold.Chemscore.Internal.Correction.Weighted>
   9.000000E+99

> <Gold.Protein.RotatedTorsions>
[ 6907 6896 6895 6894 ] final -159.71 input  -60.11 | X-H torsion
[ 7974 7965 7964 7962 ] final -117.31 input  175.53 | X-H torsion
[ 8008 7997 7996 7995 ] final  -94.30 input   59.86 | X-H torsion
[ 10167 10162 10161 10158 ] final  149.42 input  -65.29 | X-H torsion
[ 10718 10713 10712 10709 ] final   26.75 input   66.30 | X-H torsion
[ 10763 10752 10751 10750 ] final   31.58 input  -60.55 | X-H torsion
[ 11005 11000 10999 10996 ] final  -51.57 input  -57.11 | X-H torsion

> <Gold.Protein.ActiveResidues>
 VAL166  LYS551  ARG553  GLY616  TRP617  ASP618  TYR619  PRO620  LYS621  CYS622 
 ASP623  PHE694  ASN695  SER759  ASP760  ASP761  ALA762  ILE779  LEU786  VAL792 
 PHE793  MET794  SER795  GLU796  ALA797  LYS798  CYS799  TRP800  GLU811  SER814 

> <Gold.Protein.RotatedAtoms>
  151.3378  133.3974  159.2668 H   0  0  0  0  0  0  0  0  0  0  0  0  # atno 6907 bound_to 6896
  150.9903  134.9240  159.7906 H   0  0  0  0  0  0  0  0  0  0  0  0  # atno 6908 bound_to 6896
  152.5245  134.3342  159.9246 H   0  0  0  0  0  0  0  0  0  0  0  0  # atno 6909 bound_to 6896
  145.0867  140.8462  143.4007 H   0  0  0  0  0  0  0  0  0  0  0  0  # atno 7974 bound_to 7965
  154.7467  140.0490  157.0858 H   0  0  0  0  0  0  0  0  0  0  0  0  # atno 8008 bound_to 7997
  155.0109  140.3136  155.4811 H   0  0  0  0  0  0  0  0  0  0  0  0  # atno 8009 bound_to 7997
  156.2876  140.2184  156.5223 H   0  0  0  0  0  0  0  0  0  0  0  0  # atno 8010 bound_to 7997
  139.4862  144.5603  151.7243 H   0  0  0  0  0  0  0  0  0  0  0  0  # atno 10167 bound_to 10162
  157.2110  130.6934  149.6228 H   0  0  0  0  0  0  0  0  0  0  0  0  # atno 10718 bound_to 10713
  153.0308  135.6435  154.1222 H   0  0  0  0  0  0  0  0  0  0  0  0  # atno 10763 bound_to 10752
  154.0944  135.2864  155.3266 H   0  0  0  0  0  0  0  0  0  0  0  0  # atno 10764 bound_to 10752
  154.6442  135.5449  153.7888 H   0  0  0  0  0  0  0  0  0  0  0  0  # atno 10765 bound_to 10752
  141.0878  133.6639  156.3896 H   0  0  0  0  0  0  0  0  0  0  0  0  # atno 11005 bound_to 11000
  145.1114  139.2754  143.5635 LP  0  0  0  0  0  0  0  0  0  0  0  0  # atno 17320 bound_to 7965
  146.3531  140.0711  142.8623 LP  0  0  0  0  0  0  0  0  0  0  0  0  # atno 17321 bound_to 7965
  140.5171  144.0935  150.6011 LP  0  0  0  0  0  0  0  0  0  0  0  0  # atno 17342 bound_to 10162
  140.3881  143.2767  152.0092 LP  0  0  0  0  0  0  0  0  0  0  0  0  # atno 17343 bound_to 10162
  155.9690  130.4551  150.5875 LP  0  0  0  0  0  0  0  0  0  0  0  0  # atno 17370 bound_to 10713
  157.3672  131.0759  151.1588 LP  0  0  0  0  0  0  0  0  0  0  0  0  # atno 17371 bound_to 10713
  140.5323  134.6201  157.5354 LP  0  0  0  0  0  0  0  0  0  0  0  0  # atno 17394 bound_to 11000
  139.9699  134.7311  156.0063 LP  0  0  0  0  0  0  0  0  0  0  0  0  # atno 17395 bound_to 11000

$$$$
