#       Name:                AV-unprocessed.smi:2172
#       Creating user name   scv26
#       Creation time:       Fri Mar 27 12:02:59 2020


#       File generated by GOLD software.
#

@<TRIPOS>MOLECULE
AV-unprocessed.smi:2172
    41    43     1
SMALL
NO_CHARGES


@<TRIPOS>ATOM
      1 ****        -0.1667   3.8218   0.4548 O.3            1 S1                 0.0000
      2 ****        -0.2849   3.4429  -0.8987 C.3            1 S1                 0.0000
      3 ****        -0.7672   2.0380  -1.0527 C.2            1 S1                 0.0000
      4 ****        -2.0722   1.6483  -1.0940 N.pl3          1 S1                 1.0000
      5 ****        -2.1483   0.2610  -1.2182 C.ar           1 S1                 0.0000
      6 ****        -3.2499  -0.5860  -1.2907 C.ar           1 S1                 0.0000
      7 ****        -2.9812  -1.9656  -1.4044 C.ar           1 S1                 0.0000
      8 ****        -1.6596  -2.4544  -1.4447 C.ar           1 S1                 0.0000
      9 ****        -0.5512  -1.5853  -1.3751 C.ar           1 S1                 0.0000
     10 ****        -0.8239  -0.2216  -1.2597 C.ar           1 S1                 0.0000
     11 ****        -0.0046   0.9104  -1.1530 N.pl3          1 S1                 0.0000
     12 ****         1.4600   0.7534  -1.1417 C.3            1 S1                 0.0000
     13 ****         2.0470   0.7979   0.2836 C.3            1 S1                 0.0000
     14 ****         3.4553   0.8318   0.1798 O.3            1 S1                 0.0000
     15 ****         1.5570  -0.3552   1.1483 C.ar           1 S1                 0.0000
     16 ****         0.5022  -0.1473   2.0630 C.ar           1 S1                 0.0000
     17 ****         0.0171  -1.2150   2.8427 C.ar           1 S1                 0.0000
     18 ****         0.5858  -2.4969   2.7140 C.ar           1 S1                 0.0000
     19 ****        -0.0117  -3.8062   3.6653 Cl             1 S1                 0.0000
     20 ****         1.6406  -2.7099   1.8055 C.ar           1 S1                 0.0000
     21 ****         2.1249  -1.6427   1.0247 C.ar           1 S1                 0.0000
     22 ****         0.1435   4.7140   0.4918 H              1 S1                 0.0000
     23 ****        -0.9797   4.1196  -1.3965 H              1 S1                 0.0000
     24 ****         0.6809   3.5603  -1.3898 H              1 S1                 0.0000
     25 ****        -4.2633  -0.2137  -1.2579 H              1 S1                 0.0000
     26 ****        -3.8047  -2.6627  -1.4603 H              1 S1                 0.0000
     27 ****        -1.4913  -3.5182  -1.5300 H              1 S1                 0.0000
     28 ****         0.4546  -1.9765  -1.4024 H              1 S1                 0.0000
     29 ****         1.7381  -0.1649  -1.6586 H              1 S1                 0.0000
     30 ****         1.8717   1.5666  -1.7401 H              1 S1                 0.0000
     31 ****         1.7546   1.7347   0.7589 H              1 S1                 0.0000
     32 ****         3.8165   0.9638   1.0432 H              1 S1                 0.0000
     33 ****         0.0538   0.8307   2.1611 H              1 S1                 0.0000
     34 ****        -0.7932  -1.0489   3.5373 H              1 S1                 0.0000
     35 ****         2.0773  -3.6925   1.7035 H              1 S1                 0.0000
     36 ****         2.9269  -1.8191   0.3229 H              1 S1                 0.0000
     37 ****        -2.8533   2.2884  -1.0318 H              1 S1                 0.0000
     38 ****         0.4835   3.2194   0.9178 LP             1 S1                 0.0000
     39 ****        -1.0586   3.7563   0.9022 LP             1 S1                 0.0000
     40 ****         3.7314   1.5829  -0.4198 LP             1 S1                 0.0000
     41 ****         3.7868  -0.0337  -0.1959 LP             1 S1                 0.0000
@<TRIPOS>BOND
    1    1    2 1     
    2    1   22 1     
    3    2    3 1     
    4    2   23 1     
    5    2   24 1     
    6    3   11 1     
    7    3    4 2     
    8    4    5 1     
    9    4   37 1     
   10    5   10 ar    
   11    5    6 ar    
   12    6    7 ar    
   13    6   25 1     
   14    7    8 ar    
   15    7   26 1     
   16    8    9 ar    
   17    8   27 1     
   18    9   10 ar    
   19    9   28 1     
   20   10   11 1     
   21   11   12 1     
   22   12   13 1     
   23   12   29 1     
   24   12   30 1     
   25   13   14 1     
   26   13   15 1     
   27   13   31 1     
   28   14   32 1     
   29   15   21 ar    
   30   15   16 ar    
   31   16   17 ar    
   32   16   33 1     
   33   17   18 ar    
   34   17   34 1     
   35   18   19 1     
   36   18   20 ar    
   37   20   21 ar    
   38   20   35 1     
   39   21   36 1     
   40    1   38 1     
   41    1   39 1     
   42   14   40 1     
   43   14   41 1     
@<TRIPOS>SUBSTRUCTURE
      1 S1             1
@<TRIPOS>SET
LONE_PAIRS      STATIC     ATOMS    <user>   **** ""
4 38 39 40 41
DONOR_HYDROGENS      STATIC     ATOMS    <user>   **** ""
3 22 37 32
ATOM$BLUE        STATIC     ATOMS    COLORGROUP SYSTEM
4 38 39 40 41
ATOM$RED        STATIC     ATOMS    COLORGROUP SYSTEM
3 22 37 32
