AV-unprocessed.smi:2260|AV-procd|sdf|9133|dock9
  -GOLD-   2272012343D 1   1.00000     0.00000
 Structure written by MMmdl.
 43 44  0  0  0  0  0  0  0  0  2 V2000
  151.5958  144.7860  159.6957 C   0  0  0  0  0  0  0  0  0  0  0  0
  152.2514  143.4221  159.8293 C   0  0  0  0  0  0  0  0  0  0  0  0
  152.8525  142.9518  160.9276 C   0  0  0  0  0  0  0  0  0  0  0  0
  153.4599  141.3258  160.7231 S   0  0  0  0  0  0  0  0  0  0  0  0
  152.8420  141.2974  159.0325 C   0  0  0  0  0  0  0  0  0  0  0  0
  152.9626  140.3233  158.2914 O   0  0  0  0  0  0  0  0  0  0  0  0
  152.2389  142.5229  158.7554 N   0  0  0  0  0  0  0  0  0  0  0  0
  151.6535  142.8141  157.4438 C   0  0  0  0  0  0  0  0  0  0  0  0
  150.4088  141.9514  157.1861 C   0  0  0  0  0  0  0  0  0  0  0  0
  150.0166  142.0069  155.7627 N   0  3  0  0  0  0  0  0  0  0  0  0
  148.7809  141.2674  155.4086 C   0  0  1  0  0  0  0  0  0  0  0  0
  148.1042  141.8782  154.1586 C   0  0  0  0  0  0  0  0  0  0  0  0
  146.8202  141.1262  153.7831 C   0  0  0  0  0  0  0  0  0  0  0  0
  147.0899  139.6304  153.5853 C   0  0  0  0  0  0  0  0  0  0  0  0
  147.7568  139.0221  154.8304 C   0  0  0  0  0  0  0  0  0  0  0  0
  149.0666  139.7413  155.2462 C   0  0  0  0  0  0  0  0  0  0  0  0
  150.1753  139.4613  154.2028 C   0  0  0  0  0  0  0  0  0  0  0  0
  149.5162  139.1472  156.5989 C   0  0  0  0  0  0  0  0  0  0  0  0
  151.3371  145.1765  160.6803 H   0  0  0  0  0  0  0  0  0  0  0  0
  150.6768  144.7461  159.1120 H   0  0  0  0  0  0  0  0  0  0  0  0
  152.2815  145.4895  159.2232 H   0  0  0  0  0  0  0  0  0  0  0  0
  152.9675  143.4720  161.8673 H   0  0  0  0  0  0  0  0  0  0  0  0
  151.4128  143.8738  157.3568 H   0  0  0  0  0  0  0  0  0  0  0  0
  152.3955  142.6272  156.6654 H   0  0  0  0  0  0  0  0  0  0  0  0
  150.6119  140.9155  157.4610 H   0  0  0  0  0  0  0  0  0  0  0  0
  149.5855  142.2944  157.8119 H   0  0  0  0  0  0  0  0  0  0  0  0
  149.9118  142.9709  155.4801 H   0  0  0  0  0  0  0  0  0  0  0  0
  148.0872  141.3787  156.2443 H   0  0  0  0  0  0  0  0  0  0  0  0
  147.8487  142.9228  154.3338 H   0  0  0  0  0  0  0  0  0  0  0  0
  148.7925  141.8750  153.3130 H   0  0  0  0  0  0  0  0  0  0  0  0
  146.0760  141.2605  154.5693 H   0  0  0  0  0  0  0  0  0  0  0  0
  146.3907  141.5513  152.8754 H   0  0  0  0  0  0  0  0  0  0  0  0
  146.1525  139.1124  153.3803 H   0  0  0  0  0  0  0  0  0  0  0  0
  147.7160  139.4784  152.7059 H   0  0  0  0  0  0  0  0  0  0  0  0
  147.0427  139.0646  155.6544 H   0  0  0  0  0  0  0  0  0  0  0  0
  147.9468  137.9620  154.6575 H   0  0  0  0  0  0  0  0  0  0  0  0
  150.3299  138.3895  154.0744 H   0  0  0  0  0  0  0  0  0  0  0  0
  151.1334  139.8840  154.5063 H   0  0  0  0  0  0  0  0  0  0  0  0
  149.9396  139.8699  153.2210 H   0  0  0  0  0  0  0  0  0  0  0  0
  149.6634  138.0690  156.5268 H   0  0  0  0  0  0  0  0  0  0  0  0
  148.7746  139.3218  157.3793 H   0  0  0  0  0  0  0  0  0  0  0  0
  150.4579  139.5773  156.9408 H   0  0  0  0  0  0  0  0  0  0  0  0
  150.7721  141.5996  155.2300 H   0  0  0  0  0  0  0  0  0  0  0  0
  1  2  1  0  0  0  0
  1 19  1  0  0  0  0
  1 20  1  0  0  0  0
  1 21  1  0  0  0  0
  2  7  1  0  0  0  0
  2  3  2  0  0  0  0
  3  4  1  0  0  0  0
  3 22  1  0  0  0  0
  4  5  1  0  0  0  0
  5  6  2  0  0  0  0
  5  7  1  0  0  0  0
  7  8  1  0  0  0  0
  8  9  1  0  0  0  0
  8 23  1  0  0  0  0
  8 24  1  0  0  0  0
  9 10  1  0  0  0  0
  9 25  1  0  0  0  0
  9 26  1  0  0  0  0
 10 11  1  0  0  0  0
 10 27  1  0  0  0  0
 10 43  1  0  0  0  0
 11 16  1  0  0  0  0
 11 12  1  0  0  0  0
 11 28  1  0  0  0  0
 12 13  1  0  0  0  0
 12 29  1  0  0  0  0
 12 30  1  0  0  0  0
 13 14  1  0  0  0  0
 13 31  1  0  0  0  0
 13 32  1  0  0  0  0
 14 15  1  0  0  0  0
 14 33  1  0  0  0  0
 14 34  1  0  0  0  0
 15 16  1  0  0  0  0
 15 35  1  0  0  0  0
 15 36  1  0  0  0  0
 16 17  1  0  0  0  0
 16 18  1  0  0  0  0
 17 37  1  0  0  0  0
 17 38  1  0  0  0  0
 17 39  1  0  0  0  0
 18 40  1  0  0  0  0
 18 41  1  0  0  0  0
 18 42  1  0  0  0  0
M  CHG  1  10   1
M  END
> <s_m_source_file>
AV-unprocessed.smi

> <i_m_source_file_index>
2260

> <i_lp_mmshare_version>
43012

> <i_f3d_flags>
0

> <s_epik_input>
W0NIM11jMVtjSF1zYyg9TyluMVtDSDJdW0NIMl1bTkhdW0NAQEhdKEMyKFtDSDNdKVtDSDNdKVtDSDJdW0NIMl1bQ0gyXVtDSDJdMg==

> <s_epik_cmdline>
J2VwaWtfcHl0aG9uJywgJy1waCcsICc3LjAnLCAnLXRuJywgJzgnLCAnLW1hJywgJzIwMCcsICctbWV0YWxfYmluZGluZycsICctaW1hZScsICc8aW5maWxlLm1hZT4nLCAnLW9tYWUnLCAnPG91dGZpbGUubWFlPic=

> <r_epik_Ionization_Penalty>
0.0114277

> <r_epik_Ionization_Penalty_Charging>
0.0114277

> <r_epik_Ionization_Penalty_Neutral>
2.57259e-08

> <r_epik_State_Penalty>
0.0087935

> <r_epik_Charging_Adjusted_Penalty>
0.0202212

> <i_epik_Tot_Q>
1

> <i_epik_Tot_abs_Q>
1

> <r_epik_Metal_State_Penalty>
0.0087935

> <b_epik_Metal_Only>
0

> <s_lp_Force_Field>
OPLS_2005

> <r_lp_Energy>
26.3159

> <b_lp_Chiralities_Consistent>
1

> <s_lp_Variant>
AV-unprocessed.smi:2260-2

> <Gold.Version>
5.8.1

> <Gold.Id.Protein>
6NUR|6NUR_protein|mol2

> <Gold.PLP.Fitness>
45.3092

> <Gold.PLP.PLP>
-37.3178

> <Gold.PLP.part.hbond>
-2.0000

> <Gold.PLP.part.metal>
0.0000

> <Gold.PLP.part.buried>
-1.4101

> <Gold.PLP.part.nonpolar>
-33.2593

> <Gold.PLP.part.repulsive>
0.1388

> <Gold.PLP.ligand.clash>
0.0000

> <Gold.PLP.ligand.torsion>
0.3554

> <Gold.PLP.Chemscore.Hbond>
2.8960

> <Gold.PLP.Chemscore.CHOScore>
0.0000

> <Gold.PLP.Chemscore.Metal>
0.0000

> <Gold.Chemscore.Hbonds>
donor molecule, donor type, donor heavy atom, donor atom, acceptor molecule, acceptor atom, score
      L1  H    10    27       P1  8028  1.93
      P1  H  7997  8009       L1     6  0.82

> <Gold.PLP.Chemscore.Internal.Correction>
0.0143

> <Gold.Rescore>
     Score         DG    S(hbond)    S(metal)    S(lipo)     H(rot)  DE(clash)    DE(int)     intcor
     17.39     -20.22       1.82        0.00     106.43       1.48       1.38       1.45       ----

> <Gold.Chemscore.Fitness>
17.3903

> <Gold.Chemscore.DG>
-20.2216

> <Gold.Chemscore.ZeroCoef>
-5.4800

> <Gold.Chemscore.Hbond>
1.8185

> <Gold.Chemscore.Metal>
0.0000

> <Gold.Chemscore.Lipo>
106.4331

> <Gold.Chemscore.Internal_Hbond>
0.0000

> <Gold.Chemscore.DEClash>
1.3822

> <Gold.Chemscore.DEInternal>
1.4491

> <Gold.Chemscore.Rot>
1.4785

> <Gold.Chemscore.Internal.Correction>
   9.000000E+99

> <Gold.Chemscore.Hbonds>
donor molecule, donor type, donor heavy atom, donor atom, acceptor molecule, acceptor atom, score
      L1  H    10    27       P1  8028  0.86
      P1  H  7997  8009       L1     6  0.77

> <Gold.Chemscore.Hbond.Weighted>
-6.0739

> <Gold.Chemscore.Metal.Weighted>
-0.0000

> <Gold.Chemscore.Lipo.Weighted>
-12.4527

> <Gold.Chemscore.Internal_Hbond.Weighted>
0.0000

> <Gold.Chemscore.DEClash.Weighted>
1.3822

> <Gold.Chemscore.DEInternal.Weighted>
1.4491

> <Gold.Chemscore.Rot.Weighted>
3.7850

> <Gold.Chemscore.Internal.Correction.Weighted>
   9.000000E+99

> <Gold.Protein.RotatedTorsions>
[ 6907 6896 6895 6894 ] final  -74.99 input  -60.11 | X-H torsion
[ 7974 7965 7964 7962 ] final -113.62 input  175.53 | X-H torsion
[ 8008 7997 7996 7995 ] final  157.57 input   59.86 | X-H torsion
[ 10167 10162 10161 10158 ] final  -76.91 input  -65.29 | X-H torsion
[ 10718 10713 10712 10709 ] final   62.63 input   66.30 | X-H torsion
[ 10763 10752 10751 10750 ] final  132.75 input  -60.55 | X-H torsion
[ 11005 11000 10999 10996 ] final   68.34 input  -57.11 | X-H torsion

> <Gold.Protein.ActiveResidues>
 VAL166  LYS551  ARG553  GLY616  TRP617  ASP618  TYR619  PRO620  LYS621  CYS622 
 ASP623  PHE694  ASN695  SER759  ASP760  ASP761  ALA762  ILE779  LEU786  VAL792 
 PHE793  MET794  SER795  GLU796  ALA797  LYS798  CYS799  TRP800  GLU811  SER814 

> <Gold.Protein.RotatedAtoms>
  150.7074  134.4787  159.5459 H   0  0  0  0  0  0  0  0  0  0  0  0  # atno 6907 bound_to 6896
  152.2429  134.8208  160.0467 H   0  0  0  0  0  0  0  0  0  0  0  0  # atno 6908 bound_to 6896
  151.8983  133.3497  159.3858 H   0  0  0  0  0  0  0  0  0  0  0  0  # atno 6909 bound_to 6896
  145.1299  140.8718  143.3764 H   0  0  0  0  0  0  0  0  0  0  0  0  # atno 7974 bound_to 7965
  156.2356  140.1882  156.7128 H   0  0  0  0  0  0  0  0  0  0  0  0  # atno 8008 bound_to 7997
  154.6100  140.0623  156.9509 H   0  0  0  0  0  0  0  0  0  0  0  0  # atno 8009 bound_to 7997
  155.2031  140.3294  155.4342 H   0  0  0  0  0  0  0  0  0  0  0  0  # atno 8010 bound_to 7997
  140.4816  143.2401  151.8049 H   0  0  0  0  0  0  0  0  0  0  0  0  # atno 10167 bound_to 10162
  157.5914  130.9060  149.9612 H   0  0  0  0  0  0  0  0  0  0  0  0  # atno 10718 bound_to 10713
  153.7958  135.3149  155.3384 H   0  0  0  0  0  0  0  0  0  0  0  0  # atno 10763 bound_to 10752
  154.8108  135.4668  154.0514 H   0  0  0  0  0  0  0  0  0  0  0  0  # atno 10764 bound_to 10752
  153.1847  135.6899  153.8518 H   0  0  0  0  0  0  0  0  0  0  0  0  # atno 10765 bound_to 10752
  139.9717  134.6889  156.0434 H   0  0  0  0  0  0  0  0  0  0  0  0  # atno 11005 bound_to 11000
  145.0647  139.3078  143.5862 LP  0  0  0  0  0  0  0  0  0  0  0  0  # atno 17320 bound_to 7965
  146.3515  140.0101  142.8668 LP  0  0  0  0  0  0  0  0  0  0  0  0  # atno 17321 bound_to 7965
  139.4834  144.4765  151.9360 LP  0  0  0  0  0  0  0  0  0  0  0  0  # atno 17342 bound_to 10162
  140.3851  144.2687  150.5905 LP  0  0  0  0  0  0  0  0  0  0  0  0  # atno 17343 bound_to 10162
  156.0969  130.3658  150.0289 LP  0  0  0  0  0  0  0  0  0  0  0  0  # atno 17370 bound_to 10713
  156.8411  130.9426  151.3632 LP  0  0  0  0  0  0  0  0  0  0  0  0  # atno 17371 bound_to 10713
  141.1396  133.6567  156.3692 LP  0  0  0  0  0  0  0  0  0  0  0  0  # atno 17394 bound_to 11000
  140.5279  134.6241  157.5340 LP  0  0  0  0  0  0  0  0  0  0  0  0  # atno 17395 bound_to 11000

$$$$
