#       Name:                AV-unprocessed.smi:414
#       Creating user name   scv26
#       Creation time:       Thu Mar 26 22:46:35 2020


#       File generated by GOLD software.
#

@<TRIPOS>MOLECULE
AV-unprocessed.smi:414
    44    45     1
SMALL
NO_CHARGES


@<TRIPOS>ATOM
      1 ****        -5.2486  -1.7506   0.8766 C.3            1 S1                 0.0000
      2 ****        -3.7149  -1.7559   0.8079 C.3            1 S1                 0.0000
      3 ****        -3.0972  -0.9015   1.9313 C.3            1 S1                 0.0000
      4 ****        -1.5614  -0.9026   1.8636 C.3            1 S1                 0.0000
      5 ****        -1.0577  -0.4273   0.4888 C.3            1 S1                 0.0000
      6 ****         0.3998  -0.4978   0.4504 N.am           1 S1                 0.0000
      7 ****         1.1921   0.2371  -0.3453 C.2            1 S1                 0.0000
      8 ****         0.7591   1.0549  -1.1585 O.2            1 S1                 0.0000
      9 ****         2.7009  -0.0140  -0.2110 C.3            1 S1                 0.0000
     10 ****         3.5164   1.1106  -0.6925 N.am           1 S1                 0.0000
     11 ****         4.0637   1.0836  -1.9674 C.2            1 S1                 0.0000
     12 ****         4.8137   2.0887  -2.4783 C.2            1 S1                 0.0000
     13 ****         5.0877   3.2824  -1.6854 C.2            1 S1                 0.0000
     14 ****         5.7560   4.2439  -2.0587 O.2            1 S1                 0.0000
     15 ****         4.5180   3.2729  -0.4094 N.am           1 S1                 0.0000
     16 ****         3.7428   2.2412   0.1226 C.2            1 S1                 0.0000
     17 ****         3.2838   2.3361   1.2604 O.2            1 S1                 0.0000
     18 ****        -1.6749  -1.2781  -0.6394 C.3            1 S1                 0.0000
     19 ****        -3.2105  -1.2783  -0.5672 C.3            1 S1                 0.0000
     20 ****         4.6782   4.0804   0.1752 H              1 S1                 0.0000
     21 ****        -5.6482  -0.7446   0.7443 H              1 S1                 0.0000
     22 ****        -5.6000  -2.1249   1.8387 H              1 S1                 0.0000
     23 ****        -5.6786  -2.3845   0.1005 H              1 S1                 0.0000
     24 ****        -3.3838  -2.7861   0.9479 H              1 S1                 0.0000
     25 ****        -3.4624   0.1240   1.8586 H              1 S1                 0.0000
     26 ****        -3.4191  -1.2747   2.9042 H              1 S1                 0.0000
     27 ****        -1.1601  -0.2623   2.6503 H              1 S1                 0.0000
     28 ****        -1.1924  -1.9092   2.0665 H              1 S1                 0.0000
     29 ****        -1.3662   0.6119   0.3570 H              1 S1                 0.0000
     30 ****         0.8399  -1.1499   1.0832 H              1 S1                 0.0000
     31 ****         2.9477  -0.2385   0.8289 H              1 S1                 0.0000
     32 ****         2.9432  -0.9215  -0.7661 H              1 S1                 0.0000
     33 ****         3.8829   0.2207  -2.5926 H              1 S1                 0.0000
     34 ****         5.2119   2.0096  -3.4795 H              1 S1                 0.0000
     35 ****        -1.3576  -0.9019  -1.6128 H              1 S1                 0.0000
     36 ****        -1.3096  -2.3039  -0.5713 H              1 S1                 0.0000
     37 ****        -3.6119  -1.9169  -1.3547 H              1 S1                 0.0000
     38 ****        -3.5817  -0.2722  -0.7674 H              1 S1                 0.0000
     39 ****        -0.2268   1.1962  -1.2489 LP             1 S1                 0.0000
     40 ****         1.3934   1.5774  -1.7282 LP             1 S1                 0.0000
     41 ****         6.1615   4.2462  -2.9728 LP             1 S1                 0.0000
     42 ****         5.8942   5.0239  -1.4483 LP             1 S1                 0.0000
     43 ****         2.7279   1.5958   1.6387 LP             1 S1                 0.0000
     44 ****         3.4666   3.1534   1.8068 LP             1 S1                 0.0000
@<TRIPOS>BOND
    1    1    2 1     
    2    1   21 1     
    3    1   22 1     
    4    1   23 1     
    5    2   19 1     
    6    2    3 1     
    7    2   24 1     
    8    3    4 1     
    9    3   25 1     
   10    3   26 1     
   11    4    5 1     
   12    4   27 1     
   13    4   28 1     
   14    5    6 1     
   15    5   18 1     
   16    5   29 1     
   17    6    7 am    
   18    6   30 1     
   19    7    8 2     
   20    7    9 1     
   21    9   10 1     
   22    9   31 1     
   23    9   32 1     
   24   10   16 1     
   25   10   11 1     
   26   11   12 2     
   27   11   33 1     
   28   12   13 1     
   29   12   34 1     
   30   13   14 2     
   31   13   15 1     
   32   15   20 1     
   33   15   16 1     
   34   16   17 2     
   35   18   19 1     
   36   18   35 1     
   37   18   36 1     
   38   19   37 1     
   39   19   38 1     
   40    8   39 1     
   41    8   40 1     
   42   14   41 1     
   43   14   42 1     
   44   17   43 1     
   45   17   44 1     
@<TRIPOS>SUBSTRUCTURE
      1 S1             1
@<TRIPOS>SET
LONE_PAIRS      STATIC     ATOMS    <user>   **** ""
6 39 40 41 42 43 44
DONOR_HYDROGENS      STATIC     ATOMS    <user>   **** ""
2 30 20
ATOM$BLUE        STATIC     ATOMS    COLORGROUP SYSTEM
6 39 40 41 42 43 44
ATOM$RED        STATIC     ATOMS    COLORGROUP SYSTEM
2 30 20
