AV-unprocessed.smi:698|AV-procd|sdf|3397|dock6
  -GOLD-   22720 0373D 1   1.00000     0.00000
 Structure written by MMmdl.
 33 34  0  0  0  0  0  0  0  0  1 V2000
  152.9389  138.6508  154.7940 C   0  0  0  0  0  0  0  0  0  0  0  0
  151.7079  137.9174  155.3317 C   0  0  0  0  0  0  0  0  0  0  0  0
  150.6270  138.1082  154.4235 O   0  0  0  0  0  0  0  0  0  0  0  0
  149.9101  139.2852  154.4936 C   0  0  0  0  0  0  0  0  0  0  0  0
  148.8454  139.4835  153.5942 C   0  0  0  0  0  0  0  0  0  0  0  0
  148.1180  140.6845  153.6698 C   0  0  0  0  0  0  0  0  0  0  0  0
  148.4816  141.6398  154.6380 C   0  0  0  0  0  0  0  0  0  0  0  0
  149.5627  141.3704  155.5060 C   0  0  0  0  0  0  0  0  0  0  0  0
  149.8539  142.3942  156.4453 N   0  0  0  0  0  0  0  0  0  0  0  0
  150.7766  142.3908  157.4270 C   0  0  0  0  0  0  0  0  0  0  0  0
  151.5494  141.4589  157.6525 O   0  0  0  0  0  0  0  0  0  0  0  0
  150.8560  143.6569  158.2906 C   0  0  2  0  0  0  0  0  0  0  0  0
  152.1816  144.4098  158.1715 C   0  0  0  0  0  0  0  0  0  0  0  0
  152.1956  145.1990  159.4623 C   0  0  0  0  0  0  0  0  0  0  0  0
  151.5397  144.2360  160.4511 C   0  0  0  0  0  0  0  0  0  0  0  0
  150.7611  143.3276  159.6754 O   0  0  0  0  0  0  0  0  0  0  0  0
  150.2558  140.2083  155.4240 N   0  0  0  0  0  0  0  0  0  0  0  0
  153.7878  138.5315  155.4675 H   0  0  0  0  0  0  0  0  0  0  0  0
  152.7429  139.7180  154.6886 H   0  0  0  0  0  0  0  0  0  0  0  0
  153.2296  138.2639  153.8171 H   0  0  0  0  0  0  0  0  0  0  0  0
  151.9326  136.8549  155.4383 H   0  0  0  0  0  0  0  0  0  0  0  0
  151.4519  138.3089  156.3176 H   0  0  0  0  0  0  0  0  0  0  0  0
  148.5926  138.7301  152.8630 H   0  0  0  0  0  0  0  0  0  0  0  0
  147.2944  140.8709  152.9965 H   0  0  0  0  0  0  0  0  0  0  0  0
  147.9333  142.5680  154.7099 H   0  0  0  0  0  0  0  0  0  0  0  0
  149.2875  143.2271  156.3744 H   0  0  0  0  0  0  0  0  0  0  0  0
  150.0276  144.3202  158.0365 H   0  0  0  0  0  0  0  0  0  0  0  0
  153.0261  143.7189  158.1423 H   0  0  0  0  0  0  0  0  0  0  0  0
  152.2292  145.0493  157.2895 H   0  0  0  0  0  0  0  0  0  0  0  0
  153.1966  145.5065  159.7664 H   0  0  0  0  0  0  0  0  0  0  0  0
  151.5835  146.0954  159.3533 H   0  0  0  0  0  0  0  0  0  0  0  0
  152.2944  143.6665  160.9941 H   0  0  0  0  0  0  0  0  0  0  0  0
  150.9222  144.7602  161.1808 H   0  0  0  0  0  0  0  0  0  0  0  0
  1  2  1  0  0  0  0
  1 18  1  0  0  0  0
  1 19  1  0  0  0  0
  1 20  1  0  0  0  0
  2  3  1  0  0  0  0
  2 21  1  0  0  0  0
  2 22  1  0  0  0  0
  3  4  1  0  0  0  0
  4 17  1  0  0  0  0
  4  5  2  0  0  0  0
  5  6  1  0  0  0  0
  5 23  1  0  0  0  0
  6  7  2  0  0  0  0
  6 24  1  0  0  0  0
  7  8  1  0  0  0  0
  7 25  1  0  0  0  0
  8  9  1  0  0  0  0
  8 17  2  0  0  0  0
  9 10  1  0  0  0  0
  9 26  1  0  0  0  0
 10 11  2  0  0  0  0
 10 12  1  0  0  0  0
 12 16  1  0  0  0  0
 12 13  1  0  0  0  0
 12 27  1  0  0  0  0
 13 14  1  0  0  0  0
 13 28  1  0  0  0  0
 13 29  1  0  0  0  0
 14 15  1  0  0  0  0
 14 30  1  0  0  0  0
 14 31  1  0  0  0  0
 15 16  1  0  0  0  0
 15 32  1  0  0  0  0
 15 33  1  0  0  0  0
M  END
> <s_m_source_file>
AV-unprocessed.smi

> <i_m_source_file_index>
698

> <i_lp_mmshare_version>
43012

> <i_f3d_flags>
0

> <s_epik_input>
W0NIM11bQ0gyXU9jMVtjSF1bY0hdW2NIXWMobjEpW05IXUMoPU8pW0NAQEhdMltDSDJdW0NIMl1bQ0gyXU8y

> <s_epik_cmdline>
J2VwaWtfcHl0aG9uJywgJy1waCcsICc3LjAnLCAnLXRuJywgJzgnLCAnLW1hJywgJzIwMCcsICctbWV0YWxfYmluZGluZycsICctaW1hZScsICc8aW5maWxlLm1hZT4nLCAnLW9tYWUnLCAnPG91dGZpbGUubWFlPic=

> <r_lp_tautomer_probability>
1

> <r_epik_Ionization_Penalty>
3.42089e-05

> <r_epik_Ionization_Penalty_Charging>
0

> <r_epik_Ionization_Penalty_Neutral>
3.42089e-05

> <r_epik_State_Penalty>
-0

> <r_epik_Charging_Adjusted_Penalty>
0

> <i_epik_Tot_Q>
0

> <i_epik_Tot_abs_Q>
0

> <r_epik_Metal_State_Penalty>
-0

> <b_epik_Metal_Only>
0

> <s_lp_Force_Field>
OPLS_2005

> <r_lp_Energy>
21.1038

> <b_lp_Chiralities_Consistent>
1

> <s_lp_Variant>
AV-unprocessed.smi:698-1

> <Gold.Version>
5.8.1

> <Gold.Id.Protein>
6NUR|6NUR_protein|mol2

> <Gold.PLP.Fitness>
39.4958

> <Gold.PLP.PLP>
-36.7994

> <Gold.PLP.part.hbond>
-1.4694

> <Gold.PLP.part.metal>
0.0000

> <Gold.PLP.part.buried>
-0.8964

> <Gold.PLP.part.nonpolar>
-35.0722

> <Gold.PLP.part.repulsive>
0.3909

> <Gold.PLP.ligand.clash>
0.0000

> <Gold.PLP.ligand.torsion>
0.1658

> <Gold.PLP.Chemscore.Hbond>
1.0000

> <Gold.PLP.Chemscore.CHOScore>
0.0000

> <Gold.PLP.Chemscore.Metal>
0.0000

> <Gold.Chemscore.Hbonds>
donor molecule, donor type, donor heavy atom, donor atom, acceptor molecule, acceptor atom, score
      L1  H     9    26       P1  8028  1.00

> <Gold.PLP.Chemscore.Internal.Correction>
0.0279

> <Gold.Rescore>
     Score         DG    S(hbond)    S(metal)    S(lipo)     H(rot)  DE(clash)    DE(int)     intcor
     13.61     -15.29       1.00        0.00      86.48       1.42       0.23       1.45       ----

> <Gold.Chemscore.Fitness>
13.6102

> <Gold.Chemscore.DG>
-15.2901

> <Gold.Chemscore.ZeroCoef>
-5.4800

> <Gold.Chemscore.Hbond>
0.9950

> <Gold.Chemscore.Metal>
0.0000

> <Gold.Chemscore.Lipo>
86.4796

> <Gold.Chemscore.Internal_Hbond>
0.0000

> <Gold.Chemscore.DEClash>
0.2329

> <Gold.Chemscore.DEInternal>
1.4470

> <Gold.Chemscore.Rot>
1.4185

> <Gold.Chemscore.Internal.Correction>
   9.000000E+99

> <Gold.Chemscore.Hbonds>
donor molecule, donor type, donor heavy atom, donor atom, acceptor molecule, acceptor atom, score
      L1  H     9    26       P1  8028  0.97

> <Gold.Chemscore.Hbond.Weighted>
-3.3233

> <Gold.Chemscore.Metal.Weighted>
-0.0000

> <Gold.Chemscore.Lipo.Weighted>
-10.1181

> <Gold.Chemscore.Internal_Hbond.Weighted>
0.0000

> <Gold.Chemscore.DEClash.Weighted>
0.2329

> <Gold.Chemscore.DEInternal.Weighted>
1.4470

> <Gold.Chemscore.Rot.Weighted>
3.6313

> <Gold.Chemscore.Internal.Correction.Weighted>
   9.000000E+99

> <Gold.Protein.RotatedTorsions>
[ 6907 6896 6895 6894 ] final   59.27 input  -60.11 | X-H torsion
[ 7974 7965 7964 7962 ] final   25.80 input  175.53 | X-H torsion
[ 8008 7997 7996 7995 ] final -147.55 input   59.86 | X-H torsion
[ 10167 10162 10161 10158 ] final -116.83 input  -65.29 | X-H torsion
[ 10718 10713 10712 10709 ] final  153.43 input   66.30 | X-H torsion
[ 10763 10752 10751 10750 ] final  -15.07 input  -60.55 | X-H torsion
[ 11005 11000 10999 10996 ] final  123.55 input  -57.11 | X-H torsion

> <Gold.Protein.ActiveResidues>
 VAL166  LYS551  ARG553  GLY616  TRP617  ASP618  TYR619  PRO620  LYS621  CYS622 
 ASP623  PHE694  ASN695  SER759  ASP760  ASP761  ALA762  ILE779  LEU786  VAL792 
 PHE793  MET794  SER795  GLU796  ALA797  LYS798  CYS799  TRP800  GLU811  SER814 

> <Gold.Protein.RotatedAtoms>
  152.3900  134.6457  160.0110 H   0  0  0  0  0  0  0  0  0  0  0  0  # atno 6907 bound_to 6896
  151.6694  133.3309  159.3201 H   0  0  0  0  0  0  0  0  0  0  0  0  # atno 6908 bound_to 6896
  150.7818  134.6812  159.6490 H   0  0  0  0  0  0  0  0  0  0  0  0  # atno 6909 bound_to 6896
  146.1870  139.7416  142.8859 H   0  0  0  0  0  0  0  0  0  0  0  0  # atno 7974 bound_to 7965
  155.5773  140.0640  157.2792 H   0  0  0  0  0  0  0  0  0  0  0  0  # atno 8008 bound_to 7997
  154.4343  140.1858  156.0987 H   0  0  0  0  0  0  0  0  0  0  0  0  # atno 8009 bound_to 7997
  156.0331  140.3304  155.7165 H   0  0  0  0  0  0  0  0  0  0  0  0  # atno 8010 bound_to 7997
  140.0749  143.4842  152.1958 H   0  0  0  0  0  0  0  0  0  0  0  0  # atno 10167 bound_to 10162
  157.2448  131.0767  151.1768 H   0  0  0  0  0  0  0  0  0  0  0  0  # atno 10718 bound_to 10713
  153.5378  135.7013  153.5651 H   0  0  0  0  0  0  0  0  0  0  0  0  # atno 10763 bound_to 10752
  153.3631  135.3964  155.1733 H   0  0  0  0  0  0  0  0  0  0  0  0  # atno 10764 bound_to 10752
  154.8677  135.3793  154.4880 H   0  0  0  0  0  0  0  0  0  0  0  0  # atno 10765 bound_to 10752
  139.9318  134.9641  156.8276 H   0  0  0  0  0  0  0  0  0  0  0  0  # atno 11005 bound_to 11000
  145.3907  141.0372  143.3125 LP  0  0  0  0  0  0  0  0  0  0  0  0  # atno 17320 bound_to 7965
  144.8416  139.5463  143.6897 LP  0  0  0  0  0  0  0  0  0  0  0  0  # atno 17321 bound_to 7965
  139.5813  144.7512  151.3632 LP  0  0  0  0  0  0  0  0  0  0  0  0  # atno 17342 bound_to 10162
  140.7107  143.7398  150.7561 LP  0  0  0  0  0  0  0  0  0  0  0  0  # atno 17343 bound_to 10162
  157.3340  130.6999  149.6341 LP  0  0  0  0  0  0  0  0  0  0  0  0  # atno 17370 bound_to 10713
  155.9668  130.4299  150.4853 LP  0  0  0  0  0  0  0  0  0  0  0  0  # atno 17371 bound_to 10713
  140.6183  134.0018  155.7607 LP  0  0  0  0  0  0  0  0  0  0  0  0  # atno 17394 bound_to 11000
  141.0910  133.9916  157.3237 LP  0  0  0  0  0  0  0  0  0  0  0  0  # atno 17395 bound_to 11000

$$$$
