#       Name:                AV-unprocessed.smi:35
#       Creating user name   scv26
#       Creation time:       Thu Mar 26 16:03:33 2020


#       File generated by GOLD software.
#

@<TRIPOS>MOLECULE
AV-unprocessed.smi:35
    41    42     1
SMALL
NO_CHARGES


@<TRIPOS>ATOM
      1 ****        -2.8130   4.5379   0.8345 O.2            1 S1                 0.0000
      2 ****        -2.3884   3.4250   0.5289 C.2            1 S1                 0.0000
      3 ****        -3.2070   2.3878   0.1876 N.pl3          1 S1                -1.0000
      4 ****        -2.7308   1.1541  -0.1538 C.2            1 S1                 0.0000
      5 ****        -3.4619   0.2035  -0.4315 O.2            1 S1                 0.0000
      6 ****        -1.3252   0.9434  -0.1759 N.am           1 S1                 0.0000
      7 ****        -0.7777  -0.4175  -0.5486 C.3            1 S1                 0.0000
      8 ****         0.4777  -0.2501  -1.1296 O.3            1 S1                 0.0000
      9 ****         1.2675  -1.3922  -0.8374 C.3            1 S1                 0.0000
     10 ****         2.7572  -1.0612  -1.0172 C.3            1 S1                 0.0000
     11 ****         3.1289  -1.2039  -2.3718 O.3            1 S1                 0.0000
     12 ****         0.8801  -1.6993   0.6128 C.3            1 S1                 0.0000
     13 ****         1.0929  -3.0664   0.9028 O.3            1 S1                 0.0000
     14 ****        -0.6074  -1.3643   0.6615 C.3            1 S1                 0.0000
     15 ****        -0.9439  -0.7903   1.9122 O.3            1 S1                 0.0000
     16 ****        -0.4697   1.9702   0.1850 C.2            1 S1                 0.0000
     17 ****        -0.9476   3.1829   0.5297 C.2            1 S1                 0.0000
     18 ****         0.3895   4.5579   1.0280 Br             1 S1                 0.0000
     19 ****        -1.4412  -0.8245  -1.3135 H              1 S1                 0.0000
     20 ****         0.9608  -2.2149  -1.4873 H              1 S1                 0.0000
     21 ****         2.9859  -0.0556  -0.6627 H              1 S1                 0.0000
     22 ****         3.3670  -1.7549  -0.4378 H              1 S1                 0.0000
     23 ****         4.0529  -1.0226  -2.4509 H              1 S1                 0.0000
     24 ****         1.4468  -1.0655   1.2973 H              1 S1                 0.0000
     25 ****         0.7821  -3.2348   1.7794 H              1 S1                 0.0000
     26 ****        -1.2286  -2.2435   0.4831 H              1 S1                 0.0000
     27 ****        -1.8444  -0.5044   1.8735 H              1 S1                 0.0000
     28 ****         0.5970   1.8022   0.2008 H              1 S1                 0.0000
     29 ****        -2.1739   5.2667   1.0804 LP             1 S1                 0.0000
     30 ****        -3.7973   4.7141   0.8372 LP             1 S1                 0.0000
     31 ****        -4.1958   2.5372   0.1875 LP             1 S1                 0.0000
     32 ****        -4.4555   0.3149  -0.4133 LP             1 S1                 0.0000
     33 ****        -3.0622  -0.6801  -0.6752 LP             1 S1                 0.0000
     34 ****         0.9159   0.5673  -0.7554 LP             1 S1                 0.0000
     35 ****         0.3803  -0.1522  -2.1200 LP             1 S1                 0.0000
     36 ****         2.6097  -0.5597  -2.9334 LP             1 S1                 0.0000
     37 ****         2.9414  -2.1378  -2.6762 LP             1 S1                 0.0000
     38 ****         2.0687  -3.2769   0.8435 LP             1 S1                 0.0000
     39 ****         0.5894  -3.6330   0.2506 LP             1 S1                 0.0000
     40 ****        -0.3482  -0.0086   2.0972 LP             1 S1                 0.0000
     41 ****        -0.8356  -1.4707   2.6370 LP             1 S1                 0.0000
@<TRIPOS>BOND
    1    1    2 2     
    2    2   17 1     
    3    2    3 1     
    4    3    4 1     
    5    4    5 2     
    6    4    6 am    
    7    6    7 1     
    8    6   16 1     
    9    7   14 1     
   10    7    8 1     
   11    7   19 1     
   12    8    9 1     
   13    9   10 1     
   14    9   12 1     
   15    9   20 1     
   16   10   11 1     
   17   10   21 1     
   18   10   22 1     
   19   11   23 1     
   20   12   13 1     
   21   12   14 1     
   22   12   24 1     
   23   13   25 1     
   24   14   15 1     
   25   14   26 1     
   26   15   27 1     
   27   16   17 2     
   28   16   28 1     
   29   17   18 1     
   30    1   29 1     
   31    1   30 1     
   32    3   31 1     
   33    5   32 1     
   34    5   33 1     
   35    8   34 1     
   36    8   35 1     
   37   11   36 1     
   38   11   37 1     
   39   13   38 1     
   40   13   39 1     
   41   15   40 1     
   42   15   41 1     
@<TRIPOS>SUBSTRUCTURE
      1 S1             1
@<TRIPOS>SET
LONE_PAIRS      STATIC     ATOMS    <user>   **** ""
13 29 30 31 32 33 34 35 36 37 38 39 40 41
DONOR_HYDROGENS      STATIC     ATOMS    <user>   **** ""
3 23 25 27
ATOM$BLUE        STATIC     ATOMS    COLORGROUP SYSTEM
13 29 30 31 32 33 34 35 36 37 38 39 40 41
ATOM$RED        STATIC     ATOMS    COLORGROUP SYSTEM
3 23 25 27
