AV-unprocessed.smi:3228|AV-procd|sdf|12324|dock5
  -GOLD-   2272018173D 1   1.00000     0.00000
 Structure written by MMmdl.
 30 31  0  0  0  0  0  0  0  0  2 V2000
  152.8217  139.9822  157.1981 O   0  0  0  0  0  0  0  0  0  0  0  0
  151.9104  140.7567  157.4989 C   0  0  0  0  0  0  0  0  0  0  0  0
  150.7381  140.6878  156.8546 N   0  0  0  0  0  0  0  0  0  0  0  0
  150.4223  139.7493  155.7849 C   0  0  0  0  0  0  0  0  0  0  0  0
  149.0258  140.0298  155.1986 C   0  0  1  0  0  0  0  0  0  0  0  0
  148.8721  141.3890  154.5029 C   0  0  0  0  0  0  0  0  0  0  0  0
  147.6832  141.2337  153.5421 C   0  0  0  0  0  0  0  0  0  0  0  0
  147.3525  139.7334  153.4913 C   0  0  0  0  0  0  0  0  0  0  0  0
  148.5340  139.0172  154.1541 C   0  0  1  0  0  0  0  0  0  0  0  0
  149.5222  138.7582  153.1740 O   0  0  0  0  0  0  0  0  0  0  0  0
  151.9550  141.7183  158.4491 N   0  5  0  0  0  0  0  0  0  0  0  0
  152.7688  141.5791  159.5083 C   0  0  0  0  0  0  0  0  0  0  0  0
  153.6309  140.5640  159.6373 N   0  0  0  0  0  0  0  0  0  0  0  0
  154.3724  140.6120  160.8192 C   0  0  0  0  0  0  0  0  0  0  0  0
  154.0618  141.6841  161.6127 C   0  0  0  0  0  0  0  0  0  0  0  0
  152.8204  142.6711  160.8951 S   0  0  0  0  0  0  0  0  0  0  0  0
  150.0154  141.3379  157.1267 H   0  0  0  0  0  0  0  0  0  0  0  0
  151.1874  139.8258  155.0110 H   0  0  0  0  0  0  0  0  0  0  0  0
  150.4607  138.7319  156.1771 H   0  0  0  0  0  0  0  0  0  0  0  0
  148.3095  140.0060  156.0221 H   0  0  0  0  0  0  0  0  0  0  0  0
  148.7234  142.2007  155.2157 H   0  0  0  0  0  0  0  0  0  0  0  0
  149.7725  141.6187  153.9311 H   0  0  0  0  0  0  0  0  0  0  0  0
  146.8197  141.8039  153.8863 H   0  0  0  0  0  0  0  0  0  0  0  0
  147.9469  141.6087  152.5528 H   0  0  0  0  0  0  0  0  0  0  0  0
  146.4511  139.5496  154.0775 H   0  0  0  0  0  0  0  0  0  0  0  0
  147.1526  139.3804  152.4786 H   0  0  0  0  0  0  0  0  0  0  0  0
  148.2343  138.0733  154.6105 H   0  0  0  0  0  0  0  0  0  0  0  0
  149.3543  137.9075  152.7978 H   0  0  0  0  0  0  0  0  0  0  0  0
  155.1005  139.8392  161.0152 H   0  0  0  0  0  0  0  0  0  0  0  0
  154.4828  141.9521  162.5698 H   0  0  0  0  0  0  0  0  0  0  0  0
  1  2  2  0  0  0  0
  2  3  1  0  0  0  0
  2 11  1  0  0  0  0
  3  4  1  0  0  0  0
  3 17  1  0  0  0  0
  4  5  1  0  0  0  0
  4 18  1  0  0  0  0
  4 19  1  0  0  0  0
  5  9  1  0  0  0  0
  5  6  1  0  0  0  0
  5 20  1  0  0  0  0
  6  7  1  0  0  0  0
  6 21  1  0  0  0  0
  6 22  1  0  0  0  0
  7  8  1  0  0  0  0
  7 23  1  0  0  0  0
  7 24  1  0  0  0  0
  8  9  1  0  0  0  0
  8 25  1  0  0  0  0
  8 26  1  0  0  0  0
  9 10  1  0  0  0  0
  9 27  1  0  0  0  0
 10 28  1  0  0  0  0
 11 12  1  0  0  0  0
 12 16  1  0  0  0  0
 12 13  2  0  0  0  0
 13 14  1  0  0  0  0
 14 15  2  0  0  0  0
 14 29  1  0  0  0  0
 15 16  1  0  0  0  0
 15 30  1  0  0  0  0
M  CHG  1  11  -1
M  END
> <s_m_source_file>
AV-unprocessed.smi

> <i_m_source_file_index>
3228

> <i_lp_mmshare_version>
43012

> <i_f3d_flags>
0

> <s_epik_input>
czFbY0hdW2NIXW5jMVtOSF1DKD1PKVtOSF1bQ0gyXVtDQEBIXTJbQ0gyXVtDSDJdW0NIMl1bQ0BIXTJbT0hd

> <s_epik_cmdline>
J2VwaWtfcHl0aG9uJywgJy1waCcsICc3LjAnLCAnLXRuJywgJzgnLCAnLW1hJywgJzIwMCcsICctbWV0YWxfYmluZGluZycsICctaW1hZScsICc8aW5maWxlLm1hZT4nLCAnLW9tYWUnLCAnPG91dGZpbGUubWFlPic=

> <r_lp_tautomer_probability>
0.999

> <r_epik_Ionization_Penalty>
8.49756

> <r_epik_Ionization_Penalty_Charging>
6.79645

> <r_epik_Ionization_Penalty_Neutral>
1.70111

> <r_epik_State_Penalty>
6.79662

> <r_epik_Charging_Adjusted_Penalty>
13.5931

> <i_epik_Tot_Q>
-1

> <i_epik_Tot_abs_Q>
1

> <r_epik_Metal_State_Penalty>
2.71629

> <b_epik_Metal_Only>
1

> <s_lp_Force_Field>
OPLS_2005

> <r_lp_Energy>
20.5315

> <b_lp_Chiralities_Consistent>
1

> <s_lp_Variant>
AV-unprocessed.smi:3228-6

> <Gold.Version>
5.8.1

> <Gold.Id.Protein>
6NUR|6NUR_protein|mol2

> <Gold.PLP.Fitness>
36.7770

> <Gold.PLP.PLP>
-31.1563

> <Gold.PLP.part.hbond>
-2.7085

> <Gold.PLP.part.metal>
0.0000

> <Gold.PLP.part.buried>
-3.1761

> <Gold.PLP.part.nonpolar>
-24.3939

> <Gold.PLP.part.repulsive>
0.0496

> <Gold.PLP.ligand.clash>
0.0000

> <Gold.PLP.ligand.torsion>
0.1911

> <Gold.PLP.Chemscore.Hbond>
2.0000

> <Gold.PLP.Chemscore.CHOScore>
0.0000

> <Gold.PLP.Chemscore.Metal>
0.0000

> <Gold.Chemscore.Hbonds>
donor molecule, donor type, donor heavy atom, donor atom, acceptor molecule, acceptor atom, score
      L1  H    10    28       P1  7948  1.00
      P1  H  7997  8009       L1     1  0.93

> <Gold.PLP.Chemscore.Internal.Correction>
0.0029

> <Gold.Rescore>
     Score         DG    S(hbond)    S(metal)    S(lipo)     H(rot)  DE(clash)    DE(int)     intcor
     13.51     -15.34       1.99        0.00      67.94       1.85       0.01       1.81       ----

> <Gold.Chemscore.Fitness>
13.5139

> <Gold.Chemscore.DG>
-15.3404

> <Gold.Chemscore.ZeroCoef>
-5.4800

> <Gold.Chemscore.Hbond>
1.9888

> <Gold.Chemscore.Metal>
0.0000

> <Gold.Chemscore.Lipo>
67.9409

> <Gold.Chemscore.Internal_Hbond>
0.0000

> <Gold.Chemscore.DEClash>
0.0147

> <Gold.Chemscore.DEInternal>
1.8118

> <Gold.Chemscore.Rot>
1.8481

> <Gold.Chemscore.Internal.Correction>
   9.000000E+99

> <Gold.Chemscore.Hbonds>
donor molecule, donor type, donor heavy atom, donor atom, acceptor molecule, acceptor atom, score
      L1  H    10    28       P1  7948  0.90
      P1  H  7997  8009       L1     1  0.90

> <Gold.Chemscore.Hbond.Weighted>
-6.6426

> <Gold.Chemscore.Metal.Weighted>
-0.0000

> <Gold.Chemscore.Lipo.Weighted>
-7.9491

> <Gold.Chemscore.Internal_Hbond.Weighted>
0.0000

> <Gold.Chemscore.DEClash.Weighted>
0.0147

> <Gold.Chemscore.DEInternal.Weighted>
1.8118

> <Gold.Chemscore.Rot.Weighted>
4.7313

> <Gold.Chemscore.Internal.Correction.Weighted>
   9.000000E+99

> <Gold.Protein.RotatedTorsions>
[ 6907 6896 6895 6894 ] final  -42.22 input  -60.11 | X-H torsion
[ 7974 7965 7964 7962 ] final   13.53 input  175.53 | X-H torsion
[ 8008 7997 7996 7995 ] final  160.45 input   59.86 | X-H torsion
[ 10167 10162 10161 10158 ] final   -9.55 input  -65.29 | X-H torsion
[ 10718 10713 10712 10709 ] final   22.30 input   66.30 | X-H torsion
[ 10763 10752 10751 10750 ] final   41.20 input  -60.55 | X-H torsion
[ 11005 11000 10999 10996 ] final  165.37 input  -57.11 | X-H torsion

> <Gold.Protein.ActiveResidues>
 VAL166  LYS551  ARG553  GLY616  TRP617  ASP618  TYR619  PRO620  LYS621  CYS622 
 ASP623  PHE694  ASN695  SER759  ASP760  ASP761  ALA762  ILE779  LEU786  VAL792 
 PHE793  MET794  SER795  GLU796  ALA797  LYS798  CYS799  TRP800  GLU811  SER814 

> <Gold.Protein.RotatedAtoms>
  150.9578  134.8970  159.7711 H   0  0  0  0  0  0  0  0  0  0  0  0  # atno 6907 bound_to 6896
  152.5144  134.3716  159.9330 H   0  0  0  0  0  0  0  0  0  0  0  0  # atno 6908 bound_to 6896
  151.3729  133.3808  159.2736 H   0  0  0  0  0  0  0  0  0  0  0  0  # atno 6909 bound_to 6896
  146.2327  139.9175  142.8515 H   0  0  0  0  0  0  0  0  0  0  0  0  # atno 7974 bound_to 7965
  156.2171  140.1804  156.7562 H   0  0  0  0  0  0  0  0  0  0  0  0  # atno 8008 bound_to 7997
  154.5809  140.0666  156.9131 H   0  0  0  0  0  0  0  0  0  0  0  0  # atno 8009 bound_to 7997
  155.2505  140.3328  155.4285 H   0  0  0  0  0  0  0  0  0  0  0  0  # atno 8010 bound_to 7997
  140.7090  143.5846  150.8956 H   0  0  0  0  0  0  0  0  0  0  0  0  # atno 10167 bound_to 10162
  157.1505  130.6672  149.6010 H   0  0  0  0  0  0  0  0  0  0  0  0  # atno 10718 bound_to 10713
  152.9915  135.6169  154.2749 H   0  0  0  0  0  0  0  0  0  0  0  0  # atno 10763 bound_to 10752
  154.2481  135.2786  155.2829 H   0  0  0  0  0  0  0  0  0  0  0  0  # atno 10764 bound_to 10752
  154.5312  135.5787  153.6818 H   0  0  0  0  0  0  0  0  0  0  0  0  # atno 10765 bound_to 10752
  140.2554  134.7944  157.3541 H   0  0  0  0  0  0  0  0  0  0  0  0  # atno 11005 bound_to 11000
  145.2169  140.9919  143.4068 LP  0  0  0  0  0  0  0  0  0  0  0  0  # atno 17320 bound_to 7965
  144.9643  139.3946  143.6340 LP  0  0  0  0  0  0  0  0  0  0  0  0  # atno 17321 bound_to 7965
  139.9572  143.6205  152.3013 LP  0  0  0  0  0  0  0  0  0  0  0  0  # atno 17342 bound_to 10162
  139.6745  144.7659  151.1722 LP  0  0  0  0  0  0  0  0  0  0  0  0  # atno 17343 bound_to 10162
  155.9771  130.4746  150.6574 LP  0  0  0  0  0  0  0  0  0  0  0  0  # atno 17370 bound_to 10713
  157.4225  131.0838  151.1117 LP  0  0  0  0  0  0  0  0  0  0  0  0  # atno 17371 bound_to 10713
  140.1516  134.4842  155.7957 LP  0  0  0  0  0  0  0  0  0  0  0  0  # atno 17394 bound_to 11000
  141.2196  133.6865  156.7389 LP  0  0  0  0  0  0  0  0  0  0  0  0  # atno 17395 bound_to 11000

$$$$
