AV-unprocessed.smi:148|AV-procd|sdf|1226|dock3
  -GOLD-   2262018423D 1   1.00000     0.00000
 Structure written by MMmdl.
 63 67  0  0  0  0  0  0  0  0  1 V2000
  150.7765  140.2453  155.2110 O   0  0  0  0  0  0  0  0  0  0  0  0
  151.2099  141.1705  156.1869 C   0  0  0  0  0  0  0  0  0  0  0  0
  150.5265  140.9138  157.5525 C   0  0  2  0  0  0  0  0  0  0  0  0
  148.9814  140.8752  157.4500 C   0  0  0  0  0  0  0  0  0  0  0  0
  148.4318  139.5347  157.5579 N   0  0  0  0  0  0  0  0  0  0  0  0
  147.1032  139.1829  157.4756 C   0  0  0  0  0  0  0  0  0  0  0  0
  146.8554  137.9072  157.6005 N   0  0  0  0  0  0  0  0  0  0  0  0
  148.1105  137.3388  157.7739 C   0  0  0  0  0  0  0  0  0  0  0  0
  148.5750  136.0096  157.9520 C   0  0  0  0  0  0  0  0  0  0  0  0
  147.7295  134.9568  157.9897 N   0  0  0  0  0  0  0  0  0  0  0  0
  147.1378  134.7460  156.6662 C   0  0  0  0  0  0  0  0  0  0  0  0
  146.4048  133.4037  156.5871 C   0  0  0  0  0  0  0  0  0  0  0  0
  145.3514  133.3244  157.6929 C   0  0  0  0  0  0  0  0  0  0  0  0
  146.0118  133.5510  159.0587 C   0  0  0  0  0  0  0  0  0  0  0  0
  146.7967  134.8893  159.1342 C   0  0  1  0  0  0  0  0  0  0  0  0
  147.4972  135.0330  160.5317 C   0  0  2  0  0  0  0  0  0  0  0  0
  146.7287  134.4158  161.7158 C   0  0  0  0  0  0  0  0  0  0  0  0
  147.3312  135.0213  162.9878 C   0  0  0  0  0  0  0  0  0  0  0  0
  148.0776  136.2850  162.5464 C   0  0  0  0  0  0  0  0  0  0  0  0
  147.7748  136.4623  161.0542 C   0  0  2  0  0  0  0  0  0  0  0  0
  146.6364  137.2918  160.9145 O   0  0  0  0  0  0  0  0  0  0  0  0
  149.9130  135.8127  158.0911 N   0  0  0  0  0  0  0  0  0  0  0  0
  150.7465  136.8568  158.0492 C   0  0  0  0  0  0  0  0  0  0  0  0
  150.4576  138.1496  157.8817 N   0  0  0  0  0  0  0  0  0  0  0  0
  149.1143  138.3460  157.7472 C   0  0  0  0  0  0  0  0  0  0  0  0
  151.0023  141.9097  158.6403 C   0  0  1  0  0  0  0  0  0  0  0  0
  152.5067  141.9719  158.8377 C   0  0  0  0  0  0  0  0  0  0  0  0
  152.6754  143.2951  159.5747 C   0  0  0  0  0  0  0  0  0  0  0  0
  151.6626  144.1489  159.0558 O   0  0  0  0  0  0  0  0  0  0  0  0
  150.6985  143.3819  158.3402 C   0  0  0  0  0  0  0  0  0  0  0  0
  151.2580  139.4399  155.3236 H   0  0  0  0  0  0  0  0  0  0  0  0
  152.2947  141.1059  156.2725 H   0  0  0  0  0  0  0  0  0  0  0  0
  150.9983  142.1783  155.8302 H   0  0  0  0  0  0  0  0  0  0  0  0
  150.8440  139.9193  157.8696 H   0  0  0  0  0  0  0  0  0  0  0  0
  148.5291  141.4777  158.2378 H   0  0  0  0  0  0  0  0  0  0  0  0
  148.6558  141.3122  156.5052 H   0  0  0  0  0  0  0  0  0  0  0  0
  146.3180  139.9090  157.3215 H   0  0  0  0  0  0  0  0  0  0  0  0
  146.4389  135.5545  156.4454 H   0  0  0  0  0  0  0  0  0  0  0  0
  147.9145  134.7793  155.9001 H   0  0  0  0  0  0  0  0  0  0  0  0
  145.9356  133.2894  155.6098 H   0  0  0  0  0  0  0  0  0  0  0  0
  147.1178  132.5850  156.6922 H   0  0  0  0  0  0  0  0  0  0  0  0
  144.5797  134.0770  157.5257 H   0  0  0  0  0  0  0  0  0  0  0  0
  144.8542  132.3544  157.6708 H   0  0  0  0  0  0  0  0  0  0  0  0
  145.2273  133.5174  159.8139 H   0  0  0  0  0  0  0  0  0  0  0  0
  146.6852  132.7198  159.2739 H   0  0  0  0  0  0  0  0  0  0  0  0
  146.0697  135.6936  159.0169 H   0  0  0  0  0  0  0  0  0  0  0  0
  148.4538  134.5097  160.4783 H   0  0  0  0  0  0  0  0  0  0  0  0
  145.6745  134.6916  161.6568 H   0  0  0  0  0  0  0  0  0  0  0  0
  146.7839  133.3267  161.7290 H   0  0  0  0  0  0  0  0  0  0  0  0
  146.5522  135.2479  163.7166 H   0  0  0  0  0  0  0  0  0  0  0  0
  148.0245  134.3218  163.4568 H   0  0  0  0  0  0  0  0  0  0  0  0
  147.8073  137.1596  163.1399 H   0  0  0  0  0  0  0  0  0  0  0  0
  149.1489  136.1289  162.6797 H   0  0  0  0  0  0  0  0  0  0  0  0
  148.6186  136.9441  160.5650 H   0  0  0  0  0  0  0  0  0  0  0  0
  145.9436  136.7837  160.5200 H   0  0  0  0  0  0  0  0  0  0  0  0
  151.7946  136.6229  158.1631 H   0  0  0  0  0  0  0  0  0  0  0  0
  150.5459  141.6503  159.5971 H   0  0  0  0  0  0  0  0  0  0  0  0
  152.9033  141.1284  159.4034 H   0  0  0  0  0  0  0  0  0  0  0  0
  153.0189  142.0114  157.8751 H   0  0  0  0  0  0  0  0  0  0  0  0
  152.5017  143.1594  160.6430 H   0  0  0  0  0  0  0  0  0  0  0  0
  153.6689  143.7246  159.4438 H   0  0  0  0  0  0  0  0  0  0  0  0
  150.8179  143.5944  157.2769 H   0  0  0  0  0  0  0  0  0  0  0  0
  149.6849  143.6631  158.6274 H   0  0  0  0  0  0  0  0  0  0  0  0
  1  2  1  0  0  0  0
  1 31  1  0  0  0  0
  2  3  1  0  0  0  0
  2 32  1  0  0  0  0
  2 33  1  0  0  0  0
  3  4  1  0  0  0  0
  3 26  1  0  0  0  0
  3 34  1  0  0  0  0
  4  5  1  0  0  0  0
  4 35  1  0  0  0  0
  4 36  1  0  0  0  0
  5 25  1  0  0  0  0
  5  6  1  0  0  0  0
  6  7  2  0  0  0  0
  6 37  1  0  0  0  0
  7  8  1  0  0  0  0
  8 25  2  0  0  0  0
  8  9  1  0  0  0  0
  9 10  1  0  0  0  0
  9 22  2  0  0  0  0
 10 15  1  0  0  0  0
 10 11  1  0  0  0  0
 11 12  1  0  0  0  0
 11 38  1  0  0  0  0
 11 39  1  0  0  0  0
 12 13  1  0  0  0  0
 12 40  1  0  0  0  0
 12 41  1  0  0  0  0
 13 14  1  0  0  0  0
 13 42  1  0  0  0  0
 13 43  1  0  0  0  0
 14 15  1  0  0  0  0
 14 44  1  0  0  0  0
 14 45  1  0  0  0  0
 15 16  1  0  0  0  0
 15 46  1  0  0  0  0
 16 20  1  0  0  0  0
 16 17  1  0  0  0  0
 16 47  1  0  0  0  0
 17 18  1  0  0  0  0
 17 48  1  0  0  0  0
 17 49  1  0  0  0  0
 18 19  1  0  0  0  0
 18 50  1  0  0  0  0
 18 51  1  0  0  0  0
 19 20  1  0  0  0  0
 19 52  1  0  0  0  0
 19 53  1  0  0  0  0
 20 21  1  0  0  0  0
 20 54  1  0  0  0  0
 21 55  1  0  0  0  0
 22 23  1  0  0  0  0
 23 24  2  0  0  0  0
 23 56  1  0  0  0  0
 24 25  1  0  0  0  0
 26 30  1  0  0  0  0
 26 27  1  0  0  0  0
 26 57  1  0  0  0  0
 27 28  1  0  0  0  0
 27 58  1  0  0  0  0
 27 59  1  0  0  0  0
 28 29  1  0  0  0  0
 28 60  1  0  0  0  0
 28 61  1  0  0  0  0
 29 30  1  0  0  0  0
 30 62  1  0  0  0  0
 30 63  1  0  0  0  0
M  END
> <s_m_source_file>
AV-unprocessed.smi

> <i_m_source_file_index>
148

> <i_lp_mmshare_version>
43012

> <i_f3d_flags>
0

> <s_epik_input>
W0NIMl0xT1tDSDJdW0NIMl1bQ0BIXTFbQ0BIXShbQ0gyXVtPSF0pW0NIMl1uKFtjSF1uMiljKGMyMyluW2NIXW5jM040W0NIMl1bQ0gyXVtDSDJdW0NIMl1bQ0BIXTRbQ0BASF01W0NIMl1bQ0gyXVtDSDJdW0NASF01W09IXQ==

> <s_epik_cmdline>
J2VwaWtfcHl0aG9uJywgJy1waCcsICc3LjAnLCAnLXRuJywgJzgnLCAnLW1hJywgJzIwMCcsICctbWV0YWxfYmluZGluZycsICctaW1hZScsICc8aW5maWxlLm1hZT4nLCAnLW9tYWUnLCAnPG91dGZpbGUubWFlPic=

> <r_lp_tautomer_probability>
1

> <r_epik_Ionization_Penalty>
0.00556303

> <r_epik_Ionization_Penalty_Charging>
0

> <r_epik_Ionization_Penalty_Neutral>
0.00556303

> <r_epik_State_Penalty>
0.00401767

> <r_epik_Charging_Adjusted_Penalty>
0.00401767

> <i_epik_Tot_Q>
0

> <i_epik_Tot_abs_Q>
0

> <r_epik_Metal_State_Penalty>
-0

> <b_epik_Metal_Only>
0

> <s_lp_Force_Field>
OPLS_2005

> <r_lp_Energy>
70.5735

> <b_lp_Chiralities_Consistent>
1

> <s_lp_Variant>
AV-unprocessed.smi:148-25

> <Gold.Version>
5.8.1

> <Gold.Id.Protein>
6NUR|6NUR_protein|mol2

> <Gold.PLP.Fitness>
45.3679

> <Gold.PLP.PLP>
-39.3684

> <Gold.PLP.part.hbond>
-3.0000

> <Gold.PLP.part.metal>
0.0000

> <Gold.PLP.part.buried>
-6.7511

> <Gold.PLP.part.nonpolar>
-30.1068

> <Gold.PLP.part.repulsive>
0.0629

> <Gold.PLP.ligand.clash>
0.0000

> <Gold.PLP.ligand.torsion>
1.3964

> <Gold.PLP.Chemscore.Hbond>
2.7137

> <Gold.PLP.Chemscore.CHOScore>
0.0000

> <Gold.PLP.Chemscore.Metal>
0.0000

> <Gold.Chemscore.Hbonds>
donor molecule, donor type, donor heavy atom, donor atom, acceptor molecule, acceptor atom, score
      P1  H  6896  6908       L1    22  0.60
      P1  H  6934  6947       L1    21  1.00
      P1  H  7989  7998       L1     1  0.95

> <Gold.PLP.Chemscore.Internal.Correction>
0.6512

> <Gold.Rescore>
     Score         DG    S(hbond)    S(metal)    S(lipo)     H(rot)  DE(clash)    DE(int)     intcor
     12.09     -14.82       1.66        0.00     105.12       3.32       0.22       2.52       ----

> <Gold.Chemscore.Fitness>
12.0916

> <Gold.Chemscore.DG>
-14.8242

> <Gold.Chemscore.ZeroCoef>
-5.4800

> <Gold.Chemscore.Hbond>
1.6603

> <Gold.Chemscore.Metal>
0.0000

> <Gold.Chemscore.Lipo>
105.1163

> <Gold.Chemscore.Internal_Hbond>
0.0000

> <Gold.Chemscore.DEClash>
0.2163

> <Gold.Chemscore.DEInternal>
2.5162

> <Gold.Chemscore.Rot>
3.3203

> <Gold.Chemscore.Internal.Correction>
   9.000000E+99

> <Gold.Chemscore.Hbonds>
donor molecule, donor type, donor heavy atom, donor atom, acceptor molecule, acceptor atom, score
      P1  H  6896  6908       L1    22  0.44
      P1  H  6934  6947       L1    21  0.70
      P1  H  7989  7998       L1     1  0.09

> <Gold.Chemscore.Hbond.Weighted>
-5.5456

> <Gold.Chemscore.Metal.Weighted>
-0.0000

> <Gold.Chemscore.Lipo.Weighted>
-12.2986

> <Gold.Chemscore.Internal_Hbond.Weighted>
0.0000

> <Gold.Chemscore.DEClash.Weighted>
0.2163

> <Gold.Chemscore.DEInternal.Weighted>
2.5162

> <Gold.Chemscore.Rot.Weighted>
8.5000

> <Gold.Chemscore.Internal.Correction.Weighted>
   9.000000E+99

> <Gold.Protein.RotatedTorsions>
[ 6907 6896 6895 6894 ] final  153.22 input  -60.11 | X-H torsion
[ 7974 7965 7964 7962 ] final  117.40 input  175.53 | X-H torsion
[ 8008 7997 7996 7995 ] final  -32.60 input   59.86 | X-H torsion
[ 10167 10162 10161 10158 ] final  128.63 input  -65.29 | X-H torsion
[ 10718 10713 10712 10709 ] final  -90.62 input   66.30 | X-H torsion
[ 10763 10752 10751 10750 ] final  177.09 input  -60.55 | X-H torsion
[ 11005 11000 10999 10996 ] final   79.05 input  -57.11 | X-H torsion

> <Gold.Protein.ActiveResidues>
 VAL166  LYS551  ARG553  GLY616  TRP617  ASP618  TYR619  PRO620  LYS621  CYS622 
 ASP623  PHE694  ASN695  SER759  ASP760  ASP761  ALA762  ILE779  LEU786  VAL792 
 PHE793  MET794  SER795  GLU796  ALA797  LYS798  CYS799  TRP800  GLU811  SER814 

> <Gold.Protein.RotatedAtoms>
  152.0757  133.4128  159.4478 H   0  0  0  0  0  0  0  0  0  0  0  0  # atno 6907 bound_to 6896
  150.6863  134.3040  159.4727 H   0  0  0  0  0  0  0  0  0  0  0  0  # atno 6908 bound_to 6896
  152.0876  134.9428  160.0623 H   0  0  0  0  0  0  0  0  0  0  0  0  # atno 6909 bound_to 6896
  145.1678  139.3118  143.4483 H   0  0  0  0  0  0  0  0  0  0  0  0  # atno 7974 bound_to 7965
  154.4175  140.1733  156.1753 H   0  0  0  0  0  0  0  0  0  0  0  0  # atno 8008 bound_to 7997
  155.9727  140.3384  155.6566 H   0  0  0  0  0  0  0  0  0  0  0  0  # atno 8009 bound_to 7997
  155.6604  140.0700  157.2546 H   0  0  0  0  0  0  0  0  0  0  0  0  # atno 8010 bound_to 7997
  139.5518  144.6818  151.4302 H   0  0  0  0  0  0  0  0  0  0  0  0  # atno 10167 bound_to 10162
  155.9989  130.4916  150.5350 H   0  0  0  0  0  0  0  0  0  0  0  0  # atno 10718 bound_to 10713
  154.4899  135.2778  155.1505 H   0  0  0  0  0  0  0  0  0  0  0  0  # atno 10763 bound_to 10752
  154.3181  135.6215  153.5499 H   0  0  0  0  0  0  0  0  0  0  0  0  # atno 10764 bound_to 10752
  152.9886  135.5736  154.5318 H   0  0  0  0  0  0  0  0  0  0  0  0  # atno 10765 bound_to 10752
  139.9188  134.7812  156.1729 H   0  0  0  0  0  0  0  0  0  0  0  0  # atno 11005 bound_to 11000
  146.3473  140.1813  142.8589 LP  0  0  0  0  0  0  0  0  0  0  0  0  # atno 17320 bound_to 7965
  145.0264  140.8835  143.5136 LP  0  0  0  0  0  0  0  0  0  0  0  0  # atno 17321 bound_to 7965
  140.6782  143.8142  150.7086 LP  0  0  0  0  0  0  0  0  0  0  0  0  # atno 17342 bound_to 10162
  140.1587  143.4294  152.2081 LP  0  0  0  0  0  0  0  0  0  0  0  0  # atno 17343 bound_to 10162
  157.3294  131.0697  151.1872 LP  0  0  0  0  0  0  0  0  0  0  0  0  # atno 17370 bound_to 10713
  157.2758  130.6726  149.6041 LP  0  0  0  0  0  0  0  0  0  0  0  0  # atno 17371 bound_to 10713
  141.0689  133.6806  156.2101 LP  0  0  0  0  0  0  0  0  0  0  0  0  # atno 17394 bound_to 11000
  140.6539  134.5038  157.5579 LP  0  0  0  0  0  0  0  0  0  0  0  0  # atno 17395 bound_to 11000

$$$$
