#       Name:                AV-unprocessed.smi:2032
#       Creating user name   scv26
#       Creation time:       Fri Mar 27 10:50:25 2020


#       File generated by GOLD software.
#

@<TRIPOS>MOLECULE
AV-unprocessed.smi:2032
    48    49     1
SMALL
NO_CHARGES


@<TRIPOS>ATOM
      1 ****        -2.8363   3.8116  -1.0519 C.3            1 S1                 0.0000
      2 ****        -2.3051   2.3751  -1.0068 C.3            1 S1                 0.0000
      3 ****        -0.7710   2.3222  -1.1240 C.3            1 S1                 0.0000
      4 ****        -0.2569   0.9521  -1.1663 N.3            1 S1                 0.0000
      5 ****         1.2197   0.8999  -1.2481 C.3            1 S1                 0.0000
      6 ****         1.9291   1.6661  -0.1086 C.3            1 S1                 0.0000
      7 ****         1.7978  -0.5390  -1.3080 C.3            1 S1                 0.0000
      8 ****         1.3309  -1.3768  -0.2047 N.am           1 S1                 0.0000
      9 ****         2.0223  -1.6598   0.9085 C.2            1 S1                 0.0000
     10 ****         3.1613  -1.2452   1.1264 O.2            1 S1                 0.0000
     11 ****         1.3086  -2.4414   1.7376 N.am           1 S1                 0.0000
     12 ****         1.6879  -2.9503   3.0073 C.2            1 S1                 0.0000
     13 ****         2.8627  -2.7044   3.5987 N.2            1 S1                 0.0000
     14 ****         2.9657  -3.3331   4.8421 C.2            1 S1                 0.0000
     15 ****         1.8521  -4.0591   5.1843 C.2            1 S1                 0.0000
     16 ****         0.6211  -3.9792   3.9521 S.3            1 S1                 0.0000
     17 ****        -0.9050   0.2573  -2.2825 C.3            1 S1                 0.0000
     18 ****        -2.4443   0.3070  -2.2220 C.3            1 S1                 0.0000
     19 ****        -3.0400  -0.6080  -1.1383 C.3            1 S1                 0.0000
     20 ****        -2.8915   1.6545  -2.0865 O.3            1 S1                 0.0000
     21 ****        -2.4276   4.4069  -0.2351 H              1 S1                 0.0000
     22 ****        -3.9228   3.8278  -0.9628 H              1 S1                 0.0000
     23 ****        -2.5711   4.3014  -1.9893 H              1 S1                 0.0000
     24 ****        -2.6130   1.9272  -0.0617 H              1 S1                 0.0000
     25 ****        -0.4512   2.8636  -2.0157 H              1 S1                 0.0000
     26 ****        -0.3623   2.8563  -0.2678 H              1 S1                 0.0000
     27 ****         1.5209   1.3875  -2.1765 H              1 S1                 0.0000
     28 ****         3.0061   1.4967  -0.1283 H              1 S1                 0.0000
     29 ****         1.5653   1.3551   0.8711 H              1 S1                 0.0000
     30 ****         1.7916   2.7436  -0.1918 H              1 S1                 0.0000
     31 ****         1.5233  -1.0271  -2.2423 H              1 S1                 0.0000
     32 ****         2.8884  -0.5058  -1.3331 H              1 S1                 0.0000
     33 ****         0.3991  -1.7552  -0.2918 H              1 S1                 0.0000
     34 ****         0.3862  -2.7042   1.4235 H              1 S1                 0.0000
     35 ****         3.8702  -3.2099   5.4190 H              1 S1                 0.0000
     36 ****         1.6819  -4.6329   6.0831 H              1 S1                 0.0000
     37 ****        -0.5740   0.7000  -3.2232 H              1 S1                 0.0000
     38 ****        -0.6087  -0.7898  -2.3126 H              1 S1                 0.0000
     39 ****        -2.8276  -0.0456  -3.1799 H              1 S1                 0.0000
     40 ****        -2.7822  -1.6501  -1.3273 H              1 S1                 0.0000
     41 ****        -4.1275  -0.5344  -1.1224 H              1 S1                 0.0000
     42 ****        -2.6731  -0.3589  -0.1429 H              1 S1                 0.0000
     43 ****        -0.4795   0.4879  -0.3090 LP             1 S1                 0.0000
     44 ****         3.6191  -0.6641   0.4535 LP             1 S1                 0.0000
     45 ****         3.6283  -1.4897   1.9761 LP             1 S1                 0.0000
     46 ****         3.5823  -2.1374   3.1978 LP             1 S1                 0.0000
     47 ****        -2.6792   2.1391  -2.9351 LP             1 S1                 0.0000
     48 ****        -3.8820   1.6408  -1.9493 LP             1 S1                 0.0000
@<TRIPOS>BOND
    1    1    2 1     
    2    1   21 1     
    3    1   22 1     
    4    1   23 1     
    5    2   20 1     
    6    2    3 1     
    7    2   24 1     
    8    3    4 1     
    9    3   25 1     
   10    3   26 1     
   11    4    5 1     
   12    4   17 1     
   13    5    6 1     
   14    5    7 1     
   15    5   27 1     
   16    6   28 1     
   17    6   29 1     
   18    6   30 1     
   19    7    8 1     
   20    7   31 1     
   21    7   32 1     
   22    8    9 am    
   23    8   33 1     
   24    9   10 2     
   25    9   11 am    
   26   11   12 1     
   27   11   34 1     
   28   12   16 1     
   29   12   13 2     
   30   13   14 1     
   31   14   15 2     
   32   14   35 1     
   33   15   16 1     
   34   15   36 1     
   35   17   18 1     
   36   17   37 1     
   37   17   38 1     
   38   18   19 1     
   39   18   20 1     
   40   18   39 1     
   41   19   40 1     
   42   19   41 1     
   43   19   42 1     
   44    4   43 1     
   45   10   44 1     
   46   10   45 1     
   47   13   46 1     
   48   20   47 1     
   49   20   48 1     
@<TRIPOS>SUBSTRUCTURE
      1 S1             1
@<TRIPOS>SET
LONE_PAIRS      STATIC     ATOMS    <user>   **** ""
6 43 44 45 46 47 48
DONOR_HYDROGENS      STATIC     ATOMS    <user>   **** ""
2 33 34
ATOM$BLUE        STATIC     ATOMS    COLORGROUP SYSTEM
6 43 44 45 46 47 48
ATOM$RED        STATIC     ATOMS    COLORGROUP SYSTEM
2 33 34
