#       Name:                AV-unprocessed.smi:1736
#       Creating user name   scv26
#       Creation time:       Fri Mar 27 08:20:32 2020


#       File generated by GOLD software.
#

@<TRIPOS>MOLECULE
AV-unprocessed.smi:1736
    49    50     1
SMALL
NO_CHARGES


@<TRIPOS>ATOM
      1 ****        -3.1021   1.1820   3.5501 C.3            1 S1                 0.0000
      2 ****        -2.2922   0.0881   2.9658 N.4            1 S1                 1.0000
      3 ****        -0.8451   0.3899   2.8821 C.3            1 S1                 0.0000
      4 ****        -0.5344   1.3496   1.7162 C.3            1 S1                 0.0000
      5 ****        -0.9746   0.7659   0.4378 N.3            1 S1                 0.0000
      6 ****        -0.5019   1.4935  -0.7716 C.3            1 S1                 0.0000
      7 ****        -1.0046   0.7703  -2.0470 C.3            1 S1                 0.0000
      8 ****        -1.0138   2.9535  -0.8006 C.3            1 S1                 0.0000
      9 ****         1.0550   1.5120  -0.8219 C.3            1 S1                 0.0000
     10 ****         1.6496   0.1827  -0.6779 N.am           1 S1                 0.0000
     11 ****         2.2037  -0.5391  -1.6624 C.2            1 S1                 0.0000
     12 ****         2.2873  -0.1544  -2.8285 O.2            1 S1                 0.0000
     13 ****         2.6375  -1.7258  -1.2085 N.am           1 S1                 0.0000
     14 ****         3.2950  -2.7388  -1.9497 C.2            1 S1                 0.0000
     15 ****         3.7056  -2.7362  -3.3154 C.2            1 S1                 0.0000
     16 ****         4.3006  -3.8758  -3.6389 N.2            1 S1                 0.0000
     17 ****         4.2745  -4.6019  -2.4987 N.pl3          1 S1                 0.0000
     18 ****         3.6733  -3.9475  -1.4465 C.2            1 S1                 0.0000
     19 ****        -2.4335   0.5808   0.5191 C.3            1 S1                 0.0000
     20 ****        -2.7898  -0.3956   1.6582 C.3            1 S1                 0.0000
     21 ****         4.6679  -5.5311  -2.4550 H              1 S1                 0.0000
     22 ****        -3.0827   2.0798   2.9323 H              1 S1                 0.0000
     23 ****        -2.7303   1.4448   4.5410 H              1 S1                 0.0000
     24 ****        -4.1409   0.8692   3.6605 H              1 S1                 0.0000
     25 ****        -0.4973   0.8101   3.8265 H              1 S1                 0.0000
     26 ****        -0.3000  -0.5446   2.7413 H              1 S1                 0.0000
     27 ****        -1.0081   2.3168   1.8841 H              1 S1                 0.0000
     28 ****         0.5394   1.5213   1.7220 H              1 S1                 0.0000
     29 ****        -0.4977   1.1458  -2.9367 H              1 S1                 0.0000
     30 ****        -2.0689   0.9243  -2.2236 H              1 S1                 0.0000
     31 ****        -0.8244  -0.3044  -2.0033 H              1 S1                 0.0000
     32 ****        -0.6765   3.4595  -1.7059 H              1 S1                 0.0000
     33 ****        -0.6432   3.5400   0.0398 H              1 S1                 0.0000
     34 ****        -2.1018   3.0132  -0.7967 H              1 S1                 0.0000
     35 ****         1.3858   1.9763  -1.7529 H              1 S1                 0.0000
     36 ****         1.4723   2.1537  -0.0470 H              1 S1                 0.0000
     37 ****         1.6224  -0.2234   0.2454 H              1 S1                 0.0000
     38 ****         2.4865  -1.9237  -0.2304 H              1 S1                 0.0000
     39 ****         3.6018  -1.9704  -4.0697 H              1 S1                 0.0000
     40 ****         3.5718  -4.3866  -0.4650 H              1 S1                 0.0000
     41 ****        -2.9387   1.5358   0.6629 H              1 S1                 0.0000
     42 ****        -2.8285   0.1507  -0.3986 H              1 S1                 0.0000
     43 ****        -2.3463  -1.3716   1.4545 H              1 S1                 0.0000
     44 ****        -3.8681  -0.5519   1.7050 H              1 S1                 0.0000
     45 ****        -2.3846  -0.6851   3.6091 H              1 S1                 0.0000
     46 ****        -0.5365  -0.1237   0.3081 LP             1 S1                 0.0000
     47 ****         1.9301   0.7435  -3.0856 LP             1 S1                 0.0000
     48 ****         2.7124  -0.7398  -3.5189 LP             1 S1                 0.0000
     49 ****         4.6821  -4.1388  -4.5251 LP             1 S1                 0.0000
@<TRIPOS>BOND
    1    1    2 1     
    2    1   22 1     
    3    1   23 1     
    4    1   24 1     
    5    2   20 1     
    6    2    3 1     
    7    2   45 1     
    8    3    4 1     
    9    3   25 1     
   10    3   26 1     
   11    4    5 1     
   12    4   27 1     
   13    4   28 1     
   14    5    6 1     
   15    5   19 1     
   16    6    7 1     
   17    6    8 1     
   18    6    9 1     
   19    7   29 1     
   20    7   30 1     
   21    7   31 1     
   22    8   32 1     
   23    8   33 1     
   24    8   34 1     
   25    9   10 1     
   26    9   35 1     
   27    9   36 1     
   28   10   11 am    
   29   10   37 1     
   30   11   12 2     
   31   11   13 am    
   32   13   14 1     
   33   13   38 1     
   34   14   18 2     
   35   14   15 1     
   36   15   16 2     
   37   15   39 1     
   38   16   17 1     
   39   17   21 1     
   40   17   18 1     
   41   18   40 1     
   42   19   20 1     
   43   19   41 1     
   44   19   42 1     
   45   20   43 1     
   46   20   44 1     
   47    5   46 1     
   48   12   47 1     
   49   12   48 1     
   50   16   49 1     
@<TRIPOS>SUBSTRUCTURE
      1 S1             1
@<TRIPOS>SET
LONE_PAIRS      STATIC     ATOMS    <user>   **** ""
4 46 47 48 49
DONOR_HYDROGENS      STATIC     ATOMS    <user>   **** ""
4 45 37 38 21
ATOM$BLUE        STATIC     ATOMS    COLORGROUP SYSTEM
4 46 47 48 49
ATOM$RED        STATIC     ATOMS    COLORGROUP SYSTEM
4 45 37 38 21
