#       Name:                AV-unprocessed.smi:1418
#       Creating user name   scv26
#       Creation time:       Fri Mar 27 05:41:49 2020


#       File generated by GOLD software.
#

@<TRIPOS>MOLECULE
AV-unprocessed.smi:1418
    44    46     1
SMALL
NO_CHARGES


@<TRIPOS>ATOM
      1 ****        -1.0639  -1.5433  -2.0371 O.2            1 S1                 0.0000
      2 ****        -0.2603  -2.1342  -1.3160 C.2            1 S1                 0.0000
      3 ****         1.2097  -1.7131  -1.3038 C.3            1 S1                 0.0000
      4 ****         1.4128  -0.5772  -0.3412 C.2            1 S1                 0.0000
      5 ****         1.2629  -0.6119   1.0249 C.2            1 S1                 0.0000
      6 ****         1.5921   0.9323   1.7598 S.3            1 S1                 0.0000
      7 ****         1.9432   1.5826   0.1557 C.2            1 S1                 0.0000
      8 ****         2.3440   2.9185  -0.1465 N.am           1 S1                 0.0000
      9 ****         2.6933   3.3278  -1.5037 C.3            1 S1                 0.0000
     10 ****         3.2737   4.7410  -1.3820 C.3            1 S1                 0.0000
     11 ****         2.8814   5.2202   0.0136 C.3            1 S1                 0.0000
     12 ****         2.4285   3.9491   0.7133 C.2            1 S1                 0.0000
     13 ****         2.1818   3.9330   1.9183 O.2            1 S1                 0.0000
     14 ****         1.8064   0.6771  -0.8192 N.2            1 S1                 0.0000
     15 ****        -0.5989  -3.1417  -0.4960 N.am           1 S1                 0.0000
     16 ****        -1.9542  -3.6296  -0.2725 C.3            1 S1                 0.0000
     17 ****        -2.5981  -2.9192   0.9157 C.3            1 S1                 0.0000
     18 ****        -4.0693  -3.1948   1.2597 C.3            1 S1                 0.0000
     19 ****        -4.1937  -1.7335   1.6992 C.3            1 S1                 0.0000
     20 ****        -2.9826  -1.4345   0.8124 C.3            1 S1                 0.0000
     21 ****         1.8370  -2.5626  -1.0307 H              1 S1                 0.0000
     22 ****         1.5029  -1.4276  -2.3150 H              1 S1                 0.0000
     23 ****         0.9707  -1.4493   1.6410 H              1 S1                 0.0000
     24 ****         3.4130   2.6446  -1.9569 H              1 S1                 0.0000
     25 ****         1.7932   3.3308  -2.1201 H              1 S1                 0.0000
     26 ****         4.3604   4.7095  -1.4708 H              1 S1                 0.0000
     27 ****         2.8986   5.4022  -2.1638 H              1 S1                 0.0000
     28 ****         3.7149   5.6894   0.5372 H              1 S1                 0.0000
     29 ****         2.0511   5.9257  -0.0271 H              1 S1                 0.0000
     30 ****         0.1328  -3.5704   0.0520 H              1 S1                 0.0000
     31 ****        -2.5610  -3.5147  -1.1722 H              1 S1                 0.0000
     32 ****        -1.8970  -4.7013  -0.0814 H              1 S1                 0.0000
     33 ****        -2.0005  -3.0617   1.8189 H              1 S1                 0.0000
     34 ****        -4.6753  -3.4227   0.3812 H              1 S1                 0.0000
     35 ****        -4.2230  -3.9256   2.0542 H              1 S1                 0.0000
     36 ****        -5.1171  -1.2409   1.3938 H              1 S1                 0.0000
     37 ****        -3.9866  -1.5899   2.7607 H              1 S1                 0.0000
     38 ****        -2.2555  -0.7453   1.2432 H              1 S1                 0.0000
     39 ****        -3.2655  -1.1385  -0.1991 H              1 S1                 0.0000
     40 ****        -0.7556  -0.7878  -2.6151 LP             1 S1                 0.0000
     41 ****        -2.0252  -1.8188  -2.0450 LP             1 S1                 0.0000
     42 ****         1.8817   3.0854   2.3560 LP             1 S1                 0.0000
     43 ****         2.2812   4.7675   2.4602 LP             1 S1                 0.0000
     44 ****         1.9681   0.8755  -1.7859 LP             1 S1                 0.0000
@<TRIPOS>BOND
    1    1    2 2     
    2    2    3 1     
    3    2   15 am    
    4    3    4 1     
    5    3   21 1     
    6    3   22 1     
    7    4   14 1     
    8    4    5 2     
    9    5    6 1     
   10    5   23 1     
   11    6    7 1     
   12    7    8 1     
   13    7   14 2     
   14    8   12 am    
   15    8    9 1     
   16    9   10 1     
   17    9   24 1     
   18    9   25 1     
   19   10   11 1     
   20   10   26 1     
   21   10   27 1     
   22   11   12 1     
   23   11   28 1     
   24   11   29 1     
   25   12   13 2     
   26   15   16 1     
   27   15   30 1     
   28   16   17 1     
   29   16   31 1     
   30   16   32 1     
   31   17   20 1     
   32   17   18 1     
   33   17   33 1     
   34   18   19 1     
   35   18   34 1     
   36   18   35 1     
   37   19   20 1     
   38   19   36 1     
   39   19   37 1     
   40   20   38 1     
   41   20   39 1     
   42    1   40 1     
   43    1   41 1     
   44   13   42 1     
   45   13   43 1     
   46   14   44 1     
@<TRIPOS>SUBSTRUCTURE
      1 S1             1
@<TRIPOS>SET
LONE_PAIRS      STATIC     ATOMS    <user>   **** ""
5 40 41 42 43 44
DONOR_HYDROGENS      STATIC     ATOMS    <user>   **** ""
1 30
ATOM$BLUE        STATIC     ATOMS    COLORGROUP SYSTEM
5 40 41 42 43 44
ATOM$RED        STATIC     ATOMS    COLORGROUP SYSTEM
1 30
