#       Name:                AV-unprocessed.smi:3154
#       Creating user name   scv26
#       Creation time:       Fri Mar 27 17:43:49 2020


#       File generated by GOLD software.
#

@<TRIPOS>MOLECULE
AV-unprocessed.smi:3154
    38    39     1
SMALL
NO_CHARGES


@<TRIPOS>ATOM
      1 ****        -2.5383  -1.0943   1.9268 C.3            1 S1                 0.0000
      2 ****        -2.0194  -0.2938   0.7209 C.3            1 S1                 0.0000
      3 ****        -2.4658  -0.8985  -0.6353 C.3            1 S1                 0.0000
      4 ****        -2.0408  -2.2742  -0.8398 N.pl3          1 S1                 0.0000
      5 ****        -2.7223  -3.4363  -0.5426 C.2            1 S1                 0.0000
      6 ****        -1.9282  -4.4817  -0.9180 C.2            1 S1                 0.0000
      7 ****        -0.7676  -3.8507  -1.4469 C.2            1 S1                 0.0000
      8 ****        -0.8403  -2.5304  -1.4038 N.2            1 S1                 0.0000
      9 ****        -0.5671  -0.2030   0.8518 N.3            1 S1                 0.0000
     10 ****         0.0304   0.8271  -0.0099 C.3            1 S1                 0.0000
     11 ****         1.5426   0.9555   0.1924 C.2            1 S1                 0.0000
     12 ****         2.2062   0.0056   0.6108 O.2            1 S1                 0.0000
     13 ****         2.0738   2.1484  -0.1136 N.am           1 S1                 0.0000
     14 ****         3.4540   2.4954  -0.0048 C.3            1 S1                 0.0000
     15 ****         3.7928   3.8931   0.4663 C.3            1 S1                 0.0000
     16 ****         3.9987   3.5204  -0.9760 C.3            1 S1                 0.0000
     17 ****        -3.6224  -1.2039   1.8853 H              1 S1                 0.0000
     18 ****        -2.2968  -0.5928   2.8645 H              1 S1                 0.0000
     19 ****        -2.1045  -2.0940   1.9686 H              1 S1                 0.0000
     20 ****        -2.4330   0.7127   0.8008 H              1 S1                 0.0000
     21 ****        -3.5550  -0.8794  -0.6902 H              1 S1                 0.0000
     22 ****        -2.1261  -0.2956  -1.4773 H              1 S1                 0.0000
     23 ****        -3.7031  -3.4217  -0.0903 H              1 S1                 0.0000
     24 ****        -2.1436  -5.5361  -0.8287 H              1 S1                 0.0000
     25 ****         0.1185  -4.3096  -1.8601 H              1 S1                 0.0000
     26 ****        -0.3423  -0.0311   1.8213 H              1 S1                 0.0000
     27 ****        -0.1412   0.5897  -1.0590 H              1 S1                 0.0000
     28 ****        -0.4413   1.7902   0.1913 H              1 S1                 0.0000
     29 ****         1.4513   2.8666  -0.4543 H              1 S1                 0.0000
     30 ****         4.1457   1.7079   0.2915 H              1 S1                 0.0000
     31 ****         2.9693   4.5660   0.6982 H              1 S1                 0.0000
     32 ****         4.6792   4.0120   1.0861 H              1 S1                 0.0000
     33 ****         5.0228   3.3905  -1.3199 H              1 S1                 0.0000
     34 ****         3.3133   3.9459  -1.7067 H              1 S1                 0.0000
     35 ****        -0.1588  -1.8697  -1.7184 LP             1 S1                 0.0000
     36 ****        -0.1754  -1.0711   0.5469 LP             1 S1                 0.0000
     37 ****         1.7578  -0.8627   0.8228 LP             1 S1                 0.0000
     38 ****         3.1933   0.1029   0.7384 LP             1 S1                 0.0000
@<TRIPOS>BOND
    1    1    2 1     
    2    1   17 1     
    3    1   18 1     
    4    1   19 1     
    5    2    3 1     
    6    2    9 1     
    7    2   20 1     
    8    3    4 1     
    9    3   21 1     
   10    3   22 1     
   11    4    8 1     
   12    4    5 1     
   13    5    6 2     
   14    5   23 1     
   15    6    7 1     
   16    6   24 1     
   17    7    8 2     
   18    7   25 1     
   19    9   10 1     
   20    9   26 1     
   21   10   11 1     
   22   10   27 1     
   23   10   28 1     
   24   11   12 2     
   25   11   13 am    
   26   13   14 1     
   27   13   29 1     
   28   14   16 1     
   29   14   15 1     
   30   14   30 1     
   31   15   16 1     
   32   15   31 1     
   33   15   32 1     
   34   16   33 1     
   35   16   34 1     
   36    8   35 1     
   37    9   36 1     
   38   12   37 1     
   39   12   38 1     
@<TRIPOS>SUBSTRUCTURE
      1 S1             1
@<TRIPOS>SET
LONE_PAIRS      STATIC     ATOMS    <user>   **** ""
4 35 36 37 38
DONOR_HYDROGENS      STATIC     ATOMS    <user>   **** ""
2 26 29
ATOM$BLUE        STATIC     ATOMS    COLORGROUP SYSTEM
4 35 36 37 38
ATOM$RED        STATIC     ATOMS    COLORGROUP SYSTEM
2 26 29
