AV-unprocessed.smi:53|AV-procd|sdf|527|dock5
  -GOLD-   2262016403D 1   1.00000     0.00000
 Structure written by MMmdl.
 30 31  0  0  0  0  0  0  0  0  1 V2000
  154.1961  138.8397  160.0933 N   0  0  0  0  0  0  0  0  0  0  0  0
  153.6488  138.9413  158.8740 C   0  0  0  0  0  0  0  0  0  0  0  0
  152.5021  139.7929  158.6571 C   0  0  0  0  0  0  0  0  0  0  0  0
  152.0032  139.8391  157.4021 C   0  0  0  0  0  0  0  0  0  0  0  0
  152.5417  139.0912  156.3606 N   0  0  0  0  0  0  0  0  0  0  0  0
  152.0046  139.1606  154.9400 C   0  0  2  0  0  0  0  0  0  0  0  0
  150.8792  139.9847  154.8941 O   0  0  0  0  0  0  0  0  0  0  0  0
  149.7069  139.1938  155.0395 C   0  0  1  0  0  0  0  0  0  0  0  0
  148.4837  139.9743  154.5364 C   0  0  0  0  0  0  0  0  0  0  0  0
  148.6705  140.3433  153.1866 O   0  0  0  0  0  0  0  0  0  0  0  0
  150.0483  137.9683  154.1909 C   0  0  2  0  0  0  0  0  0  0  0  0
  149.3126  136.8442  154.6314 O   0  0  0  0  0  0  0  0  0  0  0  0
  151.5416  137.7707  154.4424 C   0  0  1  0  0  0  0  0  0  0  0  0
  152.1940  137.3985  153.2452 O   0  0  0  0  0  0  0  0  0  0  0  0
  153.6892  138.2958  156.6010 C   0  0  0  0  0  0  0  0  0  0  0  0
  154.2358  137.6609  155.6994 O   0  0  0  0  0  0  0  0  0  0  0  0
  154.1781  138.2577  157.8788 N   0  0  0  0  0  0  0  0  0  0  0  0
  152.8121  139.6099  154.3581 H   0  0  0  0  0  0  0  0  0  0  0  0
  149.5815  138.8967  156.0828 H   0  0  0  0  0  0  0  0  0  0  0  0
  149.8484  138.1700  153.1369 H   0  0  0  0  0  0  0  0  0  0  0  0
  151.7164  137.0161  155.2113 H   0  0  0  0  0  0  0  0  0  0  0  0
  155.0007  138.2477  160.2406 H   0  0  0  0  0  0  0  0  0  0  0  0
  153.8014  139.3587  160.8645 H   0  0  0  0  0  0  0  0  0  0  0  0
  152.0413  140.3793  159.4392 H   0  0  0  0  0  0  0  0  0  0  0  0
  151.1564  140.4887  157.2405 H   0  0  0  0  0  0  0  0  0  0  0  0
  147.5676  139.3942  154.6501 H   0  0  0  0  0  0  0  0  0  0  0  0
  148.3610  140.8916  155.1129 H   0  0  0  0  0  0  0  0  0  0  0  0
  148.7719  139.5575  152.6716 H   0  0  0  0  0  0  0  0  0  0  0  0
  149.4971  136.1216  154.0510 H   0  0  0  0  0  0  0  0  0  0  0  0
  151.5358  137.1334  152.6200 H   0  0  0  0  0  0  0  0  0  0  0  0
  1  2  1  0  0  0  0
  1 22  1  0  0  0  0
  1 23  1  0  0  0  0
  2 17  2  0  0  0  0
  2  3  1  0  0  0  0
  3  4  2  0  0  0  0
  3 24  1  0  0  0  0
  4  5  1  0  0  0  0
  4 25  1  0  0  0  0
  5  6  1  0  0  0  0
  5 15  1  0  0  0  0
  6 18  1  0  0  0  0
  6 13  1  0  0  0  0
  6  7  1  0  0  0  0
  7  8  1  0  0  0  0
  8 19  1  0  0  0  0
  8  9  1  0  0  0  0
  8 11  1  0  0  0  0
  9 10  1  0  0  0  0
  9 26  1  0  0  0  0
  9 27  1  0  0  0  0
 10 28  1  0  0  0  0
 11 20  1  0  0  0  0
 11 12  1  0  0  0  0
 11 13  1  0  0  0  0
 12 29  1  0  0  0  0
 13 21  1  0  0  0  0
 13 14  1  0  0  0  0
 14 30  1  0  0  0  0
 15 16  2  0  0  0  0
 15 17  1  0  0  0  0
M  END
> <s_m_source_file>
AV-unprocessed.smi

> <i_m_source_file_index>
53

> <i_lp_mmshare_version>
43012

> <i_f3d_flags>
0

> <s_epik_input>
W05IMl1jMVtjSF1bY0hdbihjKD1PKW4xKVtDQEBIXTJPW0NASF0oW0NIMl1bT0hdKVtDQEBIXShbT0hdKVtDQEBIXTJbT0hd

> <s_epik_cmdline>
J2VwaWtfcHl0aG9uJywgJy1waCcsICc3LjAnLCAnLXRuJywgJzgnLCAnLW1hJywgJzIwMCcsICctbWV0YWxfYmluZGluZycsICctaW1hZScsICc8aW5maWxlLm1hZT4nLCAnLW9tYWUnLCAnPG91dGZpbGUubWFlPic=

> <r_lp_tautomer_probability>
0.99996

> <r_epik_Ionization_Penalty>
0.00069087

> <r_epik_Ionization_Penalty_Charging>
2.61959e-08

> <r_epik_Ionization_Penalty_Neutral>
0.000690844

> <r_epik_State_Penalty>
1.15523e-05

> <r_epik_Charging_Adjusted_Penalty>
1.15785e-05

> <i_epik_Tot_Q>
0

> <i_epik_Tot_abs_Q>
0

> <r_epik_Metal_State_Penalty>
-0

> <b_epik_Metal_Only>
0

> <s_epik_Chemistry_Notes>
This compound contains an acetal/aminal-like group ( X-CH(R)-Y where X, Y are N, S, or O) that may be acid/base labile, releasing an aldehyde.

> <s_lp_Force_Field>
OPLS_2005

> <r_lp_Energy>
26.1744

> <b_lp_Chiralities_Consistent>
1

> <s_lp_Variant>
AV-unprocessed.smi:53-15

> <Gold.Version>
5.8.1

> <Gold.Id.Protein>
6NUR|6NUR_protein|mol2

> <Gold.PLP.Fitness>
45.7364

> <Gold.PLP.PLP>
-28.1316

> <Gold.PLP.part.hbond>
-7.0606

> <Gold.PLP.part.metal>
0.0000

> <Gold.PLP.part.buried>
-2.9533

> <Gold.PLP.part.nonpolar>
-17.9133

> <Gold.PLP.part.repulsive>
0.1153

> <Gold.PLP.ligand.clash>
0.0000

> <Gold.PLP.ligand.torsion>
0.0195

> <Gold.PLP.Chemscore.Hbond>
5.8696

> <Gold.PLP.Chemscore.CHOScore>
0.0000

> <Gold.PLP.Chemscore.Metal>
0.0000

> <Gold.Chemscore.Hbonds>
donor molecule, donor type, donor heavy atom, donor atom, acceptor molecule, acceptor atom, score
      L1  H    10    28       P1  7957  0.14
      L1  H    12    29       P1  7948  0.22
      L1  H    14    30       P1  7949  0.86
      P1  H  7989  7998       L1     7  0.45
      P1  H  7997  8010       L1    17  0.01
      P1  H 10752 10764       L1    14  1.00
      P1  H 10752 10765       L1    16  0.02

> <Gold.PLP.Chemscore.Internal.Correction>
0.0350

> <Gold.Rescore>
     Score         DG    S(hbond)    S(metal)    S(lipo)     H(rot)  DE(clash)    DE(int)     intcor
     14.08     -14.23       4.14        0.00      37.83       3.71       0.01       0.15       ----

> <Gold.Chemscore.Fitness>
14.0780

> <Gold.Chemscore.DG>
-14.2345

> <Gold.Chemscore.ZeroCoef>
-5.4800

> <Gold.Chemscore.Hbond>
4.1390

> <Gold.Chemscore.Metal>
0.0000

> <Gold.Chemscore.Lipo>
37.8344

> <Gold.Chemscore.Internal_Hbond>
0.0000

> <Gold.Chemscore.DEClash>
0.0106

> <Gold.Chemscore.DEInternal>
0.1459

> <Gold.Chemscore.Rot>
3.7095

> <Gold.Chemscore.Internal.Correction>
   9.000000E+99

> <Gold.Chemscore.Hbonds>
donor molecule, donor type, donor heavy atom, donor atom, acceptor molecule, acceptor atom, score
      L1  H    10    28       P1  7957  0.15
      L1  H    12    29       P1  7948  0.15
      L1  H    14    30       P1  7949  0.81
      P1  H  7989  7998       L1     7  0.02
      P1  H  8011  8017       L1    10  0.01
      P1  H 10752 10764       L1    14  0.25
      P1  H 10752 10765       L1    16  0.03

> <Gold.Chemscore.Hbond.Weighted>
-13.8243

> <Gold.Chemscore.Metal.Weighted>
-0.0000

> <Gold.Chemscore.Lipo.Weighted>
-4.4266

> <Gold.Chemscore.Internal_Hbond.Weighted>
0.0000

> <Gold.Chemscore.DEClash.Weighted>
0.0106

> <Gold.Chemscore.DEInternal.Weighted>
0.1459

> <Gold.Chemscore.Rot.Weighted>
9.4964

> <Gold.Chemscore.Internal.Correction.Weighted>
   9.000000E+99

> <Gold.Protein.RotatedTorsions>
[ 6907 6896 6895 6894 ] final  119.70 input  -60.11 | X-H torsion
[ 7974 7965 7964 7962 ] final  -59.95 input  175.53 | X-H torsion
[ 8008 7997 7996 7995 ] final  -33.29 input   59.86 | X-H torsion
[ 10167 10162 10161 10158 ] final  -82.85 input  -65.29 | X-H torsion
[ 10718 10713 10712 10709 ] final  -35.80 input   66.30 | X-H torsion
[ 10763 10752 10751 10750 ] final -113.08 input  -60.55 | X-H torsion
[ 11005 11000 10999 10996 ] final -110.64 input  -57.11 | X-H torsion

> <Gold.Protein.ActiveResidues>
 VAL166  LYS551  ARG553  GLY616  TRP617  ASP618  TYR619  PRO620  LYS621  CYS622 
 ASP623  PHE694  ASN695  SER759  ASP760  ASP761  ALA762  ILE779  LEU786  VAL792 
 PHE793  MET794  SER795  GLU796  ALA797  LYS798  CYS799  TRP800  GLU811  SER814 

> <Gold.Protein.RotatedAtoms>
  152.4453  133.7524  159.6701 H   0  0  0  0  0  0  0  0  0  0  0  0  # atno 6907 bound_to 6896
  150.8351  133.8016  159.3089 H   0  0  0  0  0  0  0  0  0  0  0  0  # atno 6908 bound_to 6896
  151.5658  135.1066  160.0035 H   0  0  0  0  0  0  0  0  0  0  0  0  # atno 6909 bound_to 6896
  145.8214  140.8538  143.0131 H   0  0  0  0  0  0  0  0  0  0  0  0  # atno 7974 bound_to 7965
  154.4153  140.1714  156.1864 H   0  0  0  0  0  0  0  0  0  0  0  0  # atno 8008 bound_to 7997
  155.9639  140.3391  155.6492 H   0  0  0  0  0  0  0  0  0  0  0  0  # atno 8009 bound_to 7997
  155.6712  140.0712  157.2510 H   0  0  0  0  0  0  0  0  0  0  0  0  # atno 8010 bound_to 7997
  140.4281  143.2559  151.8797 H   0  0  0  0  0  0  0  0  0  0  0  0  # atno 10167 bound_to 10162
  156.3343  130.4284  149.7844 H   0  0  0  0  0  0  0  0  0  0  0  0  # atno 10718 bound_to 10713
  154.8380  135.4467  154.1294 H   0  0  0  0  0  0  0  0  0  0  0  0  # atno 10763 bound_to 10752
  153.2508  135.6926  153.7687 H   0  0  0  0  0  0  0  0  0  0  0  0  # atno 10764 bound_to 10752
  153.7000  135.3373  155.3198 H   0  0  0  0  0  0  0  0  0  0  0  0  # atno 10765 bound_to 10752
  141.0780  133.9268  157.2349 H   0  0  0  0  0  0  0  0  0  0  0  0  # atno 11005 bound_to 11000
  144.6747  140.0538  143.7478 LP  0  0  0  0  0  0  0  0  0  0  0  0  # atno 17320 bound_to 7965
  145.9671  139.2842  143.1121 LP  0  0  0  0  0  0  0  0  0  0  0  0  # atno 17321 bound_to 7965
  139.4784  144.5364  151.8592 LP  0  0  0  0  0  0  0  0  0  0  0  0  # atno 17342 bound_to 10162
  140.4458  144.1924  150.5894 LP  0  0  0  0  0  0  0  0  0  0  0  0  # atno 17343 bound_to 10162
  156.5104  130.8169  151.3167 LP  0  0  0  0  0  0  0  0  0  0  0  0  # atno 17370 bound_to 10713
  157.7436  130.9915  150.2605 LP  0  0  0  0  0  0  0  0  0  0  0  0  # atno 17371 bound_to 10713
  139.9593  135.0158  156.9216 LP  0  0  0  0  0  0  0  0  0  0  0  0  # atno 17394 bound_to 11000
  140.5531  134.0608  155.7375 LP  0  0  0  0  0  0  0  0  0  0  0  0  # atno 17395 bound_to 11000

$$$$
