AV-unprocessed.smi:99|AV-procd|sdf|892|dock10
  -GOLD-   2262017383D 1   1.00000     0.00000
 Structure written by MMmdl.
 52 55  0  0  0  0  0  0  0  0  2 V2000
  153.7201  140.7193  160.6674 O   0  0  0  0  0  0  0  0  0  0  0  0
  153.0587  141.1169  159.7062 C   0  0  0  0  0  0  0  0  0  0  0  0
  152.6863  140.3288  158.6802 O   0  0  0  0  0  0  0  0  0  0  0  0
  152.4609  138.9431  158.8910 C   0  0  0  0  0  0  0  0  0  0  0  0
  151.1083  138.5284  158.2959 C   0  0  1  0  0  0  0  0  0  0  0  0
  151.0406  138.9540  156.9414 O   0  0  0  0  0  0  0  0  0  0  0  0
  150.8894  137.8755  156.0718 C   0  0  2  0  0  0  0  0  0  0  0  0
  149.6914  138.1485  155.1839 N   0  0  0  0  0  0  0  0  0  0  0  0
  148.6727  137.2130  155.1349 C   0  0  0  0  0  0  0  0  0  0  0  0
  147.5946  137.3832  154.3422 C   0  0  0  0  0  0  0  0  0  0  0  0
  147.5008  138.5766  153.5072 C   0  0  0  0  0  0  0  0  0  0  0  0
  146.5074  138.7327  152.7998 O   0  0  0  0  0  0  0  0  0  0  0  0
  148.5297  139.4708  153.5492 N   0  5  0  0  0  0  0  0  0  0  0  0
  149.6265  139.2968  154.3431 C   0  0  0  0  0  0  0  0  0  0  0  0
  150.5650  140.0909  154.3610 O   0  0  0  0  0  0  0  0  0  0  0  0
  150.7459  136.5753  156.8855 C   0  0  1  0  0  0  0  0  0  0  0  0
  151.7861  135.6604  156.6077 O   0  0  0  0  0  0  0  0  0  0  0  0
  150.8457  137.0171  158.3443 C   0  0  2  0  0  0  0  0  0  0  0  0
  149.6305  136.7614  159.0380 O   0  0  0  0  0  0  0  0  0  0  0  0
  149.1601  135.5048  159.1776 C   0  0  0  0  0  0  0  0  0  0  0  0
  149.4431  134.5795  158.4136 O   0  0  0  0  0  0  0  0  0  0  0  0
  148.2580  135.3548  160.3551 C   0  0  0  0  0  0  0  0  0  0  0  0
  147.6866  134.0916  160.6352 C   0  0  0  0  0  0  0  0  0  0  0  0
  146.8292  133.9214  161.7397 C   0  0  0  0  0  0  0  0  0  0  0  0
  146.5308  135.0131  162.5758 C   0  0  0  0  0  0  0  0  0  0  0  0
  147.0908  136.2755  162.3059 C   0  0  0  0  0  0  0  0  0  0  0  0
  147.9496  136.4474  161.2029 C   0  0  0  0  0  0  0  0  0  0  0  0
  152.5904  142.5247  159.5551 C   0  0  0  0  0  0  0  0  0  0  0  0
  152.5841  143.3781  160.6831 C   0  0  0  0  0  0  0  0  0  0  0  0
  152.1496  144.7131  160.5703 C   0  0  0  0  0  0  0  0  0  0  0  0
  151.7136  145.2102  159.3287 C   0  0  0  0  0  0  0  0  0  0  0  0
  151.7134  144.3708  158.1994 C   0  0  0  0  0  0  0  0  0  0  0  0
  152.1491  143.0359  158.3098 C   0  0  0  0  0  0  0  0  0  0  0  0
  153.2578  138.3668  158.4184 H   0  0  0  0  0  0  0  0  0  0  0  0
  152.4877  138.7226  159.9588 H   0  0  0  0  0  0  0  0  0  0  0  0
  150.3252  139.0627  158.8358 H   0  0  0  0  0  0  0  0  0  0  0  0
  151.7512  137.8508  155.4033 H   0  0  0  0  0  0  0  0  0  0  0  0
  148.7310  136.3238  155.7449 H   0  0  0  0  0  0  0  0  0  0  0  0
  146.8089  136.6423  154.3217 H   0  0  0  0  0  0  0  0  0  0  0  0
  149.7968  136.0851  156.6643 H   0  0  0  0  0  0  0  0  0  0  0  0
  152.0843  135.2927  157.4258 H   0  0  0  0  0  0  0  0  0  0  0  0
  151.6696  136.5165  158.8566 H   0  0  0  0  0  0  0  0  0  0  0  0
  147.9005  133.2393  160.0064 H   0  0  0  0  0  0  0  0  0  0  0  0
  146.3995  132.9518  161.9446 H   0  0  0  0  0  0  0  0  0  0  0  0
  145.8721  134.8828  163.4218 H   0  0  0  0  0  0  0  0  0  0  0  0
  146.8607  137.1157  162.9444 H   0  0  0  0  0  0  0  0  0  0  0  0
  148.3587  137.4309  161.0217 H   0  0  0  0  0  0  0  0  0  0  0  0
  152.9140  143.0187  161.6472 H   0  0  0  0  0  0  0  0  0  0  0  0
  152.1515  145.3561  161.4380 H   0  0  0  0  0  0  0  0  0  0  0  0
  151.3799  146.2339  159.2428 H   0  0  0  0  0  0  0  0  0  0  0  0
  151.3793  144.7508  157.2453 H   0  0  0  0  0  0  0  0  0  0  0  0
  152.1348  142.4180  157.4239 H   0  0  0  0  0  0  0  0  0  0  0  0
  1  2  2  0  0  0  0
  2  3  1  0  0  0  0
  2 28  1  0  0  0  0
  3  4  1  0  0  0  0
  4  5  1  0  0  0  0
  4 34  1  0  0  0  0
  4 35  1  0  0  0  0
  5 18  1  0  0  0  0
  5  6  1  0  0  0  0
  5 36  1  0  0  0  0
  6  7  1  0  0  0  0
  7  8  1  0  0  0  0
  7 16  1  0  0  0  0
  7 37  1  0  0  0  0
  8 14  1  0  0  0  0
  8  9  1  0  0  0  0
  9 10  2  0  0  0  0
  9 38  1  0  0  0  0
 10 11  1  0  0  0  0
 10 39  1  0  0  0  0
 11 12  2  0  0  0  0
 11 13  1  0  0  0  0
 13 14  1  0  0  0  0
 14 15  2  0  0  0  0
 16 17  1  0  0  0  0
 16 18  1  0  0  0  0
 16 40  1  0  0  0  0
 17 41  1  0  0  0  0
 18 19  1  0  0  0  0
 18 42  1  0  0  0  0
 19 20  1  0  0  0  0
 20 21  2  0  0  0  0
 20 22  1  0  0  0  0
 22 27  1  0  0  0  0
 22 23  2  0  0  0  0
 23 24  1  0  0  0  0
 23 43  1  0  0  0  0
 24 25  2  0  0  0  0
 24 44  1  0  0  0  0
 25 26  1  0  0  0  0
 25 45  1  0  0  0  0
 26 27  2  0  0  0  0
 26 46  1  0  0  0  0
 27 47  1  0  0  0  0
 28 33  1  0  0  0  0
 28 29  2  0  0  0  0
 29 30  1  0  0  0  0
 29 48  1  0  0  0  0
 30 31  2  0  0  0  0
 30 49  1  0  0  0  0
 31 32  1  0  0  0  0
 31 50  1  0  0  0  0
 32 33  2  0  0  0  0
 32 51  1  0  0  0  0
 33 52  1  0  0  0  0
M  CHG  1  13  -1
M  END
> <s_m_source_file>
AV-unprocessed.smi

> <i_m_source_file_index>
99

> <i_lp_mmshare_version>
43012

> <i_f3d_flags>
0

> <s_epik_input>
W2NIXTFbY0hdW2NIXVtjSF1bY0hdYzFDKD1PKU9bQ0gyXVtDQEBIXTJPW0NAQEhdKG4zW2NIXVtjSF1jKD1PKVtuSF1jMz1PKVtDQEBIXShbT0hdKVtDQEhdMk9DKD1PKWM0W2NIXVtjSF1bY0hdW2NIXVtjSF00

> <s_epik_cmdline>
J2VwaWtfcHl0aG9uJywgJy1waCcsICc3LjAnLCAnLXRuJywgJzgnLCAnLW1hJywgJzIwMCcsICctbWV0YWxfYmluZGluZycsICctaW1hZScsICc8aW5maWxlLm1hZT4nLCAnLW9tYWUnLCAnPG91dGZpbGUubWFlPic=

> <r_lp_tautomer_probability>
1

> <r_epik_Ionization_Penalty>
2.89159

> <r_epik_Ionization_Penalty_Charging>
2.1077e-08

> <r_epik_Ionization_Penalty_Neutral>
2.89159

> <r_epik_State_Penalty>
2.88671

> <r_epik_Charging_Adjusted_Penalty>
2.88671

> <i_epik_Tot_Q>
-1

> <i_epik_Tot_abs_Q>
1

> <r_epik_Metal_State_Penalty>
0.0727308

> <b_epik_Metal_Only>
1

> <s_epik_Chemistry_Notes>
This compound has an ester and may undergo hydrolysis at high or low pH. This compound contains an acetal/aminal-like group ( X-CH(R)-Y where X, Y are N, S, or O) that may be acid/base labile, releasing an aldehyde.

> <s_lp_Force_Field>
OPLS_2005

> <r_lp_Energy>
36.8261

> <b_lp_Chiralities_Consistent>
1

> <s_lp_Variant>
AV-unprocessed.smi:99-28

> <Gold.Version>
5.8.1

> <Gold.Id.Protein>
6NUR|6NUR_protein|mol2

> <Gold.PLP.Fitness>
59.7328

> <Gold.PLP.PLP>
-54.7566

> <Gold.PLP.part.hbond>
-2.5964

> <Gold.PLP.part.metal>
0.0000

> <Gold.PLP.part.buried>
-6.1372

> <Gold.PLP.part.nonpolar>
-48.7815

> <Gold.PLP.part.repulsive>
2.8987

> <Gold.PLP.ligand.clash>
0.0000

> <Gold.PLP.ligand.torsion>
1.2366

> <Gold.PLP.Chemscore.Hbond>
2.4163

> <Gold.PLP.Chemscore.CHOScore>
0.0000

> <Gold.PLP.Chemscore.Metal>
0.0000

> <Gold.Chemscore.Hbonds>
donor molecule, donor type, donor heavy atom, donor atom, acceptor molecule, acceptor atom, score
      P1  H  6896  6909       L1    21  0.50
      P1  H  7989  7998       L1    15  1.00
      P1  H 10752 10764       L1    17  0.80

> <Gold.PLP.Chemscore.Internal.Correction>
0.2006

> <Gold.Rescore>
     Score         DG    S(hbond)    S(metal)    S(lipo)     H(rot)  DE(clash)    DE(int)     intcor
     13.97     -17.22       1.19        0.00     134.79       3.13       0.46       2.79       ----

> <Gold.Chemscore.Fitness>
13.9717

> <Gold.Chemscore.DG>
-17.2166

> <Gold.Chemscore.ZeroCoef>
-5.4800

> <Gold.Chemscore.Hbond>
1.1950

> <Gold.Chemscore.Metal>
0.0000

> <Gold.Chemscore.Lipo>
134.7857

> <Gold.Chemscore.Internal_Hbond>
0.0000

> <Gold.Chemscore.DEClash>
0.4575

> <Gold.Chemscore.DEInternal>
2.7875

> <Gold.Chemscore.Rot>
3.1346

> <Gold.Chemscore.Internal.Correction>
   9.000000E+99

> <Gold.Chemscore.Hbonds>
donor molecule, donor type, donor heavy atom, donor atom, acceptor molecule, acceptor atom, score
      P1  H  6896  6909       L1    21  0.02
      P1  H  7989  7998       L1    15  0.97
      P1  H 10752 10764       L1    17  0.74

> <Gold.Chemscore.Hbond.Weighted>
-3.9912

> <Gold.Chemscore.Metal.Weighted>
-0.0000

> <Gold.Chemscore.Lipo.Weighted>
-15.7699

> <Gold.Chemscore.Internal_Hbond.Weighted>
0.0000

> <Gold.Chemscore.DEClash.Weighted>
0.4575

> <Gold.Chemscore.DEInternal.Weighted>
2.7875

> <Gold.Chemscore.Rot.Weighted>
8.0246

> <Gold.Chemscore.Internal.Correction.Weighted>
   9.000000E+99

> <Gold.Protein.RotatedTorsions>
[ 6907 6896 6895 6894 ] final   22.71 input  -60.11 | X-H torsion
[ 7974 7965 7964 7962 ] final  -72.20 input  175.53 | X-H torsion
[ 8008 7997 7996 7995 ] final  -80.02 input   59.86 | X-H torsion
[ 10167 10162 10161 10158 ] final -159.01 input  -65.29 | X-H torsion
[ 10718 10713 10712 10709 ] final   -8.27 input   66.30 | X-H torsion
[ 10763 10752 10751 10750 ] final  -40.80 input  -60.55 | X-H torsion
[ 11005 11000 10999 10996 ] final  160.79 input  -57.11 | X-H torsion

> <Gold.Protein.ActiveResidues>
 VAL166  LYS551  ARG553  GLY616  TRP617  ASP618  TYR619  PRO620  LYS621  CYS622 
 ASP623  PHE694  ASN695  SER759  ASP760  ASP761  ALA762  ILE779  LEU786  VAL792 
 PHE793  MET794  SER795  GLU796  ALA797  LYS798  CYS799  TRP800  GLU811  SER814 

> <Gold.Protein.RotatedAtoms>
  151.9312  135.0255  160.0529 H   0  0  0  0  0  0  0  0  0  0  0  0  # atno 6907 bound_to 6896
  152.2116  133.4911  159.5122 H   0  0  0  0  0  0  0  0  0  0  0  0  # atno 6908 bound_to 6896
  150.6977  134.1376  159.4135 H   0  0  0  0  0  0  0  0  0  0  0  0  # atno 6909 bound_to 6896
  145.6682  140.9230  143.0897 H   0  0  0  0  0  0  0  0  0  0  0  0  # atno 7974 bound_to 7965
  154.5842  140.0669  156.9148 H   0  0  0  0  0  0  0  0  0  0  0  0  # atno 8008 bound_to 7997
  155.2408  140.3344  155.4274 H   0  0  0  0  0  0  0  0  0  0  0  0  # atno 8009 bound_to 7997
  156.2211  140.1799  156.7459 H   0  0  0  0  0  0  0  0  0  0  0  0  # atno 8010 bound_to 7997
  139.6648  143.9848  152.2248 H   0  0  0  0  0  0  0  0  0  0  0  0  # atno 10167 bound_to 10162
  156.7051  130.5105  149.5907 H   0  0  0  0  0  0  0  0  0  0  0  0  # atno 10718 bound_to 10713
  153.9519  135.6749  153.4744 H   0  0  0  0  0  0  0  0  0  0  0  0  # atno 10763 bound_to 10752
  153.0880  135.4889  154.8631 H   0  0  0  0  0  0  0  0  0  0  0  0  # atno 10764 bound_to 10752
  154.7320  135.3140  154.8834 H   0  0  0  0  0  0  0  0  0  0  0  0  # atno 10765 bound_to 10752
  140.2094  134.8278  157.3105 H   0  0  0  0  0  0  0  0  0  0  0  0  # atno 11005 bound_to 11000
  144.7066  139.8537  143.7428 LP  0  0  0  0  0  0  0  0  0  0  0  0  # atno 17320 bound_to 7965
  146.1068  139.4068  143.0312 LP  0  0  0  0  0  0  0  0  0  0  0  0  # atno 17321 bound_to 7965
  139.9597  144.6566  150.8091 LP  0  0  0  0  0  0  0  0  0  0  0  0  # atno 17342 bound_to 10162
  140.7595  143.3130  151.2800 LP  0  0  0  0  0  0  0  0  0  0  0  0  # atno 17343 bound_to 10162
  156.1701  130.6431  151.0827 LP  0  0  0  0  0  0  0  0  0  0  0  0  # atno 17370 bound_to 10713
  157.6958  131.0794  150.6973 LP  0  0  0  0  0  0  0  0  0  0  0  0  # atno 17371 bound_to 10713
  140.1967  134.4305  155.7685 LP  0  0  0  0  0  0  0  0  0  0  0  0  # atno 17394 bound_to 11000
  141.2226  133.7052  156.8116 LP  0  0  0  0  0  0  0  0  0  0  0  0  # atno 17395 bound_to 11000

$$$$
