AV-unprocessed.smi:1203|AV-procd|sdf|5033|dock4
  -GOLD-   22720 4 53D 1   1.00000     0.00000
 Structure written by MMmdl.
 39 40  0  0  0  0  0  0  0  0  1 V2000
  155.9616  134.4703  159.4709 C   0  0  0  0  0  0  0  0  0  0  0  0
  155.2048  135.6300  160.6804 S   0  0  0  0  0  0  0  0  0  0  0  0
  153.8477  135.9564  160.2173 O   0  0  0  0  0  0  0  0  0  0  0  0
  155.4100  135.1116  162.0416 O   0  0  0  0  0  0  0  0  0  0  0  0
  156.1734  137.0536  160.5040 N   0  0  0  0  0  0  0  0  0  0  0  0
  157.6342  136.9287  160.6262 C   0  0  0  0  0  0  0  0  0  0  0  0
  158.1275  138.2737  161.1566 C   0  0  0  0  0  0  0  0  0  0  0  0
  156.9382  138.7818  161.9593 C   0  0  0  0  0  0  0  0  0  0  0  0
  155.7204  138.2950  161.1546 C   0  0  1  0  0  0  0  0  0  0  0  0
  155.1827  139.3246  160.1473 C   0  0  0  0  0  0  0  0  0  0  0  0
  155.2170  139.1104  158.9349 O   0  0  0  0  0  0  0  0  0  0  0  0
  154.6767  140.4485  160.6735 N   0  0  0  0  0  0  0  0  0  0  0  0
  154.1125  141.5477  159.9003 C   0  0  0  0  0  0  0  0  0  0  0  0
  153.3561  142.5393  160.8001 C   0  0  0  0  0  0  0  0  0  0  0  0
  152.5067  143.5307  160.0234 C   0  0  0  0  0  0  0  0  0  0  0  0
  152.5474  143.5665  158.6144 C   0  0  0  0  0  0  0  0  0  0  0  0
  151.7523  144.5101  157.9362 C   0  0  0  0  0  0  0  0  0  0  0  0
  150.9462  145.3790  158.6984 C   0  0  0  0  0  0  0  0  0  0  0  0
  150.8955  145.3511  160.0475 N   0  0  0  0  0  0  0  0  0  0  0  0
  151.6608  144.4430  160.6901 C   0  0  0  0  0  0  0  0  0  0  0  0
  155.4033  133.5345  159.4702 H   0  0  0  0  0  0  0  0  0  0  0  0
  156.9963  134.2721  159.7490 H   0  0  0  0  0  0  0  0  0  0  0  0
  155.9302  134.9118  158.4750 H   0  0  0  0  0  0  0  0  0  0  0  0
  157.8753  136.1377  161.3371 H   0  0  0  0  0  0  0  0  0  0  0  0
  158.0828  136.6707  159.6666 H   0  0  0  0  0  0  0  0  0  0  0  0
  159.0351  138.1853  161.7539 H   0  0  0  0  0  0  0  0  0  0  0  0
  158.3346  138.9497  160.3260 H   0  0  0  0  0  0  0  0  0  0  0  0
  156.9332  138.3150  162.9453 H   0  0  0  0  0  0  0  0  0  0  0  0
  156.9700  139.8608  162.1167 H   0  0  0  0  0  0  0  0  0  0  0  0
  154.9139  138.0684  161.8540 H   0  0  0  0  0  0  0  0  0  0  0  0
  154.6824  140.5488  161.6788 H   0  0  0  0  0  0  0  0  0  0  0  0
  154.9243  142.0607  159.3828 H   0  0  0  0  0  0  0  0  0  0  0  0
  153.4403  141.1602  159.1331 H   0  0  0  0  0  0  0  0  0  0  0  0
  152.7135  141.9926  161.4911 H   0  0  0  0  0  0  0  0  0  0  0  0
  154.0690  143.0871  161.4179 H   0  0  0  0  0  0  0  0  0  0  0  0
  153.1797  142.8862  158.0627 H   0  0  0  0  0  0  0  0  0  0  0  0
  151.7604  144.5677  156.8578 H   0  0  0  0  0  0  0  0  0  0  0  0
  150.3247  146.1156  158.2110 H   0  0  0  0  0  0  0  0  0  0  0  0
  151.5994  144.4497  161.7685 H   0  0  0  0  0  0  0  0  0  0  0  0
  1  2  1  0  0  0  0
  1 21  1  0  0  0  0
  1 22  1  0  0  0  0
  1 23  1  0  0  0  0
  2  3  2  0  0  0  0
  2  4  2  0  0  0  0
  2  5  1  0  0  0  0
  5  9  1  0  0  0  0
  5  6  1  0  0  0  0
  6  7  1  0  0  0  0
  6 24  1  0  0  0  0
  6 25  1  0  0  0  0
  7  8  1  0  0  0  0
  7 26  1  0  0  0  0
  7 27  1  0  0  0  0
  8  9  1  0  0  0  0
  8 28  1  0  0  0  0
  8 29  1  0  0  0  0
  9 10  1  0  0  0  0
  9 30  1  0  0  0  0
 10 11  2  0  0  0  0
 10 12  1  0  0  0  0
 12 13  1  0  0  0  0
 12 31  1  0  0  0  0
 13 14  1  0  0  0  0
 13 32  1  0  0  0  0
 13 33  1  0  0  0  0
 14 15  1  0  0  0  0
 14 34  1  0  0  0  0
 14 35  1  0  0  0  0
 15 20  1  0  0  0  0
 15 16  2  0  0  0  0
 16 17  1  0  0  0  0
 16 36  1  0  0  0  0
 17 18  2  0  0  0  0
 17 37  1  0  0  0  0
 18 19  1  0  0  0  0
 18 38  1  0  0  0  0
 19 20  2  0  0  0  0
 20 39  1  0  0  0  0
M  END
> <s_m_source_file>
AV-unprocessed.smi

> <i_m_source_file_index>
1203

> <i_lp_mmshare_version>
43012

> <i_f3d_flags>
0

> <s_epik_input>
W0NIM11TKD1PKSg9TylOMVtDSDJdW0NIMl1bQ0gyXVtDQEhdMUMoPU8pW05IXVtDSDJdW0NIMl1jMltjSF1bY0hdW2NIXW5bY0hdMg==

> <s_epik_cmdline>
J2VwaWtfcHl0aG9uJywgJy1waCcsICc3LjAnLCAnLXRuJywgJzgnLCAnLW1hJywgJzIwMCcsICctbWV0YWxfYmluZGluZycsICctaW1hZScsICc8aW5maWxlLm1hZT4nLCAnLW9tYWUnLCAnPG91dGZpbGUubWFlPic=

> <r_epik_Ionization_Penalty>
0.0126915

> <r_epik_Ionization_Penalty_Charging>
0

> <r_epik_Ionization_Penalty_Neutral>
0.0126915

> <r_epik_State_Penalty>
0.0098379

> <r_epik_Charging_Adjusted_Penalty>
0.0098379

> <i_epik_Tot_Q>
0

> <i_epik_Tot_abs_Q>
0

> <r_epik_Metal_State_Penalty>
0.00962905

> <b_epik_Metal_Only>
0

> <s_lp_Force_Field>
OPLS_2005

> <r_lp_Energy>
6.50252

> <b_lp_Chiralities_Consistent>
1

> <s_lp_Variant>
AV-unprocessed.smi:1203-1

> <Gold.Version>
5.8.1

> <Gold.Id.Protein>
6NUR|6NUR_protein|mol2

> <Gold.PLP.Fitness>
41.2974

> <Gold.PLP.PLP>
-32.6455

> <Gold.PLP.part.hbond>
-2.0000

> <Gold.PLP.part.metal>
0.0000

> <Gold.PLP.part.buried>
-4.6630

> <Gold.PLP.part.nonpolar>
-25.6460

> <Gold.PLP.part.repulsive>
0.2335

> <Gold.PLP.ligand.clash>
0.0000

> <Gold.PLP.ligand.torsion>
0.4193

> <Gold.PLP.Chemscore.Hbond>
2.0000

> <Gold.PLP.Chemscore.CHOScore>
0.9885

> <Gold.PLP.Chemscore.Metal>
0.0000

> <Gold.Chemscore.Hbonds>
donor molecule, donor type, donor heavy atom, donor atom, acceptor molecule, acceptor atom, score
      P1  H  6896  6908       L1     3  1.00
      P1  H  7997  8009       L1    11  1.00
      L1  C    18    38       P1  8029  0.89

> <Gold.PLP.Chemscore.Internal.Correction>
0.5250

> <Gold.Rescore>
     Score         DG    S(hbond)    S(metal)    S(lipo)     H(rot)  DE(clash)    DE(int)     intcor
     18.13     -18.57       2.00        0.00      96.34       1.90       0.07       0.37       ----

> <Gold.Chemscore.Fitness>
18.1296

> <Gold.Chemscore.DG>
-18.5669

> <Gold.Chemscore.ZeroCoef>
-5.4800

> <Gold.Chemscore.Hbond>
1.9990

> <Gold.Chemscore.Metal>
0.0000

> <Gold.Chemscore.Lipo>
96.3396

> <Gold.Chemscore.Internal_Hbond>
0.0000

> <Gold.Chemscore.DEClash>
0.0650

> <Gold.Chemscore.DEInternal>
0.3723

> <Gold.Chemscore.Rot>
1.8990

> <Gold.Chemscore.Internal.Correction>
   9.000000E+99

> <Gold.Chemscore.Hbonds>
donor molecule, donor type, donor heavy atom, donor atom, acceptor molecule, acceptor atom, score
      P1  H  6896  6908       L1     3  1.00
      P1  H  7997  8009       L1    11  1.00

> <Gold.Chemscore.Hbond.Weighted>
-6.6765

> <Gold.Chemscore.Metal.Weighted>
-0.0000

> <Gold.Chemscore.Lipo.Weighted>
-11.2717

> <Gold.Chemscore.Internal_Hbond.Weighted>
0.0000

> <Gold.Chemscore.DEClash.Weighted>
0.0650

> <Gold.Chemscore.DEInternal.Weighted>
0.3723

> <Gold.Chemscore.Rot.Weighted>
4.8613

> <Gold.Chemscore.Internal.Correction.Weighted>
   9.000000E+99

> <Gold.Protein.RotatedTorsions>
[ 6907 6896 6895 6894 ] final  -71.16 input  -60.11 | X-H torsion
[ 7974 7965 7964 7962 ] final  106.66 input  175.53 | X-H torsion
[ 8008 7997 7996 7995 ] final  111.77 input   59.86 | X-H torsion
[ 10167 10162 10161 10158 ] final  -10.37 input  -65.29 | X-H torsion
[ 10718 10713 10712 10709 ] final  119.61 input   66.30 | X-H torsion
[ 10763 10752 10751 10750 ] final   75.04 input  -60.55 | X-H torsion
[ 11005 11000 10999 10996 ] final   99.37 input  -57.11 | X-H torsion

> <Gold.Protein.ActiveResidues>
 VAL166  LYS551  ARG553  GLY616  TRP617  ASP618  TYR619  PRO620  LYS621  CYS622 
 ASP623  PHE694  ASN695  SER759  ASP760  ASP761  ALA762  ILE779  LEU786  VAL792 
 PHE793  MET794  SER795  GLU796  ALA797  LYS798  CYS799  TRP800  GLU811  SER814 

> <Gold.Protein.RotatedAtoms>
  150.7224  134.5348  159.5717 H   0  0  0  0  0  0  0  0  0  0  0  0  # atno 6907 bound_to 6896
  152.2872  134.7759  160.0394 H   0  0  0  0  0  0  0  0  0  0  0  0  # atno 6908 bound_to 6896
  151.8385  133.3384  159.3672 H   0  0  0  0  0  0  0  0  0  0  0  0  # atno 6909 bound_to 6896
  145.3038  139.2561  143.3800 H   0  0  0  0  0  0  0  0  0  0  0  0  # atno 7974 bound_to 7965
  156.2146  140.3013  155.9811 H   0  0  0  0  0  0  0  0  0  0  0  0  # atno 8008 bound_to 7997
  155.2637  140.0431  157.3017 H   0  0  0  0  0  0  0  0  0  0  0  0  # atno 8009 bound_to 7997
  154.5749  140.2359  155.8145 H   0  0  0  0  0  0  0  0  0  0  0  0  # atno 8010 bound_to 7997
  140.7112  143.5756  150.9046 H   0  0  0  0  0  0  0  0  0  0  0  0  # atno 10167 bound_to 10162
  157.5950  131.1059  150.7920 H   0  0  0  0  0  0  0  0  0  0  0  0  # atno 10718 bound_to 10713
  153.0628  135.5003  154.8132 H   0  0  0  0  0  0  0  0  0  0  0  0  # atno 10763 bound_to 10752
  154.6908  135.2984  154.9484 H   0  0  0  0  0  0  0  0  0  0  0  0  # atno 10764 bound_to 10752
  154.0240  135.6738  153.4827 H   0  0  0  0  0  0  0  0  0  0  0  0  # atno 10765 bound_to 10752
  139.8771  134.9092  156.4596 H   0  0  0  0  0  0  0  0  0  0  0  0  # atno 11005 bound_to 11000
  146.3142  140.3558  142.8660 LP  0  0  0  0  0  0  0  0  0  0  0  0  # atno 17320 bound_to 7965
  144.9072  140.7714  143.5830 LP  0  0  0  0  0  0  0  0  0  0  0  0  # atno 17321 bound_to 7965
  139.9482  143.6303  152.3036 LP  0  0  0  0  0  0  0  0  0  0  0  0  # atno 17342 bound_to 10162
  139.6812  144.7655  151.1605 LP  0  0  0  0  0  0  0  0  0  0  0  0  # atno 17343 bound_to 10162
  156.8332  130.5023  149.5329 LP  0  0  0  0  0  0  0  0  0  0  0  0  # atno 17370 bound_to 10713
  156.1011  130.5969  150.9895 LP  0  0  0  0  0  0  0  0  0  0  0  0  # atno 17371 bound_to 10713
  140.8873  133.7873  155.9533 LP  0  0  0  0  0  0  0  0  0  0  0  0  # atno 17394 bound_to 11000
  140.8790  134.2634  157.5153 LP  0  0  0  0  0  0  0  0  0  0  0  0  # atno 17395 bound_to 11000

$$$$
