AV-unprocessed.smi:1047|AV-procd|sdf|4595|dock7
  -GOLD-   22720 3 83D 1   1.00000     0.00000
 Structure written by MMmdl.
 55 57  0  0  0  0  0  0  0  0  1 V2000
  145.9457  143.1031  161.6911 C   0  0  0  0  0  0  0  0  0  0  0  0
  146.7612  144.1192  160.8785 C   0  0  0  0  0  0  0  0  0  0  0  0
  146.5887  144.0306  159.4295 N   0  0  0  0  0  0  0  0  0  0  0  0
  145.1841  144.1688  159.0611 C   0  0  0  0  0  0  0  0  0  0  0  0
  144.9760  144.0713  157.5407 C   0  0  0  0  0  0  0  0  0  0  0  0
  145.5127  142.8406  157.0678 O   0  0  0  0  0  0  0  0  0  0  0  0
  146.9028  142.6959  157.3501 C   0  0  2  0  0  0  0  0  0  0  0  0
  147.3714  141.3483  156.7835 C   0  0  0  0  0  0  0  0  0  0  0  0
  147.1337  141.2772  155.3458 N   0  0  0  0  0  0  0  0  0  0  0  0
  148.2928  141.6475  154.5400 C   0  0  0  0  0  0  0  0  0  0  0  0
  149.5596  140.9188  155.0198 C   0  0  1  0  0  0  0  0  0  0  0  0
  150.1025  140.1940  153.9326 O   0  0  0  0  0  0  0  0  0  0  0  0
  150.6233  141.9028  155.5434 C   0  0  0  0  0  0  0  0  0  0  0  0
  151.3148  141.3964  156.7155 N   0  0  0  0  0  0  0  0  0  0  0  0
  151.7940  140.1520  156.9060 C   0  0  0  0  0  0  0  0  0  0  0  0
  152.3926  139.9010  158.0669 N   0  0  0  0  0  0  0  0  0  0  0  0
  152.2896  141.1260  158.7041 C   0  0  0  0  0  0  0  0  0  0  0  0
  152.7287  141.5347  159.9824 C   0  0  0  0  0  0  0  0  0  0  0  0
  152.5144  142.8565  160.4343 C   0  0  0  0  0  0  0  0  0  0  0  0
  153.0032  143.2531  161.8162 C   0  0  0  0  0  0  0  0  0  0  0  0
  151.8516  143.7935  159.6012 C   0  0  0  0  0  0  0  0  0  0  0  0
  151.6142  145.2203  160.0631 C   0  0  0  0  0  0  0  0  0  0  0  0
  151.4044  143.4011  158.3220 C   0  0  0  0  0  0  0  0  0  0  0  0
  151.6232  142.0831  157.8843 C   0  0  0  0  0  0  0  0  0  0  0  0
  147.1029  142.7791  158.8767 C   0  0  0  0  0  0  0  0  0  0  0  0
  146.2130  143.1552  162.7466 H   0  0  0  0  0  0  0  0  0  0  0  0
  146.1363  142.0845  161.3516 H   0  0  0  0  0  0  0  0  0  0  0  0
  144.8743  143.2895  161.6201 H   0  0  0  0  0  0  0  0  0  0  0  0
  146.5290  145.1292  161.2196 H   0  0  0  0  0  0  0  0  0  0  0  0
  147.8133  143.9568  161.1168 H   0  0  0  0  0  0  0  0  0  0  0  0
  144.5947  143.3943  159.5545 H   0  0  0  0  0  0  0  0  0  0  0  0
  144.8004  145.1261  159.4156 H   0  0  0  0  0  0  0  0  0  0  0  0
  143.9138  144.1138  157.2998 H   0  0  0  0  0  0  0  0  0  0  0  0
  145.4552  144.9072  157.0285 H   0  0  0  0  0  0  0  0  0  0  0  0
  147.4599  143.5052  156.8732 H   0  0  0  0  0  0  0  0  0  0  0  0
  148.4377  141.2248  156.9771 H   0  0  0  0  0  0  0  0  0  0  0  0
  146.8630  140.5325  157.2989 H   0  0  0  0  0  0  0  0  0  0  0  0
  146.8250  140.3426  155.0968 H   0  0  0  0  0  0  0  0  0  0  0  0
  148.1116  141.4502  153.4825 H   0  0  0  0  0  0  0  0  0  0  0  0
  148.4505  142.7232  154.6296 H   0  0  0  0  0  0  0  0  0  0  0  0
  149.3057  140.2182  155.8170 H   0  0  0  0  0  0  0  0  0  0  0  0
  149.5632  140.3442  153.1717 H   0  0  0  0  0  0  0  0  0  0  0  0
  151.3593  142.1224  154.7683 H   0  0  0  0  0  0  0  0  0  0  0  0
  150.1589  142.8531  155.8101 H   0  0  0  0  0  0  0  0  0  0  0  0
  151.6937  139.3857  156.1512 H   0  0  0  0  0  0  0  0  0  0  0  0
  153.2335  140.8203  160.6161 H   0  0  0  0  0  0  0  0  0  0  0  0
  153.7437  144.0502  161.7447 H   0  0  0  0  0  0  0  0  0  0  0  0
  153.4655  142.4111  162.3323 H   0  0  0  0  0  0  0  0  0  0  0  0
  152.1732  143.6052  162.4292 H   0  0  0  0  0  0  0  0  0  0  0  0
  151.0900  145.8019  159.3043 H   0  0  0  0  0  0  0  0  0  0  0  0
  152.5623  145.7174  160.2699 H   0  0  0  0  0  0  0  0  0  0  0  0
  151.0101  145.2338  160.9705 H   0  0  0  0  0  0  0  0  0  0  0  0
  150.8962  144.1031  157.6776 H   0  0  0  0  0  0  0  0  0  0  0  0
  148.1664  142.6828  159.0933 H   0  0  0  0  0  0  0  0  0  0  0  0
  146.6080  141.9325  159.3556 H   0  0  0  0  0  0  0  0  0  0  0  0
  1  2  1  0  0  0  0
  1 26  1  0  0  0  0
  1 27  1  0  0  0  0
  1 28  1  0  0  0  0
  2  3  1  0  0  0  0
  2 29  1  0  0  0  0
  2 30  1  0  0  0  0
  3 25  1  0  0  0  0
  3  4  1  0  0  0  0
  4  5  1  0  0  0  0
  4 31  1  0  0  0  0
  4 32  1  0  0  0  0
  5  6  1  0  0  0  0
  5 33  1  0  0  0  0
  5 34  1  0  0  0  0
  6  7  1  0  0  0  0
  7  8  1  0  0  0  0
  7 25  1  0  0  0  0
  7 35  1  0  0  0  0
  8  9  1  0  0  0  0
  8 36  1  0  0  0  0
  8 37  1  0  0  0  0
  9 10  1  0  0  0  0
  9 38  1  0  0  0  0
 10 11  1  0  0  0  0
 10 39  1  0  0  0  0
 10 40  1  0  0  0  0
 11 12  1  0  0  0  0
 11 13  1  0  0  0  0
 11 41  1  0  0  0  0
 12 42  1  0  0  0  0
 13 14  1  0  0  0  0
 13 43  1  0  0  0  0
 13 44  1  0  0  0  0
 14 24  1  0  0  0  0
 14 15  1  0  0  0  0
 15 16  2  0  0  0  0
 15 45  1  0  0  0  0
 16 17  1  0  0  0  0
 17 24  2  0  0  0  0
 17 18  1  0  0  0  0
 18 19  2  0  0  0  0
 18 46  1  0  0  0  0
 19 20  1  0  0  0  0
 19 21  1  0  0  0  0
 20 47  1  0  0  0  0
 20 48  1  0  0  0  0
 20 49  1  0  0  0  0
 21 22  1  0  0  0  0
 21 23  2  0  0  0  0
 22 50  1  0  0  0  0
 22 51  1  0  0  0  0
 22 52  1  0  0  0  0
 23 24  1  0  0  0  0
 23 53  1  0  0  0  0
 25 54  1  0  0  0  0
 25 55  1  0  0  0  0
M  END
> <s_m_source_file>
AV-unprocessed.smi

> <i_m_source_file_index>
1047

> <i_lp_mmshare_version>
43012

> <i_f3d_flags>
0

> <s_epik_input>
W0NIM11bQ0gyXU4xW0NIMl1bQ0gyXU9bQ0BIXShbQ0gyXTEpW0NIMl1bTkhdW0NIMl1bQ0BIXShbT0hdKVtDSDJdbihbY0hdbjIpYyhjMjMpW2NIXWMoW0NIM10pYyhbY0hdMylbQ0gzXQ==

> <s_epik_cmdline>
J2VwaWtfcHl0aG9uJywgJy1waCcsICc3LjAnLCAnLXRuJywgJzgnLCAnLW1hJywgJzIwMCcsICctbWV0YWxfYmluZGluZycsICctaW1hZScsICc8aW5maWxlLm1hZT4nLCAnLW9tYWUnLCAnPG91dGZpbGUubWFlPic=

> <r_epik_Ionization_Penalty>
2.74124

> <r_epik_Ionization_Penalty_Charging>
0

> <r_epik_Ionization_Penalty_Neutral>
2.74124

> <r_epik_State_Penalty>
2.37482

> <r_epik_Charging_Adjusted_Penalty>
2.37482

> <i_epik_Tot_Q>
0

> <i_epik_Tot_abs_Q>
0

> <r_epik_Metal_State_Penalty>
2.25944

> <b_epik_Metal_Only>
0

> <s_lp_Force_Field>
OPLS_2005

> <r_lp_Energy>
34.1371

> <b_lp_Chiralities_Consistent>
1

> <s_lp_Variant>
AV-unprocessed.smi:1047-36

> <Gold.Version>
5.8.1

> <Gold.Id.Protein>
6NUR|6NUR_protein|mol2

> <Gold.PLP.Fitness>
50.7731

> <Gold.PLP.PLP>
-49.1277

> <Gold.PLP.part.hbond>
-2.0000

> <Gold.PLP.part.metal>
0.0000

> <Gold.PLP.part.buried>
-7.3187

> <Gold.PLP.part.nonpolar>
-38.8495

> <Gold.PLP.part.repulsive>
0.4917

> <Gold.PLP.ligand.clash>
0.0000

> <Gold.PLP.ligand.torsion>
1.7741

> <Gold.PLP.Chemscore.Hbond>
1.6792

> <Gold.PLP.Chemscore.CHOScore>
0.0000

> <Gold.PLP.Chemscore.Metal>
0.0000

> <Gold.Chemscore.Hbonds>
donor molecule, donor type, donor heavy atom, donor atom, acceptor molecule, acceptor atom, score
      L1  H    12    42       P1  7957  0.78
      P1  H  7989  7998       L1    12  0.85

> <Gold.PLP.Chemscore.Internal.Correction>
0.1560

> <Gold.Rescore>
     Score         DG    S(hbond)    S(metal)    S(lipo)     H(rot)  DE(clash)    DE(int)     intcor
     15.34     -18.09       1.37        0.00     123.97       2.52       1.07       1.68       ----

> <Gold.Chemscore.Fitness>
15.3436

> <Gold.Chemscore.DG>
-18.0868

> <Gold.Chemscore.ZeroCoef>
-5.4800

> <Gold.Chemscore.Hbond>
1.3662

> <Gold.Chemscore.Metal>
0.0000

> <Gold.Chemscore.Lipo>
123.9696

> <Gold.Chemscore.Internal_Hbond>
0.0000

> <Gold.Chemscore.DEClash>
1.0678

> <Gold.Chemscore.DEInternal>
1.6755

> <Gold.Chemscore.Rot>
2.5237

> <Gold.Chemscore.Internal.Correction>
   9.000000E+99

> <Gold.Chemscore.Hbonds>
donor molecule, donor type, donor heavy atom, donor atom, acceptor molecule, acceptor atom, score
      L1  H    12    42       P1  7957  0.72
      P1  H  7989  7998       L1    12  0.25

> <Gold.Chemscore.Hbond.Weighted>
-4.5630

> <Gold.Chemscore.Metal.Weighted>
-0.0000

> <Gold.Chemscore.Lipo.Weighted>
-14.5044

> <Gold.Chemscore.Internal_Hbond.Weighted>
0.0000

> <Gold.Chemscore.DEClash.Weighted>
1.0678

> <Gold.Chemscore.DEInternal.Weighted>
1.6755

> <Gold.Chemscore.Rot.Weighted>
6.4607

> <Gold.Chemscore.Internal.Correction.Weighted>
   9.000000E+99

> <Gold.Protein.RotatedTorsions>
[ 6907 6896 6895 6894 ] final  151.89 input  -60.11 | X-H torsion
[ 7974 7965 7964 7962 ] final   85.07 input  175.53 | X-H torsion
[ 8008 7997 7996 7995 ] final  -24.93 input   59.86 | X-H torsion
[ 10167 10162 10161 10158 ] final  -48.39 input  -65.29 | X-H torsion
[ 10718 10713 10712 10709 ] final -163.60 input   66.30 | X-H torsion
[ 10763 10752 10751 10750 ] final   55.81 input  -60.55 | X-H torsion
[ 11005 11000 10999 10996 ] final  -40.63 input  -57.11 | X-H torsion

> <Gold.Protein.ActiveResidues>
 VAL166  LYS551  ARG553  GLY616  TRP617  ASP618  TYR619  PRO620  LYS621  CYS622 
 ASP623  PHE694  ASN695  SER759  ASP760  ASP761  ALA762  ILE779  LEU786  VAL792 
 PHE793  MET794  SER795  GLU796  ALA797  LYS798  CYS799  TRP800  GLU811  SER814 

> <Gold.Protein.RotatedAtoms>
  152.0944  133.4217  159.4558 H   0  0  0  0  0  0  0  0  0  0  0  0  # atno 6907 bound_to 6896
  150.6863  134.2834  159.4646 H   0  0  0  0  0  0  0  0  0  0  0  0  # atno 6908 bound_to 6896
  152.0688  134.9546  160.0625 H   0  0  0  0  0  0  0  0  0  0  0  0  # atno 6909 bound_to 6896
  145.5903  139.2337  143.2303 H   0  0  0  0  0  0  0  0  0  0  0  0  # atno 7974 bound_to 7965
  154.4502  140.1940  156.0541 H   0  0  0  0  0  0  0  0  0  0  0  0  # atno 8008 bound_to 7997
  156.0632  140.3294  155.7459 H   0  0  0  0  0  0  0  0  0  0  0  0  # atno 8009 bound_to 7997
  155.5379  140.0584  157.2866 H   0  0  0  0  0  0  0  0  0  0  0  0  # atno 8010 bound_to 7997
  140.6733  143.2742  151.4065 H   0  0  0  0  0  0  0  0  0  0  0  0  # atno 10167 bound_to 10162
  156.6270  130.8914  151.2969 H   0  0  0  0  0  0  0  0  0  0  0  0  # atno 10718 bound_to 10713
  152.9822  135.5698  154.5128 H   0  0  0  0  0  0  0  0  0  0  0  0  # atno 10763 bound_to 10752
  154.4629  135.2782  155.1702 H   0  0  0  0  0  0  0  0  0  0  0  0  # atno 10764 bound_to 10752
  154.3282  135.6255  153.5592 H   0  0  0  0  0  0  0  0  0  0  0  0  # atno 10765 bound_to 10752
  141.0188  133.6872  156.2347 H   0  0  0  0  0  0  0  0  0  0  0  0  # atno 11005 bound_to 11000
  146.1652  140.6729  142.9259 LP  0  0  0  0  0  0  0  0  0  0  0  0  # atno 17320 bound_to 7965
  144.7354  140.4793  143.6907 LP  0  0  0  0  0  0  0  0  0  0  0  0  # atno 17321 bound_to 7965
  139.6012  144.1292  152.2199 LP  0  0  0  0  0  0  0  0  0  0  0  0  # atno 17342 bound_to 10162
  140.0677  144.5805  150.7215 LP  0  0  0  0  0  0  0  0  0  0  0  0  # atno 17343 bound_to 10162
  157.7211  130.9560  150.1443 LP  0  0  0  0  0  0  0  0  0  0  0  0  # atno 17370 bound_to 10713
  156.2266  130.3678  149.8494 LP  0  0  0  0  0  0  0  0  0  0  0  0  # atno 17371 bound_to 10713
  140.6608  134.4970  157.5583 LP  0  0  0  0  0  0  0  0  0  0  0  0  # atno 17394 bound_to 11000
  139.9133  134.8298  156.1451 LP  0  0  0  0  0  0  0  0  0  0  0  0  # atno 17395 bound_to 11000

$$$$
