AV-unprocessed.smi:270|AV-procd|sdf|2046|dock2
  -GOLD-   2262021273D 1   1.00000     0.00000
 Structure written by MMmdl.
 54 57  0  0  0  0  0  0  0  0  1 V2000
  151.7503  144.8826  158.9302 C   0  0  0  0  0  0  0  0  0  0  0  0
  152.4741  143.5608  158.6192 C   0  0  1  0  0  0  0  0  0  0  0  0
  153.4458  143.2870  159.6274 O   0  0  0  0  0  0  0  0  0  0  0  0
  153.1192  142.0795  160.2970 C   0  0  0  0  0  0  0  0  0  0  0  0
  152.4178  141.2509  159.2299 C   0  0  0  0  0  0  0  0  0  0  0  0
  151.5899  142.2927  158.4916 C   0  0  1  0  0  0  0  0  0  0  0  0
  150.3647  142.4551  159.1884 O   0  0  0  0  0  0  0  0  0  0  0  0
  151.2770  141.8705  157.0358 C   0  0  0  0  0  0  0  0  0  0  0  0
  150.9962  140.4510  156.8904 N   0  0  0  0  0  0  0  0  0  0  0  0
  150.0428  139.7258  157.5681 C   0  0  0  0  0  0  0  0  0  0  0  0
  149.9903  138.4578  157.2662 N   0  0  0  0  0  0  0  0  0  0  0  0
  150.9752  138.2944  156.2987 C   0  0  0  0  0  0  0  0  0  0  0  0
  151.4434  137.1755  155.5499 C   0  0  0  0  0  0  0  0  0  0  0  0
  150.9124  135.8585  155.6722 N   0  0  0  0  0  0  0  0  0  0  0  0
  149.5132  135.7030  155.3017 C   0  0  0  0  0  0  0  0  0  0  0  0
  149.3529  134.8415  156.5580 C   0  0  0  0  0  0  0  0  0  0  0  0
  149.3321  133.4463  156.2986 O   0  0  0  0  0  0  0  0  0  0  0  0
  150.4224  133.0228  155.4950 C   0  0  0  0  0  0  0  0  0  0  0  0
  150.3682  131.4979  155.3477 C   0  0  0  0  0  0  0  0  0  0  0  0
  151.2011  130.8242  155.9557 O   0  0  0  0  0  0  0  0  0  0  0  0
  149.4092  130.9412  154.5710 N   0  0  0  0  0  0  0  0  0  0  0  0
  149.2419  129.4935  154.4152 C   0  0  0  0  0  0  0  0  0  0  0  0
  148.4536  131.7812  153.8444 C   0  0  0  0  0  0  0  0  0  0  0  0
  150.7295  135.3242  157.0169 C   0  0  0  0  0  0  0  0  0  0  0  0
  152.4253  137.4284  154.6430 N   0  0  0  0  0  0  0  0  0  0  0  0
  152.9344  138.6552  154.4983 C   0  0  0  0  0  0  0  0  0  0  0  0
  152.6064  139.7747  155.1436 N   0  0  0  0  0  0  0  0  0  0  0  0
  151.6082  139.5446  156.0422 C   0  0  0  0  0  0  0  0  0  0  0  0
  150.9924  145.1069  158.1797 H   0  0  0  0  0  0  0  0  0  0  0  0
  152.4557  145.7134  158.9453 H   0  0  0  0  0  0  0  0  0  0  0  0
  151.2612  144.8529  159.9041 H   0  0  0  0  0  0  0  0  0  0  0  0
  153.0447  143.6917  157.6995 H   0  0  0  0  0  0  0  0  0  0  0  0
  154.0074  141.5902  160.6970 H   0  0  0  0  0  0  0  0  0  0  0  0
  152.4437  142.2974  161.1256 H   0  0  0  0  0  0  0  0  0  0  0  0
  153.1675  140.8205  158.5643 H   0  0  0  0  0  0  0  0  0  0  0  0
  151.8283  140.4307  159.6417 H   0  0  0  0  0  0  0  0  0  0  0  0
  149.8944  143.1800  158.8058 H   0  0  0  0  0  0  0  0  0  0  0  0
  150.4141  142.4227  156.6615 H   0  0  0  0  0  0  0  0  0  0  0  0
  152.1093  142.1273  156.3791 H   0  0  0  0  0  0  0  0  0  0  0  0
  149.3873  140.1673  158.3047 H   0  0  0  0  0  0  0  0  0  0  0  0
  148.9436  136.6323  155.3488 H   0  0  0  0  0  0  0  0  0  0  0  0
  149.3739  135.1727  154.3593 H   0  0  0  0  0  0  0  0  0  0  0  0
  148.5531  135.1742  157.2216 H   0  0  0  0  0  0  0  0  0  0  0  0
  150.3519  133.4846  154.5086 H   0  0  0  0  0  0  0  0  0  0  0  0
  151.3786  133.3288  155.9211 H   0  0  0  0  0  0  0  0  0  0  0  0
  150.0881  129.0646  153.8774 H   0  0  0  0  0  0  0  0  0  0  0  0
  148.3396  129.2373  153.8595 H   0  0  0  0  0  0  0  0  0  0  0  0
  149.1614  128.9981  155.3831 H   0  0  0  0  0  0  0  0  0  0  0  0
  147.6925  132.1612  154.5265 H   0  0  0  0  0  0  0  0  0  0  0  0
  147.9470  131.2389  153.0459 H   0  0  0  0  0  0  0  0  0  0  0  0
  148.9476  132.6348  153.3772 H   0  0  0  0  0  0  0  0  0  0  0  0
  151.4283  134.5251  157.2655 H   0  0  0  0  0  0  0  0  0  0  0  0
  150.6644  136.0821  157.7991 H   0  0  0  0  0  0  0  0  0  0  0  0
  153.7159  138.7526  153.7591 H   0  0  0  0  0  0  0  0  0  0  0  0
  1  2  1  0  0  0  0
  1 29  1  0  0  0  0
  1 30  1  0  0  0  0
  1 31  1  0  0  0  0
  2  6  1  0  0  0  0
  2  3  1  0  0  0  0
  2 32  1  0  0  0  0
  3  4  1  0  0  0  0
  4  5  1  0  0  0  0
  4 33  1  0  0  0  0
  4 34  1  0  0  0  0
  5  6  1  0  0  0  0
  5 35  1  0  0  0  0
  5 36  1  0  0  0  0
  6  7  1  0  0  0  0
  6  8  1  0  0  0  0
  7 37  1  0  0  0  0
  8  9  1  0  0  0  0
  8 38  1  0  0  0  0
  8 39  1  0  0  0  0
  9 28  1  0  0  0  0
  9 10  1  0  0  0  0
 10 11  2  0  0  0  0
 10 40  1  0  0  0  0
 11 12  1  0  0  0  0
 12 28  2  0  0  0  0
 12 13  1  0  0  0  0
 13 14  1  0  0  0  0
 13 25  2  0  0  0  0
 14 24  1  0  0  0  0
 14 15  1  0  0  0  0
 15 16  1  0  0  0  0
 15 41  1  0  0  0  0
 15 42  1  0  0  0  0
 16 17  1  0  0  0  0
 16 24  1  0  0  0  0
 16 43  1  0  0  0  0
 17 18  1  0  0  0  0
 18 19  1  0  0  0  0
 18 44  1  0  0  0  0
 18 45  1  0  0  0  0
 19 20  2  0  0  0  0
 19 21  1  0  0  0  0
 21 22  1  0  0  0  0
 21 23  1  0  0  0  0
 22 46  1  0  0  0  0
 22 47  1  0  0  0  0
 22 48  1  0  0  0  0
 23 49  1  0  0  0  0
 23 50  1  0  0  0  0
 23 51  1  0  0  0  0
 24 52  1  0  0  0  0
 24 53  1  0  0  0  0
 25 26  1  0  0  0  0
 26 27  2  0  0  0  0
 26 54  1  0  0  0  0
 27 28  1  0  0  0  0
M  END
> <s_m_source_file>
AV-unprocessed.smi

> <i_m_source_file_index>
270

> <i_lp_mmshare_version>
43012

> <i_f3d_flags>
0

> <s_epik_input>
W0NIMl0xW0NIMl1PW0NAQEhdKFtDSDNdKVtDQEBdMShbT0hdKVtDSDJdbihbY0hdbjIpYyhjMjMpbltjSF1uYzNONFtDSDJdW0NIXShbQ0gyXTQpT1tDSDJdQyg9TylOKFtDSDNdKVtDSDNd

> <s_epik_cmdline>
J2VwaWtfcHl0aG9uJywgJy1waCcsICc3LjAnLCAnLXRuJywgJzgnLCAnLW1hJywgJzIwMCcsICctbWV0YWxfYmluZGluZycsICctaW1hZScsICc8aW5maWxlLm1hZT4nLCAnLW9tYWUnLCAnPG91dGZpbGUubWFlPic=

> <r_lp_tautomer_probability>
1

> <r_epik_Ionization_Penalty>
0.00375854

> <r_epik_Ionization_Penalty_Charging>
0

> <r_epik_Ionization_Penalty_Neutral>
0.00375854

> <r_epik_State_Penalty>
-0

> <r_epik_Charging_Adjusted_Penalty>
0

> <i_epik_Tot_Q>
0

> <i_epik_Tot_abs_Q>
0

> <r_epik_Metal_State_Penalty>
-0

> <b_epik_Metal_Only>
0

> <s_lp_Force_Field>
OPLS_2005

> <r_lp_Energy>
55.1289

> <b_lp_Chiralities_Consistent>
1

> <s_lp_Variant>
AV-unprocessed.smi:270-2

> <Gold.Version>
5.8.1

> <Gold.Id.Protein>
6NUR|6NUR_protein|mol2

> <Gold.PLP.Fitness>
53.7554

> <Gold.PLP.PLP>
-48.5924

> <Gold.PLP.part.hbond>
-4.3891

> <Gold.PLP.part.metal>
0.0000

> <Gold.PLP.part.buried>
-7.7751

> <Gold.PLP.part.nonpolar>
-36.4072

> <Gold.PLP.part.repulsive>
0.2137

> <Gold.PLP.ligand.clash>
0.0000

> <Gold.PLP.ligand.torsion>
0.7605

> <Gold.PLP.Chemscore.Hbond>
2.0489

> <Gold.PLP.Chemscore.CHOScore>
0.0000

> <Gold.PLP.Chemscore.Metal>
0.0000

> <Gold.Chemscore.Hbonds>
donor molecule, donor type, donor heavy atom, donor atom, acceptor molecule, acceptor atom, score
      P1  H  7989  7998       L1    27  0.36
      P1  H  7997  8009       L1    27  0.95
      P1  H 10752 10763       L1    25  0.58

> <Gold.PLP.Chemscore.Internal.Correction>
0.5373

> <Gold.Rescore>
     Score         DG    S(hbond)    S(metal)    S(lipo)     H(rot)  DE(clash)    DE(int)     intcor
      9.28     -11.77       1.16        0.00      88.93       3.12       0.13       2.35       ----

> <Gold.Chemscore.Fitness>
9.2814

> <Gold.Chemscore.DG>
-11.7686

> <Gold.Chemscore.ZeroCoef>
-5.4800

> <Gold.Chemscore.Hbond>
1.1617

> <Gold.Chemscore.Metal>
0.0000

> <Gold.Chemscore.Lipo>
88.9269

> <Gold.Chemscore.Internal_Hbond>
0.0000

> <Gold.Chemscore.DEClash>
0.1334

> <Gold.Chemscore.DEInternal>
2.3538

> <Gold.Chemscore.Rot>
3.1234

> <Gold.Chemscore.Internal.Correction>
   9.000000E+99

> <Gold.Chemscore.Hbonds>
donor molecule, donor type, donor heavy atom, donor atom, acceptor molecule, acceptor atom, score
      P1  H  7989  7998       L1    27  0.04
      P1  H  7997  8009       L1    27  0.17
      P1  H 10752 10763       L1    25  0.26

> <Gold.Chemscore.Hbond.Weighted>
-3.8800

> <Gold.Chemscore.Metal.Weighted>
-0.0000

> <Gold.Chemscore.Lipo.Weighted>
-10.4045

> <Gold.Chemscore.Internal_Hbond.Weighted>
0.0000

> <Gold.Chemscore.DEClash.Weighted>
0.1334

> <Gold.Chemscore.DEInternal.Weighted>
2.3538

> <Gold.Chemscore.Rot.Weighted>
7.9959

> <Gold.Chemscore.Internal.Correction.Weighted>
   9.000000E+99

> <Gold.Protein.RotatedTorsions>
[ 6907 6896 6895 6894 ] final  -21.78 input  -60.11 | X-H torsion
[ 7974 7965 7964 7962 ] final -142.59 input  175.53 | X-H torsion
[ 8008 7997 7996 7995 ] final -145.61 input   59.86 | X-H torsion
[ 10167 10162 10161 10158 ] final  -49.80 input  -65.29 | X-H torsion
[ 10718 10713 10712 10709 ] final   24.85 input   66.30 | X-H torsion
[ 10763 10752 10751 10750 ] final   29.21 input  -60.55 | X-H torsion
[ 11005 11000 10999 10996 ] final   -3.94 input  -57.11 | X-H torsion

> <Gold.Protein.ActiveResidues>
 VAL166  LYS551  ARG553  GLY616  TRP617  ASP618  TYR619  PRO620  LYS621  CYS622 
 ASP623  PHE694  ASN695  SER759  ASP760  ASP761  ALA762  ILE779  LEU786  VAL792 
 PHE793  MET794  SER795  GLU796  ALA797  LYS798  CYS799  TRP800  GLU811  SER814 

> <Gold.Protein.RotatedAtoms>
  151.2283  135.0545  159.8977 H   0  0  0  0  0  0  0  0  0  0  0  0  # atno 6907 bound_to 6896
  152.5408  134.0565  159.8143 H   0  0  0  0  0  0  0  0  0  0  0  0  # atno 6908 bound_to 6896
  151.0741  133.5394  159.2656 H   0  0  0  0  0  0  0  0  0  0  0  0  # atno 6909 bound_to 6896
  144.8432  140.5939  143.5439 H   0  0  0  0  0  0  0  0  0  0  0  0  # atno 7974 bound_to 7965
  155.5460  140.0612  157.2860 H   0  0  0  0  0  0  0  0  0  0  0  0  # atno 8008 bound_to 7997
  154.4436  140.1911  156.0682 H   0  0  0  0  0  0  0  0  0  0  0  0  # atno 8009 bound_to 7997
  156.0551  140.3279  155.7399 H   0  0  0  0  0  0  0  0  0  0  0  0  # atno 8010 bound_to 7997
  140.6668  143.2683  151.4267 H   0  0  0  0  0  0  0  0  0  0  0  0  # atno 10167 bound_to 10162
  157.1853  130.6821  149.6129 H   0  0  0  0  0  0  0  0  0  0  0  0  # atno 10718 bound_to 10713
  153.0444  135.6494  154.0856 H   0  0  0  0  0  0  0  0  0  0  0  0  # atno 10763 bound_to 10752
  154.0557  135.2892  155.3335 H   0  0  0  0  0  0  0  0  0  0  0  0  # atno 10764 bound_to 10752
  154.6691  135.5363  153.8180 H   0  0  0  0  0  0  0  0  0  0  0  0  # atno 10765 bound_to 10752
  140.6748  133.9205  155.8517 H   0  0  0  0  0  0  0  0  0  0  0  0  # atno 11005 bound_to 11000
  145.4651  139.1509  143.3845 LP  0  0  0  0  0  0  0  0  0  0  0  0  # atno 17320 bound_to 7965
  146.2721  140.4782  142.8810 LP  0  0  0  0  0  0  0  0  0  0  0  0  # atno 17321 bound_to 7965
  139.5920  144.1478  152.2099 LP  0  0  0  0  0  0  0  0  0  0  0  0  # atno 17342 bound_to 10162
  140.0836  144.5680  150.7104 LP  0  0  0  0  0  0  0  0  0  0  0  0  # atno 17343 bound_to 10162
  155.9719  130.4633  150.6176 LP  0  0  0  0  0  0  0  0  0  0  0  0  # atno 17370 bound_to 10713
  157.3913  131.0796  151.1391 LP  0  0  0  0  0  0  0  0  0  0  0  0  # atno 17371 bound_to 10713
  141.0364  134.0684  157.3954 LP  0  0  0  0  0  0  0  0  0  0  0  0  # atno 17394 bound_to 11000
  139.8970  135.0148  156.7079 LP  0  0  0  0  0  0  0  0  0  0  0  0  # atno 17395 bound_to 11000

$$$$
