AV-unprocessed.smi:2866|AV-procd|sdf|11020|dock2
  -GOLD-   2272015483D 1   1.00000     0.00000
 Structure written by MMmdl.
 41 43  0  0  0  0  0  0  0  0  1 V2000
  151.0697  145.4169  159.3765 C   0  0  0  0  0  0  0  0  0  0  0  0
  151.8674  144.3009  160.0274 C   0  0  0  0  0  0  0  0  0  0  0  0
  152.1167  144.3550  161.4172 C   0  0  0  0  0  0  0  0  0  0  0  0
  152.8489  143.3341  162.0619 C   0  0  0  0  0  0  0  0  0  0  0  0
  153.2002  143.1830  163.3925 N   0  0  0  0  0  0  0  0  0  0  0  0
  153.8695  142.0342  163.3642 C   0  0  0  0  0  0  0  0  0  0  0  0
  153.9944  141.4225  162.1709 N   0  0  0  0  0  0  0  0  0  0  0  0
  154.6745  140.1682  161.9016 C   0  0  0  0  0  0  0  0  0  0  0  0
  155.6659  140.2779  160.7234 C   0  0  1  0  0  0  0  0  0  0  0  0
  156.9868  140.3964  161.2137 O   0  0  0  0  0  0  0  0  0  0  0  0
  155.6178  139.0723  159.7638 C   0  0  0  0  0  0  0  0  0  0  0  0
  154.2990  138.8483  159.1991 N   0  0  0  0  0  0  0  0  0  0  0  0
  153.2156  138.2202  159.7740 C   0  0  0  0  0  0  0  0  0  0  0  0
  152.2037  138.2381  158.8578 C   0  0  0  0  0  0  0  0  0  0  0  0
  152.7681  138.9016  157.7297 C   0  0  0  0  0  0  0  0  0  0  0  0
  152.1183  139.2141  156.4073 C   0  0  0  0  0  0  0  0  0  0  0  0
  152.8211  138.6789  155.4091 F   0  0  0  0  0  0  0  0  0  0  0  0
  150.8834  138.7132  156.3789 F   0  0  0  0  0  0  0  0  0  0  0  0
  152.0570  140.5338  156.2300 F   0  0  0  0  0  0  0  0  0  0  0  0
  154.0271  139.2604  157.9425 N   0  0  0  0  0  0  0  0  0  0  0  0
  153.3317  142.2506  161.2714 C   0  0  0  0  0  0  0  0  0  0  0  0
  153.0927  142.1870  159.8873 C   0  0  0  0  0  0  0  0  0  0  0  0
  152.3565  143.2135  159.2595 C   0  0  0  0  0  0  0  0  0  0  0  0
  152.0984  143.1322  157.7654 C   0  0  0  0  0  0  0  0  0  0  0  0
  150.7814  146.1763  160.1039 H   0  0  0  0  0  0  0  0  0  0  0  0
  150.1588  145.0220  158.9259 H   0  0  0  0  0  0  0  0  0  0  0  0
  151.6579  145.9051  158.5991 H   0  0  0  0  0  0  0  0  0  0  0  0
  151.7440  145.1824  162.0029 H   0  0  0  0  0  0  0  0  0  0  0  0
  154.2923  141.6100  164.2634 H   0  0  0  0  0  0  0  0  0  0  0  0
  155.1901  139.8481  162.8078 H   0  0  0  0  0  0  0  0  0  0  0  0
  153.9144  139.4139  161.6952 H   0  0  0  0  0  0  0  0  0  0  0  0
  155.4464  141.1864  160.1610 H   0  0  0  0  0  0  0  0  0  0  0  0
  157.3486  141.2133  160.9047 H   0  0  0  0  0  0  0  0  0  0  0  0
  156.3208  139.2136  158.9414 H   0  0  0  0  0  0  0  0  0  0  0  0
  155.9258  138.1648  160.2852 H   0  0  0  0  0  0  0  0  0  0  0  0
  153.2533  137.8190  160.7761 H   0  0  0  0  0  0  0  0  0  0  0  0
  151.2085  137.8352  158.9742 H   0  0  0  0  0  0  0  0  0  0  0  0
  153.4693  141.3521  159.3150 H   0  0  0  0  0  0  0  0  0  0  0  0
  152.5421  142.2348  157.3330 H   0  0  0  0  0  0  0  0  0  0  0  0
  152.5262  143.9956  157.2553 H   0  0  0  0  0  0  0  0  0  0  0  0
  151.0273  143.1060  157.5637 H   0  0  0  0  0  0  0  0  0  0  0  0
  1  2  1  0  0  0  0
  1 25  1  0  0  0  0
  1 26  1  0  0  0  0
  1 27  1  0  0  0  0
  2 23  1  0  0  0  0
  2  3  2  0  0  0  0
  3  4  1  0  0  0  0
  3 28  1  0  0  0  0
  4 21  2  0  0  0  0
  4  5  1  0  0  0  0
  5  6  2  0  0  0  0
  6  7  1  0  0  0  0
  6 29  1  0  0  0  0
  7  8  1  0  0  0  0
  7 21  1  0  0  0  0
  8  9  1  0  0  0  0
  8 30  1  0  0  0  0
  8 31  1  0  0  0  0
  9 10  1  0  0  0  0
  9 11  1  0  0  0  0
  9 32  1  0  0  0  0
 10 33  1  0  0  0  0
 11 12  1  0  0  0  0
 11 34  1  0  0  0  0
 11 35  1  0  0  0  0
 12 20  1  0  0  0  0
 12 13  1  0  0  0  0
 13 14  2  0  0  0  0
 13 36  1  0  0  0  0
 14 15  1  0  0  0  0
 14 37  1  0  0  0  0
 15 16  1  0  0  0  0
 15 20  2  0  0  0  0
 16 17  1  0  0  0  0
 16 18  1  0  0  0  0
 16 19  1  0  0  0  0
 21 22  1  0  0  0  0
 22 23  2  0  0  0  0
 22 38  1  0  0  0  0
 23 24  1  0  0  0  0
 24 39  1  0  0  0  0
 24 40  1  0  0  0  0
 24 41  1  0  0  0  0
M  END
> <s_m_source_file>
AV-unprocessed.smi

> <i_m_source_file_index>
2866

> <i_lp_mmshare_version>
43012

> <i_f3d_flags>
0

> <s_epik_input>
W0NIM11jKFtjSF0xKWMoW0NIM10pW2NIXWMoYzEyKW4oW2NIXW4yKVtDSDJdW0NASF0oW09IXSlbQ0gyXW4zW2NIXVtjSF1jKG4zKUMoRikoRilG

> <s_epik_cmdline>
J2VwaWtfcHl0aG9uJywgJy1waCcsICc3LjAnLCAnLXRuJywgJzgnLCAnLW1hJywgJzIwMCcsICctbWV0YWxfYmluZGluZycsICctaW1hZScsICc8aW5maWxlLm1hZT4nLCAnLW9tYWUnLCAnPG91dGZpbGUubWFlPic=

> <r_lp_tautomer_probability>
1

> <r_epik_Ionization_Penalty>
0.1021

> <r_epik_Ionization_Penalty_Charging>
0

> <r_epik_Ionization_Penalty_Neutral>
0.1021

> <r_epik_State_Penalty>
0.0920694

> <r_epik_Charging_Adjusted_Penalty>
0.0920694

> <i_epik_Tot_Q>
0

> <i_epik_Tot_abs_Q>
0

> <r_epik_Metal_State_Penalty>
0.0784291

> <b_epik_Metal_Only>
0

> <s_lp_Force_Field>
OPLS_2005

> <r_lp_Energy>
10.7654

> <b_lp_Chiralities_Consistent>
1

> <s_lp_Variant>
AV-unprocessed.smi:2866-2

> <Gold.Version>
5.8.1

> <Gold.Id.Protein>
6NUR|6NUR_protein|mol2

> <Gold.PLP.Fitness>
52.5550

> <Gold.PLP.PLP>
-51.4828

> <Gold.PLP.part.hbond>
-2.0000

> <Gold.PLP.part.metal>
0.0000

> <Gold.PLP.part.buried>
-5.4212

> <Gold.PLP.part.nonpolar>
-44.4918

> <Gold.PLP.part.repulsive>
0.1316

> <Gold.PLP.ligand.clash>
0.0000

> <Gold.PLP.ligand.torsion>
0.9895

> <Gold.PLP.Chemscore.Hbond>
1.0000

> <Gold.PLP.Chemscore.CHOScore>
0.0000

> <Gold.PLP.Chemscore.Metal>
0.0000

> <Gold.Chemscore.Hbonds>
donor molecule, donor type, donor heavy atom, donor atom, acceptor molecule, acceptor atom, score
      P1  H  7997  8010       L1    20  0.42

> <Gold.PLP.Chemscore.Internal.Correction>
0.0513

> <Gold.Rescore>
     Score         DG    S(hbond)    S(metal)    S(lipo)     H(rot)  DE(clash)    DE(int)     intcor
     15.95     -17.75       0.99        0.00     129.56       2.42       0.93       0.87       ----

> <Gold.Chemscore.Fitness>
15.9476

> <Gold.Chemscore.DG>
-17.7492

> <Gold.Chemscore.ZeroCoef>
-5.4800

> <Gold.Chemscore.Hbond>
0.9932

> <Gold.Chemscore.Metal>
0.0000

> <Gold.Chemscore.Lipo>
129.5574

> <Gold.Chemscore.Internal_Hbond>
0.0000

> <Gold.Chemscore.DEClash>
0.9347

> <Gold.Chemscore.DEInternal>
0.8669

> <Gold.Chemscore.Rot>
2.4243

> <Gold.Chemscore.Internal.Correction>
   9.000000E+99

> <Gold.Chemscore.Hbonds>
donor molecule, donor type, donor heavy atom, donor atom, acceptor molecule, acceptor atom, score
      P1  H  7997  8010       L1    20  0.43

> <Gold.Chemscore.Hbond.Weighted>
-3.3172

> <Gold.Chemscore.Metal.Weighted>
-0.0000

> <Gold.Chemscore.Lipo.Weighted>
-15.1582

> <Gold.Chemscore.Internal_Hbond.Weighted>
0.0000

> <Gold.Chemscore.DEClash.Weighted>
0.9347

> <Gold.Chemscore.DEInternal.Weighted>
0.8669

> <Gold.Chemscore.Rot.Weighted>
6.2063

> <Gold.Chemscore.Internal.Correction.Weighted>
   9.000000E+99

> <Gold.Protein.RotatedTorsions>
[ 6907 6896 6895 6894 ] final  -42.21 input  -60.11 | X-H torsion
[ 7974 7965 7964 7962 ] final   -9.38 input  175.53 | X-H torsion
[ 8008 7997 7996 7995 ] final   28.81 input   59.86 | X-H torsion
[ 10167 10162 10161 10158 ] final  -62.45 input  -65.29 | X-H torsion
[ 10718 10713 10712 10709 ] final  -93.15 input   66.30 | X-H torsion
[ 10763 10752 10751 10750 ] final    5.94 input  -60.55 | X-H torsion
[ 11005 11000 10999 10996 ] final   40.30 input  -57.11 | X-H torsion

> <Gold.Protein.ActiveResidues>
 VAL166  LYS551  ARG553  GLY616  TRP617  ASP618  TYR619  PRO620  LYS621  CYS622 
 ASP623  PHE694  ASN695  SER759  ASP760  ASP761  ALA762  ILE779  LEU786  VAL792 
 PHE793  MET794  SER795  GLU796  ALA797  LYS798  CYS799  TRP800  GLU811  SER814 

> <Gold.Protein.RotatedAtoms>
  150.9578  134.8970  159.7711 H   0  0  0  0  0  0  0  0  0  0  0  0  # atno 6907 bound_to 6896
  152.5145  134.3715  159.9330 H   0  0  0  0  0  0  0  0  0  0  0  0  # atno 6908 bound_to 6896
  151.3728  133.3808  159.2736 H   0  0  0  0  0  0  0  0  0  0  0  0  # atno 6909 bound_to 6896
  146.2253  140.2607  142.8351 H   0  0  0  0  0  0  0  0  0  0  0  0  # atno 7974 bound_to 7965
  155.0646  140.3194  155.4649 H   0  0  0  0  0  0  0  0  0  0  0  0  # atno 8008 bound_to 7997
  156.2805  140.2123  156.5718 H   0  0  0  0  0  0  0  0  0  0  0  0  # atno 8009 bound_to 7997
  154.7104  140.0498  157.0532 H   0  0  0  0  0  0  0  0  0  0  0  0  # atno 8010 bound_to 7997
  140.5938  143.2347  151.6081 H   0  0  0  0  0  0  0  0  0  0  0  0  # atno 10167 bound_to 10162
  156.0010  130.5015  150.5733 H   0  0  0  0  0  0  0  0  0  0  0  0  # atno 10718 bound_to 10713
  153.2535  135.6916  153.7653 H   0  0  0  0  0  0  0  0  0  0  0  0  # atno 10763 bound_to 10752
  153.6739  135.3340  155.3161 H   0  0  0  0  0  0  0  0  0  0  0  0  # atno 10764 bound_to 10752
  154.8403  135.4506  154.1501 H   0  0  0  0  0  0  0  0  0  0  0  0  # atno 10765 bound_to 10752
  140.1944  134.3947  155.8129 H   0  0  0  0  0  0  0  0  0  0  0  0  # atno 11005 bound_to 11000
  144.9342  140.8008  143.5671 LP  0  0  0  0  0  0  0  0  0  0  0  0  # atno 17320 bound_to 7965
  145.2553  139.2014  143.4921 LP  0  0  0  0  0  0  0  0  0  0  0  0  # atno 17321 bound_to 7965
  139.5244  144.3103  152.0998 LP  0  0  0  0  0  0  0  0  0  0  0  0  # atno 17342 bound_to 10162
  140.2272  144.4406  150.6316 LP  0  0  0  0  0  0  0  0  0  0  0  0  # atno 17343 bound_to 10162
  157.3625  131.0752  151.1625 LP  0  0  0  0  0  0  0  0  0  0  0  0  # atno 17370 bound_to 10713
  157.2405  130.6567  149.5888 LP  0  0  0  0  0  0  0  0  0  0  0  0  # atno 17371 bound_to 10713
  141.2227  133.7062  156.8151 LP  0  0  0  0  0  0  0  0  0  0  0  0  # atno 17394 bound_to 11000
  140.2123  134.8818  157.3288 LP  0  0  0  0  0  0  0  0  0  0  0  0  # atno 17395 bound_to 11000

$$$$
