AV-unprocessed.smi:114|AV-procd|sdf|1107|dock9
  -GOLD-   2262018223D 1   1.00000     0.00000
 Structure written by MMmdl.
 32 34  0  0  0  0  0  0  0  0  1 V2000
  153.4118  141.1204  160.4824 N   0  0  0  0  0  0  0  0  0  0  0  0
  152.6076  141.7261  159.5975 C   0  0  0  0  0  0  0  0  0  0  0  0
  152.6749  143.0730  159.4811 N   0  0  0  0  0  0  0  0  0  0  0  0
  151.8897  143.7177  158.6083 C   0  0  0  0  0  0  0  0  0  0  0  0
  152.0252  145.0637  158.5589 F   0  0  0  0  0  0  0  0  0  0  0  0
  150.9860  143.1818  157.7801 N   0  0  0  0  0  0  0  0  0  0  0  0
  150.9170  141.8245  157.8977 C   0  0  0  0  0  0  0  0  0  0  0  0
  151.6912  141.0235  158.7777 C   0  0  0  0  0  0  0  0  0  0  0  0
  151.3546  139.6852  158.6192 N   0  0  0  0  0  0  0  0  0  0  0  0
  150.4318  139.7007  157.6940 C   0  0  0  0  0  0  0  0  0  0  0  0
  150.1092  140.9499  157.2071 N   0  0  0  0  0  0  0  0  0  0  0  0
  149.1164  141.3241  156.1551 C   0  0  2  0  0  0  0  0  0  0  0  0
  147.9440  140.6218  156.3966 O   0  0  0  0  0  0  0  0  0  0  0  0
  147.2223  140.5614  155.1774 C   0  0  2  0  0  0  0  0  0  0  0  0
  146.1542  139.4604  155.2549 C   0  0  0  0  0  0  0  0  0  0  0  0
  145.6917  139.1461  153.9589 O   0  0  0  0  0  0  0  0  0  0  0  0
  148.3237  140.2781  154.1455 C   0  0  1  0  0  0  0  0  0  0  0  0
  147.9824  140.8570  152.9019 O   0  0  0  0  0  0  0  0  0  0  0  0
  149.5685  140.9497  154.7286 C   0  0  2  0  0  0  0  0  0  0  0  0
  150.6809  140.0733  154.6844 O   0  0  0  0  0  0  0  0  0  0  0  0
  148.9437  142.3939  156.2836 H   0  0  0  0  0  0  0  0  0  0  0  0
  146.7701  141.5373  154.9850 H   0  0  0  0  0  0  0  0  0  0  0  0
  148.4744  139.2030  154.0335 H   0  0  0  0  0  0  0  0  0  0  0  0
  149.8254  141.8723  154.2059 H   0  0  0  0  0  0  0  0  0  0  0  0
  153.3799  140.1163  160.5864 H   0  0  0  0  0  0  0  0  0  0  0  0
  154.0471  141.6686  161.0440 H   0  0  0  0  0  0  0  0  0  0  0  0
  149.9615  138.7955  157.3384 H   0  0  0  0  0  0  0  0  0  0  0  0
  146.5828  138.5520  155.6788 H   0  0  0  0  0  0  0  0  0  0  0  0
  145.3229  139.7567  155.8952 H   0  0  0  0  0  0  0  0  0  0  0  0
  144.9272  139.6709  153.7764 H   0  0  0  0  0  0  0  0  0  0  0  0
  148.7257  140.7823  152.3227 H   0  0  0  0  0  0  0  0  0  0  0  0
  150.3712  139.1899  154.8131 H   0  0  0  0  0  0  0  0  0  0  0  0
  1  2  1  0  0  0  0
  1 25  1  0  0  0  0
  1 26  1  0  0  0  0
  2  8  1  0  0  0  0
  2  3  2  0  0  0  0
  3  4  1  0  0  0  0
  4  5  1  0  0  0  0
  4  6  2  0  0  0  0
  6  7  1  0  0  0  0
  7 11  1  0  0  0  0
  7  8  2  0  0  0  0
  8  9  1  0  0  0  0
  9 10  2  0  0  0  0
 10 11  1  0  0  0  0
 10 27  1  0  0  0  0
 11 12  1  0  0  0  0
 12 21  1  0  0  0  0
 12 19  1  0  0  0  0
 12 13  1  0  0  0  0
 13 14  1  0  0  0  0
 14 22  1  0  0  0  0
 14 15  1  0  0  0  0
 14 17  1  0  0  0  0
 15 16  1  0  0  0  0
 15 28  1  0  0  0  0
 15 29  1  0  0  0  0
 16 30  1  0  0  0  0
 17 23  1  0  0  0  0
 17 18  1  0  0  0  0
 17 19  1  0  0  0  0
 18 31  1  0  0  0  0
 19 24  1  0  0  0  0
 19 20  1  0  0  0  0
 20 32  1  0  0  0  0
M  END
> <s_m_source_file>
AV-unprocessed.smi

> <i_m_source_file_index>
114

> <i_lp_mmshare_version>
43012

> <i_f3d_flags>
0

> <s_epik_input>
RmMobjEpbmMoW05IMl0pYyhjMTIpbltjSF1uMltDQEBIXTNPW0NASF0oW0NIMl1bT0hdKVtDQEBIXShbT0hdKVtDQEBIXTNbT0hd

> <s_epik_cmdline>
J2VwaWtfcHl0aG9uJywgJy1waCcsICc3LjAnLCAnLXRuJywgJzgnLCAnLW1hJywgJzIwMCcsICctbWV0YWxfYmluZGluZycsICctaW1hZScsICc8aW5maWxlLm1hZT4nLCAnLW9tYWUnLCAnPG91dGZpbGUubWFlPic=

> <r_lp_tautomer_probability>
1

> <r_epik_Ionization_Penalty>
1.13199e-05

> <r_epik_Ionization_Penalty_Charging>
0

> <r_epik_Ionization_Penalty_Neutral>
1.13199e-05

> <r_epik_State_Penalty>
-0

> <r_epik_Charging_Adjusted_Penalty>
0

> <i_epik_Tot_Q>
0

> <i_epik_Tot_abs_Q>
0

> <r_epik_Metal_State_Penalty>
-0

> <b_epik_Metal_Only>
0

> <s_epik_Chemistry_Notes>
This compound contains an acetal/aminal-like group ( X-CH(R)-Y where X, Y are N, S, or O) that may be acid/base labile, releasing an aldehyde.

> <s_lp_Force_Field>
OPLS_2005

> <r_lp_Energy>
35.9839

> <b_lp_Chiralities_Consistent>
1

> <s_lp_Variant>
AV-unprocessed.smi:114-1

> <Gold.Version>
5.8.1

> <Gold.Id.Protein>
6NUR|6NUR_protein|mol2

> <Gold.PLP.Fitness>
38.7339

> <Gold.PLP.PLP>
-30.5702

> <Gold.PLP.part.hbond>
-2.9442

> <Gold.PLP.part.metal>
0.0000

> <Gold.PLP.part.buried>
-5.4638

> <Gold.PLP.part.nonpolar>
-22.3486

> <Gold.PLP.part.repulsive>
0.2405

> <Gold.PLP.ligand.clash>
0.0000

> <Gold.PLP.ligand.torsion>
0.4244

> <Gold.PLP.Chemscore.Hbond>
3.0000

> <Gold.PLP.Chemscore.CHOScore>
0.0000

> <Gold.PLP.Chemscore.Metal>
0.0000

> <Gold.Chemscore.Hbonds>
donor molecule, donor type, donor heavy atom, donor atom, acceptor molecule, acceptor atom, score
      L1  H    16    30       P1 10175  1.00
      L1  H    18    31       P1  7957  1.00
      P1  H  7989  7998       L1    20  1.00

> <Gold.PLP.Chemscore.Internal.Correction>
0.0125

> <Gold.Rescore>
     Score         DG    S(hbond)    S(metal)    S(lipo)     H(rot)  DE(clash)    DE(int)     intcor
      6.20      -7.02       2.72        0.00      23.53       4.03       0.15       0.67       ----

> <Gold.Chemscore.Fitness>
6.2008

> <Gold.Chemscore.DG>
-7.0171

> <Gold.Chemscore.ZeroCoef>
-5.4800

> <Gold.Chemscore.Hbond>
2.7231

> <Gold.Chemscore.Metal>
0.0000

> <Gold.Chemscore.Lipo>
23.5282

> <Gold.Chemscore.Internal_Hbond>
0.0000

> <Gold.Chemscore.DEClash>
0.1461

> <Gold.Chemscore.DEInternal>
0.6701

> <Gold.Chemscore.Rot>
4.0277

> <Gold.Chemscore.Internal.Correction>
   9.000000E+99

> <Gold.Chemscore.Hbonds>
donor molecule, donor type, donor heavy atom, donor atom, acceptor molecule, acceptor atom, score
      L1  H    16    30       P1 10175  0.93
      L1  H    18    31       P1  7957  0.97
      P1  H  7989  7998       L1    20  0.26

> <Gold.Chemscore.Hbond.Weighted>
-9.0953

> <Gold.Chemscore.Metal.Weighted>
-0.0000

> <Gold.Chemscore.Lipo.Weighted>
-2.7528

> <Gold.Chemscore.Internal_Hbond.Weighted>
0.0000

> <Gold.Chemscore.DEClash.Weighted>
0.1461

> <Gold.Chemscore.DEInternal.Weighted>
0.6701

> <Gold.Chemscore.Rot.Weighted>
10.3110

> <Gold.Chemscore.Internal.Correction.Weighted>
   9.000000E+99

> <Gold.Protein.RotatedTorsions>
[ 6907 6896 6895 6894 ] final   17.09 input  -60.11 | X-H torsion
[ 7974 7965 7964 7962 ] final  163.41 input  175.53 | X-H torsion
[ 8008 7997 7996 7995 ] final    1.44 input   59.86 | X-H torsion
[ 10167 10162 10161 10158 ] final    3.76 input  -65.29 | X-H torsion
[ 10718 10713 10712 10709 ] final  -12.64 input   66.30 | X-H torsion
[ 10763 10752 10751 10750 ] final  -97.59 input  -60.55 | X-H torsion
[ 11005 11000 10999 10996 ] final   54.21 input  -57.11 | X-H torsion

> <Gold.Protein.ActiveResidues>
 VAL166  LYS551  ARG553  GLY616  TRP617  ASP618  TYR619  PRO620  LYS621  CYS622 
 ASP623  PHE694  ASN695  SER759  ASP760  ASP761  ALA762  ILE779  LEU786  VAL792 
 PHE793  MET794  SER795  GLU796  ALA797  LYS798  CYS799  TRP800  GLU811  SER814 

> <Gold.Protein.RotatedAtoms>
  151.8442  135.0580  160.0451 H   0  0  0  0  0  0  0  0  0  0  0  0  # atno 6907 bound_to 6896
  152.2786  133.5444  159.5492 H   0  0  0  0  0  0  0  0  0  0  0  0  # atno 6908 bound_to 6896
  150.7180  134.0512  159.3841 H   0  0  0  0  0  0  0  0  0  0  0  0  # atno 6909 bound_to 6896
  144.7591  139.8178  143.6339 H   0  0  0  0  0  0  0  0  0  0  0  0  # atno 7974 bound_to 7965
  154.6797  140.2630  155.6921 H   0  0  0  0  0  0  0  0  0  0  0  0  # atno 8008 bound_to 7997
  156.2692  140.2812  156.1260 H   0  0  0  0  0  0  0  0  0  0  0  0  # atno 8009 bound_to 7997
  155.1049  140.0375  157.2697 H   0  0  0  0  0  0  0  0  0  0  0  0  # atno 8010 bound_to 7997
  140.6570  143.7403  150.7670 H   0  0  0  0  0  0  0  0  0  0  0  0  # atno 10167 bound_to 10162
  156.6417  130.4930  149.6092 H   0  0  0  0  0  0  0  0  0  0  0  0  # atno 10718 bound_to 10713
  154.7341  135.5041  153.9013 H   0  0  0  0  0  0  0  0  0  0  0  0  # atno 10763 bound_to 10752
  153.0978  135.6677  153.9738 H   0  0  0  0  0  0  0  0  0  0  0  0  # atno 10764 bound_to 10752
  153.9532  135.3055  155.3417 H   0  0  0  0  0  0  0  0  0  0  0  0  # atno 10765 bound_to 10752
  140.0705  134.5477  155.9052 H   0  0  0  0  0  0  0  0  0  0  0  0  # atno 11005 bound_to 11000
  146.1635  139.4757  142.9973 LP  0  0  0  0  0  0  0  0  0  0  0  0  # atno 17320 bound_to 7965
  145.6679  141.0224  143.1673 LP  0  0  0  0  0  0  0  0  0  0  0  0  # atno 17321 bound_to 7965
  140.1064  143.4739  152.2395 LP  0  0  0  0  0  0  0  0  0  0  0  0  # atno 17342 bound_to 10162
  139.5794  144.7503  151.3679 LP  0  0  0  0  0  0  0  0  0  0  0  0  # atno 17343 bound_to 10162
  156.2154  130.6704  151.1313 LP  0  0  0  0  0  0  0  0  0  0  0  0  # atno 17370 bound_to 10713
  157.7169  131.0704  150.6292 LP  0  0  0  0  0  0  0  0  0  0  0  0  # atno 17371 bound_to 10713
  141.2010  133.6616  156.5925 LP  0  0  0  0  0  0  0  0  0  0  0  0  # atno 17394 bound_to 11000
  140.3635  134.7667  157.4550 LP  0  0  0  0  0  0  0  0  0  0  0  0  # atno 17395 bound_to 11000

$$$$
