AV-unprocessed.smi:1312|AV-procd|sdf|5448|dock8
  -GOLD-   22720 5 23D 1   1.00000     0.00000
 Structure written by MMmdl.
 50 51  0  0  0  0  0  0  0  0  2 V2000
  143.5541  135.8813  153.7769 C   0  0  0  0  0  0  0  0  0  0  0  0
  144.8356  135.3639  154.4490 C   0  0  0  0  0  0  0  0  0  0  0  0
  146.1540  135.8018  153.7544 C   0  0  2  0  0  0  0  0  0  0  0  0
  146.3718  137.3355  153.8162 C   0  0  0  0  0  0  0  0  0  0  0  0
  147.7707  137.6976  153.6170 N   0  0  0  0  0  0  0  0  0  0  0  0
  148.4990  138.4274  154.4739 C   0  0  0  0  0  0  0  0  0  0  0  0
  148.0429  138.8790  155.5254 O   0  0  0  0  0  0  0  0  0  0  0  0
  149.9610  138.6631  154.0765 C   0  0  0  0  0  0  0  0  0  0  0  0
  150.6729  139.5473  155.0720 C   0  0  0  0  0  0  0  0  0  0  0  0
  151.9614  139.3406  155.6465 C   0  0  0  0  0  0  0  0  0  0  0  0
  152.9086  138.1992  155.4105 C   0  0  0  0  0  0  0  0  0  0  0  0
  152.3015  140.3054  156.4853 N   0  0  0  0  0  0  0  0  0  0  0  0
  151.2524  141.1520  156.4792 N   0  0  0  0  0  0  0  0  0  0  0  0
  151.2941  142.3428  157.3057 C   0  0  0  0  0  0  0  0  0  0  0  0
  150.2475  140.7208  155.6352 C   0  0  0  0  0  0  0  0  0  0  0  0
  148.9751  141.4842  155.4569 C   0  0  0  0  0  0  0  0  0  0  0  0
  146.2251  135.2868  152.3547 N   0  3  0  0  0  0  0  0  0  0  0  0
  145.9736  133.8390  152.1836 C   0  0  0  0  0  0  0  0  0  0  0  0
  145.6143  133.6709  150.7121 C   0  0  0  0  0  0  0  0  0  0  0  0
  144.8012  134.9247  150.4154 C   0  0  0  0  0  0  0  0  0  0  0  0
  145.3560  135.9871  151.3740 C   0  0  0  0  0  0  0  0  0  0  0  0
  142.6717  135.5071  154.2965 H   0  0  0  0  0  0  0  0  0  0  0  0
  143.4856  135.5549  152.7392 H   0  0  0  0  0  0  0  0  0  0  0  0
  143.5020  136.9698  153.7933 H   0  0  0  0  0  0  0  0  0  0  0  0
  144.8398  135.6943  155.4879 H   0  0  0  0  0  0  0  0  0  0  0  0
  144.7831  134.2772  154.5103 H   0  0  0  0  0  0  0  0  0  0  0  0
  146.9775  135.3397  154.3016 H   0  0  0  0  0  0  0  0  0  0  0  0
  145.8004  137.8417  153.0380 H   0  0  0  0  0  0  0  0  0  0  0  0
  146.0132  137.7251  154.7702 H   0  0  0  0  0  0  0  0  0  0  0  0
  148.2194  137.3642  152.7759 H   0  0  0  0  0  0  0  0  0  0  0  0
  150.4493  137.6918  153.9944 H   0  0  0  0  0  0  0  0  0  0  0  0
  149.9931  139.0991  153.0773 H   0  0  0  0  0  0  0  0  0  0  0  0
  153.1040  138.0676  154.3465 H   0  0  0  0  0  0  0  0  0  0  0  0
  152.4918  137.2658  155.7893 H   0  0  0  0  0  0  0  0  0  0  0  0
  153.8680  138.3594  155.9041 H   0  0  0  0  0  0  0  0  0  0  0  0
  151.2145  143.2287  156.6755 H   0  0  0  0  0  0  0  0  0  0  0  0
  152.2285  142.3915  157.8665 H   0  0  0  0  0  0  0  0  0  0  0  0
  150.4620  142.3299  158.0097 H   0  0  0  0  0  0  0  0  0  0  0  0
  148.2703  140.9382  154.8303 H   0  0  0  0  0  0  0  0  0  0  0  0
  149.1658  142.4487  154.9862 H   0  0  0  0  0  0  0  0  0  0  0  0
  148.4931  141.6651  156.4177 H   0  0  0  0  0  0  0  0  0  0  0  0
  146.8395  133.2375  152.4620 H   0  0  0  0  0  0  0  0  0  0  0  0
  145.1295  133.5342  152.8048 H   0  0  0  0  0  0  0  0  0  0  0  0
  146.5216  133.6639  150.1065 H   0  0  0  0  0  0  0  0  0  0  0  0
  145.0658  132.7505  150.5106 H   0  0  0  0  0  0  0  0  0  0  0  0
  144.8657  135.2264  149.3697 H   0  0  0  0  0  0  0  0  0  0  0  0
  143.7504  134.7407  150.6422 H   0  0  0  0  0  0  0  0  0  0  0  0
  144.5291  136.5064  151.8603 H   0  0  0  0  0  0  0  0  0  0  0  0
  145.9486  136.7310  150.8407 H   0  0  0  0  0  0  0  0  0  0  0  0
  147.1726  135.4350  152.0374 H   0  0  0  0  0  0  0  0  0  0  0  0
  1  2  1  0  0  0  0
  1 22  1  0  0  0  0
  1 23  1  0  0  0  0
  1 24  1  0  0  0  0
  2  3  1  0  0  0  0
  2 25  1  0  0  0  0
  2 26  1  0  0  0  0
  3  4  1  0  0  0  0
  3 17  1  0  0  0  0
  3 27  1  0  0  0  0
  4  5  1  0  0  0  0
  4 28  1  0  0  0  0
  4 29  1  0  0  0  0
  5  6  1  0  0  0  0
  5 30  1  0  0  0  0
  6  7  2  0  0  0  0
  6  8  1  0  0  0  0
  8  9  1  0  0  0  0
  8 31  1  0  0  0  0
  8 32  1  0  0  0  0
  9 15  2  0  0  0  0
  9 10  1  0  0  0  0
 10 11  1  0  0  0  0
 10 12  2  0  0  0  0
 11 33  1  0  0  0  0
 11 34  1  0  0  0  0
 11 35  1  0  0  0  0
 12 13  1  0  0  0  0
 13 14  1  0  0  0  0
 13 15  1  0  0  0  0
 14 36  1  0  0  0  0
 14 37  1  0  0  0  0
 14 38  1  0  0  0  0
 15 16  1  0  0  0  0
 16 39  1  0  0  0  0
 16 40  1  0  0  0  0
 16 41  1  0  0  0  0
 17 21  1  0  0  0  0
 17 18  1  0  0  0  0
 17 50  1  0  0  0  0
 18 19  1  0  0  0  0
 18 42  1  0  0  0  0
 18 43  1  0  0  0  0
 19 20  1  0  0  0  0
 19 44  1  0  0  0  0
 19 45  1  0  0  0  0
 20 21  1  0  0  0  0
 20 46  1  0  0  0  0
 20 47  1  0  0  0  0
 21 48  1  0  0  0  0
 21 49  1  0  0  0  0
M  CHG  1  17   1
M  END
> <s_m_source_file>
AV-unprocessed.smi

> <i_m_source_file_index>
1312

> <i_lp_mmshare_version>
43012

> <i_f3d_flags>
0

> <s_epik_input>
W0NIMl0xW0NIMl1bQ0gyXVtDSDJdTjFbQ0BIXShbQ0gyXVtDSDNdKVtDSDJdW05IXUMoPU8pW0NIMl1jMmMoW0NIM10pbm4oW0NIM10pYzJbQ0gzXQ==

> <s_epik_cmdline>
J2VwaWtfcHl0aG9uJywgJy1waCcsICc3LjAnLCAnLXRuJywgJzgnLCAnLW1hJywgJzIwMCcsICctbWV0YWxfYmluZGluZycsICctaW1hZScsICc8aW5maWxlLm1hZT4nLCAnLW9tYWUnLCAnPG91dGZpbGUubWFlPic=

> <r_lp_tautomer_probability>
1

> <r_epik_Ionization_Penalty>
0.00585463

> <r_epik_Ionization_Penalty_Charging>
0.00366302

> <r_epik_Ionization_Penalty_Neutral>
0.00219161

> <r_epik_State_Penalty>
-0

> <r_epik_Charging_Adjusted_Penalty>
0.00366302

> <i_epik_Tot_Q>
1

> <i_epik_Tot_abs_Q>
1

> <r_epik_Metal_State_Penalty>
-0

> <b_epik_Metal_Only>
0

> <s_lp_Force_Field>
OPLS_2005

> <r_lp_Energy>
29.647

> <b_lp_Chiralities_Consistent>
1

> <s_lp_Variant>
AV-unprocessed.smi:1312-1

> <Gold.Version>
5.8.1

> <Gold.Id.Protein>
6NUR|6NUR_protein|mol2

> <Gold.PLP.Fitness>
44.9620

> <Gold.PLP.PLP>
-33.7067

> <Gold.PLP.part.hbond>
-3.0000

> <Gold.PLP.part.metal>
0.0000

> <Gold.PLP.part.buried>
-1.0252

> <Gold.PLP.part.nonpolar>
-29.7435

> <Gold.PLP.part.repulsive>
0.0407

> <Gold.PLP.ligand.clash>
0.0000

> <Gold.PLP.ligand.torsion>
0.4278

> <Gold.PLP.Chemscore.Hbond>
3.9920

> <Gold.PLP.Chemscore.CHOScore>
0.0000

> <Gold.PLP.Chemscore.Metal>
0.0000

> <Gold.Chemscore.Hbonds>
donor molecule, donor type, donor heavy atom, donor atom, acceptor molecule, acceptor atom, score
      L1  H     5    30       P1  7948  1.00
      L1  H    17    50       P1  7948  2.00
      P1  H  7997  8008       L1    12  0.77

> <Gold.PLP.Chemscore.Internal.Correction>
0.1349

> <Gold.Rescore>
     Score         DG    S(hbond)    S(metal)    S(lipo)     H(rot)  DE(clash)    DE(int)     intcor
     17.52     -19.04       2.43        0.00      84.24       1.72       0.17       1.36       ----

> <Gold.Chemscore.Fitness>
17.5152

> <Gold.Chemscore.DG>
-19.0445

> <Gold.Chemscore.ZeroCoef>
-5.4800

> <Gold.Chemscore.Hbond>
2.4298

> <Gold.Chemscore.Metal>
0.0000

> <Gold.Chemscore.Lipo>
84.2366

> <Gold.Chemscore.Internal_Hbond>
0.0000

> <Gold.Chemscore.DEClash>
0.1706

> <Gold.Chemscore.DEInternal>
1.3587

> <Gold.Chemscore.Rot>
1.7213

> <Gold.Chemscore.Internal.Correction>
   9.000000E+99

> <Gold.Chemscore.Hbonds>
donor molecule, donor type, donor heavy atom, donor atom, acceptor molecule, acceptor atom, score
      L1  H     5    30       P1  7948  0.97
      L1  H    17    50       P1  7948  0.99
      P1  H  7997  8008       L1    12  0.12

> <Gold.Chemscore.Hbond.Weighted>
-8.1154

> <Gold.Chemscore.Metal.Weighted>
-0.0000

> <Gold.Chemscore.Lipo.Weighted>
-9.8557

> <Gold.Chemscore.Internal_Hbond.Weighted>
0.0000

> <Gold.Chemscore.DEClash.Weighted>
0.1706

> <Gold.Chemscore.DEInternal.Weighted>
1.3587

> <Gold.Chemscore.Rot.Weighted>
4.4065

> <Gold.Chemscore.Internal.Correction.Weighted>
   9.000000E+99

> <Gold.Protein.RotatedTorsions>
[ 6907 6896 6895 6894 ] final -146.66 input  -60.11 | X-H torsion
[ 7974 7965 7964 7962 ] final  116.52 input  175.53 | X-H torsion
[ 8008 7997 7996 7995 ] final  -35.61 input   59.86 | X-H torsion
[ 10167 10162 10161 10158 ] final   48.35 input  -65.29 | X-H torsion
[ 10718 10713 10712 10709 ] final  136.74 input   66.30 | X-H torsion
[ 10763 10752 10751 10750 ] final  -20.35 input  -60.55 | X-H torsion
[ 11005 11000 10999 10996 ] final   59.84 input  -57.11 | X-H torsion

> <Gold.Protein.ActiveResidues>
 VAL166  LYS551  ARG553  GLY616  TRP617  ASP618  TYR619  PRO620  LYS621  CYS622 
 ASP623  PHE694  ASN695  SER759  ASP760  ASP761  ALA762  ILE779  LEU786  VAL792 
 PHE793  MET794  SER795  GLU796  ALA797  LYS798  CYS799  TRP800  GLU811  SER814 

> <Gold.Protein.RotatedAtoms>
  151.1447  133.4947  159.2596 H   0  0  0  0  0  0  0  0  0  0  0  0  # atno 6907 bound_to 6896
  151.1617  135.0276  159.8723 H   0  0  0  0  0  0  0  0  0  0  0  0  # atno 6908 bound_to 6896
  152.5463  134.1320  159.8496 H   0  0  0  0  0  0  0  0  0  0  0  0  # atno 6909 bound_to 6896
  145.1786  139.3062  143.4430 H   0  0  0  0  0  0  0  0  0  0  0  0  # atno 7974 bound_to 7965
  154.4091  140.1653  156.2239 H   0  0  0  0  0  0  0  0  0  0  0  0  # atno 8008 bound_to 7997
  155.9340  140.3413  155.6249 H   0  0  0  0  0  0  0  0  0  0  0  0  # atno 8009 bound_to 7997
  155.7071  140.0752  157.2377 H   0  0  0  0  0  0  0  0  0  0  0  0  # atno 8010 bound_to 7997
  140.2942  144.3010  150.6233 H   0  0  0  0  0  0  0  0  0  0  0  0  # atno 10167 bound_to 10162
  157.4435  131.1060  151.0116 H   0  0  0  0  0  0  0  0  0  0  0  0  # atno 10718 bound_to 10713
  153.6190  135.6993  153.5317 H   0  0  0  0  0  0  0  0  0  0  0  0  # atno 10763 bound_to 10752
  153.2953  135.4145  155.1203 H   0  0  0  0  0  0  0  0  0  0  0  0  # atno 10764 bound_to 10752
  154.8547  135.3635  154.5731 H   0  0  0  0  0  0  0  0  0  0  0  0  # atno 10765 bound_to 10752
  140.0275  134.6061  155.9553 H   0  0  0  0  0  0  0  0  0  0  0  0  # atno 11005 bound_to 11000
  146.3457  140.1957  142.8589 LP  0  0  0  0  0  0  0  0  0  0  0  0  # atno 17320 bound_to 7965
  145.0159  140.8753  143.5196 LP  0  0  0  0  0  0  0  0  0  0  0  0  # atno 17321 bound_to 7965
  140.5706  143.2181  151.7605 LP  0  0  0  0  0  0  0  0  0  0  0  0  # atno 17342 bound_to 10162
  139.4930  144.4222  151.9965 LP  0  0  0  0  0  0  0  0  0  0  0  0  # atno 17343 bound_to 10162
  157.0971  130.5966  149.5452 LP  0  0  0  0  0  0  0  0  0  0  0  0  # atno 17370 bound_to 10713
  155.9958  130.5026  150.7472 LP  0  0  0  0  0  0  0  0  0  0  0  0  # atno 17371 bound_to 10713
  141.1811  133.6547  156.5025 LP  0  0  0  0  0  0  0  0  0  0  0  0  # atno 17394 bound_to 11000
  140.4282  134.7126  157.4927 LP  0  0  0  0  0  0  0  0  0  0  0  0  # atno 17395 bound_to 11000

$$$$
