#       Name:                AV-unprocessed.smi:3028
#       Creating user name   scv26
#       Creation time:       Fri Mar 27 16:45:55 2020


#       File generated by GOLD software.
#

@<TRIPOS>MOLECULE
AV-unprocessed.smi:3028
    53    54     1
SMALL
NO_CHARGES


@<TRIPOS>ATOM
      1 ****        -5.0740  -4.6821   2.4031 C.3            1 S1                 0.0000
      2 ****        -4.3461  -3.4267   2.0172 C.2            1 S1                 0.0000
      3 ****        -3.8791  -2.3889   2.8726 C.2            1 S1                 0.0000
      4 ****        -3.2723  -1.4150   2.2145 N.2            1 S1                 0.0000
      5 ****        -3.3283  -1.7936   0.9182 N.pl3          1 S1                 0.0000
      6 ****        -2.7526  -0.9474  -0.1196 C.3            1 S1                 0.0000
      7 ****        -3.5099   0.3934  -0.1848 C.3            1 S1                 0.0000
      8 ****        -1.2221  -0.7562   0.0549 C.3            1 S1                 0.0000
      9 ****        -0.4709  -2.0846   0.2831 C.3            1 S1                 0.0000
     10 ****        -0.6693  -0.0595  -1.1286 N.4            1 S1                 1.0000
     11 ****         0.5790   0.6985  -0.8943 C.3            1 S1                 0.0000
     12 ****         1.0781   1.3966  -2.1671 C.2            1 S1                 0.0000
     13 ****         0.4342   1.3064  -3.2114 O.2            1 S1                 0.0000
     14 ****         2.2200   2.1035  -2.1241 N.am           1 S1                 0.0000
     15 ****         2.8610   2.8361  -3.2145 C.3            1 S1                 0.0000
     16 ****         4.3829   2.8422  -3.0045 C.3            1 S1                 0.0000
     17 ****         5.0739   3.7316  -4.0510 C.3            1 S1                 0.0000
     18 ****         4.5415   5.0504  -3.9941 O.3            1 S1                 0.0000
     19 ****         3.1528   5.1025  -4.3017 C.3            1 S1                 0.0000
     20 ****         2.3537   4.2875  -3.2713 C.3            1 S1                 0.0000
     21 ****        -3.9740  -3.0041   0.7726 C.2            1 S1                 0.0000
     22 ****        -5.5167  -4.6046   3.3963 H              1 S1                 0.0000
     23 ****        -4.4077  -5.5448   2.4146 H              1 S1                 0.0000
     24 ****        -5.8831  -4.9093   1.7088 H              1 S1                 0.0000
     25 ****        -3.9634  -2.3156   3.9469 H              1 S1                 0.0000
     26 ****        -2.9186  -1.4643  -1.0663 H              1 S1                 0.0000
     27 ****        -3.1878   0.9966  -1.0336 H              1 S1                 0.0000
     28 ****        -3.3568   0.9855   0.7183 H              1 S1                 0.0000
     29 ****        -4.5825   0.2302  -0.2941 H              1 S1                 0.0000
     30 ****        -1.0631  -0.1213   0.9284 H              1 S1                 0.0000
     31 ****        -0.8056  -2.5899   1.1889 H              1 S1                 0.0000
     32 ****         0.6017  -1.9284   0.3949 H              1 S1                 0.0000
     33 ****        -0.6196  -2.7700  -0.5520 H              1 S1                 0.0000
     34 ****        -0.5185  -0.7311  -1.8677 H              1 S1                 0.0000
     35 ****         0.3932   1.4484  -0.1246 H              1 S1                 0.0000
     36 ****         1.3543   0.0274  -0.5267 H              1 S1                 0.0000
     37 ****         2.6973   2.1376  -1.2344 H              1 S1                 0.0000
     38 ****         2.6604   2.3497  -4.1697 H              1 S1                 0.0000
     39 ****         4.6197   3.2168  -2.0075 H              1 S1                 0.0000
     40 ****         4.7778   1.8270  -3.0587 H              1 S1                 0.0000
     41 ****         6.1454   3.7756  -3.8555 H              1 S1                 0.0000
     42 ****         4.9505   3.3202  -5.0540 H              1 S1                 0.0000
     43 ****         2.8286   6.1433  -4.2880 H              1 S1                 0.0000
     44 ****         2.9795   4.7290  -5.3122 H              1 S1                 0.0000
     45 ****         1.2928   4.3171  -3.5195 H              1 S1                 0.0000
     46 ****         2.4561   4.7548  -2.2906 H              1 S1                 0.0000
     47 ****        -4.1144  -3.4620  -0.1956 H              1 S1                 0.0000
     48 ****        -1.3598   0.6068  -1.4441 H              1 S1                 0.0000
     49 ****        -2.8634  -0.5841   2.5919 LP             1 S1                 0.0000
     50 ****        -0.4146   0.7782  -3.2314 LP             1 S1                 0.0000
     51 ****         0.7597   1.7613  -4.0403 LP             1 S1                 0.0000
     52 ****         5.0350   5.6220  -4.6497 LP             1 S1                 0.0000
     53 ****         4.6772   5.4094  -3.0707 LP             1 S1                 0.0000
@<TRIPOS>BOND
    1    1    2 1     
    2    1   22 1     
    3    1   23 1     
    4    1   24 1     
    5    2   21 2     
    6    2    3 1     
    7    3    4 2     
    8    3   25 1     
    9    4    5 1     
   10    5    6 1     
   11    5   21 1     
   12    6    7 1     
   13    6    8 1     
   14    6   26 1     
   15    7   27 1     
   16    7   28 1     
   17    7   29 1     
   18    8    9 1     
   19    8   10 1     
   20    8   30 1     
   21    9   31 1     
   22    9   32 1     
   23    9   33 1     
   24   10   11 1     
   25   10   34 1     
   26   10   48 1     
   27   11   12 1     
   28   11   35 1     
   29   11   36 1     
   30   12   13 2     
   31   12   14 am    
   32   14   15 1     
   33   14   37 1     
   34   15   20 1     
   35   15   16 1     
   36   15   38 1     
   37   16   17 1     
   38   16   39 1     
   39   16   40 1     
   40   17   18 1     
   41   17   41 1     
   42   17   42 1     
   43   18   19 1     
   44   19   20 1     
   45   19   43 1     
   46   19   44 1     
   47   20   45 1     
   48   20   46 1     
   49   21   47 1     
   50    4   49 1     
   51   13   50 1     
   52   13   51 1     
   53   18   52 1     
   54   18   53 1     
@<TRIPOS>SUBSTRUCTURE
      1 S1             1
@<TRIPOS>SET
LONE_PAIRS      STATIC     ATOMS    <user>   **** ""
5 49 50 51 52 53
DONOR_HYDROGENS      STATIC     ATOMS    <user>   **** ""
3 34 48 37
ATOM$BLUE        STATIC     ATOMS    COLORGROUP SYSTEM
5 49 50 51 52 53
ATOM$RED        STATIC     ATOMS    COLORGROUP SYSTEM
3 34 48 37
