AV-unprocessed.smi:94|AV-procd|sdf|852|dock4
  -GOLD-   2262017293D 1   1.00000     0.00000
 Structure written by MMmdl.
 53 55  0  0  0  0  0  0  0  0  1 V2000
  154.6003  133.5583  161.7428 C   0  0  0  0  0  0  0  0  0  0  0  0
  154.3077  134.5056  160.7261 O   0  0  0  0  0  0  0  0  0  0  0  0
  155.1958  134.6441  159.6784 C   0  0  0  0  0  0  0  0  0  0  0  0
  156.3538  133.8383  159.5315 C   0  0  0  0  0  0  0  0  0  0  0  0
  157.2330  134.0324  158.4510 C   0  0  0  0  0  0  0  0  0  0  0  0
  156.9740  135.0375  157.5018 C   0  0  0  0  0  0  0  0  0  0  0  0
  157.9232  135.2526  156.3412 C   0  0  0  0  0  0  0  0  0  0  0  0
  155.8256  135.8403  157.6352 C   0  0  0  0  0  0  0  0  0  0  0  0
  154.9277  135.6467  158.7114 C   0  0  0  0  0  0  0  0  0  0  0  0
  153.6901  136.5349  158.8524 C   0  0  1  0  0  0  0  0  0  0  0  0
  153.7104  137.2917  160.1913 C   0  0  0  0  0  0  0  0  0  0  0  0
  153.5443  137.4765  157.7423 N   0  0  0  0  0  0  0  0  0  0  0  0
  152.5237  137.5062  156.8719 C   0  0  0  0  0  0  0  0  0  0  0  0
  151.5785  136.7174  156.9126 O   0  0  0  0  0  0  0  0  0  0  0  0
  152.5933  138.5900  155.7858 C   0  0  0  0  0  0  0  0  0  0  0  0
  151.6837  139.7253  156.0534 N   0  0  0  0  0  0  0  0  0  0  0  0
  150.6473  140.0108  155.1304 C   0  0  0  0  0  0  0  0  0  0  0  0
  150.5016  139.3431  154.1057 O   0  0  0  0  0  0  0  0  0  0  0  0
  149.7807  141.1298  155.4835 C   0  0  0  0  0  0  0  0  0  0  0  0
  148.7821  141.4839  154.6570 F   0  0  0  0  0  0  0  0  0  0  0  0
  149.9650  141.8183  156.6290 C   0  0  0  0  0  0  0  0  0  0  0  0
  150.9680  141.5141  157.5323 N   0  0  0  0  0  0  0  0  0  0  0  0
  151.1583  142.2905  158.8192 C   0  0  2  0  0  0  0  0  0  0  0  0
  150.1097  143.4149  158.9359 C   0  0  0  0  0  0  0  0  0  0  0  0
  150.9590  144.6445  159.1903 C   0  0  0  0  0  0  0  0  0  0  0  0
  152.2600  144.2802  158.4919 C   0  0  0  0  0  0  0  0  0  0  0  0
  152.4147  142.9067  158.8227 O   0  0  0  0  0  0  0  0  0  0  0  0
  151.8631  140.4596  157.2495 C   0  0  0  0  0  0  0  0  0  0  0  0
  152.7744  140.1834  158.0332 O   0  0  0  0  0  0  0  0  0  0  0  0
  153.8025  133.5718  162.4852 H   0  0  0  0  0  0  0  0  0  0  0  0
  155.5320  133.7989  162.2563 H   0  0  0  0  0  0  0  0  0  0  0  0
  154.6579  132.5460  161.3405 H   0  0  0  0  0  0  0  0  0  0  0  0
  156.5956  133.0607  160.2397 H   0  0  0  0  0  0  0  0  0  0  0  0
  158.1100  133.4088  158.3567 H   0  0  0  0  0  0  0  0  0  0  0  0
  157.9483  136.3030  156.0495 H   0  0  0  0  0  0  0  0  0  0  0  0
  157.6037  134.6641  155.4811 H   0  0  0  0  0  0  0  0  0  0  0  0
  158.9375  134.9522  156.6060 H   0  0  0  0  0  0  0  0  0  0  0  0
  155.6438  136.6138  156.9037 H   0  0  0  0  0  0  0  0  0  0  0  0
  152.8137  135.8851  158.8379 H   0  0  0  0  0  0  0  0  0  0  0  0
  153.7644  136.5988  161.0315 H   0  0  0  0  0  0  0  0  0  0  0  0
  152.8109  137.8937  160.3237 H   0  0  0  0  0  0  0  0  0  0  0  0
  154.5701  137.9597  160.2558 H   0  0  0  0  0  0  0  0  0  0  0  0
  154.2799  138.1587  157.6296 H   0  0  0  0  0  0  0  0  0  0  0  0
  153.6217  138.9429  155.6870 H   0  0  0  0  0  0  0  0  0  0  0  0
  152.3817  138.1195  154.8249 H   0  0  0  0  0  0  0  0  0  0  0  0
  149.2903  142.6367  156.8278 H   0  0  0  0  0  0  0  0  0  0  0  0
  151.1108  141.5481  159.6178 H   0  0  0  0  0  0  0  0  0  0  0  0
  149.5596  143.5204  157.9993 H   0  0  0  0  0  0  0  0  0  0  0  0
  149.4033  143.2084  159.7403 H   0  0  0  0  0  0  0  0  0  0  0  0
  150.5102  145.5613  158.8072 H   0  0  0  0  0  0  0  0  0  0  0  0
  151.1311  144.7674  160.2604 H   0  0  0  0  0  0  0  0  0  0  0  0
  152.1688  144.4008  157.4115 H   0  0  0  0  0  0  0  0  0  0  0  0
  153.1060  144.8750  158.8366 H   0  0  0  0  0  0  0  0  0  0  0  0
  1  2  1  0  0  0  0
  1 30  1  0  0  0  0
  1 31  1  0  0  0  0
  1 32  1  0  0  0  0
  2  3  1  0  0  0  0
  3  9  1  0  0  0  0
  3  4  2  0  0  0  0
  4  5  1  0  0  0  0
  4 33  1  0  0  0  0
  5  6  2  0  0  0  0
  5 34  1  0  0  0  0
  6  7  1  0  0  0  0
  6  8  1  0  0  0  0
  7 35  1  0  0  0  0
  7 36  1  0  0  0  0
  7 37  1  0  0  0  0
  8  9  2  0  0  0  0
  8 38  1  0  0  0  0
  9 10  1  0  0  0  0
 10 11  1  0  0  0  0
 10 12  1  0  0  0  0
 10 39  1  0  0  0  0
 11 40  1  0  0  0  0
 11 41  1  0  0  0  0
 11 42  1  0  0  0  0
 12 13  1  0  0  0  0
 12 43  1  0  0  0  0
 13 14  2  0  0  0  0
 13 15  1  0  0  0  0
 15 16  1  0  0  0  0
 15 44  1  0  0  0  0
 15 45  1  0  0  0  0
 16 28  1  0  0  0  0
 16 17  1  0  0  0  0
 17 18  2  0  0  0  0
 17 19  1  0  0  0  0
 19 20  1  0  0  0  0
 19 21  2  0  0  0  0
 21 22  1  0  0  0  0
 21 46  1  0  0  0  0
 22 23  1  0  0  0  0
 22 28  1  0  0  0  0
 23 27  1  0  0  0  0
 23 24  1  0  0  0  0
 23 47  1  0  0  0  0
 24 25  1  0  0  0  0
 24 48  1  0  0  0  0
 24 49  1  0  0  0  0
 25 26  1  0  0  0  0
 25 50  1  0  0  0  0
 25 51  1  0  0  0  0
 26 27  1  0  0  0  0
 26 52  1  0  0  0  0
 26 53  1  0  0  0  0
 28 29  2  0  0  0  0
M  END
> <s_m_source_file>
AV-unprocessed.smi

> <i_m_source_file_index>
94

> <i_lp_mmshare_version>
43012

> <i_f3d_flags>
0

> <s_epik_input>
W0NIM11PYzFbY0hdW2NIXWMoW0NIM10pW2NIXWMxW0NASF0oW0NIM10pW05IXUMoPU8pW0NIMl1uMmMoPU8pYyhGKVtjSF1uKGMyPU8pW0NAQEhdM1tDSDJdW0NIMl1bQ0gyXU8z

> <s_epik_cmdline>
J2VwaWtfcHl0aG9uJywgJy1waCcsICc3LjAnLCAnLXRuJywgJzgnLCAnLW1hJywgJzIwMCcsICctbWV0YWxfYmluZGluZycsICctaW1hZScsICc8aW5maWxlLm1hZT4nLCAnLW9tYWUnLCAnPG91dGZpbGUubWFlPic=

> <r_lp_tautomer_probability>
1

> <r_epik_Ionization_Penalty>
3.37009e-08

> <r_epik_Ionization_Penalty_Charging>
3.59856e-09

> <r_epik_Ionization_Penalty_Neutral>
3.01024e-08

> <r_epik_State_Penalty>
-0

> <r_epik_Charging_Adjusted_Penalty>
3.59856e-09

> <i_epik_Tot_Q>
0

> <i_epik_Tot_abs_Q>
0

> <r_epik_Metal_State_Penalty>
-0

> <b_epik_Metal_Only>
0

> <s_epik_Chemistry_Notes>
This compound contains an acetal/aminal-like group ( X-CH(R)-Y where X, Y are N, S, or O) that may be acid/base labile, releasing an aldehyde.

> <s_lp_Force_Field>
OPLS_2005

> <r_lp_Energy>
32.1562

> <b_lp_Chiralities_Consistent>
1

> <s_lp_Variant>
AV-unprocessed.smi:94-2

> <Gold.Version>
5.8.1

> <Gold.Id.Protein>
6NUR|6NUR_protein|mol2

> <Gold.PLP.Fitness>
49.2305

> <Gold.PLP.PLP>
-40.7020

> <Gold.PLP.part.hbond>
-3.0000

> <Gold.PLP.part.metal>
0.0000

> <Gold.PLP.part.buried>
-3.8981

> <Gold.PLP.part.nonpolar>
-35.0965

> <Gold.PLP.part.repulsive>
0.7676

> <Gold.PLP.ligand.clash>
0.0000

> <Gold.PLP.ligand.torsion>
0.2476

> <Gold.PLP.Chemscore.Hbond>
1.9673

> <Gold.PLP.Chemscore.CHOScore>
1.0000

> <Gold.PLP.Chemscore.Metal>
0.0000

> <Gold.Chemscore.Hbonds>
donor molecule, donor type, donor heavy atom, donor atom, acceptor molecule, acceptor atom, score
      P1  H  6896  6909       L1     2  1.00
      P1  H  7997  8009       L1    29  0.90
      L1  C    21    46       P1  8028  1.00

> <Gold.PLP.Chemscore.Internal.Correction>
0.1220

> <Gold.Rescore>
     Score         DG    S(hbond)    S(metal)    S(lipo)     H(rot)  DE(clash)    DE(int)     intcor
      9.23     -14.42       1.80        0.00      76.25       2.34       0.03       5.16       ----

> <Gold.Chemscore.Fitness>
9.2308

> <Gold.Chemscore.DG>
-14.4190

> <Gold.Chemscore.ZeroCoef>
-5.4800

> <Gold.Chemscore.Hbond>
1.7965

> <Gold.Chemscore.Metal>
0.0000

> <Gold.Chemscore.Lipo>
76.2512

> <Gold.Chemscore.Internal_Hbond>
0.0000

> <Gold.Chemscore.DEClash>
0.0262

> <Gold.Chemscore.DEInternal>
5.1619

> <Gold.Chemscore.Rot>
2.3370

> <Gold.Chemscore.Internal.Correction>
   9.000000E+99

> <Gold.Chemscore.Hbonds>
donor molecule, donor type, donor heavy atom, donor atom, acceptor molecule, acceptor atom, score
      P1  H  6896  6909       L1     2  0.53
      P1  H  7997  8009       L1    29  0.37

> <Gold.Chemscore.Hbond.Weighted>
-6.0003

> <Gold.Chemscore.Metal.Weighted>
-0.0000

> <Gold.Chemscore.Lipo.Weighted>
-8.9214

> <Gold.Chemscore.Internal_Hbond.Weighted>
0.0000

> <Gold.Chemscore.DEClash.Weighted>
0.0262

> <Gold.Chemscore.DEInternal.Weighted>
5.1619

> <Gold.Chemscore.Rot.Weighted>
5.9827

> <Gold.Chemscore.Internal.Correction.Weighted>
   9.000000E+99

> <Gold.Protein.RotatedTorsions>
[ 6907 6896 6895 6894 ] final -160.75 input  -60.11 | X-H torsion
[ 7974 7965 7964 7962 ] final  175.76 input  175.53 | X-H torsion
[ 8008 7997 7996 7995 ] final  169.11 input   59.86 | X-H torsion
[ 10167 10162 10161 10158 ] final  112.16 input  -65.29 | X-H torsion
[ 10718 10713 10712 10709 ] final  -97.22 input   66.30 | X-H torsion
[ 10763 10752 10751 10750 ] final   98.08 input  -60.55 | X-H torsion
[ 11005 11000 10999 10996 ] final  128.01 input  -57.11 | X-H torsion

> <Gold.Protein.ActiveResidues>
 VAL166  LYS551  ARG553  GLY616  TRP617  ASP618  TYR619  PRO620  LYS621  CYS622 
 ASP623  PHE694  ASN695  SER759  ASP760  ASP761  ALA762  ILE779  LEU786  VAL792 
 PHE793  MET794  SER795  GLU796  ALA797  LYS798  CYS799  TRP800  GLU811  SER814 

> <Gold.Protein.RotatedAtoms>
  151.3540  133.3914  159.2682 H   0  0  0  0  0  0  0  0  0  0  0  0  # atno 6907 bound_to 6896
  150.9778  134.9140  159.7837 H   0  0  0  0  0  0  0  0  0  0  0  0  # atno 6908 bound_to 6896
  152.5207  134.3503  159.9301 H   0  0  0  0  0  0  0  0  0  0  0  0  # atno 6909 bound_to 6896
  144.7196  139.9995  143.6440 H   0  0  0  0  0  0  0  0  0  0  0  0  # atno 7974 bound_to 7965
  156.1486  140.1572  156.8806 H   0  0  0  0  0  0  0  0  0  0  0  0  # atno 8008 bound_to 7997
  154.5051  140.0815  156.7915 H   0  0  0  0  0  0  0  0  0  0  0  0  # atno 8009 bound_to 7997
  155.3939  140.3411  155.4255 H   0  0  0  0  0  0  0  0  0  0  0  0  # atno 8010 bound_to 7997
  139.6557  144.7129  151.1962 H   0  0  0  0  0  0  0  0  0  0  0  0  # atno 10167 bound_to 10162
  156.0079  130.5185  150.6342 H   0  0  0  0  0  0  0  0  0  0  0  0  # atno 10718 bound_to 10713
  153.2847  135.4161  155.1111 H   0  0  0  0  0  0  0  0  0  0  0  0  # atno 10763 bound_to 10752
  154.8501  135.3504  154.6064 H   0  0  0  0  0  0  0  0  0  0  0  0  # atno 10764 bound_to 10752
  153.6485  135.7054  153.5275 H   0  0  0  0  0  0  0  0  0  0  0  0  # atno 10765 bound_to 10752
  139.9538  134.9617  156.8939 H   0  0  0  0  0  0  0  0  0  0  0  0  # atno 11005 bound_to 11000
  146.0347  139.3366  143.0734 LP  0  0  0  0  0  0  0  0  0  0  0  0  # atno 17320 bound_to 7965
  145.8409  140.9581  143.0799 LP  0  0  0  0  0  0  0  0  0  0  0  0  # atno 17321 bound_to 7965
  140.7558  143.6077  150.8637 LP  0  0  0  0  0  0  0  0  0  0  0  0  # atno 17342 bound_to 10162
  139.9729  143.6036  152.2968 LP  0  0  0  0  0  0  0  0  0  0  0  0  # atno 17343 bound_to 10162
  157.4134  131.0827  151.1199 LP  0  0  0  0  0  0  0  0  0  0  0  0  # atno 17370 bound_to 10713
  157.1824  130.6315  149.5676 LP  0  0  0  0  0  0  0  0  0  0  0  0  # atno 17371 bound_to 10713
  140.5657  134.0491  155.7413 LP  0  0  0  0  0  0  0  0  0  0  0  0  # atno 17394 bound_to 11000
  141.1205  133.9468  157.2738 LP  0  0  0  0  0  0  0  0  0  0  0  0  # atno 17395 bound_to 11000

$$$$
