AV-unprocessed.smi:586|AV-procd|sdf|3001|dock9
  -GOLD-   2262023503D 1   1.00000     0.00000
 Structure written by MMmdl.
 49 49  0  0  0  0  0  0  0  0  1 V2000
  146.0239  133.5761  152.1167 C   0  0  0  0  0  0  0  0  0  0  0  0
  147.0318  132.5248  152.6001 C   0  0  0  0  0  0  0  0  0  0  0  0
  148.4702  133.0523  152.7804 C   0  0  0  0  0  0  0  0  0  0  0  0
  148.9645  132.9585  154.1426 N   0  0  0  0  0  0  0  0  0  0  0  0
  149.2630  134.0792  154.9232 C   0  0  0  0  0  0  0  0  0  0  0  0
  149.0875  135.3305  154.3493 N   0  0  0  0  0  0  0  0  0  0  0  0
  149.6780  133.9645  156.2220 C   0  0  0  0  0  0  0  0  0  0  0  0
  150.0105  135.0941  156.9948 N   0  0  0  0  0  0  0  0  0  0  0  0
  151.2986  135.7331  156.6653 C   0  0  0  0  0  0  0  0  0  0  0  0
  151.1099  137.1011  155.9778 C   0  0  0  0  0  0  0  0  0  0  0  0
  152.2405  137.4537  155.1934 O   0  0  0  0  0  0  0  0  0  0  0  0
  152.2677  138.8145  154.7918 C   0  0  0  0  0  0  0  0  0  0  0  0
  149.2984  135.5225  158.0798 C   0  0  0  0  0  0  0  0  0  0  0  0
  149.8396  136.2586  158.9087 O   0  0  0  0  0  0  0  0  0  0  0  0
  147.7821  135.1925  158.3068 C   0  0  0  0  0  0  0  0  0  0  0  0
  146.8330  135.7154  157.2020 C   0  0  0  0  0  0  0  0  0  0  0  0
  147.3279  135.8871  159.6175 C   0  0  0  0  0  0  0  0  0  0  0  0
  147.5893  133.6750  158.5100 C   0  0  0  0  0  0  0  0  0  0  0  0
  149.9078  132.6380  156.8117 C   0  0  0  0  0  0  0  0  0  0  0  0
  150.3590  132.4181  157.9350 O   0  0  0  0  0  0  0  0  0  0  0  0
  149.5854  131.5643  155.9870 N   0  0  0  0  0  0  0  0  0  0  0  0
  149.1078  131.6578  154.6854 C   0  0  0  0  0  0  0  0  0  0  0  0
  148.8356  130.6257  154.0717 O   0  0  0  0  0  0  0  0  0  0  0  0
  149.7098  130.6373  156.3672 H   0  0  0  0  0  0  0  0  0  0  0  0
  145.0183  133.1573  152.0776 H   0  0  0  0  0  0  0  0  0  0  0  0
  146.2687  133.9332  151.1163 H   0  0  0  0  0  0  0  0  0  0  0  0
  146.0000  134.4362  152.7865 H   0  0  0  0  0  0  0  0  0  0  0  0
  146.6877  132.1263  153.5547 H   0  0  0  0  0  0  0  0  0  0  0  0
  147.0281  131.6833  151.9067 H   0  0  0  0  0  0  0  0  0  0  0  0
  149.1699  132.5547  152.1076 H   0  0  0  0  0  0  0  0  0  0  0  0
  148.5329  134.1075  152.5131 H   0  0  0  0  0  0  0  0  0  0  0  0
  148.7562  135.4394  153.4012 H   0  0  0  0  0  0  0  0  0  0  0  0
  149.2922  136.1816  154.8529 H   0  0  0  0  0  0  0  0  0  0  0  0
  151.8847  135.8641  157.5737 H   0  0  0  0  0  0  0  0  0  0  0  0
  151.8995  135.0774  156.0325 H   0  0  0  0  0  0  0  0  0  0  0  0
  150.2543  137.0587  155.3039 H   0  0  0  0  0  0  0  0  0  0  0  0
  150.8887  137.8836  156.7049 H   0  0  0  0  0  0  0  0  0  0  0  0
  153.1372  138.9862  154.1573 H   0  0  0  0  0  0  0  0  0  0  0  0
  152.3437  139.4901  155.6434 H   0  0  0  0  0  0  0  0  0  0  0  0
  151.3788  139.0750  154.2159 H   0  0  0  0  0  0  0  0  0  0  0  0
  145.7991  135.7427  157.5478 H   0  0  0  0  0  0  0  0  0  0  0  0
  146.8252  135.0764  156.3202 H   0  0  0  0  0  0  0  0  0  0  0  0
  147.0894  136.7295  156.8956 H   0  0  0  0  0  0  0  0  0  0  0  0
  147.4830  136.9663  159.5741 H   0  0  0  0  0  0  0  0  0  0  0  0
  147.8610  135.5090  160.4913 H   0  0  0  0  0  0  0  0  0  0  0  0
  146.2673  135.7236  159.8123 H   0  0  0  0  0  0  0  0  0  0  0  0
  146.6215  133.4581  158.9638 H   0  0  0  0  0  0  0  0  0  0  0  0
  148.3541  133.2514  159.1624 H   0  0  0  0  0  0  0  0  0  0  0  0
  147.6142  133.1281  157.5695 H   0  0  0  0  0  0  0  0  0  0  0  0
  1  2  1  0  0  0  0
  1 25  1  0  0  0  0
  1 26  1  0  0  0  0
  1 27  1  0  0  0  0
  2  3  1  0  0  0  0
  2 28  1  0  0  0  0
  2 29  1  0  0  0  0
  3  4  1  0  0  0  0
  3 30  1  0  0  0  0
  3 31  1  0  0  0  0
  4 22  1  0  0  0  0
  4  5  1  0  0  0  0
  5  6  1  0  0  0  0
  5  7  2  0  0  0  0
  6 32  1  0  0  0  0
  6 33  1  0  0  0  0
  7  8  1  0  0  0  0
  7 19  1  0  0  0  0
  8  9  1  0  0  0  0
  8 13  1  0  0  0  0
  9 10  1  0  0  0  0
  9 34  1  0  0  0  0
  9 35  1  0  0  0  0
 10 11  1  0  0  0  0
 10 36  1  0  0  0  0
 10 37  1  0  0  0  0
 11 12  1  0  0  0  0
 12 38  1  0  0  0  0
 12 39  1  0  0  0  0
 12 40  1  0  0  0  0
 13 14  2  0  0  0  0
 13 15  1  0  0  0  0
 15 16  1  0  0  0  0
 15 17  1  0  0  0  0
 15 18  1  0  0  0  0
 16 41  1  0  0  0  0
 16 42  1  0  0  0  0
 16 43  1  0  0  0  0
 17 44  1  0  0  0  0
 17 45  1  0  0  0  0
 17 46  1  0  0  0  0
 18 47  1  0  0  0  0
 18 48  1  0  0  0  0
 18 49  1  0  0  0  0
 19 20  2  0  0  0  0
 19 21  1  0  0  0  0
 21 24  1  0  0  0  0
 21 22  1  0  0  0  0
 22 23  2  0  0  0  0
M  END
> <s_m_source_file>
AV-unprocessed.smi

> <i_m_source_file_index>
586

> <i_lp_mmshare_version>
43012

> <i_f3d_flags>
0

> <s_epik_input>
W0NIM11bQ0gyXVtDSDJdbjFjKFtOSDJdKWMoYyg9TylbbkhdYzE9TylOKEMoPU8pQyhbQ0gzXSkoW0NIM10pW0NIM10pW0NIMl1bQ0gyXU9bQ0gzXQ==

> <s_epik_cmdline>
J2VwaWtfcHl0aG9uJywgJy1waCcsICc3LjAnLCAnLXRuJywgJzgnLCAnLW1hJywgJzIwMCcsICctbWV0YWxfYmluZGluZycsICctaW1hZScsICc8aW5maWxlLm1hZT4nLCAnLW9tYWUnLCAnPG91dGZpbGUubWFlPic=

> <r_lp_tautomer_probability>
1

> <r_epik_Ionization_Penalty>
2.71493e-05

> <r_epik_Ionization_Penalty_Charging>
5.25815e-06

> <r_epik_Ionization_Penalty_Neutral>
2.18912e-05

> <r_epik_State_Penalty>
-0

> <r_epik_Charging_Adjusted_Penalty>
5.25815e-06

> <i_epik_Tot_Q>
0

> <i_epik_Tot_abs_Q>
0

> <r_epik_Metal_State_Penalty>
-0

> <b_epik_Metal_Only>
0

> <s_epik_Chemistry_Notes>
This compound has an imine and may undergo hydrolysis.

> <s_lp_Force_Field>
OPLS_2005

> <r_lp_Energy>
40.2025

> <b_lp_Chiralities_Consistent>
1

> <s_lp_Variant>
AV-unprocessed.smi:586-1

> <Gold.Version>
5.8.1

> <Gold.Id.Protein>
6NUR|6NUR_protein|mol2

> <Gold.PLP.Fitness>
38.4735

> <Gold.PLP.PLP>
-29.3624

> <Gold.PLP.part.hbond>
-4.0000

> <Gold.PLP.part.metal>
0.0000

> <Gold.PLP.part.buried>
-3.2525

> <Gold.PLP.part.nonpolar>
-23.2847

> <Gold.PLP.part.repulsive>
0.1484

> <Gold.PLP.ligand.clash>
0.0000

> <Gold.PLP.ligand.torsion>
2.2958

> <Gold.PLP.Chemscore.Hbond>
3.6480

> <Gold.PLP.Chemscore.CHOScore>
0.0000

> <Gold.PLP.Chemscore.Metal>
0.0000

> <Gold.Chemscore.Hbonds>
donor molecule, donor type, donor heavy atom, donor atom, acceptor molecule, acceptor atom, score
      L1  H     6    32       P1  7948  0.94
      P1  H  6896  6907       L1    14  0.90
      P1  H  6896  6909       L1    20  1.00
      P1  H 10752 10764       L1    11  0.66

> <Gold.PLP.Chemscore.Internal.Correction>
2.7588

> <Gold.Rescore>
     Score         DG    S(hbond)    S(metal)    S(lipo)     H(rot)  DE(clash)    DE(int)     intcor
     13.68     -16.51       3.37        0.00      43.85       2.08       0.00       2.83       ----

> <Gold.Chemscore.Fitness>
13.6828

> <Gold.Chemscore.DG>
-16.5137

> <Gold.Chemscore.ZeroCoef>
-5.4800

> <Gold.Chemscore.Hbond>
3.3651

> <Gold.Chemscore.Metal>
0.0000

> <Gold.Chemscore.Lipo>
43.8462

> <Gold.Chemscore.Internal_Hbond>
0.0000

> <Gold.Chemscore.DEClash>
0.0009

> <Gold.Chemscore.DEInternal>
2.8300

> <Gold.Chemscore.Rot>
2.0843

> <Gold.Chemscore.Internal.Correction>
   9.000000E+99

> <Gold.Chemscore.Hbonds>
donor molecule, donor type, donor heavy atom, donor atom, acceptor molecule, acceptor atom, score
      L1  H     6    32       P1  7948  0.80
      P1  H  6896  6907       L1    14  0.18
      P1  H  6896  6909       L1    20  0.99
      P1  H 10752 10764       L1    11  0.28

> <Gold.Chemscore.Hbond.Weighted>
-11.2396

> <Gold.Chemscore.Metal.Weighted>
-0.0000

> <Gold.Chemscore.Lipo.Weighted>
-5.1300

> <Gold.Chemscore.Internal_Hbond.Weighted>
0.0000

> <Gold.Chemscore.DEClash.Weighted>
0.0009

> <Gold.Chemscore.DEInternal.Weighted>
2.8300

> <Gold.Chemscore.Rot.Weighted>
5.3359

> <Gold.Chemscore.Internal.Correction.Weighted>
   9.000000E+99

> <Gold.Protein.RotatedTorsions>
[ 6907 6896 6895 6894 ] final  -41.56 input  -60.11 | X-H torsion
[ 7974 7965 7964 7962 ] final -101.88 input  175.53 | X-H torsion
[ 8008 7997 7996 7995 ] final  117.99 input   59.86 | X-H torsion
[ 10167 10162 10161 10158 ] final    1.25 input  -65.29 | X-H torsion
[ 10718 10713 10712 10709 ] final -155.39 input   66.30 | X-H torsion
[ 10763 10752 10751 10750 ] final  -63.52 input  -60.55 | X-H torsion
[ 11005 11000 10999 10996 ] final   88.26 input  -57.11 | X-H torsion

> <Gold.Protein.ActiveResidues>
 VAL166  LYS551  ARG553  GLY616  TRP617  ASP618  TYR619  PRO620  LYS621  CYS622 
 ASP623  PHE694  ASN695  SER759  ASP760  ASP761  ALA762  ILE779  LEU786  VAL792 
 PHE793  MET794  SER795  GLU796  ALA797  LYS798  CYS799  TRP800  GLU811  SER814 

> <Gold.Protein.RotatedAtoms>
  150.9654  134.9035  159.7755 H   0  0  0  0  0  0  0  0  0  0  0  0  # atno 6907 bound_to 6896
  152.5171  134.3615  159.9296 H   0  0  0  0  0  0  0  0  0  0  0  0  # atno 6908 bound_to 6896
  151.3626  133.3843  159.2726 H   0  0  0  0  0  0  0  0  0  0  0  0  # atno 6909 bound_to 6896
  145.2759  140.9312  143.2960 H   0  0  0  0  0  0  0  0  0  0  0  0  # atno 7974 bound_to 7965
  156.2523  140.2884  156.0764 H   0  0  0  0  0  0  0  0  0  0  0  0  # atno 8008 bound_to 7997
  155.1614  140.0399  157.2860 H   0  0  0  0  0  0  0  0  0  0  0  0  # atno 8009 bound_to 7997
  154.6390  140.2517  155.7351 H   0  0  0  0  0  0  0  0  0  0  0  0  # atno 8010 bound_to 7997
  140.6691  143.7097  150.7887 H   0  0  0  0  0  0  0  0  0  0  0  0  # atno 10167 bound_to 10162
  156.5123  130.8440  151.2651 H   0  0  0  0  0  0  0  0  0  0  0  0  # atno 10718 bound_to 10713
  154.3163  135.6205  153.5488 H   0  0  0  0  0  0  0  0  0  0  0  0  # atno 10763 bound_to 10752
  152.9824  135.5713  154.5120 H   0  0  0  0  0  0  0  0  0  0  0  0  # atno 10764 bound_to 10752
  154.4780  135.2862  155.1569 H   0  0  0  0  0  0  0  0  0  0  0  0  # atno 10765 bound_to 10752
  139.8900  134.8476  156.2976 H   0  0  0  0  0  0  0  0  0  0  0  0  # atno 11005 bound_to 11000
  144.9295  139.4316  143.6502 LP  0  0  0  0  0  0  0  0  0  0  0  0  # atno 17320 bound_to 7965
  146.3232  139.8198  142.8929 LP  0  0  0  0  0  0  0  0  0  0  0  0  # atno 17321 bound_to 7965
  140.0779  143.4997  152.2545 LP  0  0  0  0  0  0  0  0  0  0  0  0  # atno 17342 bound_to 10162
  139.5952  144.7564  151.3303 LP  0  0  0  0  0  0  0  0  0  0  0  0  # atno 17343 bound_to 10162
  157.7449  130.9945  150.2711 LP  0  0  0  0  0  0  0  0  0  0  0  0  # atno 17370 bound_to 10713
  156.3229  130.3788  149.7559 LP  0  0  0  0  0  0  0  0  0  0  0  0  # atno 17371 bound_to 10713
  140.9935  133.7194  156.0850 LP  0  0  0  0  0  0  0  0  0  0  0  0  # atno 17394 bound_to 11000
  140.7594  134.3956  157.5528 LP  0  0  0  0  0  0  0  0  0  0  0  0  # atno 17395 bound_to 11000

$$$$
