AV-unprocessed.smi:3072|AV-procd|sdf|11717|dock4
  -GOLD-   2272017123D 1   1.00000     0.00000
 Structure written by MMmdl.
 25 26  0  0  0  0  0  0  0  0  2 V2000
  152.1214  137.9055  155.7289 C   0  0  0  0  0  0  0  0  0  0  0  0
  151.9438  136.9278  154.8549 N   0  0  0  0  0  0  0  0  0  0  0  0
  151.2288  137.5048  153.8722 N   0  0  0  0  0  0  0  0  0  0  0  0
  150.9555  138.8297  154.1171 C   0  0  0  0  0  0  0  0  0  0  0  0
  151.5242  139.1360  155.3233 C   0  0  0  0  0  0  0  0  0  0  0  0
  151.5350  140.4480  156.0655 C   0  0  2  0  0  0  0  0  0  0  0  0
  151.5069  140.2323  157.5911 C   0  0  0  0  0  0  0  0  0  0  0  0
  151.4745  141.5816  158.3261 C   0  0  0  0  0  0  0  0  0  0  0  0
  150.3030  142.4478  157.8349 C   0  0  0  0  0  0  0  0  0  0  0  0
  150.3643  142.6262  156.3681 N   0  3  0  0  0  0  0  0  0  0  0  0
  150.3569  141.3440  155.6302 C   0  0  0  0  0  0  0  0  0  0  0  0
  150.9390  136.9890  153.0531 H   0  0  0  0  0  0  0  0  0  0  0  0
  152.6793  137.6965  156.6298 H   0  0  0  0  0  0  0  0  0  0  0  0
  150.3895  139.4340  153.4235 H   0  0  0  0  0  0  0  0  0  0  0  0
  152.4566  140.9824  155.8285 H   0  0  0  0  0  0  0  0  0  0  0  0
  150.6302  139.6469  157.8716 H   0  0  0  0  0  0  0  0  0  0  0  0
  152.3788  139.6585  157.9073 H   0  0  0  0  0  0  0  0  0  0  0  0
  151.3937  141.4188  159.4012 H   0  0  0  0  0  0  0  0  0  0  0  0
  152.4148  142.1102  158.1633 H   0  0  0  0  0  0  0  0  0  0  0  0
  149.3511  141.9863  158.1016 H   0  0  0  0  0  0  0  0  0  0  0  0
  150.3283  143.4266  158.3146 H   0  0  0  0  0  0  0  0  0  0  0  0
  149.5734  143.1799  156.0714 H   0  0  0  0  0  0  0  0  0  0  0  0
  150.4151  141.5550  154.5619 H   0  0  0  0  0  0  0  0  0  0  0  0
  149.4044  140.8414  155.8040 H   0  0  0  0  0  0  0  0  0  0  0  0
  151.2137  143.1230  156.1401 H   0  0  0  0  0  0  0  0  0  0  0  0
  1  5  1  0  0  0  0
  1  2  2  0  0  0  0
  1 13  1  0  0  0  0
  2  3  1  0  0  0  0
  3 12  1  0  0  0  0
  3  4  1  0  0  0  0
  4  5  2  0  0  0  0
  4 14  1  0  0  0  0
  5  6  1  0  0  0  0
  6 11  1  0  0  0  0
  6  7  1  0  0  0  0
  6 15  1  0  0  0  0
  7  8  1  0  0  0  0
  7 16  1  0  0  0  0
  7 17  1  0  0  0  0
  8  9  1  0  0  0  0
  8 18  1  0  0  0  0
  8 19  1  0  0  0  0
  9 10  1  0  0  0  0
  9 20  1  0  0  0  0
  9 21  1  0  0  0  0
 10 11  1  0  0  0  0
 10 22  1  0  0  0  0
 10 25  1  0  0  0  0
 11 23  1  0  0  0  0
 11 24  1  0  0  0  0
M  CHG  1  10   1
M  END
> <s_m_source_file>
AV-unprocessed.smi

> <i_m_source_file_index>
3072

> <i_lp_mmshare_version>
43012

> <i_f3d_flags>
0

> <s_epik_input>
W2NIXTFbbkhdbltjSF1jMVtDQEBIXTJbQ0gyXVtDSDJdW0NIMl1bTkhdW0NIMl0y

> <s_epik_cmdline>
J2VwaWtfcHl0aG9uJywgJy1waCcsICc3LjAnLCAnLXRuJywgJzgnLCAnLW1hJywgJzIwMCcsICctbWV0YWxfYmluZGluZycsICctaW1hZScsICc8aW5maWxlLm1hZT4nLCAnLW9tYWUnLCAnPG91dGZpbGUubWFlPic=

> <r_lp_tautomer_probability>
1

> <r_epik_Ionization_Penalty>
0.000160186

> <r_epik_Ionization_Penalty_Charging>
0.000157527

> <r_epik_Ionization_Penalty_Neutral>
2.65916e-06

> <r_epik_State_Penalty>
-0

> <r_epik_Charging_Adjusted_Penalty>
0.000157527

> <i_epik_Tot_Q>
1

> <i_epik_Tot_abs_Q>
1

> <r_epik_Metal_State_Penalty>
-0

> <b_epik_Metal_Only>
0

> <s_lp_Force_Field>
OPLS_2005

> <r_lp_Energy>
12.3326

> <b_lp_Chiralities_Consistent>
1

> <s_lp_Variant>
AV-unprocessed.smi:3072-1

> <Gold.Version>
5.8.1

> <Gold.Id.Protein>
6NUR|6NUR_protein|mol2

> <Gold.PLP.Fitness>
36.1726

> <Gold.PLP.PLP>
-22.9961

> <Gold.PLP.part.hbond>
-3.3498

> <Gold.PLP.part.metal>
0.0000

> <Gold.PLP.part.buried>
-3.1639

> <Gold.PLP.part.nonpolar>
-15.3028

> <Gold.PLP.part.repulsive>
0.3249

> <Gold.PLP.ligand.clash>
0.0000

> <Gold.PLP.ligand.torsion>
0.6929

> <Gold.PLP.Chemscore.Hbond>
3.8500

> <Gold.PLP.Chemscore.CHOScore>
1.0000

> <Gold.PLP.Chemscore.Metal>
0.0000

> <Gold.Chemscore.Hbonds>
donor molecule, donor type, donor heavy atom, donor atom, acceptor molecule, acceptor atom, score
      L1  H     3    12       P1  7949  0.95
      L1  H    10    22       P1  8028  1.98
      P1  H 10752 10764       L1     2  1.00
      L1  C     4    14       P1  7957  1.00

> <Gold.PLP.Chemscore.Internal.Correction>
0.0123

> <Gold.Rescore>
     Score         DG    S(hbond)    S(metal)    S(lipo)     H(rot)  DE(clash)    DE(int)     intcor
     15.33     -16.73       2.34        0.00      51.11       1.00       0.65       0.74       ----

> <Gold.Chemscore.Fitness>
15.3295

> <Gold.Chemscore.DG>
-16.7251

> <Gold.Chemscore.ZeroCoef>
-5.4800

> <Gold.Chemscore.Hbond>
2.3430

> <Gold.Chemscore.Metal>
0.0000

> <Gold.Chemscore.Lipo>
51.1074

> <Gold.Chemscore.Internal_Hbond>
0.0000

> <Gold.Chemscore.DEClash>
0.6518

> <Gold.Chemscore.DEInternal>
0.7438

> <Gold.Chemscore.Rot>
1.0000

> <Gold.Chemscore.Internal.Correction>
   9.000000E+99

> <Gold.Chemscore.Hbonds>
donor molecule, donor type, donor heavy atom, donor atom, acceptor molecule, acceptor atom, score
      L1  H     3    12       P1  7949  0.21
      L1  H    10    22       P1  8028  0.94
      P1  H 10752 10764       L1     2  0.95

> <Gold.Chemscore.Hbond.Weighted>
-7.8255

> <Gold.Chemscore.Metal.Weighted>
-0.0000

> <Gold.Chemscore.Lipo.Weighted>
-5.9796

> <Gold.Chemscore.Internal_Hbond.Weighted>
0.0000

> <Gold.Chemscore.DEClash.Weighted>
0.6518

> <Gold.Chemscore.DEInternal.Weighted>
0.7438

> <Gold.Chemscore.Rot.Weighted>
2.5600

> <Gold.Chemscore.Internal.Correction.Weighted>
   9.000000E+99

> <Gold.Protein.RotatedTorsions>
[ 6907 6896 6895 6894 ] final  -64.37 input  -60.11 | X-H torsion
[ 7974 7965 7964 7962 ] final  148.92 input  175.53 | X-H torsion
[ 8008 7997 7996 7995 ] final  138.50 input   59.86 | X-H torsion
[ 10167 10162 10161 10158 ] final  122.37 input  -65.29 | X-H torsion
[ 10718 10713 10712 10709 ] final   29.49 input   66.30 | X-H torsion
[ 10763 10752 10751 10750 ] final  -63.27 input  -60.55 | X-H torsion
[ 11005 11000 10999 10996 ] final   78.45 input  -57.11 | X-H torsion

> <Gold.Protein.ActiveResidues>
 VAL166  LYS551  ARG553  GLY616  TRP617  ASP618  TYR619  PRO620  LYS621  CYS622 
 ASP623  PHE694  ASN695  SER759  ASP760  ASP761  ALA762  ILE779  LEU786  VAL792 
 PHE793  MET794  SER795  GLU796  ALA797  LYS798  CYS799  TRP800  GLU811  SER814 

> <Gold.Protein.RotatedAtoms>
  150.7589  134.6307  159.6184 H   0  0  0  0  0  0  0  0  0  0  0  0  # atno 6907 bound_to 6896
  152.3585  134.6902  160.0223 H   0  0  0  0  0  0  0  0  0  0  0  0  # atno 6908 bound_to 6896
  151.7300  133.3281  159.3374 H   0  0  0  0  0  0  0  0  0  0  0  0  # atno 6909 bound_to 6896
  144.8477  139.6215  143.5988 H   0  0  0  0  0  0  0  0  0  0  0  0  # atno 7974 bound_to 7965
  156.2997  140.2392  156.4083 H   0  0  0  0  0  0  0  0  0  0  0  0  # atno 8008 bound_to 7997
  154.8464  140.0426  157.1595 H   0  0  0  0  0  0  0  0  0  0  0  0  # atno 8009 bound_to 7997
  154.9046  140.2982  155.5302 H   0  0  0  0  0  0  0  0  0  0  0  0  # atno 8010 bound_to 7997
  139.5863  144.7007  151.3401 H   0  0  0  0  0  0  0  0  0  0  0  0  # atno 10167 bound_to 10162
  157.2473  130.7098  149.6387 H   0  0  0  0  0  0  0  0  0  0  0  0  # atno 10718 bound_to 10713
  154.3125  135.6212  153.5472 H   0  0  0  0  0  0  0  0  0  0  0  0  # atno 10763 bound_to 10752
  152.9828  135.5704  154.5161 H   0  0  0  0  0  0  0  0  0  0  0  0  # atno 10764 bound_to 10752
  154.4813  135.2863  155.1544 H   0  0  0  0  0  0  0  0  0  0  0  0  # atno 10765 bound_to 10752
  139.9212  134.7764  156.1651 H   0  0  0  0  0  0  0  0  0  0  0  0  # atno 11005 bound_to 11000
  146.2758  139.6750  142.9264 LP  0  0  0  0  0  0  0  0  0  0  0  0  # atno 17320 bound_to 7965
  145.4563  141.0431  143.2776 LP  0  0  0  0  0  0  0  0  0  0  0  0  # atno 17321 bound_to 7965
  140.7134  143.7330  150.7609 LP  0  0  0  0  0  0  0  0  0  0  0  0  # atno 17342 bound_to 10162
  140.0876  143.4909  152.2496 LP  0  0  0  0  0  0  0  0  0  0  0  0  # atno 17343 bound_to 10162
  155.9667  130.4439  150.5440 LP  0  0  0  0  0  0  0  0  0  0  0  0  # atno 17370 bound_to 10713
  157.3316  131.0700  151.1857 LP  0  0  0  0  0  0  0  0  0  0  0  0  # atno 17371 bound_to 10713
  141.0734  133.6786  156.2187 LP  0  0  0  0  0  0  0  0  0  0  0  0  # atno 17394 bound_to 11000
  140.6469  134.5108  157.5574 LP  0  0  0  0  0  0  0  0  0  0  0  0  # atno 17395 bound_to 11000

$$$$
