AV-unprocessed.smi:1648|AV-procd|sdf|6633|dock8
  -GOLD-   22720 7333D 1   1.00000     0.00000
 Structure written by MMmdl.
 41 41  0  0  0  0  0  0  0  0  1 V2000
  150.8607  137.4396  154.4982 C   0  0  0  0  0  0  0  0  0  0  0  0
  149.5090  138.0395  154.8902 C   0  0  0  0  0  0  0  0  0  0  0  0
  149.3937  138.6132  155.9706 O   0  0  0  0  0  0  0  0  0  0  0  0
  148.4681  137.9250  154.0468 N   0  0  0  0  0  0  0  0  0  0  0  0
  147.1047  138.4279  154.2391 C   0  0  2  0  0  0  0  0  0  0  0  0
  146.1128  137.2833  153.9565 C   0  0  0  0  0  0  0  0  0  0  0  0
  144.9289  137.3844  154.2823 O   0  0  0  0  0  0  0  0  0  0  0  0
  146.6203  136.1958  153.3557 N   0  0  0  0  0  0  0  0  0  0  0  0
  145.8684  134.9993  152.9911 C   0  0  1  0  0  0  0  0  0  0  0  0
  145.2546  134.3558  154.2490 C   0  0  0  0  0  0  0  0  0  0  0  0
  144.8193  135.3742  151.9253 C   0  0  0  0  0  0  0  0  0  0  0  0
  144.3760  134.2350  151.1440 N   0  0  0  0  0  0  0  0  0  0  0  0
  143.7807  133.0728  151.6172 C   0  0  0  0  0  0  0  0  0  0  0  0
  143.5320  132.2829  150.5176 C   0  0  0  0  0  0  0  0  0  0  0  0
  143.9583  132.9373  149.3642 N   0  0  0  0  0  0  0  0  0  0  0  0
  144.4438  134.0872  149.8137 C   0  0  0  0  0  0  0  0  0  0  0  0
  146.8571  139.6006  153.2443 C   0  0  0  0  0  0  0  0  0  0  0  0
  146.9973  139.1492  151.7768 C   0  0  0  0  0  0  0  0  0  0  0  0
  147.7881  140.8067  153.4892 C   0  0  0  0  0  0  0  0  0  0  0  0
  150.7820  136.3595  154.3738 H   0  0  0  0  0  0  0  0  0  0  0  0
  151.6048  137.6329  155.2718 H   0  0  0  0  0  0  0  0  0  0  0  0
  151.2260  137.8755  153.5682 H   0  0  0  0  0  0  0  0  0  0  0  0
  148.6330  137.4216  153.1871 H   0  0  0  0  0  0  0  0  0  0  0  0
  146.9767  138.7940  155.2593 H   0  0  0  0  0  0  0  0  0  0  0  0
  147.6044  136.1992  153.1293 H   0  0  0  0  0  0  0  0  0  0  0  0
  146.5558  134.2800  152.5416 H   0  0  0  0  0  0  0  0  0  0  0  0
  144.7496  133.4188  154.0133 H   0  0  0  0  0  0  0  0  0  0  0  0
  144.5264  135.0190  154.7170 H   0  0  0  0  0  0  0  0  0  0  0  0
  146.0204  134.1274  154.9911 H   0  0  0  0  0  0  0  0  0  0  0  0
  143.9462  135.8286  152.3962 H   0  0  0  0  0  0  0  0  0  0  0  0
  145.2271  136.1183  151.2394 H   0  0  0  0  0  0  0  0  0  0  0  0
  143.5914  132.9066  152.6676 H   0  0  0  0  0  0  0  0  0  0  0  0
  143.0814  131.3027  150.4682 H   0  0  0  0  0  0  0  0  0  0  0  0
  144.8615  134.8390  149.1599 H   0  0  0  0  0  0  0  0  0  0  0  0
  145.8319  139.9530  153.3721 H   0  0  0  0  0  0  0  0  0  0  0  0
  147.9915  138.7461  151.5814 H   0  0  0  0  0  0  0  0  0  0  0  0
  146.8382  139.9832  151.0925 H   0  0  0  0  0  0  0  0  0  0  0  0
  146.2692  138.3819  151.5130 H   0  0  0  0  0  0  0  0  0  0  0  0
  148.8368  140.5152  153.4235 H   0  0  0  0  0  0  0  0  0  0  0  0
  147.6282  141.2599  154.4675 H   0  0  0  0  0  0  0  0  0  0  0  0
  147.6171  141.5899  152.7498 H   0  0  0  0  0  0  0  0  0  0  0  0
  1  2  1  0  0  0  0
  1 20  1  0  0  0  0
  1 21  1  0  0  0  0
  1 22  1  0  0  0  0
  2  3  2  0  0  0  0
  2  4  1  0  0  0  0
  4  5  1  0  0  0  0
  4 23  1  0  0  0  0
  5  6  1  0  0  0  0
  5 17  1  0  0  0  0
  5 24  1  0  0  0  0
  6  7  2  0  0  0  0
  6  8  1  0  0  0  0
  8  9  1  0  0  0  0
  8 25  1  0  0  0  0
  9 10  1  0  0  0  0
  9 11  1  0  0  0  0
  9 26  1  0  0  0  0
 10 27  1  0  0  0  0
 10 28  1  0  0  0  0
 10 29  1  0  0  0  0
 11 12  1  0  0  0  0
 11 30  1  0  0  0  0
 11 31  1  0  0  0  0
 12 16  1  0  0  0  0
 12 13  1  0  0  0  0
 13 14  2  0  0  0  0
 13 32  1  0  0  0  0
 14 15  1  0  0  0  0
 14 33  1  0  0  0  0
 15 16  2  0  0  0  0
 16 34  1  0  0  0  0
 17 18  1  0  0  0  0
 17 19  1  0  0  0  0
 17 35  1  0  0  0  0
 18 36  1  0  0  0  0
 18 37  1  0  0  0  0
 18 38  1  0  0  0  0
 19 39  1  0  0  0  0
 19 40  1  0  0  0  0
 19 41  1  0  0  0  0
M  END
> <s_m_source_file>
AV-unprocessed.smi

> <i_m_source_file_index>
1648

> <i_lp_mmshare_version>
43012

> <i_f3d_flags>
0

> <s_epik_input>
W0NIM11DKD1PKVtOSF1bQ0BASF0oW0NIXShbQ0gzXSlbQ0gzXSlDKD1PKVtOSF1bQ0BIXShbQ0gzXSlbQ0gyXW4xW2NIXVtjSF1uW2NIXTE=

> <s_epik_cmdline>
J2VwaWtfcHl0aG9uJywgJy1waCcsICc3LjAnLCAnLXRuJywgJzgnLCAnLW1hJywgJzIwMCcsICctbWV0YWxfYmluZGluZycsICctaW1hZScsICc8aW5maWxlLm1hZT4nLCAnLW9tYWUnLCAnPG91dGZpbGUubWFlPic=

> <r_lp_tautomer_probability>
1

> <r_epik_Ionization_Penalty>
0.628885

> <r_epik_Ionization_Penalty_Charging>
0.628884

> <r_epik_Ionization_Penalty_Neutral>
4.35155e-07

> <r_epik_State_Penalty>
0.64556

> <r_epik_Charging_Adjusted_Penalty>
1.27444

> <i_epik_Tot_Q>
0

> <i_epik_Tot_abs_Q>
0

> <r_epik_Metal_State_Penalty>
0.30874

> <b_epik_Metal_Only>
0

> <s_lp_Force_Field>
OPLS_2005

> <r_lp_Energy>
9.63914

> <b_lp_Chiralities_Consistent>
1

> <s_lp_Variant>
AV-unprocessed.smi:1648-7

> <Gold.Version>
5.8.1

> <Gold.Id.Protein>
6NUR|6NUR_protein|mol2

> <Gold.PLP.Fitness>
40.8428

> <Gold.PLP.PLP>
-27.6479

> <Gold.PLP.part.hbond>
-2.0000

> <Gold.PLP.part.metal>
0.0000

> <Gold.PLP.part.buried>
-0.0794

> <Gold.PLP.part.nonpolar>
-26.4302

> <Gold.PLP.part.repulsive>
0.3416

> <Gold.PLP.ligand.clash>
0.0000

> <Gold.PLP.ligand.torsion>
0.6142

> <Gold.PLP.Chemscore.Hbond>
2.0000

> <Gold.PLP.Chemscore.CHOScore>
2.7749

> <Gold.PLP.Chemscore.Metal>
0.0000

> <Gold.Chemscore.Hbonds>
donor molecule, donor type, donor heavy atom, donor atom, acceptor molecule, acceptor atom, score
      L1  H     4    23       P1  7948  1.00
      L1  H     8    25       P1  7948  0.99
      L1  C    13    32       P1 10957  0.91
      L1  C    14    33       P1 10952  0.79
      L1  C    16    34       P1  7921  0.89

> <Gold.PLP.Chemscore.Internal.Correction>
0.0986

> <Gold.Rescore>
     Score         DG    S(hbond)    S(metal)    S(lipo)     H(rot)  DE(clash)    DE(int)     intcor
      9.93     -12.44       1.96        0.00      58.78       2.52       1.00       1.51       ----

> <Gold.Chemscore.Fitness>
9.9322

> <Gold.Chemscore.DG>
-12.4370

> <Gold.Chemscore.ZeroCoef>
-5.4800

> <Gold.Chemscore.Hbond>
1.9565

> <Gold.Chemscore.Metal>
0.0000

> <Gold.Chemscore.Lipo>
58.7820

> <Gold.Chemscore.Internal_Hbond>
0.0000

> <Gold.Chemscore.DEClash>
0.9965

> <Gold.Chemscore.DEInternal>
1.5083

> <Gold.Chemscore.Rot>
2.5216

> <Gold.Chemscore.Internal.Correction>
   9.000000E+99

> <Gold.Chemscore.Hbonds>
donor molecule, donor type, donor heavy atom, donor atom, acceptor molecule, acceptor atom, score
      L1  H     4    23       P1  7948  1.00
      L1  H     8    25       P1  7948  0.93

> <Gold.Chemscore.Hbond.Weighted>
-6.5347

> <Gold.Chemscore.Metal.Weighted>
-0.0000

> <Gold.Chemscore.Lipo.Weighted>
-6.8775

> <Gold.Chemscore.Internal_Hbond.Weighted>
0.0000

> <Gold.Chemscore.DEClash.Weighted>
0.9965

> <Gold.Chemscore.DEInternal.Weighted>
1.5083

> <Gold.Chemscore.Rot.Weighted>
6.4553

> <Gold.Chemscore.Internal.Correction.Weighted>
   9.000000E+99

> <Gold.Protein.RotatedTorsions>
[ 6907 6896 6895 6894 ] final  -99.37 input  -60.11 | X-H torsion
[ 7974 7965 7964 7962 ] final   77.09 input  175.53 | X-H torsion
[ 8008 7997 7996 7995 ] final  -38.43 input   59.86 | X-H torsion
[ 10167 10162 10161 10158 ] final  -49.41 input  -65.29 | X-H torsion
[ 10718 10713 10712 10709 ] final   66.21 input   66.30 | X-H torsion
[ 10763 10752 10751 10750 ] final  -75.12 input  -60.55 | X-H torsion
[ 11005 11000 10999 10996 ] final  125.61 input  -57.11 | X-H torsion

> <Gold.Protein.ActiveResidues>
 VAL166  LYS551  ARG553  GLY616  TRP617  ASP618  TYR619  PRO620  LYS621  CYS622 
 ASP623  PHE694  ASN695  SER759  ASP760  ASP761  ALA762  ILE779  LEU786  VAL792 
 PHE793  MET794  SER795  GLU796  ALA797  LYS798  CYS799  TRP800  GLU811  SER814 

> <Gold.Protein.RotatedAtoms>
  150.7077  134.1052  159.3979 H   0  0  0  0  0  0  0  0  0  0  0  0  # atno 6907 bound_to 6896
  151.9038  135.0365  160.0518 H   0  0  0  0  0  0  0  0  0  0  0  0  # atno 6908 bound_to 6896
  152.2392  133.5086  159.5297 H   0  0  0  0  0  0  0  0  0  0  0  0  # atno 6909 bound_to 6896
  145.6945  139.2563  143.1740 H   0  0  0  0  0  0  0  0  0  0  0  0  # atno 7974 bound_to 7965
  154.4037  140.1578  156.2699 H   0  0  0  0  0  0  0  0  0  0  0  0  # atno 8008 bound_to 7997
  155.8962  140.3436  155.5970 H   0  0  0  0  0  0  0  0  0  0  0  0  # atno 8009 bound_to 7997
  155.7501  140.0804  157.2196 H   0  0  0  0  0  0  0  0  0  0  0  0  # atno 8010 bound_to 7997
  140.6686  143.2699  151.4212 H   0  0  0  0  0  0  0  0  0  0  0  0  # atno 10167 bound_to 10162
  157.6155  130.9255  150.0079 H   0  0  0  0  0  0  0  0  0  0  0  0  # atno 10718 bound_to 10713
  154.4823  135.5842  153.6398 H   0  0  0  0  0  0  0  0  0  0  0  0  # atno 10763 bound_to 10752
  152.9849  135.6092  154.3231 H   0  0  0  0  0  0  0  0  0  0  0  0  # atno 10764 bound_to 10752
  154.3123  135.2845  155.2539 H   0  0  0  0  0  0  0  0  0  0  0  0  # atno 10765 bound_to 10752
  139.9415  134.9635  156.8584 H   0  0  0  0  0  0  0  0  0  0  0  0  # atno 11005 bound_to 11000
  146.0852  140.7719  142.9622 LP  0  0  0  0  0  0  0  0  0  0  0  0  # atno 17320 bound_to 7965
  144.6986  140.3551  143.7174 LP  0  0  0  0  0  0  0  0  0  0  0  0  # atno 17321 bound_to 7965
  139.5945  144.1428  152.2127 LP  0  0  0  0  0  0  0  0  0  0  0  0  # atno 17342 bound_to 10162
  140.0793  144.5714  150.7134 LP  0  0  0  0  0  0  0  0  0  0  0  0  # atno 17343 bound_to 10162
  156.1275  130.3644  149.9786 LP  0  0  0  0  0  0  0  0  0  0  0  0  # atno 17370 bound_to 10713
  156.7854  130.9236  151.3646 LP  0  0  0  0  0  0  0  0  0  0  0  0  # atno 17371 bound_to 10713
  140.5940  134.0235  155.7511 LP  0  0  0  0  0  0  0  0  0  0  0  0  # atno 17394 bound_to 11000
  141.1051  133.9706  157.3011 LP  0  0  0  0  0  0  0  0  0  0  0  0  # atno 17395 bound_to 11000

$$$$
