AV-unprocessed.smi:275|AV-procd|sdf|2065|dock2
  -GOLD-   2262021313D 1   1.00000     0.00000
 Structure written by MMmdl.
 65 69  0  0  0  0  0  0  0  0  1 V2000
  147.1418  134.1157  162.2367 C   0  0  0  0  0  0  0  0  0  0  0  0
  147.0861  135.4416  161.4598 C   0  0  0  0  0  0  0  0  0  0  0  0
  147.2200  136.5937  162.4744 C   0  0  0  0  0  0  0  0  0  0  0  0
  145.8141  135.5958  160.5847 C   0  0  1  0  0  0  0  0  0  0  0  0
  145.7873  134.4678  159.6485 N   0  0  0  0  0  0  0  0  0  0  0  0
  145.5163  134.7727  158.2740 C   0  0  0  0  0  0  0  0  0  0  0  0
  145.0787  133.7820  157.4495 N   0  0  0  0  0  0  0  0  0  0  0  0
  144.7990  134.0134  156.1647 C   0  0  0  0  0  0  0  0  0  0  0  0
  144.8941  135.1553  155.4863 N   0  0  0  0  0  0  0  0  0  0  0  0
  145.3664  136.1543  156.2823 C   0  0  0  0  0  0  0  0  0  0  0  0
  145.7086  136.0485  157.6620 C   0  0  0  0  0  0  0  0  0  0  0  0
  146.1700  137.2789  158.1176 N   0  0  0  0  0  0  0  0  0  0  0  0
  146.0851  138.0662  157.0817 C   0  0  0  0  0  0  0  0  0  0  0  0
  145.5877  137.4775  155.9435 N   0  0  0  0  0  0  0  0  0  0  0  0
  145.3729  138.1200  154.6606 C   0  0  0  0  0  0  0  0  0  0  0  0
  146.6747  138.4088  153.8628 C   0  0  1  0  0  0  0  0  0  0  0  0
  146.3291  138.5108  152.3572 C   0  0  0  0  0  0  0  0  0  0  0  0
  147.4794  138.3368  151.5554 O   0  0  0  0  0  0  0  0  0  0  0  0
  147.4325  139.6743  154.3703 C   0  0  2  0  0  0  0  0  0  0  0  0
  146.9334  140.9998  153.8115 C   0  0  0  0  0  0  0  0  0  0  0  0
  148.1152  141.9241  154.0581 C   0  0  0  0  0  0  0  0  0  0  0  0
  149.2375  141.1197  153.7409 O   0  0  0  0  0  0  0  0  0  0  0  0
  148.9272  139.7541  154.0006 C   0  0  0  0  0  0  0  0  0  0  0  0
  144.7293  133.8035  160.4010 C   0  0  0  0  0  0  0  0  0  0  0  0
  144.3779  135.1639  161.0205 C   0  0  0  0  0  0  0  0  0  0  0  0
  143.2013  135.8869  160.3189 C   0  0  0  0  0  0  0  0  0  0  0  0
  142.8955  137.2775  160.8923 C   0  0  0  0  0  0  0  0  0  0  0  0
  142.5478  137.1811  162.3792 C   0  0  0  0  0  0  0  0  0  0  0  0
  143.6738  136.4800  163.1415 C   0  0  0  0  0  0  0  0  0  0  0  0
  144.0184  135.1101  162.5195 C   0  0  0  0  0  0  0  0  0  0  0  0
  146.1936  133.9031  162.7314 H   0  0  0  0  0  0  0  0  0  0  0  0
  147.9137  134.1423  163.0064 H   0  0  0  0  0  0  0  0  0  0  0  0
  147.3958  133.2758  161.5952 H   0  0  0  0  0  0  0  0  0  0  0  0
  147.9719  135.4719  160.8233 H   0  0  0  0  0  0  0  0  0  0  0  0
  146.3942  136.5918  163.1860 H   0  0  0  0  0  0  0  0  0  0  0  0
  147.2373  137.5678  161.9854 H   0  0  0  0  0  0  0  0  0  0  0  0
  148.1450  136.5101  163.0457 H   0  0  0  0  0  0  0  0  0  0  0  0
  145.7697  136.5691  160.0980 H   0  0  0  0  0  0  0  0  0  0  0  0
  144.4444  133.1623  155.6022 H   0  0  0  0  0  0  0  0  0  0  0  0
  146.3696  139.1074  157.1232 H   0  0  0  0  0  0  0  0  0  0  0  0
  144.7085  137.4703  154.0907 H   0  0  0  0  0  0  0  0  0  0  0  0
  144.8225  139.0476  154.8207 H   0  0  0  0  0  0  0  0  0  0  0  0
  147.3457  137.5561  153.9781 H   0  0  0  0  0  0  0  0  0  0  0  0
  145.5782  137.7703  152.0794 H   0  0  0  0  0  0  0  0  0  0  0  0
  145.9243  139.4891  152.1028 H   0  0  0  0  0  0  0  0  0  0  0  0
  148.0269  139.1021  151.6438 H   0  0  0  0  0  0  0  0  0  0  0  0
  147.3451  139.7252  155.4570 H   0  0  0  0  0  0  0  0  0  0  0  0
  146.7426  140.9193  152.7404 H   0  0  0  0  0  0  0  0  0  0  0  0
  146.0252  141.3563  154.2983 H   0  0  0  0  0  0  0  0  0  0  0  0
  148.0822  142.8277  153.4494 H   0  0  0  0  0  0  0  0  0  0  0  0
  148.1657  142.2157  155.1081 H   0  0  0  0  0  0  0  0  0  0  0  0
  149.5626  139.3844  154.8043 H   0  0  0  0  0  0  0  0  0  0  0  0
  149.1529  139.1818  153.1006 H   0  0  0  0  0  0  0  0  0  0  0  0
  143.9193  133.3446  159.8342 H   0  0  0  0  0  0  0  0  0  0  0  0
  145.1459  133.1006  161.1239 H   0  0  0  0  0  0  0  0  0  0  0  0
  143.3894  136.0016  159.2524 H   0  0  0  0  0  0  0  0  0  0  0  0
  142.3017  135.2733  160.3831 H   0  0  0  0  0  0  0  0  0  0  0  0
  143.7561  137.9325  160.7518 H   0  0  0  0  0  0  0  0  0  0  0  0
  142.0679  137.7313  160.3465 H   0  0  0  0  0  0  0  0  0  0  0  0
  142.3752  138.1754  162.7922 H   0  0  0  0  0  0  0  0  0  0  0  0
  141.6177  136.6252  162.5039 H   0  0  0  0  0  0  0  0  0  0  0  0
  144.5421  137.1349  163.1375 H   0  0  0  0  0  0  0  0  0  0  0  0
  143.3909  136.3519  164.1867 H   0  0  0  0  0  0  0  0  0  0  0  0
  143.1603  134.4508  162.6565 H   0  0  0  0  0  0  0  0  0  0  0  0
  144.8188  134.6387  163.0884 H   0  0  0  0  0  0  0  0  0  0  0  0
  1  2  1  0  0  0  0
  1 31  1  0  0  0  0
  1 32  1  0  0  0  0
  1 33  1  0  0  0  0
  2  3  1  0  0  0  0
  2  4  1  0  0  0  0
  2 34  1  0  0  0  0
  3 35  1  0  0  0  0
  3 36  1  0  0  0  0
  3 37  1  0  0  0  0
  4 25  1  0  0  0  0
  4  5  1  0  0  0  0
  4 38  1  0  0  0  0
  5  6  1  0  0  0  0
  5 24  1  0  0  0  0
  6 11  1  0  0  0  0
  6  7  2  0  0  0  0
  7  8  1  0  0  0  0
  8  9  2  0  0  0  0
  8 39  1  0  0  0  0
  9 10  1  0  0  0  0
 10 14  1  0  0  0  0
 10 11  2  0  0  0  0
 11 12  1  0  0  0  0
 12 13  2  0  0  0  0
 13 14  1  0  0  0  0
 13 40  1  0  0  0  0
 14 15  1  0  0  0  0
 15 16  1  0  0  0  0
 15 41  1  0  0  0  0
 15 42  1  0  0  0  0
 16 17  1  0  0  0  0
 16 19  1  0  0  0  0
 16 43  1  0  0  0  0
 17 18  1  0  0  0  0
 17 44  1  0  0  0  0
 17 45  1  0  0  0  0
 18 46  1  0  0  0  0
 19 23  1  0  0  0  0
 19 20  1  0  0  0  0
 19 47  1  0  0  0  0
 20 21  1  0  0  0  0
 20 48  1  0  0  0  0
 20 49  1  0  0  0  0
 21 22  1  0  0  0  0
 21 50  1  0  0  0  0
 21 51  1  0  0  0  0
 22 23  1  0  0  0  0
 23 52  1  0  0  0  0
 23 53  1  0  0  0  0
 24 25  1  0  0  0  0
 24 54  1  0  0  0  0
 24 55  1  0  0  0  0
 25 30  1  0  0  0  0
 25 26  1  0  0  0  0
 26 27  1  0  0  0  0
 26 56  1  0  0  0  0
 26 57  1  0  0  0  0
 27 28  1  0  0  0  0
 27 58  1  0  0  0  0
 27 59  1  0  0  0  0
 28 29  1  0  0  0  0
 28 60  1  0  0  0  0
 28 61  1  0  0  0  0
 29 30  1  0  0  0  0
 29 62  1  0  0  0  0
 29 63  1  0  0  0  0
 30 64  1  0  0  0  0
 30 65  1  0  0  0  0
M  END
> <s_m_source_file>
AV-unprocessed.smi

> <i_m_source_file_index>
275

> <i_lp_mmshare_version>
43012

> <i_f3d_flags>
0

> <s_epik_input>
W0NIMl0xW0NIMl1bQ0gyXVtDSDJdW0NIMl1DMTJbQ0BIXShbQ0hdKFtDSDNdKVtDSDNdKU4oW0NIMl0yKWMobltjSF1uMyljKGMzNCluW2NIXW40W0NIMl1bQ0BIXShbQ0gyXVtPSF0pW0NAQEhdNVtDSDJdW0NIMl1PW0NIMl01

> <s_epik_cmdline>
J2VwaWtfcHl0aG9uJywgJy1waCcsICc3LjAnLCAnLXRuJywgJzgnLCAnLW1hJywgJzIwMCcsICctbWV0YWxfYmluZGluZycsICctaW1hZScsICc8aW5maWxlLm1hZT4nLCAnLW9tYWUnLCAnPG91dGZpbGUubWFlPic=

> <r_lp_tautomer_probability>
1

> <r_epik_Ionization_Penalty>
0.00375122

> <r_epik_Ionization_Penalty_Charging>
0

> <r_epik_Ionization_Penalty_Neutral>
0.00375122

> <r_epik_State_Penalty>
0.00260593

> <r_epik_Charging_Adjusted_Penalty>
0.00260593

> <i_epik_Tot_Q>
0

> <i_epik_Tot_abs_Q>
0

> <r_epik_Metal_State_Penalty>
-0

> <b_epik_Metal_Only>
0

> <s_lp_Force_Field>
OPLS_2005

> <r_lp_Energy>
67.0366

> <b_lp_Chiralities_Consistent>
1

> <s_lp_Variant>
AV-unprocessed.smi:275-4

> <Gold.Version>
5.8.1

> <Gold.Id.Protein>
6NUR|6NUR_protein|mol2

> <Gold.PLP.Fitness>
41.9282

> <Gold.PLP.PLP>
-33.3709

> <Gold.PLP.part.hbond>
-4.6866

> <Gold.PLP.part.metal>
0.0000

> <Gold.PLP.part.buried>
-3.6050

> <Gold.PLP.part.nonpolar>
-26.3545

> <Gold.PLP.part.repulsive>
1.0458

> <Gold.PLP.ligand.clash>
0.0000

> <Gold.PLP.ligand.torsion>
1.4894

> <Gold.PLP.Chemscore.Hbond>
2.6480

> <Gold.PLP.Chemscore.CHOScore>
0.9954

> <Gold.PLP.Chemscore.Metal>
0.0000

> <Gold.Chemscore.Hbonds>
donor molecule, donor type, donor heavy atom, donor atom, acceptor molecule, acceptor atom, score
      L1  H    18    46       P1  7957  0.96
      P1  H  7954  7966       L1    18  0.65
      P1  H  7989  7998       L1    22  0.03
      P1  H  8011  8017       L1    22  0.52
      L1  C     8    39       P1 10957  1.00

> <Gold.PLP.Chemscore.Internal.Correction>
0.6058

> <Gold.Rescore>
     Score         DG    S(hbond)    S(metal)    S(lipo)     H(rot)  DE(clash)    DE(int)     intcor
     10.84     -14.27       1.44        0.00      89.66       2.54       0.23       3.20       ----

> <Gold.Chemscore.Fitness>
10.8392

> <Gold.Chemscore.DG>
-14.2690

> <Gold.Chemscore.ZeroCoef>
-5.4800

> <Gold.Chemscore.Hbond>
1.4356

> <Gold.Chemscore.Metal>
0.0000

> <Gold.Chemscore.Lipo>
89.6626

> <Gold.Chemscore.Internal_Hbond>
0.0000

> <Gold.Chemscore.DEClash>
0.2257

> <Gold.Chemscore.DEInternal>
3.2041

> <Gold.Chemscore.Rot>
2.5377

> <Gold.Chemscore.Internal.Correction>
   9.000000E+99

> <Gold.Chemscore.Hbonds>
donor molecule, donor type, donor heavy atom, donor atom, acceptor molecule, acceptor atom, score
      L1  H    18    46       P1  7957  0.85
      P1  H  7954  7966       L1    18  0.06
      P1  H  7989  7998       L1    22  0.01
      P1  H  8011  8017       L1    22  0.03

> <Gold.Chemscore.Hbond.Weighted>
-4.7951

> <Gold.Chemscore.Metal.Weighted>
-0.0000

> <Gold.Chemscore.Lipo.Weighted>
-10.4905

> <Gold.Chemscore.Internal_Hbond.Weighted>
0.0000

> <Gold.Chemscore.DEClash.Weighted>
0.2257

> <Gold.Chemscore.DEInternal.Weighted>
3.2041

> <Gold.Chemscore.Rot.Weighted>
6.4966

> <Gold.Chemscore.Internal.Correction.Weighted>
   9.000000E+99

> <Gold.Protein.RotatedTorsions>
[ 6907 6896 6895 6894 ] final -138.30 input  -60.11 | X-H torsion
[ 7974 7965 7964 7962 ] final  -81.98 input  175.53 | X-H torsion
[ 8008 7997 7996 7995 ] final   34.77 input   59.86 | X-H torsion
[ 10167 10162 10161 10158 ] final  -90.59 input  -65.29 | X-H torsion
[ 10718 10713 10712 10709 ] final  -31.97 input   66.30 | X-H torsion
[ 10763 10752 10751 10750 ] final   15.09 input  -60.55 | X-H torsion
[ 11005 11000 10999 10996 ] final  135.69 input  -57.11 | X-H torsion

> <Gold.Protein.ActiveResidues>
 VAL166  LYS551  ARG553  GLY616  TRP617  ASP618  TYR619  PRO620  LYS621  CYS622 
 ASP623  PHE694  ASN695  SER759  ASP760  ASP761  ALA762  ILE779  LEU786  VAL792 
 PHE793  MET794  SER795  GLU796  ALA797  LYS798  CYS799  TRP800  GLU811  SER814 

> <Gold.Protein.RotatedAtoms>
  151.0333  133.5770  159.2658 H   0  0  0  0  0  0  0  0  0  0  0  0  # atno 6907 bound_to 6896
  151.2844  135.0722  159.9191 H   0  0  0  0  0  0  0  0  0  0  0  0  # atno 6908 bound_to 6896
  152.5349  134.0042  159.7963 H   0  0  0  0  0  0  0  0  0  0  0  0  # atno 6909 bound_to 6896
  145.5394  140.9511  143.1559 H   0  0  0  0  0  0  0  0  0  0  0  0  # atno 7974 bound_to 7965
  155.1603  140.3283  155.4413 H   0  0  0  0  0  0  0  0  0  0  0  0  # atno 8008 bound_to 7997
  156.2545  140.1961  156.6661 H   0  0  0  0  0  0  0  0  0  0  0  0  # atno 8009 bound_to 7997
  154.6410  140.0570  156.9831 H   0  0  0  0  0  0  0  0  0  0  0  0  # atno 8010 bound_to 7997
  140.3533  143.2879  151.9700 H   0  0  0  0  0  0  0  0  0  0  0  0  # atno 10167 bound_to 10162
  156.3806  130.4355  149.7472 H   0  0  0  0  0  0  0  0  0  0  0  0  # atno 10718 bound_to 10713
  153.1558  135.6787  153.8814 H   0  0  0  0  0  0  0  0  0  0  0  0  # atno 10763 bound_to 10752
  153.8225  135.3128  155.3413 H   0  0  0  0  0  0  0  0  0  0  0  0  # atno 10764 bound_to 10752
  154.7897  135.4842  154.0112 H   0  0  0  0  0  0  0  0  0  0  0  0  # atno 10765 bound_to 10752
  139.9996  134.9483  157.0042 H   0  0  0  0  0  0  0  0  0  0  0  0  # atno 11005 bound_to 11000
  144.7585  139.7015  143.7244 LP  0  0  0  0  0  0  0  0  0  0  0  0  # atno 17320 bound_to 7965
  146.1991  139.5275  142.9755 LP  0  0  0  0  0  0  0  0  0  0  0  0  # atno 17321 bound_to 7965
  139.4823  144.6057  151.7526 LP  0  0  0  0  0  0  0  0  0  0  0  0  # atno 17342 bound_to 10162
  140.5198  144.0897  150.6019 LP  0  0  0  0  0  0  0  0  0  0  0  0  # atno 17343 bound_to 10162
  156.4563  130.7931  151.2951 LP  0  0  0  0  0  0  0  0  0  0  0  0  # atno 17370 bound_to 10713
  157.7492  131.0079  150.3210 LP  0  0  0  0  0  0  0  0  0  0  0  0  # atno 17371 bound_to 10713
  140.4753  134.1345  155.7209 LP  0  0  0  0  0  0  0  0  0  0  0  0  # atno 17394 bound_to 11000
  141.1631  133.8754  157.1790 LP  0  0  0  0  0  0  0  0  0  0  0  0  # atno 17395 bound_to 11000

$$$$
