AV-unprocessed.smi:2373|AV-procd|sdf|9439|dock4
  -GOLD-   2272013 63D 1   1.00000     0.00000
 Structure written by MMmdl.
 47 48  0  0  0  0  0  0  0  0  2 V2000
  143.7325  132.4943  149.3454 C   0  0  0  0  0  0  0  0  0  0  0  0
  144.3906  132.6651  150.6360 N   0  0  0  0  0  0  0  0  0  0  0  0
  144.7327  131.5034  151.4463 C   0  0  0  0  0  0  0  0  0  0  0  0
  144.6133  133.9637  151.1426 C   0  0  0  0  0  0  0  0  0  0  0  0
  145.8435  134.3741  151.7118 C   0  0  0  0  0  0  0  0  0  0  0  0
  145.9880  135.6902  152.1964 C   0  0  0  0  0  0  0  0  0  0  0  0
  144.9053  136.5908  152.1202 C   0  0  0  0  0  0  0  0  0  0  0  0
  145.1073  137.9100  152.6106 N   0  0  0  0  0  0  0  0  0  0  0  0
  146.1442  138.3972  153.3140 C   0  0  0  0  0  0  0  0  0  0  0  0
  147.1455  137.7579  153.6328 O   0  0  0  0  0  0  0  0  0  0  0  0
  145.9547  139.6937  153.6130 N   0  0  0  0  0  0  0  0  0  0  0  0
  146.8414  140.5944  154.3657 C   0  0  0  0  0  0  0  0  0  0  0  0
  146.2267  142.0236  154.4701 C   0  0  0  0  0  0  0  0  0  0  0  0
  144.9342  142.1411  155.3015 C   0  0  0  0  0  0  0  0  0  0  0  0
  144.1476  140.9841  155.1180 O   0  0  0  0  0  0  0  0  0  0  0  0
  147.0386  139.9473  155.7598 C   0  0  0  0  0  0  0  0  0  0  0  0
  148.1944  140.5750  156.5587 C   0  0  0  0  0  0  0  0  0  0  0  0
  149.3984  140.4969  155.8088 O   0  0  0  0  0  0  0  0  0  0  0  0
  149.3298  141.2240  154.5901 C   0  0  0  0  0  0  0  0  0  0  0  0
  148.2342  140.6374  153.6821 C   0  0  0  0  0  0  0  0  0  0  0  0
  143.6999  136.1368  151.5336 C   0  0  0  0  0  0  0  0  0  0  0  0
  143.6058  134.8682  151.0803 N   0  3  0  0  0  0  0  0  0  0  0  0
  144.3020  132.9866  148.5563 H   0  0  0  0  0  0  0  0  0  0  0  0
  142.7290  132.9210  149.3678 H   0  0  0  0  0  0  0  0  0  0  0  0
  143.6422  131.4403  149.0819 H   0  0  0  0  0  0  0  0  0  0  0  0
  144.2006  131.5281  152.3978 H   0  0  0  0  0  0  0  0  0  0  0  0
  145.8043  131.4781  151.6458 H   0  0  0  0  0  0  0  0  0  0  0  0
  144.4666  130.5746  150.9414 H   0  0  0  0  0  0  0  0  0  0  0  0
  146.6842  133.7003  151.7835 H   0  0  0  0  0  0  0  0  0  0  0  0
  146.9284  136.0015  152.6274 H   0  0  0  0  0  0  0  0  0  0  0  0
  144.3882  138.5759  152.3675 H   0  0  0  0  0  0  0  0  0  0  0  0
  145.0929  140.1102  153.2918 H   0  0  0  0  0  0  0  0  0  0  0  0
  146.9628  142.7142  154.8800 H   0  0  0  0  0  0  0  0  0  0  0  0
  146.0218  142.3996  153.4672 H   0  0  0  0  0  0  0  0  0  0  0  0
  145.1518  142.2444  156.3642 H   0  0  0  0  0  0  0  0  0  0  0  0
  144.3455  143.0067  155.0004 H   0  0  0  0  0  0  0  0  0  0  0  0
  143.7551  141.0191  154.2589 H   0  0  0  0  0  0  0  0  0  0  0  0
  146.1208  139.9795  156.3458 H   0  0  0  0  0  0  0  0  0  0  0  0
  147.2664  138.8874  155.6344 H   0  0  0  0  0  0  0  0  0  0  0  0
  147.9808  141.6101  156.8276 H   0  0  0  0  0  0  0  0  0  0  0  0
  148.3340  140.0332  157.4942 H   0  0  0  0  0  0  0  0  0  0  0  0
  149.1548  142.2815  154.7913 H   0  0  0  0  0  0  0  0  0  0  0  0
  150.2970  141.1581  154.0918 H   0  0  0  0  0  0  0  0  0  0  0  0
  148.5342  139.6256  153.4044 H   0  0  0  0  0  0  0  0  0  0  0  0
  148.1966  141.2060  152.7526 H   0  0  0  0  0  0  0  0  0  0  0  0
  142.8093  136.7306  151.3950 H   0  0  0  0  0  0  0  0  0  0  0  0
  142.7219  134.5750  150.6636 H   0  0  0  0  0  0  0  0  0  0  0  0
  1  2  1  0  0  0  0
  1 23  1  0  0  0  0
  1 24  1  0  0  0  0
  1 25  1  0  0  0  0
  2  3  1  0  0  0  0
  2  4  1  0  0  0  0
  3 26  1  0  0  0  0
  3 27  1  0  0  0  0
  3 28  1  0  0  0  0
  4 22  1  0  0  0  0
  4  5  2  0  0  0  0
  5  6  1  0  0  0  0
  5 29  1  0  0  0  0
  6  7  2  0  0  0  0
  6 30  1  0  0  0  0
  7  8  1  0  0  0  0
  7 21  1  0  0  0  0
  8  9  1  0  0  0  0
  8 31  1  0  0  0  0
  9 10  2  0  0  0  0
  9 11  1  0  0  0  0
 11 12  1  0  0  0  0
 11 32  1  0  0  0  0
 12 20  1  0  0  0  0
 12 13  1  0  0  0  0
 12 16  1  0  0  0  0
 13 14  1  0  0  0  0
 13 33  1  0  0  0  0
 13 34  1  0  0  0  0
 14 15  1  0  0  0  0
 14 35  1  0  0  0  0
 14 36  1  0  0  0  0
 15 37  1  0  0  0  0
 16 17  1  0  0  0  0
 16 38  1  0  0  0  0
 16 39  1  0  0  0  0
 17 18  1  0  0  0  0
 17 40  1  0  0  0  0
 17 41  1  0  0  0  0
 18 19  1  0  0  0  0
 19 20  1  0  0  0  0
 19 42  1  0  0  0  0
 19 43  1  0  0  0  0
 20 44  1  0  0  0  0
 20 45  1  0  0  0  0
 21 22  2  0  0  0  0
 21 46  1  0  0  0  0
 22 47  1  0  0  0  0
M  CHG  1  22   1
M  END
> <s_m_source_file>
AV-unprocessed.smi

> <i_m_source_file_index>
2373

> <i_lp_mmshare_version>
43012

> <i_f3d_flags>
0

> <s_epik_input>
W0NIM11OKFtDSDNdKWMxW2NIXVtjSF1jKFtjSF1uMSlbTkhdQyg9TylbTkhdQzIoW0NIMl1bQ0gyXVtPSF0pW0NIMl1bQ0gyXU9bQ0gyXVtDSDJdMg==

> <s_epik_cmdline>
J2VwaWtfcHl0aG9uJywgJy1waCcsICc3LjAnLCAnLXRuJywgJzgnLCAnLW1hJywgJzIwMCcsICctbWV0YWxfYmluZGluZycsICctaW1hZScsICc8aW5maWxlLm1hZT4nLCAnLW9tYWUnLCAnPG91dGZpbGUubWFlPic=

> <r_lp_tautomer_probability>
0.999994

> <r_epik_Ionization_Penalty>
0.250535

> <r_epik_Ionization_Penalty_Charging>
0.250515

> <r_epik_Ionization_Penalty_Neutral>
1.96065e-05

> <r_epik_State_Penalty>
0.241842

> <r_epik_Charging_Adjusted_Penalty>
0.492357

> <i_epik_Tot_Q>
1

> <i_epik_Tot_abs_Q>
1

> <r_epik_Metal_State_Penalty>
0.533268

> <b_epik_Metal_Only>
0

> <s_lp_Force_Field>
OPLS_2005

> <r_lp_Energy>
24.7544

> <b_lp_Chiralities_Consistent>
1

> <s_lp_Variant>
AV-unprocessed.smi:2373-1

> <Gold.Version>
5.8.1

> <Gold.Id.Protein>
6NUR|6NUR_protein|mol2

> <Gold.PLP.Fitness>
44.4015

> <Gold.PLP.PLP>
-31.3854

> <Gold.PLP.part.hbond>
-4.6432

> <Gold.PLP.part.metal>
0.0000

> <Gold.PLP.part.buried>
-1.2387

> <Gold.PLP.part.nonpolar>
-27.6920

> <Gold.PLP.part.repulsive>
1.0726

> <Gold.PLP.ligand.clash>
0.0000

> <Gold.PLP.ligand.torsion>
1.0128

> <Gold.PLP.Chemscore.Hbond>
5.0000

> <Gold.PLP.Chemscore.CHOScore>
0.0000

> <Gold.PLP.Chemscore.Metal>
0.0000

> <Gold.Chemscore.Hbonds>
donor molecule, donor type, donor heavy atom, donor atom, acceptor molecule, acceptor atom, score
      L1  H     8    31       P1 10175  1.00
      L1  H    11    32       P1 10175  1.00
      L1  H    15    37       P1 10175  1.00
      L1  H    22    47       P1 10186  1.95

> <Gold.PLP.Chemscore.Internal.Correction>
0.0417

> <Gold.Rescore>
     Score         DG    S(hbond)    S(metal)    S(lipo)     H(rot)  DE(clash)    DE(int)     intcor
     11.52     -19.09       3.21        0.00      71.03       2.12       2.99       4.58       ----

> <Gold.Chemscore.Fitness>
11.5196

> <Gold.Chemscore.DG>
-19.0868

> <Gold.Chemscore.ZeroCoef>
-5.4800

> <Gold.Chemscore.Hbond>
3.2072

> <Gold.Chemscore.Metal>
0.0000

> <Gold.Chemscore.Lipo>
71.0293

> <Gold.Chemscore.Internal_Hbond>
0.0000

> <Gold.Chemscore.DEClash>
2.9861

> <Gold.Chemscore.DEInternal>
4.5811

> <Gold.Chemscore.Rot>
2.1155

> <Gold.Chemscore.Internal.Correction>
   9.000000E+99

> <Gold.Chemscore.Hbonds>
donor molecule, donor type, donor heavy atom, donor atom, acceptor molecule, acceptor atom, score
      L1  H     8    31       P1 10175  0.91
      L1  H    11    32       P1 10175  1.00
      L1  H    15    37       P1 10175  0.76
      L1  H    22    47       P1 10186  0.24

> <Gold.Chemscore.Hbond.Weighted>
-10.7121

> <Gold.Chemscore.Metal.Weighted>
-0.0000

> <Gold.Chemscore.Lipo.Weighted>
-8.3104

> <Gold.Chemscore.Internal_Hbond.Weighted>
0.0000

> <Gold.Chemscore.DEClash.Weighted>
2.9861

> <Gold.Chemscore.DEInternal.Weighted>
4.5811

> <Gold.Chemscore.Rot.Weighted>
5.4158

> <Gold.Chemscore.Internal.Correction.Weighted>
   9.000000E+99

> <Gold.Protein.RotatedTorsions>
[ 6907 6896 6895 6894 ] final  122.63 input  -60.11 | X-H torsion
[ 7974 7965 7964 7962 ] final   25.68 input  175.53 | X-H torsion
[ 8008 7997 7996 7995 ] final  155.38 input   59.86 | X-H torsion
[ 10167 10162 10161 10158 ] final  162.39 input  -65.29 | X-H torsion
[ 10718 10713 10712 10709 ] final  -96.20 input   66.30 | X-H torsion
[ 10763 10752 10751 10750 ] final  -58.93 input  -60.55 | X-H torsion
[ 11005 11000 10999 10996 ] final  -78.36 input  -57.11 | X-H torsion

> <Gold.Protein.ActiveResidues>
 VAL166  LYS551  ARG553  GLY616  TRP617  ASP618  TYR619  PRO620  LYS621  CYS622 
 ASP623  PHE694  ASN695  SER759  ASP760  ASP761  ALA762  ILE779  LEU786  VAL792 
 PHE793  MET794  SER795  GLU796  ALA797  LYS798  CYS799  TRP800  GLU811  SER814 

> <Gold.Protein.RotatedAtoms>
  152.4227  133.7143  159.6496 H   0  0  0  0  0  0  0  0  0  0  0  0  # atno 6907 bound_to 6896
  150.8103  133.8423  159.3191 H   0  0  0  0  0  0  0  0  0  0  0  0  # atno 6908 bound_to 6896
  151.6135  135.1040  160.0138 H   0  0  0  0  0  0  0  0  0  0  0  0  # atno 6909 bound_to 6896
  146.1876  139.7432  142.8855 H   0  0  0  0  0  0  0  0  0  0  0  0  # atno 7974 bound_to 7965
  156.2481  140.1941  156.6792 H   0  0  0  0  0  0  0  0  0  0  0  0  # atno 8008 bound_to 7997
  154.6334  140.0593  156.9786 H   0  0  0  0  0  0  0  0  0  0  0  0  # atno 8009 bound_to 7997
  155.1674  140.3265  155.4402 H   0  0  0  0  0  0  0  0  0  0  0  0  # atno 8010 bound_to 7997
  139.4860  144.4443  151.8912 H   0  0  0  0  0  0  0  0  0  0  0  0  # atno 10167 bound_to 10162
  156.0057  130.5141  150.6190 H   0  0  0  0  0  0  0  0  0  0  0  0  # atno 10718 bound_to 10713
  154.2459  135.6335  153.5223 H   0  0  0  0  0  0  0  0  0  0  0  0  # atno 10763 bound_to 10752
  152.9921  135.5553  154.5860 H   0  0  0  0  0  0  0  0  0  0  0  0  # atno 10764 bound_to 10752
  154.5377  135.2892  155.1099 H   0  0  0  0  0  0  0  0  0  0  0  0  # atno 10765 bound_to 10752
  141.1664  133.7060  156.7960 H   0  0  0  0  0  0  0  0  0  0  0  0  # atno 11005 bound_to 11000
  145.3891  141.0370  143.3134 LP  0  0  0  0  0  0  0  0  0  0  0  0  # atno 17320 bound_to 7965
  144.8426  139.5447  143.6893 LP  0  0  0  0  0  0  0  0  0  0  0  0  # atno 17321 bound_to 7965
  140.3896  144.2632  150.5901 LP  0  0  0  0  0  0  0  0  0  0  0  0  # atno 17342 bound_to 10162
  140.5158  143.2278  151.8465 LP  0  0  0  0  0  0  0  0  0  0  0  0  # atno 17343 bound_to 10162
  157.4009  131.0810  151.1309 LP  0  0  0  0  0  0  0  0  0  0  0  0  # atno 17370 bound_to 10713
  157.1971  130.6378  149.5725 LP  0  0  0  0  0  0  0  0  0  0  0  0  # atno 17371 bound_to 10713
  140.2290  134.8700  157.3457 LP  0  0  0  0  0  0  0  0  0  0  0  0  # atno 17394 bound_to 11000
  140.1910  134.4372  155.7716 LP  0  0  0  0  0  0  0  0  0  0  0  0  # atno 17395 bound_to 11000

$$$$
