#       Name:                AV-unprocessed.smi:736
#       Creating user name   scv26
#       Creation time:       Fri Mar 27 00:52:53 2020


#       File generated by GOLD software.
#

@<TRIPOS>MOLECULE
AV-unprocessed.smi:736
    51    52     1
SMALL
NO_CHARGES


@<TRIPOS>ATOM
      1 ****        -3.9028  -2.7457  -1.8020 C.3            1 S1                 0.0000
      2 ****        -4.7637  -3.1186  -0.6749 N.am           1 S1                 0.0000
      3 ****        -5.4114  -4.4258  -0.8010 C.3            1 S1                 0.0000
      4 ****        -5.0353  -2.3142   0.3820 C.2            1 S1                 0.0000
      5 ****        -5.8895  -2.5866   1.2273 O.2            1 S1                 0.0000
      6 ****        -4.2622  -1.0328   0.5188 C.ar           1 S1                 0.0000
      7 ****        -2.8528  -1.0495   0.6317 C.ar           1 S1                 0.0000
      8 ****        -2.1574   0.1683   0.7804 C.ar           1 S1                 0.0000
      9 ****        -0.7393   0.0982   0.8787 N.am           1 S1                 0.0000
     10 ****         0.1524   1.0691   1.1450 C.2            1 S1                 0.0000
     11 ****        -0.1144   2.2521   1.3525 O.2            1 S1                 0.0000
     12 ****         1.4021   0.5823   1.1589 N.am           1 S1                 0.0000
     13 ****         2.6135   1.3574   1.4225 C.3            1 S1                 0.0000
     14 ****         3.4253   1.6720   0.1404 C.3            1 S1                 0.0000
     15 ****         2.6076   2.5611  -0.8226 C.3            1 S1                 0.0000
     16 ****         4.7530   2.3862   0.5054 C.3            1 S1                 0.0000
     17 ****         5.8972   1.4914   0.0195 C.3            1 S1                 0.0000
     18 ****         5.2822   0.6453  -1.0880 C.3            1 S1                 0.0000
     19 ****         3.8674   0.3778  -0.5813 C.3            1 S1                 0.0000
     20 ****        -2.9143   1.3643   0.8092 C.ar           1 S1                 0.0000
     21 ****        -4.3160   1.2770   0.7041 C.ar           1 S1                 0.0000
     22 ****        -4.9806   0.1111   0.5671 N.ar           1 S1                 0.0000
     23 ****        -2.8628  -2.9876  -1.5819 H              1 S1                 0.0000
     24 ****        -3.9685  -1.6828  -2.0383 H              1 S1                 0.0000
     25 ****        -4.1828  -3.2801  -2.7106 H              1 S1                 0.0000
     26 ****        -5.4678  -4.9416   0.1590 H              1 S1                 0.0000
     27 ****        -4.8659  -5.0829  -1.4795 H              1 S1                 0.0000
     28 ****        -6.4252  -4.3093  -1.1859 H              1 S1                 0.0000
     29 ****        -2.3130  -1.9855   0.6095 H              1 S1                 0.0000
     30 ****        -0.3513  -0.8251   0.7535 H              1 S1                 0.0000
     31 ****         1.5289  -0.4026   0.9778 H              1 S1                 0.0000
     32 ****         2.3760   2.2817   1.9521 H              1 S1                 0.0000
     33 ****         3.2260   0.7743   2.1112 H              1 S1                 0.0000
     34 ****         3.1884   2.8312  -1.7052 H              1 S1                 0.0000
     35 ****         2.2965   3.4865  -0.3371 H              1 S1                 0.0000
     36 ****         1.7079   2.0572  -1.1760 H              1 S1                 0.0000
     37 ****         4.8203   3.3563   0.0108 H              1 S1                 0.0000
     38 ****         4.8458   2.5827   1.5744 H              1 S1                 0.0000
     39 ****         6.7619   2.0627  -0.3192 H              1 S1                 0.0000
     40 ****         6.2252   0.8435   0.8337 H              1 S1                 0.0000
     41 ****         5.2450   1.2161  -2.0168 H              1 S1                 0.0000
     42 ****         5.8423  -0.2708  -1.2780 H              1 S1                 0.0000
     43 ****         3.9057  -0.4546   0.1229 H              1 S1                 0.0000
     44 ****         3.1906   0.0822  -1.3840 H              1 S1                 0.0000
     45 ****        -2.4648   2.3391   0.9074 H              1 S1                 0.0000
     46 ****        -4.9211   2.1712   0.7282 H              1 S1                 0.0000
     47 ****        -6.4172  -3.4325   1.1502 LP             1 S1                 0.0000
     48 ****        -6.0549  -1.9618   1.9903 LP             1 S1                 0.0000
     49 ****        -1.0650   2.5615   1.3306 LP             1 S1                 0.0000
     50 ****         0.6195   2.9041   1.5430 LP             1 S1                 0.0000
     51 ****        -5.9784   0.0935   0.5029 LP             1 S1                 0.0000
@<TRIPOS>BOND
    1    1    2 1     
    2    1   23 1     
    3    1   24 1     
    4    1   25 1     
    5    2    3 1     
    6    2    4 am    
    7    3   26 1     
    8    3   27 1     
    9    3   28 1     
   10    4    5 2     
   11    4    6 1     
   12    6   22 ar    
   13    6    7 ar    
   14    7    8 ar    
   15    7   29 1     
   16    8    9 1     
   17    8   20 ar    
   18    9   10 am    
   19    9   30 1     
   20   10   11 2     
   21   10   12 am    
   22   12   13 1     
   23   12   31 1     
   24   13   14 1     
   25   13   32 1     
   26   13   33 1     
   27   14   19 1     
   28   14   15 1     
   29   14   16 1     
   30   15   34 1     
   31   15   35 1     
   32   15   36 1     
   33   16   17 1     
   34   16   37 1     
   35   16   38 1     
   36   17   18 1     
   37   17   39 1     
   38   17   40 1     
   39   18   19 1     
   40   18   41 1     
   41   18   42 1     
   42   19   43 1     
   43   19   44 1     
   44   20   21 ar    
   45   20   45 1     
   46   21   22 ar    
   47   21   46 1     
   48    5   47 1     
   49    5   48 1     
   50   11   49 1     
   51   11   50 1     
   52   22   51 1     
@<TRIPOS>SUBSTRUCTURE
      1 S1             1
@<TRIPOS>SET
LONE_PAIRS      STATIC     ATOMS    <user>   **** ""
5 47 48 49 50 51
DONOR_HYDROGENS      STATIC     ATOMS    <user>   **** ""
2 30 31
ATOM$BLUE        STATIC     ATOMS    COLORGROUP SYSTEM
5 47 48 49 50 51
ATOM$RED        STATIC     ATOMS    COLORGROUP SYSTEM
2 30 31
