AV-unprocessed.smi:2450|AV-procd|sdf|9667|dock5
  -GOLD-   2272013303D 1   1.00000     0.00000
 Structure written by MMmdl.
 42 43  0  0  0  0  0  0  0  0  2 V2000
  152.6584  142.5611  160.0890 C   0  0  0  0  0  0  0  0  0  0  0  0
  151.6135  142.2859  158.9980 C   0  0  0  0  0  0  0  0  0  0  0  0
  151.6660  143.2836  157.8257 C   0  0  2  0  0  0  0  0  0  0  0  0
  151.6671  144.7378  158.3176 C   0  0  0  0  0  0  0  0  0  0  0  0
  150.5277  143.0744  156.9319 N   0  0  0  0  0  0  0  0  0  0  0  0
  150.2120  141.9278  156.3121 C   0  0  0  0  0  0  0  0  0  0  0  0
  150.8698  140.8921  156.4085 O   0  0  0  0  0  0  0  0  0  0  0  0
  149.1016  142.0708  155.5694 N   0  0  0  0  0  0  0  0  0  0  0  0
  148.4471  141.0965  154.7628 C   0  0  0  0  0  0  0  0  0  0  0  0
  149.0447  139.8553  154.4242 C   0  0  0  0  0  0  0  0  0  0  0  0
  148.3309  138.9273  153.6400 C   0  0  0  0  0  0  0  0  0  0  0  0
  147.0290  139.2482  153.2137 C   0  0  0  0  0  0  0  0  0  0  0  0
  146.4827  140.4309  153.5651 N   0  3  0  0  0  0  0  0  0  0  0  0
  147.1261  141.3579  154.3169 C   0  0  0  0  0  0  0  0  0  0  0  0
  146.4631  142.5565  154.6329 N   0  0  0  0  0  0  0  0  0  0  0  0
  145.9246  143.2963  153.5038 C   0  0  0  0  0  0  0  0  0  0  0  0
  144.9595  144.3155  154.1126 C   0  0  0  0  0  0  0  0  0  0  0  0
  144.5629  143.7186  155.4686 C   0  0  0  0  0  0  0  0  0  0  0  0
  145.3727  142.4234  155.5844 C   0  0  0  0  0  0  0  0  0  0  0  0
  152.5463  141.8615  160.9175 H   0  0  0  0  0  0  0  0  0  0  0  0
  152.5508  143.5697  160.4892 H   0  0  0  0  0  0  0  0  0  0  0  0
  153.6743  142.4582  159.7076 H   0  0  0  0  0  0  0  0  0  0  0  0
  151.7413  141.2689  158.6249 H   0  0  0  0  0  0  0  0  0  0  0  0
  150.6223  142.3190  159.4519 H   0  0  0  0  0  0  0  0  0  0  0  0
  152.6027  143.1182  157.2904 H   0  0  0  0  0  0  0  0  0  0  0  0
  152.5183  144.9297  158.9715 H   0  0  0  0  0  0  0  0  0  0  0  0
  150.7599  144.9705  158.8765 H   0  0  0  0  0  0  0  0  0  0  0  0
  151.7326  145.4352  157.4819 H   0  0  0  0  0  0  0  0  0  0  0  0
  149.9252  143.8707  156.7840 H   0  0  0  0  0  0  0  0  0  0  0  0
  148.7238  143.0054  155.5134 H   0  0  0  0  0  0  0  0  0  0  0  0
  150.0339  139.5902  154.7646 H   0  0  0  0  0  0  0  0  0  0  0  0
  148.7757  137.9792  153.3745 H   0  0  0  0  0  0  0  0  0  0  0  0
  146.4099  138.5974  152.6131 H   0  0  0  0  0  0  0  0  0  0  0  0
  146.7193  143.7841  152.9386 H   0  0  0  0  0  0  0  0  0  0  0  0
  145.3874  142.6310  152.8265 H   0  0  0  0  0  0  0  0  0  0  0  0
  145.4655  145.2700  154.2631 H   0  0  0  0  0  0  0  0  0  0  0  0
  144.0992  144.4940  153.4668 H   0  0  0  0  0  0  0  0  0  0  0  0
  144.8270  144.4084  156.2713 H   0  0  0  0  0  0  0  0  0  0  0  0
  143.4920  143.5251  155.5373 H   0  0  0  0  0  0  0  0  0  0  0  0
  144.7477  141.5654  155.3323 H   0  0  0  0  0  0  0  0  0  0  0  0
  145.7516  142.2774  156.5964 H   0  0  0  0  0  0  0  0  0  0  0  0
  145.5351  140.6368  153.2486 H   0  0  0  0  0  0  0  0  0  0  0  0
  1  2  1  0  0  0  0
  1 20  1  0  0  0  0
  1 21  1  0  0  0  0
  1 22  1  0  0  0  0
  2  3  1  0  0  0  0
  2 23  1  0  0  0  0
  2 24  1  0  0  0  0
  3  4  1  0  0  0  0
  3  5  1  0  0  0  0
  3 25  1  0  0  0  0
  4 26  1  0  0  0  0
  4 27  1  0  0  0  0
  4 28  1  0  0  0  0
  5  6  1  0  0  0  0
  5 29  1  0  0  0  0
  6  7  2  0  0  0  0
  6  8  1  0  0  0  0
  8  9  1  0  0  0  0
  8 30  1  0  0  0  0
  9 14  1  0  0  0  0
  9 10  2  0  0  0  0
 10 11  1  0  0  0  0
 10 31  1  0  0  0  0
 11 12  2  0  0  0  0
 11 32  1  0  0  0  0
 12 13  1  0  0  0  0
 12 33  1  0  0  0  0
 13 14  2  0  0  0  0
 13 42  1  0  0  0  0
 14 15  1  0  0  0  0
 15 19  1  0  0  0  0
 15 16  1  0  0  0  0
 16 17  1  0  0  0  0
 16 34  1  0  0  0  0
 16 35  1  0  0  0  0
 17 18  1  0  0  0  0
 17 36  1  0  0  0  0
 17 37  1  0  0  0  0
 18 19  1  0  0  0  0
 18 38  1  0  0  0  0
 18 39  1  0  0  0  0
 19 40  1  0  0  0  0
 19 41  1  0  0  0  0
M  CHG  1  13   1
M  END
> <s_m_source_file>
AV-unprocessed.smi

> <i_m_source_file_index>
2450

> <i_lp_mmshare_version>
43012

> <i_f3d_flags>
0

> <s_epik_input>
W0NIM11bQ0gyXVtDQEhdKFtDSDNdKVtOSF1DKD1PKVtOSF1jMVtjSF1bY0hdW2NIXW5jMU4yW0NIMl1bQ0gyXVtDSDJdW0NIMl0y

> <s_epik_cmdline>
J2VwaWtfcHl0aG9uJywgJy1waCcsICc3LjAnLCAnLXRuJywgJzgnLCAnLW1hJywgJzIwMCcsICctbWV0YWxfYmluZGluZycsICctaW1hZScsICc8aW5maWxlLm1hZT4nLCAnLW9tYWUnLCAnPG91dGZpbGUubWFlPic=

> <r_lp_tautomer_probability>
0.999994

> <r_epik_Ionization_Penalty>
1.08838

> <r_epik_Ionization_Penalty_Charging>
1.08836

> <r_epik_Ionization_Penalty_Neutral>
2.1796e-05

> <r_epik_State_Penalty>
1.14442

> <r_epik_Charging_Adjusted_Penalty>
2.23278

> <i_epik_Tot_Q>
1

> <i_epik_Tot_abs_Q>
1

> <r_epik_Metal_State_Penalty>
1.23344

> <b_epik_Metal_Only>
0

> <s_lp_Force_Field>
OPLS_2005

> <r_lp_Energy>
40.8961

> <b_lp_Chiralities_Consistent>
1

> <s_lp_Variant>
AV-unprocessed.smi:2450-3

> <Gold.Version>
5.8.1

> <Gold.Id.Protein>
6NUR|6NUR_protein|mol2

> <Gold.PLP.Fitness>
50.1089

> <Gold.PLP.PLP>
-38.6255

> <Gold.PLP.part.hbond>
-3.0000

> <Gold.PLP.part.metal>
0.0000

> <Gold.PLP.part.buried>
-5.4943

> <Gold.PLP.part.nonpolar>
-30.6815

> <Gold.PLP.part.repulsive>
0.3985

> <Gold.PLP.ligand.clash>
0.0000

> <Gold.PLP.ligand.torsion>
0.2370

> <Gold.PLP.Chemscore.Hbond>
3.9760

> <Gold.PLP.Chemscore.CHOScore>
0.0000

> <Gold.PLP.Chemscore.Metal>
0.0000

> <Gold.Chemscore.Hbonds>
donor molecule, donor type, donor heavy atom, donor atom, acceptor molecule, acceptor atom, score
      L1  H     5    29       P1  8028  0.94
      L1  H     8    30       P1  8028  1.00
      L1  H    13    42       P1 10175  2.00

> <Gold.PLP.Chemscore.Internal.Correction>
0.0293

> <Gold.Rescore>
     Score         DG    S(hbond)    S(metal)    S(lipo)     H(rot)  DE(clash)    DE(int)     intcor
     20.38     -21.93       2.84        0.00      88.94       1.34       0.18       1.37       ----

> <Gold.Chemscore.Fitness>
20.3811

> <Gold.Chemscore.DG>
-21.9345

> <Gold.Chemscore.ZeroCoef>
-5.4800

> <Gold.Chemscore.Hbond>
2.8376

> <Gold.Chemscore.Metal>
0.0000

> <Gold.Chemscore.Lipo>
88.9366

> <Gold.Chemscore.Internal_Hbond>
0.0000

> <Gold.Chemscore.DEClash>
0.1840

> <Gold.Chemscore.DEInternal>
1.3694

> <Gold.Chemscore.Rot>
1.3393

> <Gold.Chemscore.Internal.Correction>
   9.000000E+99

> <Gold.Chemscore.Hbonds>
donor molecule, donor type, donor heavy atom, donor atom, acceptor molecule, acceptor atom, score
      L1  H     5    29       P1  8028  0.90
      L1  H     8    30       P1  8028  0.97
      L1  H    13    42       P1 10175  0.81

> <Gold.Chemscore.Hbond.Weighted>
-9.4774

> <Gold.Chemscore.Metal.Weighted>
-0.0000

> <Gold.Chemscore.Lipo.Weighted>
-10.4056

> <Gold.Chemscore.Internal_Hbond.Weighted>
0.0000

> <Gold.Chemscore.DEClash.Weighted>
0.1840

> <Gold.Chemscore.DEInternal.Weighted>
1.3694

> <Gold.Chemscore.Rot.Weighted>
3.4285

> <Gold.Chemscore.Internal.Correction.Weighted>
   9.000000E+99

> <Gold.Protein.RotatedTorsions>
[ 6907 6896 6895 6894 ] final  -55.90 input  -60.11 | X-H torsion
[ 7974 7965 7964 7962 ] final   71.91 input  175.53 | X-H torsion
[ 8008 7997 7996 7995 ] final   47.18 input   59.86 | X-H torsion
[ 10167 10162 10161 10158 ] final  -86.53 input  -65.29 | X-H torsion
[ 10718 10713 10712 10709 ] final -162.28 input   66.30 | X-H torsion
[ 10763 10752 10751 10750 ] final  -48.91 input  -60.55 | X-H torsion
[ 11005 11000 10999 10996 ] final -167.52 input  -57.11 | X-H torsion

> <Gold.Protein.ActiveResidues>
 VAL166  LYS551  ARG553  GLY616  TRP617  ASP618  TYR619  PRO620  LYS621  CYS622 
 ASP623  PHE694  ASN695  SER759  ASP760  ASP761  ALA762  ILE779  LEU786  VAL792 
 PHE793  MET794  SER795  GLU796  ALA797  LYS798  CYS799  TRP800  GLU811  SER814 

> <Gold.Protein.RotatedAtoms>
  150.8213  134.7422  159.6774 H   0  0  0  0  0  0  0  0  0  0  0  0  # atno 6907 bound_to 6896
  152.4328  134.5741  159.9939 H   0  0  0  0  0  0  0  0  0  0  0  0  # atno 6908 bound_to 6896
  151.5925  133.3327  159.3066 H   0  0  0  0  0  0  0  0  0  0  0  0  # atno 6909 bound_to 6896
  145.7600  139.2796  143.1382 H   0  0  0  0  0  0  0  0  0  0  0  0  # atno 7974 bound_to 7965
  155.3648  140.3420  155.4241 H   0  0  0  0  0  0  0  0  0  0  0  0  # atno 8008 bound_to 7997
  156.1694  140.1627  156.8508 H   0  0  0  0  0  0  0  0  0  0  0  0  # atno 8009 bound_to 7997
  154.5218  140.0765  156.8168 H   0  0  0  0  0  0  0  0  0  0  0  0  # atno 8010 bound_to 7997
  140.3932  143.2695  151.9238 H   0  0  0  0  0  0  0  0  0  0  0  0  # atno 10167 bound_to 10162
  156.6083  130.8839  151.2930 H   0  0  0  0  0  0  0  0  0  0  0  0  # atno 10718 bound_to 10713
  154.0855  135.6585  153.4844 H   0  0  0  0  0  0  0  0  0  0  0  0  # atno 10763 bound_to 10752
  153.0340  135.5190  154.7432 H   0  0  0  0  0  0  0  0  0  0  0  0  # atno 10764 bound_to 10752
  154.6540  135.3005  154.9919 H   0  0  0  0  0  0  0  0  0  0  0  0  # atno 10765 bound_to 10752
  140.5523  134.5416  157.5125 H   0  0  0  0  0  0  0  0  0  0  0  0  # atno 11005 bound_to 11000
  146.0274  140.8291  142.9893 LP  0  0  0  0  0  0  0  0  0  0  0  0  # atno 17320 bound_to 7965
  144.6832  140.2718  143.7305 LP  0  0  0  0  0  0  0  0  0  0  0  0  # atno 17321 bound_to 7965
  139.4788  144.5707  151.8093 LP  0  0  0  0  0  0  0  0  0  0  0  0  # atno 17342 bound_to 10162
  140.4818  144.1439  150.5934 LP  0  0  0  0  0  0  0  0  0  0  0  0  # atno 17343 bound_to 10162
  157.7261  130.9625  150.1643 LP  0  0  0  0  0  0  0  0  0  0  0  0  # atno 17370 bound_to 10713
  156.2411  130.3691  149.8336 LP  0  0  0  0  0  0  0  0  0  0  0  0  # atno 17371 bound_to 10713
  139.9449  134.7720  156.0587 LP  0  0  0  0  0  0  0  0  0  0  0  0  # atno 17394 bound_to 11000
  141.1164  133.6626  156.3105 LP  0  0  0  0  0  0  0  0  0  0  0  0  # atno 17395 bound_to 11000

$$$$
