#       Name:                AV-unprocessed.smi:1934
#       Creating user name   scv26
#       Creation time:       Fri Mar 27 09:57:03 2020


#       File generated by GOLD software.
#

@<TRIPOS>MOLECULE
AV-unprocessed.smi:1934
    49    50     1
SMALL
NO_CHARGES


@<TRIPOS>ATOM
      1 ****        -6.0999   4.0806   0.0374 C.3            1 S1                 0.0000
      2 ****        -5.4339   2.7816   0.3841 C.2            1 S1                 0.0000
      3 ****        -4.0401   2.4823   0.3900 C.2            1 S1                 0.0000
      4 ****        -4.0157   1.1714   0.7808 C.2            1 S1                 0.0000
      5 ****        -2.9453   0.3546   0.9696 N.am           1 S1                 0.0000
      6 ****        -1.6433   0.6119   0.7551 C.2            1 S1                 0.0000
      7 ****        -1.1833   1.6707   0.3269 O.2            1 S1                 0.0000
      8 ****        -0.8827  -0.4489   1.0620 N.am           1 S1                 0.0000
      9 ****         0.5698  -0.4989   0.9420 C.3            1 S1                 0.0000
     10 ****         1.0087  -0.7436  -0.5149 C.3            1 S1                 0.0000
     11 ****         2.4857  -0.7634  -0.6641 N.4            1 S1                 1.0000
     12 ****         2.9157  -0.4363  -2.0484 C.3            1 S1                 0.0000
     13 ****         4.4446  -0.3090  -2.1390 C.3            1 S1                 0.0000
     14 ****         5.1345  -1.5843  -1.6352 C.3            1 S1                 0.0000
     15 ****         4.6474  -1.9625  -0.2241 C.3            1 S1                 0.0000
     16 ****         5.2191  -1.0453   0.8714 C.3            1 S1                 0.0000
     17 ****         3.1065  -2.0279  -0.1831 C.3            1 S1                 0.0000
     18 ****        -5.3086   0.7440   0.9862 N.pl3          1 S1                 0.0000
     19 ****        -5.7942  -0.5553   1.4081 C.3            1 S1                 0.0000
     20 ****        -6.1824   1.7437   0.7399 N.2            1 S1                 0.0000
     21 ****        -5.3661   4.8407  -0.2311 H              1 S1                 0.0000
     22 ****        -6.6792   4.4616   0.8786 H              1 S1                 0.0000
     23 ****        -6.7779   3.9607  -0.8081 H              1 S1                 0.0000
     24 ****        -3.2155   3.1356   0.1480 H              1 S1                 0.0000
     25 ****        -3.1665  -0.5694   1.3104 H              1 S1                 0.0000
     26 ****        -1.3410  -1.2790   1.4095 H              1 S1                 0.0000
     27 ****         1.0076   0.4255   1.3231 H              1 S1                 0.0000
     28 ****         0.9188  -1.2984   1.5940 H              1 S1                 0.0000
     29 ****         0.5841  -1.6727  -0.8985 H              1 S1                 0.0000
     30 ****         0.6011   0.0573  -1.1334 H              1 S1                 0.0000
     31 ****         2.5589  -1.2071  -2.7335 H              1 S1                 0.0000
     32 ****         2.4632   0.5043  -2.3649 H              1 S1                 0.0000
     33 ****         4.7391  -0.1118  -3.1702 H              1 S1                 0.0000
     34 ****         4.7783   0.5509  -1.5576 H              1 S1                 0.0000
     35 ****         4.9132  -2.4024  -2.3219 H              1 S1                 0.0000
     36 ****         6.2180  -1.4605  -1.6477 H              1 S1                 0.0000
     37 ****         5.0223  -2.9644  -0.0105 H              1 S1                 0.0000
     38 ****         4.8740  -0.0169   0.7643 H              1 S1                 0.0000
     39 ****         6.3090  -1.0341   0.8430 H              1 S1                 0.0000
     40 ****         4.9221  -1.3896   1.8624 H              1 S1                 0.0000
     41 ****         2.7854  -2.2526   0.8333 H              1 S1                 0.0000
     42 ****         2.7571  -2.8533  -0.8057 H              1 S1                 0.0000
     43 ****        -5.3219  -1.3367   0.8122 H              1 S1                 0.0000
     44 ****        -6.8755  -0.6209   1.2790 H              1 S1                 0.0000
     45 ****        -5.5514  -0.7115   2.4592 H              1 S1                 0.0000
     46 ****         2.8398  -0.0196  -0.0797 H              1 S1                 0.0000
     47 ****        -1.7963   2.4297   0.1074 LP             1 S1                 0.0000
     48 ****        -0.1967   1.7716   0.1986 LP             1 S1                 0.0000
     49 ****        -7.1793   1.7098   0.8103 LP             1 S1                 0.0000
@<TRIPOS>BOND
    1    1    2 1     
    2    1   21 1     
    3    1   22 1     
    4    1   23 1     
    5    2   20 2     
    6    2    3 1     
    7    3    4 2     
    8    3   24 1     
    9    4    5 1     
   10    4   18 1     
   11    5    6 am    
   12    5   25 1     
   13    6    7 2     
   14    6    8 am    
   15    8    9 1     
   16    8   26 1     
   17    9   10 1     
   18    9   27 1     
   19    9   28 1     
   20   10   11 1     
   21   10   29 1     
   22   10   30 1     
   23   11   17 1     
   24   11   12 1     
   25   11   46 1     
   26   12   13 1     
   27   12   31 1     
   28   12   32 1     
   29   13   14 1     
   30   13   33 1     
   31   13   34 1     
   32   14   15 1     
   33   14   35 1     
   34   14   36 1     
   35   15   16 1     
   36   15   17 1     
   37   15   37 1     
   38   16   38 1     
   39   16   39 1     
   40   16   40 1     
   41   17   41 1     
   42   17   42 1     
   43   18   19 1     
   44   18   20 1     
   45   19   43 1     
   46   19   44 1     
   47   19   45 1     
   48    7   47 1     
   49    7   48 1     
   50   20   49 1     
@<TRIPOS>SUBSTRUCTURE
      1 S1             1
@<TRIPOS>SET
LONE_PAIRS      STATIC     ATOMS    <user>   **** ""
3 47 48 49
DONOR_HYDROGENS      STATIC     ATOMS    <user>   **** ""
3 25 26 46
ATOM$BLUE        STATIC     ATOMS    COLORGROUP SYSTEM
3 47 48 49
ATOM$RED        STATIC     ATOMS    COLORGROUP SYSTEM
3 25 26 46
