#       Name:                AV-unprocessed.smi:1672
#       Creating user name   scv26
#       Creation time:       Fri Mar 27 07:44:02 2020


#       File generated by GOLD software.
#

@<TRIPOS>MOLECULE
AV-unprocessed.smi:1672
    53    55     1
SMALL
NO_CHARGES


@<TRIPOS>ATOM
      1 ****        -5.6091  -1.5041   1.8148 C.3            1 S1                 0.0000
      2 ****        -4.0863  -1.6946   1.7779 C.3            1 S1                 0.0000
      3 ****        -3.3805  -0.8577   2.8582 C.3            1 S1                 0.0000
      4 ****        -1.8528  -1.0236   2.7871 C.3            1 S1                 0.0000
      5 ****        -1.3376  -0.6710   1.4395 N.4            1 S1                 1.0000
      6 ****         0.1470  -0.6775   1.3796 C.3            1 S1                 0.0000
      7 ****         0.6928   0.2665   0.2908 C.3            1 S1                 0.0000
      8 ****         0.3787   1.5997   0.6450 O.3            1 S1                 0.0000
      9 ****         2.2178   0.1275   0.1163 C.3            1 S1                 0.0000
     10 ****         2.7319   0.9682  -0.9571 N.pl3          1 S1                 0.0000
     11 ****         3.4118   2.1401  -0.8687 C.2            1 S1                 0.0000
     12 ****         3.7545   2.7725   0.4451 C.3            1 S1                 0.0000
     13 ****         4.8783   2.1774   1.0573 O.3            1 S1                 0.0000
     14 ****         3.7610   2.6965  -2.0290 N.2            1 S1                 0.0000
     15 ****         3.2637   1.8036  -2.9578 C.ar           1 S1                 0.0000
     16 ****         3.3065   1.8264  -4.3702 C.ar           1 S1                 0.0000
     17 ****         2.7194   0.7853  -5.1190 C.ar           1 S1                 0.0000
     18 ****         2.0833  -0.2916  -4.4681 C.ar           1 S1                 0.0000
     19 ****         2.0299  -0.3340  -3.0617 C.ar           1 S1                 0.0000
     20 ****         2.6159   0.7086  -2.3192 C.ar           1 S1                 0.0000
     21 ****        -1.9740  -1.4993   0.3807 C.3            1 S1                 0.0000
     22 ****        -3.5034  -1.3404   0.3996 C.3            1 S1                 0.0000
     23 ****        -5.8851  -0.4677   1.6171 H              1 S1                 0.0000
     24 ****        -6.0159  -1.7763   2.7889 H              1 S1                 0.0000
     25 ****        -6.1004  -2.1273   1.0670 H              1 S1                 0.0000
     26 ****        -3.8787  -2.7475   1.9745 H              1 S1                 0.0000
     27 ****        -3.6379   0.1957   2.7383 H              1 S1                 0.0000
     28 ****        -3.7344  -1.1505   3.8476 H              1 S1                 0.0000
     29 ****        -1.3909  -0.3814   3.5380 H              1 S1                 0.0000
     30 ****        -1.5716  -2.0497   3.0297 H              1 S1                 0.0000
     31 ****         0.5619  -0.3709   2.3412 H              1 S1                 0.0000
     32 ****         0.4936  -1.6986   1.2136 H              1 S1                 0.0000
     33 ****         0.2152   0.0531  -0.6646 H              1 S1                 0.0000
     34 ****         0.8501   1.8240   1.4330 H              1 S1                 0.0000
     35 ****         2.7367   0.3545   1.0473 H              1 S1                 0.0000
     36 ****         2.4694  -0.9064  -0.1235 H              1 S1                 0.0000
     37 ****         3.9640   3.8316   0.2908 H              1 S1                 0.0000
     38 ****         2.9000   2.7203   1.1191 H              1 S1                 0.0000
     39 ****         4.6866   1.2669   1.2200 H              1 S1                 0.0000
     40 ****         3.7916   2.6465  -4.8788 H              1 S1                 0.0000
     41 ****         2.7577   0.8129  -6.1981 H              1 S1                 0.0000
     42 ****         1.6366  -1.0849  -5.0496 H              1 S1                 0.0000
     43 ****         1.5437  -1.1577  -2.5610 H              1 S1                 0.0000
     44 ****        -1.6032  -1.2137  -0.6028 H              1 S1                 0.0000
     45 ****        -1.7051  -2.5471   0.5243 H              1 S1                 0.0000
     46 ****        -3.9469  -1.9766  -0.3672 H              1 S1                 0.0000
     47 ****        -3.7657  -0.3142   0.1380 H              1 S1                 0.0000
     48 ****        -1.6189   0.2855   1.2744 H              1 S1                 0.0000
     49 ****        -0.6048   1.6819   0.8066 LP             1 S1                 0.0000
     50 ****         0.6476   2.2165  -0.0948 LP             1 S1                 0.0000
     51 ****         5.0751   2.6398   1.9219 LP             1 S1                 0.0000
     52 ****         5.6705   2.2518   0.4517 LP             1 S1                 0.0000
     53 ****         4.2593   3.5489  -2.1873 LP             1 S1                 0.0000
@<TRIPOS>BOND
    1    1    2 1     
    2    1   23 1     
    3    1   24 1     
    4    1   25 1     
    5    2   22 1     
    6    2    3 1     
    7    2   26 1     
    8    3    4 1     
    9    3   27 1     
   10    3   28 1     
   11    4    5 1     
   12    4   29 1     
   13    4   30 1     
   14    5    6 1     
   15    5   21 1     
   16    5   48 1     
   17    6    7 1     
   18    6   31 1     
   19    6   32 1     
   20    7    8 1     
   21    7    9 1     
   22    7   33 1     
   23    8   34 1     
   24    9   10 1     
   25    9   35 1     
   26    9   36 1     
   27   10   20 1     
   28   10   11 1     
   29   11   12 1     
   30   11   14 2     
   31   12   13 1     
   32   12   37 1     
   33   12   38 1     
   34   13   39 1     
   35   14   15 1     
   36   15   20 ar    
   37   15   16 ar    
   38   16   17 ar    
   39   16   40 1     
   40   17   18 ar    
   41   17   41 1     
   42   18   19 ar    
   43   18   42 1     
   44   19   20 ar    
   45   19   43 1     
   46   21   22 1     
   47   21   44 1     
   48   21   45 1     
   49   22   46 1     
   50   22   47 1     
   51    8   49 1     
   52    8   50 1     
   53   13   51 1     
   54   13   52 1     
   55   14   53 1     
@<TRIPOS>SUBSTRUCTURE
      1 S1             1
@<TRIPOS>SET
LONE_PAIRS      STATIC     ATOMS    <user>   **** ""
5 49 50 51 52 53
DONOR_HYDROGENS      STATIC     ATOMS    <user>   **** ""
3 48 34 39
ATOM$BLUE        STATIC     ATOMS    COLORGROUP SYSTEM
5 49 50 51 52 53
ATOM$RED        STATIC     ATOMS    COLORGROUP SYSTEM
3 48 34 39
