AV-unprocessed.smi:1858|AV-procd|sdf|7542|dock1
  -GOLD-   22720 9253D 1   1.00000     0.00000
 Structure written by MMmdl.
 48 49  0  0  0  0  0  0  0  0  1 V2000
  151.1522  144.7583  158.7144 C   0  0  0  0  0  0  0  0  0  0  0  0
  150.8827  143.6609  157.7988 N   0  0  0  0  0  0  0  0  0  0  0  0
  151.4706  142.4528  157.8574 C   0  0  0  0  0  0  0  0  0  0  0  0
  152.2944  142.1767  158.7303 O   0  0  0  0  0  0  0  0  0  0  0  0
  151.0563  141.5320  156.7950 C   0  0  0  0  0  0  0  0  0  0  0  0
  151.8890  140.3886  156.4770 C   0  0  0  0  0  0  0  0  0  0  0  0
  151.5585  139.5534  155.4721 C   0  0  0  0  0  0  0  0  0  0  0  0
  150.3531  139.7584  154.6625 C   0  0  0  0  0  0  0  0  0  0  0  0
  150.0629  139.0156  153.7247 O   0  0  0  0  0  0  0  0  0  0  0  0
  149.5775  140.8274  155.0158 N   0  0  0  0  0  0  0  0  0  0  0  0
  148.3583  141.1759  154.2706 C   0  0  0  0  0  0  0  0  0  0  0  0
  147.1182  140.9670  155.1444 C   0  0  0  0  0  0  0  0  0  0  0  0
  146.4641  139.9284  155.0583 O   0  0  0  0  0  0  0  0  0  0  0  0
  146.8035  141.9810  155.9647 N   0  0  0  0  0  0  0  0  0  0  0  0
  145.6042  142.0844  156.7914 C   0  0  0  0  0  0  0  0  0  0  0  0
  144.3287  142.1789  155.9164 C   0  0  0  0  0  0  0  0  0  0  0  0
  144.2561  143.3275  154.8904 C   0  0  0  0  0  0  0  0  0  0  0  0
  144.2428  144.7589  155.4568 C   0  0  0  0  0  0  0  0  0  0  0  0
  143.2816  144.9832  156.6420 C   0  0  0  0  0  0  0  0  0  0  0  0
  143.9575  145.0270  158.0282 C   0  0  0  0  0  0  0  0  0  0  0  0
  144.5513  143.7060  158.5615 C   0  0  0  0  0  0  0  0  0  0  0  0
  145.8110  143.2259  157.8130 C   0  0  0  0  0  0  0  0  0  0  0  0
  149.9317  141.6973  156.0663 C   0  0  0  0  0  0  0  0  0  0  0  0
  150.5595  145.6289  158.4336 H   0  0  0  0  0  0  0  0  0  0  0  0
  152.2053  145.0399  158.6833 H   0  0  0  0  0  0  0  0  0  0  0  0
  150.8932  144.4838  159.7377 H   0  0  0  0  0  0  0  0  0  0  0  0
  150.2179  143.8322  157.0584 H   0  0  0  0  0  0  0  0  0  0  0  0
  152.7883  140.1930  157.0435 H   0  0  0  0  0  0  0  0  0  0  0  0
  152.1981  138.7103  155.2554 H   0  0  0  0  0  0  0  0  0  0  0  0
  148.3699  142.2076  153.9157 H   0  0  0  0  0  0  0  0  0  0  0  0
  148.2915  140.5645  153.3687 H   0  0  0  0  0  0  0  0  0  0  0  0
  147.4189  142.7811  155.9712 H   0  0  0  0  0  0  0  0  0  0  0  0
  145.5175  141.1626  157.3695 H   0  0  0  0  0  0  0  0  0  0  0  0
  144.2361  141.2470  155.3576 H   0  0  0  0  0  0  0  0  0  0  0  0
  143.4405  142.1863  156.5456 H   0  0  0  0  0  0  0  0  0  0  0  0
  145.0693  143.2347  154.1714 H   0  0  0  0  0  0  0  0  0  0  0  0
  143.3437  143.1887  154.3094 H   0  0  0  0  0  0  0  0  0  0  0  0
  145.2506  145.0825  155.7117 H   0  0  0  0  0  0  0  0  0  0  0  0
  143.9451  145.4214  154.6432 H   0  0  0  0  0  0  0  0  0  0  0  0
  142.8022  145.9517  156.4940 H   0  0  0  0  0  0  0  0  0  0  0  0
  142.4636  144.2626  156.6297 H   0  0  0  0  0  0  0  0  0  0  0  0
  144.7279  145.7992  158.0312 H   0  0  0  0  0  0  0  0  0  0  0  0
  143.2104  145.3656  158.7469 H   0  0  0  0  0  0  0  0  0  0  0  0
  144.8397  143.8890  159.5972 H   0  0  0  0  0  0  0  0  0  0  0  0
  143.7940  142.9246  158.6195 H   0  0  0  0  0  0  0  0  0  0  0  0
  146.5249  142.8637  158.5540 H   0  0  0  0  0  0  0  0  0  0  0  0
  146.3137  144.0768  157.3546 H   0  0  0  0  0  0  0  0  0  0  0  0
  149.2332  142.5101  156.2060 H   0  0  0  0  0  0  0  0  0  0  0  0
  1  2  1  0  0  0  0
  1 24  1  0  0  0  0
  1 25  1  0  0  0  0
  1 26  1  0  0  0  0
  2  3  1  0  0  0  0
  2 27  1  0  0  0  0
  3  4  2  0  0  0  0
  3  5  1  0  0  0  0
  5 23  2  0  0  0  0
  5  6  1  0  0  0  0
  6  7  2  0  0  0  0
  6 28  1  0  0  0  0
  7  8  1  0  0  0  0
  7 29  1  0  0  0  0
  8  9  2  0  0  0  0
  8 10  1  0  0  0  0
 10 11  1  0  0  0  0
 10 23  1  0  0  0  0
 11 12  1  0  0  0  0
 11 30  1  0  0  0  0
 11 31  1  0  0  0  0
 12 13  2  0  0  0  0
 12 14  1  0  0  0  0
 14 15  1  0  0  0  0
 14 32  1  0  0  0  0
 15 22  1  0  0  0  0
 15 16  1  0  0  0  0
 15 33  1  0  0  0  0
 16 17  1  0  0  0  0
 16 34  1  0  0  0  0
 16 35  1  0  0  0  0
 17 18  1  0  0  0  0
 17 36  1  0  0  0  0
 17 37  1  0  0  0  0
 18 19  1  0  0  0  0
 18 38  1  0  0  0  0
 18 39  1  0  0  0  0
 19 20  1  0  0  0  0
 19 40  1  0  0  0  0
 19 41  1  0  0  0  0
 20 21  1  0  0  0  0
 20 42  1  0  0  0  0
 20 43  1  0  0  0  0
 21 22  1  0  0  0  0
 21 44  1  0  0  0  0
 21 45  1  0  0  0  0
 22 46  1  0  0  0  0
 22 47  1  0  0  0  0
 23 48  1  0  0  0  0
M  END
> <s_m_source_file>
AV-unprocessed.smi

> <i_m_source_file_index>
1858

> <i_lp_mmshare_version>
43012

> <i_f3d_flags>
0

> <s_epik_input>
W0NIM11bTkhdQyg9TyljMVtjSF1bY0hdYyg9TyluKFtjSF0xKVtDSDJdQyg9TylbTkhdW0NIXTJbQ0gyXVtDSDJdW0NIMl1bQ0gyXVtDSDJdW0NIMl1bQ0gyXTI=

> <s_epik_cmdline>
J2VwaWtfcHl0aG9uJywgJy1waCcsICc3LjAnLCAnLXRuJywgJzgnLCAnLW1hJywgJzIwMCcsICctbWV0YWxfYmluZGluZycsICctaW1hZScsICc8aW5maWxlLm1hZT4nLCAnLW9tYWUnLCAnPG91dGZpbGUubWFlPic=

> <r_lp_tautomer_probability>
1

> <r_epik_Ionization_Penalty>
3.70383e-07

> <r_epik_Ionization_Penalty_Charging>
5.00098e-08

> <r_epik_Ionization_Penalty_Neutral>
3.20374e-07

> <r_epik_State_Penalty>
-0

> <r_epik_Charging_Adjusted_Penalty>
5.00098e-08

> <i_epik_Tot_Q>
0

> <i_epik_Tot_abs_Q>
0

> <r_epik_Metal_State_Penalty>
-0

> <b_epik_Metal_Only>
0

> <s_lp_Force_Field>
OPLS_2005

> <r_lp_Energy>
33.6896

> <b_lp_Chiralities_Consistent>
1

> <s_lp_Variant>
AV-unprocessed.smi:1858-1

> <Gold.Version>
5.8.1

> <Gold.Id.Protein>
6NUR|6NUR_protein|mol2

> <Gold.PLP.Fitness>
40.4960

> <Gold.PLP.PLP>
-34.5091

> <Gold.PLP.part.hbond>
-1.1982

> <Gold.PLP.part.metal>
0.0000

> <Gold.PLP.part.buried>
-4.0743

> <Gold.PLP.part.nonpolar>
-29.0154

> <Gold.PLP.part.repulsive>
1.7866

> <Gold.PLP.ligand.clash>
0.0000

> <Gold.PLP.ligand.torsion>
0.6417

> <Gold.PLP.Chemscore.Hbond>
1.4014

> <Gold.PLP.Chemscore.CHOScore>
1.0000

> <Gold.PLP.Chemscore.Metal>
0.0000

> <Gold.Chemscore.Hbonds>
donor molecule, donor type, donor heavy atom, donor atom, acceptor molecule, acceptor atom, score
      L1  H     2    27       P1  8028  0.80
      L1  H    14    32       P1  8028  0.02
      L1  C    23    48       P1  8028  1.00

> <Gold.PLP.Chemscore.Internal.Correction>
0.0663

> <Gold.Rescore>
     Score         DG    S(hbond)    S(metal)    S(lipo)     H(rot)  DE(clash)    DE(int)     intcor
     11.80     -12.97       0.99        0.00      68.07       1.48       0.57       0.61       ----

> <Gold.Chemscore.Fitness>
11.7968

> <Gold.Chemscore.DG>
-12.9726

> <Gold.Chemscore.ZeroCoef>
-5.4800

> <Gold.Chemscore.Hbond>
0.9940

> <Gold.Chemscore.Metal>
0.0000

> <Gold.Chemscore.Lipo>
68.0737

> <Gold.Chemscore.Internal_Hbond>
0.0000

> <Gold.Chemscore.DEClash>
0.5679

> <Gold.Chemscore.DEInternal>
0.6079

> <Gold.Chemscore.Rot>
1.4812

> <Gold.Chemscore.Internal.Correction>
   9.000000E+99

> <Gold.Chemscore.Hbonds>
donor molecule, donor type, donor heavy atom, donor atom, acceptor molecule, acceptor atom, score
      L1  H     2    27       P1  8028  0.77
      L1  H    14    32       P1  8028  0.02

> <Gold.Chemscore.Hbond.Weighted>
-3.3199

> <Gold.Chemscore.Metal.Weighted>
-0.0000

> <Gold.Chemscore.Lipo.Weighted>
-7.9646

> <Gold.Chemscore.Internal_Hbond.Weighted>
0.0000

> <Gold.Chemscore.DEClash.Weighted>
0.5679

> <Gold.Chemscore.DEInternal.Weighted>
0.6079

> <Gold.Chemscore.Rot.Weighted>
3.7920

> <Gold.Chemscore.Internal.Correction.Weighted>
   9.000000E+99

> <Gold.Protein.RotatedTorsions>
[ 6907 6896 6895 6894 ] final   28.23 input  -60.11 | X-H torsion
[ 7974 7965 7964 7962 ] final -119.98 input  175.53 | X-H torsion
[ 8008 7997 7996 7995 ] final   -4.92 input   59.86 | X-H torsion
[ 10167 10162 10161 10158 ] final  104.94 input  -65.29 | X-H torsion
[ 10718 10713 10712 10709 ] final -134.45 input   66.30 | X-H torsion
[ 10763 10752 10751 10750 ] final -136.95 input  -60.55 | X-H torsion
[ 11005 11000 10999 10996 ] final   77.41 input  -57.11 | X-H torsion

> <Gold.Protein.ActiveResidues>
 VAL166  LYS551  ARG553  GLY616  TRP617  ASP618  TYR619  PRO620  LYS621  CYS622 
 ASP623  PHE694  ASN695  SER759  ASP760  ASP761  ALA762  ILE779  LEU786  VAL792 
 PHE793  MET794  SER795  GLU796  ALA797  LYS798  CYS799  TRP800  GLU811  SER814 

> <Gold.Protein.RotatedAtoms>
  152.0139  134.9860  160.0568 H   0  0  0  0  0  0  0  0  0  0  0  0  # atno 6907 bound_to 6896
  152.1402  133.4454  159.4771 H   0  0  0  0  0  0  0  0  0  0  0  0  # atno 6908 bound_to 6896
  150.6864  134.2233  159.4448 H   0  0  0  0  0  0  0  0  0  0  0  0  # atno 6909 bound_to 6896
  145.0565  140.8258  143.4178 H   0  0  0  0  0  0  0  0  0  0  0  0  # atno 7974 bound_to 7965
  154.6092  140.2471  155.7691 H   0  0  0  0  0  0  0  0  0  0  0  0  # atno 8008 bound_to 7997
  156.2360  140.2950  156.0264 H   0  0  0  0  0  0  0  0  0  0  0  0  # atno 8009 bound_to 7997
  155.2080  140.0396  157.2919 H   0  0  0  0  0  0  0  0  0  0  0  0  # atno 8010 bound_to 7997
  139.7135  144.7073  151.0989 H   0  0  0  0  0  0  0  0  0  0  0  0  # atno 10167 bound_to 10162
  156.2556  130.7179  151.1095 H   0  0  0  0  0  0  0  0  0  0  0  0  # atno 10718 bound_to 10713
  154.8673  135.3657  154.5144 H   0  0  0  0  0  0  0  0  0  0  0  0  # atno 10763 bound_to 10752
  153.5777  135.7019  153.5481 H   0  0  0  0  0  0  0  0  0  0  0  0  # atno 10764 bound_to 10752
  153.3485  135.4078  155.1590 H   0  0  0  0  0  0  0  0  0  0  0  0  # atno 10765 bound_to 10752
  139.9256  134.7681  156.1518 H   0  0  0  0  0  0  0  0  0  0  0  0  # atno 11005 bound_to 11000
  145.1462  139.2542  143.5464 LP  0  0  0  0  0  0  0  0  0  0  0  0  # atno 17320 bound_to 7965
  146.3521  140.1152  142.8602 LP  0  0  0  0  0  0  0  0  0  0  0  0  # atno 17321 bound_to 7965
  140.7738  143.5261  150.9478 LP  0  0  0  0  0  0  0  0  0  0  0  0  # atno 17342 bound_to 10162
  139.8947  143.6910  152.3140 LP  0  0  0  0  0  0  0  0  0  0  0  0  # atno 17343 bound_to 10162
  157.7231  131.0668  150.6049 LP  0  0  0  0  0  0  0  0  0  0  0  0  # atno 17370 bound_to 10713
  156.6133  130.4386  149.5850 LP  0  0  0  0  0  0  0  0  0  0  0  0  # atno 17371 bound_to 10713
  141.0810  133.6754  156.2336 LP  0  0  0  0  0  0  0  0  0  0  0  0  # atno 17394 bound_to 11000
  140.6347  134.5227  157.5563 LP  0  0  0  0  0  0  0  0  0  0  0  0  # atno 17395 bound_to 11000

$$$$
