AV-unprocessed.smi:2804|AV-procd|sdf|10812|dock10
  -GOLD-   2272015253D 1   1.00000     0.00000
 Structure written by MMmdl.
 34 35  0  0  0  0  0  0  0  0  2 V2000
  152.1984  145.1956  158.6044 C   0  0  0  0  0  0  0  0  0  0  0  0
  152.2398  144.0456  157.5929 C   0  0  0  0  0  0  0  0  0  0  0  0
  151.3816  142.8485  158.0296 C   0  0  0  0  0  0  0  0  0  0  0  0
  152.1351  141.9426  158.8931 N   0  0  0  0  0  0  0  0  0  0  0  0
  152.6177  140.7234  158.5559 C   0  0  0  0  0  0  0  0  0  0  0  0
  152.5108  140.1906  157.4509 O   0  0  0  0  0  0  0  0  0  0  0  0
  153.2626  140.2091  159.6347 N   0  0  0  0  0  0  0  0  0  0  0  0
  153.9676  138.9188  159.7061 C   0  0  0  0  0  0  0  0  0  0  0  0
  153.4114  137.9433  160.7842 C   0  0  1  0  0  0  0  0  0  0  0  0
  152.9010  136.9148  160.1499 O   0  5  0  0  0  0  0  0  0  0  0  0
  154.5403  137.4129  161.7020 C   0  0  0  0  0  0  0  0  0  0  0  0
  155.3673  136.6241  161.0130 F   0  0  0  0  0  0  0  0  0  0  0  0
  155.2405  138.4089  162.2498 F   0  0  0  0  0  0  0  0  0  0  0  0
  154.0108  136.6838  162.6856 F   0  0  0  0  0  0  0  0  0  0  0  0
  153.2318  141.1584  160.6730 C   0  0  0  0  0  0  0  0  0  0  0  0
  153.7786  141.1318  161.9686 C   0  0  0  0  0  0  0  0  0  0  0  0
  153.5677  142.2668  162.7856 C   0  0  0  0  0  0  0  0  0  0  0  0
  152.8348  143.3822  162.3043 C   0  0  0  0  0  0  0  0  0  0  0  0
  152.2976  143.3852  160.9958 C   0  0  0  0  0  0  0  0  0  0  0  0
  152.5193  142.2429  160.2066 C   0  0  0  0  0  0  0  0  0  0  0  0
  152.8174  146.0286  158.2712 H   0  0  0  0  0  0  0  0  0  0  0  0
  152.5677  144.8754  159.5791 H   0  0  0  0  0  0  0  0  0  0  0  0
  151.1821  145.5675  158.7354 H   0  0  0  0  0  0  0  0  0  0  0  0
  151.8976  144.4086  156.6230 H   0  0  0  0  0  0  0  0  0  0  0  0
  153.2735  143.7261  157.4556 H   0  0  0  0  0  0  0  0  0  0  0  0
  150.4908  143.1930  158.5556 H   0  0  0  0  0  0  0  0  0  0  0  0
  151.0226  142.3062  157.1534 H   0  0  0  0  0  0  0  0  0  0  0  0
  153.9670  138.4423  158.7236 H   0  0  0  0  0  0  0  0  0  0  0  0
  155.0163  139.1310  159.9152 H   0  0  0  0  0  0  0  0  0  0  0  0
  152.7801  138.5521  161.4334 H   0  0  0  0  0  0  0  0  0  0  0  0
  154.3352  140.2797  162.3297 H   0  0  0  0  0  0  0  0  0  0  0  0
  153.9699  142.2840  163.7877 H   0  0  0  0  0  0  0  0  0  0  0  0
  152.6861  144.2396  162.9438 H   0  0  0  0  0  0  0  0  0  0  0  0
  151.7428  144.2329  160.6223 H   0  0  0  0  0  0  0  0  0  0  0  0
  1  2  1  0  0  0  0
  1 21  1  0  0  0  0
  1 22  1  0  0  0  0
  1 23  1  0  0  0  0
  2  3  1  0  0  0  0
  2 24  1  0  0  0  0
  2 25  1  0  0  0  0
  3  4  1  0  0  0  0
  3 26  1  0  0  0  0
  3 27  1  0  0  0  0
  4 20  1  0  0  0  0
  4  5  1  0  0  0  0
  5  6  2  0  0  0  0
  5  7  1  0  0  0  0
  7  8  1  0  0  0  0
  7 15  1  0  0  0  0
  8  9  1  0  0  0  0
  8 28  1  0  0  0  0
  8 29  1  0  0  0  0
  9 10  1  0  0  0  0
  9 11  1  0  0  0  0
  9 30  1  0  0  0  0
 11 12  1  0  0  0  0
 11 13  1  0  0  0  0
 11 14  1  0  0  0  0
 15 20  2  0  0  0  0
 15 16  1  0  0  0  0
 16 17  2  0  0  0  0
 16 31  1  0  0  0  0
 17 18  1  0  0  0  0
 17 32  1  0  0  0  0
 18 19  2  0  0  0  0
 18 33  1  0  0  0  0
 19 20  1  0  0  0  0
 19 34  1  0  0  0  0
M  CHG  1  10  -1
M  END
> <s_m_source_file>
AV-unprocessed.smi

> <i_m_source_file_index>
2804

> <i_lp_mmshare_version>
43012

> <i_f3d_flags>
0

> <s_epik_input>
W2NIXTFbY0hdW2NIXVtjSF1jKGMxMiluKFtDSDJdW0NIMl1bQ0gzXSljKD1PKW4yW0NIMl1bQ0BIXShbT0hdKUMoRikoRilG

> <s_epik_cmdline>
J2VwaWtfcHl0aG9uJywgJy1waCcsICc3LjAnLCAnLXRuJywgJzgnLCAnLW1hJywgJzIwMCcsICctbWV0YWxfYmluZGluZycsICctaW1hZScsICc8aW5maWxlLm1hZT4nLCAnLW9tYWUnLCAnPG91dGZpbGUubWFlPic=

> <r_epik_Ionization_Penalty>
2.32651

> <r_epik_Ionization_Penalty_Charging>
2.32651

> <r_epik_Ionization_Penalty_Neutral>
0

> <r_epik_State_Penalty>
2.47909

> <r_epik_Charging_Adjusted_Penalty>
4.8056

> <i_epik_Tot_Q>
-1

> <i_epik_Tot_abs_Q>
1

> <r_epik_Metal_State_Penalty>
2.47909

> <b_epik_Metal_Only>
0

> <s_lp_Force_Field>
OPLS_2005

> <r_lp_Energy>
44.9553

> <b_lp_Chiralities_Consistent>
1

> <s_lp_Variant>
AV-unprocessed.smi:2804-4

> <Gold.Version>
5.8.1

> <Gold.Id.Protein>
6NUR|6NUR_protein|mol2

> <Gold.PLP.Fitness>
54.1397

> <Gold.PLP.PLP>
-47.3557

> <Gold.PLP.part.hbond>
-1.9610

> <Gold.PLP.part.metal>
0.0000

> <Gold.PLP.part.buried>
-5.1163

> <Gold.PLP.part.nonpolar>
-40.9406

> <Gold.PLP.part.repulsive>
0.0000

> <Gold.PLP.ligand.clash>
0.0000

> <Gold.PLP.ligand.torsion>
1.1079

> <Gold.PLP.Chemscore.Hbond>
2.9825

> <Gold.PLP.Chemscore.CHOScore>
0.0000

> <Gold.PLP.Chemscore.Metal>
0.0000

> <Gold.Chemscore.Hbonds>
donor molecule, donor type, donor heavy atom, donor atom, acceptor molecule, acceptor atom, score
      P1  H  6896  6908       L1    10  1.89
      P1  H  7997  8008       L1     6  1.00

> <Gold.PLP.Chemscore.Internal.Correction>
0.0524

> <Gold.Rescore>
     Score         DG    S(hbond)    S(metal)    S(lipo)     H(rot)  DE(clash)    DE(int)     intcor
     18.65     -21.23       1.80        0.00     120.74       1.72       0.31       2.27       ----

> <Gold.Chemscore.Fitness>
18.6471

> <Gold.Chemscore.DG>
-21.2256

> <Gold.Chemscore.ZeroCoef>
-5.4800

> <Gold.Chemscore.Hbond>
1.8017

> <Gold.Chemscore.Metal>
0.0000

> <Gold.Chemscore.Lipo>
120.7446

> <Gold.Chemscore.Internal_Hbond>
0.0000

> <Gold.Chemscore.DEClash>
0.3117

> <Gold.Chemscore.DEInternal>
2.2668

> <Gold.Chemscore.Rot>
1.7185

> <Gold.Chemscore.Internal.Correction>
   9.000000E+99

> <Gold.Chemscore.Hbonds>
donor molecule, donor type, donor heavy atom, donor atom, acceptor molecule, acceptor atom, score
      P1  H  6896  6908       L1    10  0.90
      P1  H  7997  8008       L1     6  0.50

> <Gold.Chemscore.Hbond.Weighted>
-6.0177

> <Gold.Chemscore.Metal.Weighted>
-0.0000

> <Gold.Chemscore.Lipo.Weighted>
-14.1271

> <Gold.Chemscore.Internal_Hbond.Weighted>
0.0000

> <Gold.Chemscore.DEClash.Weighted>
0.3117

> <Gold.Chemscore.DEInternal.Weighted>
2.2668

> <Gold.Chemscore.Rot.Weighted>
4.3992

> <Gold.Chemscore.Internal.Correction.Weighted>
   9.000000E+99

> <Gold.Protein.RotatedTorsions>
[ 6907 6896 6895 6894 ] final  -96.93 input  -60.11 | X-H torsion
[ 7974 7965 7964 7962 ] final -114.38 input  175.53 | X-H torsion
[ 8008 7997 7996 7995 ] final  -63.14 input   59.86 | X-H torsion
[ 10167 10162 10161 10158 ] final   87.51 input  -65.29 | X-H torsion
[ 10718 10713 10712 10709 ] final   63.82 input   66.30 | X-H torsion
[ 10763 10752 10751 10750 ] final  -16.61 input  -60.55 | X-H torsion
[ 11005 11000 10999 10996 ] final -173.14 input  -57.11 | X-H torsion

> <Gold.Protein.ActiveResidues>
 VAL166  LYS551  ARG553  GLY616  TRP617  ASP618  TYR619  PRO620  LYS621  CYS622 
 ASP623  PHE694  ASN695  SER759  ASP760  ASP761  ALA762  ILE779  LEU786  VAL792 
 PHE793  MET794  SER795  GLU796  ALA797  LYS798  CYS799  TRP800  GLU811  SER814 

> <Gold.Protein.RotatedAtoms>
  150.7002  134.1427  159.4110 H   0  0  0  0  0  0  0  0  0  0  0  0  # atno 6907 bound_to 6896
  151.9412  135.0210  160.0545 H   0  0  0  0  0  0  0  0  0  0  0  0  # atno 6908 bound_to 6896
  152.2092  133.4863  159.5137 H   0  0  0  0  0  0  0  0  0  0  0  0  # atno 6909 bound_to 6896
  145.1209  140.8668  143.3815 H   0  0  0  0  0  0  0  0  0  0  0  0  # atno 7974 bound_to 7965
  154.4538  140.0981  156.6696 H   0  0  0  0  0  0  0  0  0  0  0  0  # atno 8008 bound_to 7997
  155.5203  140.3479  155.4387 H   0  0  0  0  0  0  0  0  0  0  0  0  # atno 8009 bound_to 7997
  156.0735  140.1355  156.9789 H   0  0  0  0  0  0  0  0  0  0  0  0  # atno 8010 bound_to 7997
  139.8766  144.6463  150.8889 H   0  0  0  0  0  0  0  0  0  0  0  0  # atno 10167 bound_to 10162
  157.5997  130.9126  149.9765 H   0  0  0  0  0  0  0  0  0  0  0  0  # atno 10718 bound_to 10713
  153.5612  135.7009  153.5546 H   0  0  0  0  0  0  0  0  0  0  0  0  # atno 10763 bound_to 10752
  153.3428  135.4016  155.1585 H   0  0  0  0  0  0  0  0  0  0  0  0  # atno 10764 bound_to 10752
  154.8647  135.3746  154.5129 H   0  0  0  0  0  0  0  0  0  0  0  0  # atno 10765 bound_to 10752
  140.4890  134.6002  157.4948 H   0  0  0  0  0  0  0  0  0  0  0  0  # atno 11005 bound_to 11000
  145.0742  139.3008  143.5816 LP  0  0  0  0  0  0  0  0  0  0  0  0  # atno 17320 bound_to 7965
  146.3521  140.0227  142.8657 LP  0  0  0  0  0  0  0  0  0  0  0  0  # atno 17321 bound_to 7965
  140.7752  143.3620  151.1811 LP  0  0  0  0  0  0  0  0  0  0  0  0  # atno 17342 bound_to 10162
  139.7234  143.9187  152.2994 LP  0  0  0  0  0  0  0  0  0  0  0  0  # atno 17343 bound_to 10162
  156.1068  130.3652  150.0120 LP  0  0  0  0  0  0  0  0  0  0  0  0  # atno 17370 bound_to 10713
  156.8226  130.9364  151.3640 LP  0  0  0  0  0  0  0  0  0  0  0  0  # atno 17371 bound_to 10713
  139.9780  134.7183  155.9912 LP  0  0  0  0  0  0  0  0  0  0  0  0  # atno 17394 bound_to 11000
  141.1493  133.6551  156.3964 LP  0  0  0  0  0  0  0  0  0  0  0  0  # atno 17395 bound_to 11000

$$$$
