#       Name:                AV-unprocessed.smi:2866
#       Creating user name   scv26
#       Creation time:       Fri Mar 27 15:48:29 2020


#       File generated by GOLD software.
#

@<TRIPOS>MOLECULE
AV-unprocessed.smi:2866
    45    47     1
SMALL
NO_CHARGES


@<TRIPOS>ATOM
      1 ****        -1.8989   4.3883   3.5699 C.3            1 S1                 0.0000
      2 ****        -1.4954   3.3377   2.5493 C.ar           1 S1                 0.0000
      3 ****        -1.5554   3.6720   1.1775 C.ar           1 S1                 0.0000
      4 ****        -1.1784   2.6908   0.2684 C.ar           1 S1                 0.0000
      5 ****        -1.1234   2.7103  -1.1268 N.pl3          1 S1                 1.0000
      6 ****        -0.6882   1.5028  -1.5814 C.2            1 S1                 0.0000
      7 ****        -0.4644   0.7123  -0.4968 N.pl3          1 S1                 0.0000
      8 ****         0.0061  -0.6786  -0.4356 C.3            1 S1                 0.0000
      9 ****         1.5453  -0.7902  -0.4731 C.3            1 S1                 0.0000
     10 ****         2.1105  -0.0986   0.6224 O.3            1 S1                 0.0000
     11 ****         2.0567  -2.2443  -0.4387 C.3            1 S1                 0.0000
     12 ****         1.5267  -3.0601  -1.5169 N.pl3          1 S1                 0.0000
     13 ****         0.7515  -4.1961  -1.4308 C.2            1 S1                 0.0000
     14 ****         0.5143  -4.6225  -2.7058 C.2            1 S1                 0.0000
     15 ****         1.2018  -3.6774  -3.5217 C.2            1 S1                 0.0000
     16 ****         1.2976  -3.6329  -5.0239 C.3            1 S1                 0.0000
     17 ****         0.6602  -4.6738  -5.5597 F              1 S1                 0.0000
     18 ****         0.7426  -2.5094  -5.4786 F              1 S1                 0.0000
     19 ****         2.5753  -3.6709  -5.4020 F              1 S1                 0.0000
     20 ****         1.8085  -2.7452  -2.7991 N.2            1 S1                 0.0000
     21 ****        -0.7558   1.4117   0.6804 C.ar           1 S1                 0.0000
     22 ****        -0.6903   1.0665   2.0285 C.ar           1 S1                 0.0000
     23 ****        -1.0678   2.0514   2.9691 C.ar           1 S1                 0.0000
     24 ****        -1.0055   1.7038   4.4467 C.3            1 S1                 0.0000
     25 ****        -2.1842   5.3240   3.0879 H              1 S1                 0.0000
     26 ****        -1.0722   4.6030   4.2475 H              1 S1                 0.0000
     27 ****        -2.7495   4.0432   4.1581 H              1 S1                 0.0000
     28 ****        -1.8793   4.6493   0.8505 H              1 S1                 0.0000
     29 ****        -0.5467   1.2220  -2.6154 H              1 S1                 0.0000
     30 ****        -0.4048  -1.1623   0.4508 H              1 S1                 0.0000
     31 ****        -0.4312  -1.1931  -1.2918 H              1 S1                 0.0000
     32 ****         1.9112  -0.3084  -1.3808 H              1 S1                 0.0000
     33 ****         1.8699   0.8128   0.5566 H              1 S1                 0.0000
     34 ****         3.1457  -2.2652  -0.5007 H              1 S1                 0.0000
     35 ****         1.7886  -2.7137   0.5090 H              1 S1                 0.0000
     36 ****         0.4350  -4.6017  -0.4809 H              1 S1                 0.0000
     37 ****        -0.0619  -5.4832  -3.0113 H              1 S1                 0.0000
     38 ****        -0.3598   0.0900   2.3503 H              1 S1                 0.0000
     39 ****        -0.6545   0.6833   4.6024 H              1 S1                 0.0000
     40 ****        -1.9924   1.7898   4.9021 H              1 S1                 0.0000
     41 ****        -0.3222   2.3734   4.9695 H              1 S1                 0.0000
     42 ****        -1.3643   3.4888  -1.7270 H              1 S1                 0.0000
     43 ****         3.1063  -0.1873   0.6003 LP             1 S1                 0.0000
     44 ****         1.7609  -0.4791   1.4786 LP             1 S1                 0.0000
     45 ****         2.3553  -1.9768  -3.1315 LP             1 S1                 0.0000
@<TRIPOS>BOND
    1    1    2 1     
    2    1   25 1     
    3    1   26 1     
    4    1   27 1     
    5    2   23 ar    
    6    2    3 ar    
    7    3    4 ar    
    8    3   28 1     
    9    4   21 ar    
   10    4    5 1     
   11    5    6 2     
   12    5   42 1     
   13    6    7 1     
   14    6   29 1     
   15    7    8 1     
   16    7   21 1     
   17    8    9 1     
   18    8   30 1     
   19    8   31 1     
   20    9   10 1     
   21    9   11 1     
   22    9   32 1     
   23   10   33 1     
   24   11   12 1     
   25   11   34 1     
   26   11   35 1     
   27   12   20 1     
   28   12   13 1     
   29   13   14 2     
   30   13   36 1     
   31   14   15 1     
   32   14   37 1     
   33   15   16 1     
   34   15   20 2     
   35   16   17 1     
   36   16   18 1     
   37   16   19 1     
   38   21   22 ar    
   39   22   23 ar    
   40   22   38 1     
   41   23   24 1     
   42   24   39 1     
   43   24   40 1     
   44   24   41 1     
   45   10   43 1     
   46   10   44 1     
   47   20   45 1     
@<TRIPOS>SUBSTRUCTURE
      1 S1             1
@<TRIPOS>SET
LONE_PAIRS      STATIC     ATOMS    <user>   **** ""
3 43 44 45
DONOR_HYDROGENS      STATIC     ATOMS    <user>   **** ""
2 42 33
ATOM$BLUE        STATIC     ATOMS    COLORGROUP SYSTEM
3 43 44 45
ATOM$RED        STATIC     ATOMS    COLORGROUP SYSTEM
2 42 33
