#       Name:                AV-unprocessed.smi:1074
#       Creating user name   scv26
#       Creation time:       Fri Mar 27 03:21:14 2020


#       File generated by GOLD software.
#

@<TRIPOS>MOLECULE
AV-unprocessed.smi:1074
    51    52     1
SMALL
NO_CHARGES


@<TRIPOS>ATOM
      1 ****        -4.5564  -5.4193  -0.8998 C.3            1 S1                 0.0000
      2 ****        -4.6612  -3.9820  -0.7003 N.am           1 S1                 0.0000
      3 ****        -3.6141  -3.1668  -0.5051 C.2            1 S1                 0.0000
      4 ****        -2.4518  -3.5717  -0.4819 O.2            1 S1                 0.0000
      5 ****        -3.9387  -1.6741  -0.3054 C.3            1 S1                 0.0000
      6 ****        -3.2900  -0.7692  -1.3794 C.3            1 S1                 0.0000
      7 ****        -1.7866  -0.5186  -1.1549 C.3            1 S1                 0.0000
      8 ****        -1.5078   0.0145   0.2640 C.3            1 S1                 0.0000
      9 ****        -0.0737   0.1771   0.4812 N.am           1 S1                 0.0000
     10 ****         0.6504   1.2463   0.1211 C.2            1 S1                 0.0000
     11 ****         0.1762   2.2191  -0.4641 O.2            1 S1                 0.0000
     12 ****         1.9381   1.0950   0.4766 N.am           1 S1                 0.0000
     13 ****         3.0291   1.9970   0.3360 C.ar           1 S1                 0.0000
     14 ****         2.9238   3.3364  -0.1117 C.ar           1 S1                 0.0000
     15 ****         4.0893   4.1227  -0.1875 C.ar           1 S1                 0.0000
     16 ****         5.3227   3.5540   0.1866 C.ar           1 S1                 0.0000
     17 ****         6.4592   4.3331   0.1123 O.3            1 S1                 0.0000
     18 ****         7.7027   3.7518   0.4893 C.3            1 S1                 0.0000
     19 ****         5.4316   2.2735   0.6184 N.ar           1 S1                 0.0000
     20 ****         4.3107   1.5253   0.6885 C.ar           1 S1                 0.0000
     21 ****        -2.0829  -0.9349   1.3294 C.3            1 S1                 0.0000
     22 ****        -3.5885  -1.1765   1.1161 C.3            1 S1                 0.0000
     23 ****        -5.5505  -5.8520  -1.0109 H              1 S1                 0.0000
     24 ****        -4.0705  -5.8957  -0.0474 H              1 S1                 0.0000
     25 ****        -3.9828  -5.6458  -1.7993 H              1 S1                 0.0000
     26 ****        -5.5880  -3.5810  -0.7060 H              1 S1                 0.0000
     27 ****        -5.0196  -1.5742  -0.4193 H              1 S1                 0.0000
     28 ****        -3.4455  -1.1919  -2.3730 H              1 S1                 0.0000
     29 ****        -3.8062   0.1916  -1.3839 H              1 S1                 0.0000
     30 ****        -1.2234  -1.4361  -1.3255 H              1 S1                 0.0000
     31 ****        -1.4281   0.1949  -1.8978 H              1 S1                 0.0000
     32 ****        -1.9975   0.9837   0.3775 H              1 S1                 0.0000
     33 ****         0.4001  -0.5804   0.9508 H              1 S1                 0.0000
     34 ****         2.1693   0.2132   0.9103 H              1 S1                 0.0000
     35 ****         1.9844   3.7853  -0.3906 H              1 S1                 0.0000
     36 ****         4.0366   5.1475  -0.5245 H              1 S1                 0.0000
     37 ****         8.4954   4.4910   0.3751 H              1 S1                 0.0000
     38 ****         7.9519   2.8988  -0.1434 H              1 S1                 0.0000
     39 ****         7.6950   3.4340   1.5330 H              1 S1                 0.0000
     40 ****         4.4439   0.5126   1.0404 H              1 S1                 0.0000
     41 ****        -1.5457  -1.8837   1.3136 H              1 S1                 0.0000
     42 ****        -1.9224  -0.5155   2.3233 H              1 S1                 0.0000
     43 ****        -4.1235  -0.2446   1.3034 H              1 S1                 0.0000
     44 ****        -3.9540  -1.8824   1.8632 H              1 S1                 0.0000
     45 ****        -2.2584  -4.5442  -0.6117 LP             1 S1                 0.0000
     46 ****        -1.7010  -2.9282  -0.3332 LP             1 S1                 0.0000
     47 ****        -0.7967   2.2384  -0.6947 LP             1 S1                 0.0000
     48 ****         0.7636   2.9904  -0.7091 LP             1 S1                 0.0000
     49 ****         6.3127   5.1271   0.7024 LP             1 S1                 0.0000
     50 ****         6.5494   4.6351  -0.8367 LP             1 S1                 0.0000
     51 ****         6.3193   1.8933   0.8782 LP             1 S1                 0.0000
@<TRIPOS>BOND
    1    1    2 1     
    2    1   23 1     
    3    1   24 1     
    4    1   25 1     
    5    2    3 am    
    6    2   26 1     
    7    3    4 2     
    8    3    5 1     
    9    5   22 1     
   10    5    6 1     
   11    5   27 1     
   12    6    7 1     
   13    6   28 1     
   14    6   29 1     
   15    7    8 1     
   16    7   30 1     
   17    7   31 1     
   18    8    9 1     
   19    8   21 1     
   20    8   32 1     
   21    9   10 am    
   22    9   33 1     
   23   10   11 2     
   24   10   12 am    
   25   12   13 1     
   26   12   34 1     
   27   13   20 ar    
   28   13   14 ar    
   29   14   15 ar    
   30   14   35 1     
   31   15   16 ar    
   32   15   36 1     
   33   16   17 1     
   34   16   19 ar    
   35   17   18 1     
   36   18   37 1     
   37   18   38 1     
   38   18   39 1     
   39   19   20 ar    
   40   20   40 1     
   41   21   22 1     
   42   21   41 1     
   43   21   42 1     
   44   22   43 1     
   45   22   44 1     
   46    4   45 1     
   47    4   46 1     
   48   11   47 1     
   49   11   48 1     
   50   17   49 1     
   51   17   50 1     
   52   19   51 1     
@<TRIPOS>SUBSTRUCTURE
      1 S1             1
@<TRIPOS>SET
LONE_PAIRS      STATIC     ATOMS    <user>   **** ""
7 45 46 47 48 49 50 51
DONOR_HYDROGENS      STATIC     ATOMS    <user>   **** ""
3 26 33 34
ATOM$BLUE        STATIC     ATOMS    COLORGROUP SYSTEM
7 45 46 47 48 49 50 51
ATOM$RED        STATIC     ATOMS    COLORGROUP SYSTEM
3 26 33 34
