#       Name:                AV-unprocessed.smi:322
#       Creating user name   scv26
#       Creation time:       Thu Mar 26 22:24:12 2020


#       File generated by GOLD software.
#

@<TRIPOS>MOLECULE
AV-unprocessed.smi:322
    50    52     1
SMALL
NO_CHARGES


@<TRIPOS>ATOM
      1 ****        -1.3546   2.9483   4.4174 O.3            1 S1                 0.0000
      2 ****        -1.4257   1.9750   3.3950 C.3            1 S1                 0.0000
      3 ****        -1.7564   2.5355   2.0404 C.2            1 S1                 0.0000
      4 ****        -2.1492   3.7974   1.8510 N.2            1 S1                 0.0000
      5 ****        -2.3503   3.8550   0.4863 C.ar           1 S1                 0.0000
      6 ****        -2.7741   4.9241  -0.3348 C.ar           1 S1                 0.0000
      7 ****        -2.9111   4.7440  -1.7268 C.ar           1 S1                 0.0000
      8 ****        -2.6258   3.4954  -2.3163 C.ar           1 S1                 0.0000
      9 ****        -2.2019   2.4171  -1.5160 C.ar           1 S1                 0.0000
     10 ****        -2.0681   2.6016  -0.1266 C.ar           1 S1                 0.0000
     11 ****        -1.6842   1.7704   0.9218 N.pl3          1 S1                 0.0000
     12 ****        -1.2982   0.3689   0.8184 C.3            1 S1                 0.0000
     13 ****         0.2235   0.1764   0.6571 C.3            1 S1                 0.0000
     14 ****         0.6401   0.7819  -0.5511 O.3            1 S1                 0.0000
     15 ****         0.6083  -1.3107   0.6129 C.3            1 S1                 0.0000
     16 ****         1.9810  -1.4434   0.9535 O.3            1 S1                 0.0000
     17 ****         2.4462  -2.7860   0.9557 C.3            1 S1                 0.0000
     18 ****         2.5724  -3.3831  -0.4359 C.ar           1 S1                 0.0000
     19 ****         3.1491  -2.6311  -1.4814 C.ar           1 S1                 0.0000
     20 ****         3.2795  -3.1902  -2.7675 C.ar           1 S1                 0.0000
     21 ****         2.8398  -4.5059  -3.0121 C.ar           1 S1                 0.0000
     22 ****         3.0019  -5.1921  -4.5868 Cl             1 S1                 0.0000
     23 ****         2.2705  -5.2622  -1.9689 C.ar           1 S1                 0.0000
     24 ****         2.1396  -4.7028  -0.6828 C.ar           1 S1                 0.0000
     25 ****        -1.1482   2.5152   5.2312 H              1 S1                 0.0000
     26 ****        -0.4668   1.4595   3.3513 H              1 S1                 0.0000
     27 ****        -2.1817   1.2382   3.6674 H              1 S1                 0.0000
     28 ****        -2.9951   5.8841   0.1077 H              1 S1                 0.0000
     29 ****        -3.2366   5.5675  -2.3453 H              1 S1                 0.0000
     30 ****        -2.7325   3.3659  -3.3834 H              1 S1                 0.0000
     31 ****        -1.9802   1.4604  -1.9655 H              1 S1                 0.0000
     32 ****        -1.6551  -0.1566   1.7044 H              1 S1                 0.0000
     33 ****        -1.8267  -0.0764  -0.0255 H              1 S1                 0.0000
     34 ****         0.7385   0.6598   1.4876 H              1 S1                 0.0000
     35 ****         0.4296   1.7024  -0.5132 H              1 S1                 0.0000
     36 ****         0.0229  -1.8627   1.3498 H              1 S1                 0.0000
     37 ****         0.3845  -1.7429  -0.3639 H              1 S1                 0.0000
     38 ****         3.4359  -2.7961   1.4125 H              1 S1                 0.0000
     39 ****         1.8080  -3.4063   1.5872 H              1 S1                 0.0000
     40 ****         3.4906  -1.6225  -1.2992 H              1 S1                 0.0000
     41 ****         3.7188  -2.6091  -3.5650 H              1 S1                 0.0000
     42 ****         1.9354  -6.2723  -2.1530 H              1 S1                 0.0000
     43 ****         1.7050  -5.2909   0.1123 H              1 S1                 0.0000
     44 ****        -2.2343   3.4167   4.4986 LP             1 S1                 0.0000
     45 ****        -0.6411   3.6143   4.1997 LP             1 S1                 0.0000
     46 ****        -2.2683   4.5219   2.5299 LP             1 S1                 0.0000
     47 ****         0.1645   0.3585  -1.3222 LP             1 S1                 0.0000
     48 ****         1.6270   0.6659  -0.6639 LP             1 S1                 0.0000
     49 ****         2.1170  -1.0615   1.8677 LP             1 S1                 0.0000
     50 ****         2.5214  -0.9240   0.2915 LP             1 S1                 0.0000
@<TRIPOS>BOND
    1    1    2 1     
    2    1   25 1     
    3    2    3 1     
    4    2   26 1     
    5    2   27 1     
    6    3   11 1     
    7    3    4 2     
    8    4    5 1     
    9    5   10 ar    
   10    5    6 ar    
   11    6    7 ar    
   12    6   28 1     
   13    7    8 ar    
   14    7   29 1     
   15    8    9 ar    
   16    8   30 1     
   17    9   10 ar    
   18    9   31 1     
   19   10   11 1     
   20   11   12 1     
   21   12   13 1     
   22   12   32 1     
   23   12   33 1     
   24   13   14 1     
   25   13   15 1     
   26   13   34 1     
   27   14   35 1     
   28   15   16 1     
   29   15   36 1     
   30   15   37 1     
   31   16   17 1     
   32   17   18 1     
   33   17   38 1     
   34   17   39 1     
   35   18   24 ar    
   36   18   19 ar    
   37   19   20 ar    
   38   19   40 1     
   39   20   21 ar    
   40   20   41 1     
   41   21   22 1     
   42   21   23 ar    
   43   23   24 ar    
   44   23   42 1     
   45   24   43 1     
   46    1   44 1     
   47    1   45 1     
   48    4   46 1     
   49   14   47 1     
   50   14   48 1     
   51   16   49 1     
   52   16   50 1     
@<TRIPOS>SUBSTRUCTURE
      1 S1             1
@<TRIPOS>SET
LONE_PAIRS      STATIC     ATOMS    <user>   **** ""
7 44 45 46 47 48 49 50
DONOR_HYDROGENS      STATIC     ATOMS    <user>   **** ""
2 25 35
ATOM$BLUE        STATIC     ATOMS    COLORGROUP SYSTEM
7 44 45 46 47 48 49 50
ATOM$RED        STATIC     ATOMS    COLORGROUP SYSTEM
2 25 35
