#       Name:                AV-unprocessed.smi:2516
#       Creating user name   scv26
#       Creation time:       Fri Mar 27 13:53:39 2020


#       File generated by GOLD software.
#

@<TRIPOS>MOLECULE
AV-unprocessed.smi:2516
    52    53     1
SMALL
NO_CHARGES


@<TRIPOS>ATOM
      1 ****        -6.3599   0.6153  -0.0420 C.3            1 S1                 0.0000
      2 ****        -5.7153   0.1127  -1.3389 C.3            1 S1                 0.0000
      3 ****        -4.3804  -0.4100  -1.1053 N.pl3          1 S1                 0.0000
      4 ****        -4.2403  -1.7088  -0.7470 N.2            1 S1                 0.0000
      5 ****        -2.9371  -1.9038  -0.6094 C.2            1 S1                 0.0000
      6 ****        -2.4418  -3.2856  -0.2835 C.3            1 S1                 0.0000
      7 ****        -2.2262  -0.6893  -0.8458 C.2            1 S1                 0.0000
      8 ****        -0.8283  -0.4542  -0.8351 N.am           1 S1                 0.0000
      9 ****         0.0628  -0.9445   0.0401 C.2            1 S1                 0.0000
     10 ****        -0.2109  -1.6886   0.9811 O.2            1 S1                 0.0000
     11 ****         1.3003  -0.5008  -0.2239 N.am           1 S1                 0.0000
     12 ****         2.5003  -0.8128   0.5523 C.3            1 S1                 0.0000
     13 ****         3.1382  -2.0939  -0.0171 C.3            1 S1                 0.0000
     14 ****         3.4638   0.4032   0.5575 C.3            1 S1                 0.0000
     15 ****         4.7240   0.1609   1.4136 C.3            1 S1                 0.0000
     16 ****         5.6163   1.4119   1.4644 C.3            1 S1                 0.0000
     17 ****         4.8772   2.5205   1.9609 O.3            1 S1                 0.0000
     18 ****         3.7780   2.8629   1.1261 C.3            1 S1                 0.0000
     19 ****         2.7827   1.6933   1.0636 C.3            1 S1                 0.0000
     20 ****        -3.1624   0.2418  -1.1915 C.2            1 S1                 0.0000
     21 ****        -3.0313   1.6786  -1.5831 C.3            1 S1                 0.0000
     22 ****        -7.3590   1.0076  -0.2320 H              1 S1                 0.0000
     23 ****        -5.7692   1.4130   0.4091 H              1 S1                 0.0000
     24 ****        -6.4513  -0.1883   0.6893 H              1 S1                 0.0000
     25 ****        -6.3289  -0.6717  -1.7842 H              1 S1                 0.0000
     26 ****        -5.6599   0.9175  -2.0721 H              1 S1                 0.0000
     27 ****        -1.4779  -3.4804  -0.7531 H              1 S1                 0.0000
     28 ****        -3.1338  -4.0510  -0.6361 H              1 S1                 0.0000
     29 ****        -2.3256  -3.4167   0.7921 H              1 S1                 0.0000
     30 ****        -0.4910   0.2398  -1.4854 H              1 S1                 0.0000
     31 ****         1.4235   0.1096  -1.0183 H              1 S1                 0.0000
     32 ****         2.2097  -1.0099   1.5860 H              1 S1                 0.0000
     33 ****         3.9649  -2.4434   0.6002 H              1 S1                 0.0000
     34 ****         3.5166  -1.9342  -1.0274 H              1 S1                 0.0000
     35 ****         2.4138  -2.9080  -0.0599 H              1 S1                 0.0000
     36 ****         3.7878   0.5812  -0.4694 H              1 S1                 0.0000
     37 ****         4.4347  -0.1176   2.4278 H              1 S1                 0.0000
     38 ****         5.3086  -0.6683   1.0164 H              1 S1                 0.0000
     39 ****         6.4684   1.2366   2.1215 H              1 S1                 0.0000
     40 ****         6.0196   1.6424   0.4771 H              1 S1                 0.0000
     41 ****         3.2899   3.7482   1.5341 H              1 S1                 0.0000
     42 ****         4.1320   3.1265   0.1282 H              1 S1                 0.0000
     43 ****         1.9496   1.9735   0.4186 H              1 S1                 0.0000
     44 ****         2.3627   1.5233   2.0559 H              1 S1                 0.0000
     45 ****        -2.0088   2.0320  -1.4517 H              1 S1                 0.0000
     46 ****        -3.6811   2.3087  -0.9757 H              1 S1                 0.0000
     47 ****        -3.3028   1.8195  -2.6293 H              1 S1                 0.0000
     48 ****        -4.9690  -2.3806  -0.6140 LP             1 S1                 0.0000
     49 ****        -1.1577  -1.9704   1.1367 LP             1 S1                 0.0000
     50 ****         0.5134  -2.0115   1.5903 LP             1 S1                 0.0000
     51 ****         5.4881   3.3096   2.0258 LP             1 S1                 0.0000
     52 ****         4.5297   2.2923   2.8704 LP             1 S1                 0.0000
@<TRIPOS>BOND
    1    1    2 1     
    2    1   22 1     
    3    1   23 1     
    4    1   24 1     
    5    2    3 1     
    6    2   25 1     
    7    2   26 1     
    8    3   20 1     
    9    3    4 1     
   10    4    5 2     
   11    5    6 1     
   12    5    7 1     
   13    6   27 1     
   14    6   28 1     
   15    6   29 1     
   16    7    8 1     
   17    7   20 2     
   18    8    9 am    
   19    8   30 1     
   20    9   10 2     
   21    9   11 am    
   22   11   12 1     
   23   11   31 1     
   24   12   13 1     
   25   12   14 1     
   26   12   32 1     
   27   13   33 1     
   28   13   34 1     
   29   13   35 1     
   30   14   19 1     
   31   14   15 1     
   32   14   36 1     
   33   15   16 1     
   34   15   37 1     
   35   15   38 1     
   36   16   17 1     
   37   16   39 1     
   38   16   40 1     
   39   17   18 1     
   40   18   19 1     
   41   18   41 1     
   42   18   42 1     
   43   19   43 1     
   44   19   44 1     
   45   20   21 1     
   46   21   45 1     
   47   21   46 1     
   48   21   47 1     
   49    4   48 1     
   50   10   49 1     
   51   10   50 1     
   52   17   51 1     
   53   17   52 1     
@<TRIPOS>SUBSTRUCTURE
      1 S1             1
@<TRIPOS>SET
LONE_PAIRS      STATIC     ATOMS    <user>   **** ""
5 48 49 50 51 52
DONOR_HYDROGENS      STATIC     ATOMS    <user>   **** ""
2 30 31
ATOM$BLUE        STATIC     ATOMS    COLORGROUP SYSTEM
5 48 49 50 51 52
ATOM$RED        STATIC     ATOMS    COLORGROUP SYSTEM
2 30 31
