AV-unprocessed.smi:693|AV-procd|sdf|3373|dock3
  -GOLD-   22720 0353D 1   1.00000     0.00000
 Structure written by MMmdl.
 46 47  0  0  0  0  0  0  0  0  1 V2000
  153.3693  143.3254  163.3884 C   0  0  0  0  0  0  0  0  0  0  0  0
  152.8021  143.3794  161.9852 C   0  0  0  0  0  0  0  0  0  0  0  0
  152.9687  142.2895  161.1057 C   0  0  0  0  0  0  0  0  0  0  0  0
  152.4255  142.3838  159.8097 C   0  0  0  0  0  0  0  0  0  0  0  0
  151.7401  143.5606  159.4445 C   0  0  0  0  0  0  0  0  0  0  0  0
  151.1310  143.7138  158.0650 C   0  0  0  0  0  0  0  0  0  0  0  0
  151.1910  142.4061  157.2598 C   0  0  0  0  0  0  0  0  0  0  0  0
  149.9307  142.1385  156.5767 N   0  0  0  0  0  0  0  0  0  0  0  0
  149.4362  140.9159  156.3172 C   0  0  0  0  0  0  0  0  0  0  0  0
  150.0208  139.8880  156.6634 O   0  0  0  0  0  0  0  0  0  0  0  0
  148.2378  140.9095  155.6796 N   0  0  0  0  0  0  0  0  0  0  0  0
  147.5834  142.0649  155.0446 C   0  0  0  0  0  0  0  0  0  0  0  0
  147.7387  141.9347  153.5203 C   0  0  0  0  0  0  0  0  0  0  0  0
  147.1681  140.5948  153.0172 C   0  0  0  0  0  0  0  0  0  0  0  0
  147.7064  139.3850  153.8230 C   0  0  2  0  0  0  0  0  0  0  0  0
  147.0390  138.0440  153.4415 C   0  0  0  0  0  0  0  0  0  0  0  0
  146.3561  138.0593  152.0698 C   0  0  0  0  0  0  0  0  0  0  0  0
  145.0680  137.7099  152.0278 N   0  0  0  0  0  0  0  0  0  0  0  0
  146.9738  138.4034  151.0644 O   0  0  0  0  0  0  0  0  0  0  0  0
  147.5498  139.6583  155.3360 C   0  0  0  0  0  0  0  0  0  0  0  0
  151.6291  144.5930  160.3996 C   0  0  0  0  0  0  0  0  0  0  0  0
  152.1467  144.5110  161.6441 N   0  0  0  0  0  0  0  0  0  0  0  0
  153.0402  142.4179  163.8950 H   0  0  0  0  0  0  0  0  0  0  0  0
  153.0481  144.1814  163.9835 H   0  0  0  0  0  0  0  0  0  0  0  0
  154.4588  143.3240  163.3535 H   0  0  0  0  0  0  0  0  0  0  0  0
  153.4994  141.4016  161.4167 H   0  0  0  0  0  0  0  0  0  0  0  0
  152.5321  141.5666  159.1114 H   0  0  0  0  0  0  0  0  0  0  0  0
  150.0978  144.0455  158.1747 H   0  0  0  0  0  0  0  0  0  0  0  0
  151.6535  144.5077  157.5298 H   0  0  0  0  0  0  0  0  0  0  0  0
  151.9787  142.4677  156.5086 H   0  0  0  0  0  0  0  0  0  0  0  0
  151.4473  141.5675  157.9097 H   0  0  0  0  0  0  0  0  0  0  0  0
  149.3948  142.9393  156.2750 H   0  0  0  0  0  0  0  0  0  0  0  0
  146.5255  142.0699  155.3113 H   0  0  0  0  0  0  0  0  0  0  0  0
  147.9674  143.0300  155.3747 H   0  0  0  0  0  0  0  0  0  0  0  0
  147.2378  142.7635  153.0196 H   0  0  0  0  0  0  0  0  0  0  0  0
  148.7945  142.0047  153.2548 H   0  0  0  0  0  0  0  0  0  0  0  0
  146.0804  140.6225  153.0945 H   0  0  0  0  0  0  0  0  0  0  0  0
  147.3985  140.4890  151.9573 H   0  0  0  0  0  0  0  0  0  0  0  0
  148.7748  139.2956  153.6173 H   0  0  0  0  0  0  0  0  0  0  0  0
  147.7853  137.2480  153.4493 H   0  0  0  0  0  0  0  0  0  0  0  0
  146.2999  137.7683  154.1948 H   0  0  0  0  0  0  0  0  0  0  0  0
  144.5735  137.7073  151.1476 H   0  0  0  0  0  0  0  0  0  0  0  0
  144.5914  137.4517  152.8797 H   0  0  0  0  0  0  0  0  0  0  0  0
  147.9231  138.8122  155.9146 H   0  0  0  0  0  0  0  0  0  0  0  0
  146.4935  139.7434  155.5961 H   0  0  0  0  0  0  0  0  0  0  0  0
  151.1079  145.5084  160.1608 H   0  0  0  0  0  0  0  0  0  0  0  0
  1  2  1  0  0  0  0
  1 23  1  0  0  0  0
  1 24  1  0  0  0  0
  1 25  1  0  0  0  0
  2 22  1  0  0  0  0
  2  3  2  0  0  0  0
  3  4  1  0  0  0  0
  3 26  1  0  0  0  0
  4  5  2  0  0  0  0
  4 27  1  0  0  0  0
  5  6  1  0  0  0  0
  5 21  1  0  0  0  0
  6  7  1  0  0  0  0
  6 28  1  0  0  0  0
  6 29  1  0  0  0  0
  7  8  1  0  0  0  0
  7 30  1  0  0  0  0
  7 31  1  0  0  0  0
  8  9  1  0  0  0  0
  8 32  1  0  0  0  0
  9 10  2  0  0  0  0
  9 11  1  0  0  0  0
 11 20  1  0  0  0  0
 11 12  1  0  0  0  0
 12 13  1  0  0  0  0
 12 33  1  0  0  0  0
 12 34  1  0  0  0  0
 13 14  1  0  0  0  0
 13 35  1  0  0  0  0
 13 36  1  0  0  0  0
 14 15  1  0  0  0  0
 14 37  1  0  0  0  0
 14 38  1  0  0  0  0
 15 16  1  0  0  0  0
 15 20  1  0  0  0  0
 15 39  1  0  0  0  0
 16 17  1  0  0  0  0
 16 40  1  0  0  0  0
 16 41  1  0  0  0  0
 17 18  1  0  0  0  0
 17 19  2  0  0  0  0
 18 42  1  0  0  0  0
 18 43  1  0  0  0  0
 20 44  1  0  0  0  0
 20 45  1  0  0  0  0
 21 22  2  0  0  0  0
 21 46  1  0  0  0  0
M  END
> <s_m_source_file>
AV-unprocessed.smi

> <i_m_source_file_index>
693

> <i_lp_mmshare_version>
43012

> <i_f3d_flags>
0

> <s_epik_input>
W0NIM11jMVtjSF1bY0hdYyhbY0hdbjEpW0NIMl1bQ0gyXVtOSF1DKD1PKU4yW0NIMl1bQ0gyXVtDSDJdW0NASF0oW0NIMl0yKVtDSDJdQyg9TylbTkgyXQ==

> <s_epik_cmdline>
J2VwaWtfcHl0aG9uJywgJy1waCcsICc3LjAnLCAnLXRuJywgJzgnLCAnLW1hJywgJzIwMCcsICctbWV0YWxfYmluZGluZycsICctaW1hZScsICc8aW5maWxlLm1hZT4nLCAnLW9tYWUnLCAnPG91dGZpbGUubWFlPic=

> <r_epik_Ionization_Penalty>
0.056948

> <r_epik_Ionization_Penalty_Charging>
0

> <r_epik_Ionization_Penalty_Neutral>
0.056948

> <r_epik_State_Penalty>
0.0490937

> <r_epik_Charging_Adjusted_Penalty>
0.0490937

> <i_epik_Tot_Q>
0

> <i_epik_Tot_abs_Q>
0

> <r_epik_Metal_State_Penalty>
0.0447689

> <b_epik_Metal_Only>
0

> <s_lp_Force_Field>
OPLS_2005

> <r_lp_Energy>
26.3335

> <b_lp_Chiralities_Consistent>
1

> <s_lp_Variant>
AV-unprocessed.smi:693-2

> <Gold.Version>
5.8.1

> <Gold.Id.Protein>
6NUR|6NUR_protein|mol2

> <Gold.PLP.Fitness>
52.3025

> <Gold.PLP.PLP>
-45.5452

> <Gold.PLP.part.hbond>
-4.0000

> <Gold.PLP.part.metal>
0.0000

> <Gold.PLP.part.buried>
-4.3436

> <Gold.PLP.part.nonpolar>
-36.9108

> <Gold.PLP.part.repulsive>
0.7883

> <Gold.PLP.ligand.clash>
0.0000

> <Gold.PLP.ligand.torsion>
1.1604

> <Gold.PLP.Chemscore.Hbond>
3.0000

> <Gold.PLP.Chemscore.CHOScore>
0.0000

> <Gold.PLP.Chemscore.Metal>
0.0000

> <Gold.Chemscore.Hbonds>
donor molecule, donor type, donor heavy atom, donor atom, acceptor molecule, acceptor atom, score
      L1  H     8    32       P1  8028  1.00
      L1  H    18    42       P1 10171  0.99
      P1  H  7954  7966       L1    19  1.00

> <Gold.PLP.Chemscore.Internal.Correction>
0.0780

> <Gold.Rescore>
     Score         DG    S(hbond)    S(metal)    S(lipo)     H(rot)  DE(clash)    DE(int)     intcor
     20.03     -23.79       2.92        0.00     122.33       2.25       2.52       1.25       ----

> <Gold.Chemscore.Fitness>
20.0290

> <Gold.Chemscore.DG>
-23.7942

> <Gold.Chemscore.ZeroCoef>
-5.4800

> <Gold.Chemscore.Hbond>
2.9237

> <Gold.Chemscore.Metal>
0.0000

> <Gold.Chemscore.Lipo>
122.3262

> <Gold.Chemscore.Internal_Hbond>
0.0000

> <Gold.Chemscore.DEClash>
2.5174

> <Gold.Chemscore.DEInternal>
1.2479

> <Gold.Chemscore.Rot>
2.2512

> <Gold.Chemscore.Internal.Correction>
   9.000000E+99

> <Gold.Chemscore.Hbonds>
donor molecule, donor type, donor heavy atom, donor atom, acceptor molecule, acceptor atom, score
      L1  H     8    32       P1  8028  0.99
      L1  H    18    42       P1 10171  0.94
      P1  H  7954  7966       L1    19  0.99

> <Gold.Chemscore.Hbond.Weighted>
-9.7651

> <Gold.Chemscore.Metal.Weighted>
-0.0000

> <Gold.Chemscore.Lipo.Weighted>
-14.3122

> <Gold.Chemscore.Internal_Hbond.Weighted>
0.0000

> <Gold.Chemscore.DEClash.Weighted>
2.5174

> <Gold.Chemscore.DEInternal.Weighted>
1.2479

> <Gold.Chemscore.Rot.Weighted>
5.7631

> <Gold.Chemscore.Internal.Correction.Weighted>
   9.000000E+99

> <Gold.Protein.RotatedTorsions>
[ 6907 6896 6895 6894 ] final   41.62 input  -60.11 | X-H torsion
[ 7974 7965 7964 7962 ] final  156.65 input  175.53 | X-H torsion
[ 8008 7997 7996 7995 ] final    5.46 input   59.86 | X-H torsion
[ 10167 10162 10161 10158 ] final  -47.49 input  -65.29 | X-H torsion
[ 10718 10713 10712 10709 ] final  161.99 input   66.30 | X-H torsion
[ 10763 10752 10751 10750 ] final   68.55 input  -60.55 | X-H torsion
[ 11005 11000 10999 10996 ] final -159.83 input  -57.11 | X-H torsion

> <Gold.Protein.ActiveResidues>
 VAL166  LYS551  ARG553  GLY616  TRP617  ASP618  TYR619  PRO620  LYS621  CYS622 
 ASP623  PHE694  ASN695  SER759  ASP760  ASP761  ALA762  ILE779  LEU786  VAL792 
 PHE793  MET794  SER795  GLU796  ALA797  LYS798  CYS799  TRP800  GLU811  SER814 

> <Gold.Protein.RotatedAtoms>
  152.1976  134.8616  160.0510 H   0  0  0  0  0  0  0  0  0  0  0  0  # atno 6907 bound_to 6896
  151.9482  133.3653  159.3998 H   0  0  0  0  0  0  0  0  0  0  0  0  # atno 6908 bound_to 6896
  150.6948  134.4292  159.5284 H   0  0  0  0  0  0  0  0  0  0  0  0  # atno 6909 bound_to 6896
  144.7950  139.7233  143.6205 H   0  0  0  0  0  0  0  0  0  0  0  0  # atno 7974 bound_to 7965
  154.7286  140.2726  155.6476 H   0  0  0  0  0  0  0  0  0  0  0  0  # atno 8008 bound_to 7997
  156.2843  140.2720  156.1904 H   0  0  0  0  0  0  0  0  0  0  0  0  # atno 8009 bound_to 7997
  155.0412  140.0371  157.2500 H   0  0  0  0  0  0  0  0  0  0  0  0  # atno 8010 bound_to 7997
  140.6773  143.2782  151.3934 H   0  0  0  0  0  0  0  0  0  0  0  0  # atno 10167 bound_to 10162
  157.1288  131.0511  151.2381 H   0  0  0  0  0  0  0  0  0  0  0  0  # atno 10718 bound_to 10713
  153.0241  135.5243  154.7152 H   0  0  0  0  0  0  0  0  0  0  0  0  # atno 10763 bound_to 10752
  154.6223  135.2890  155.0314 H   0  0  0  0  0  0  0  0  0  0  0  0  # atno 10764 bound_to 10752
  154.1297  135.6595  153.4972 H   0  0  0  0  0  0  0  0  0  0  0  0  # atno 10765 bound_to 10752
  140.6382  134.4579  157.5232 H   0  0  0  0  0  0  0  0  0  0  0  0  # atno 11005 bound_to 11000
  146.2215  139.5645  142.9615 LP  0  0  0  0  0  0  0  0  0  0  0  0  # atno 17320 bound_to 7965
  145.5696  141.0395  143.2181 LP  0  0  0  0  0  0  0  0  0  0  0  0  # atno 17321 bound_to 7965
  139.6072  144.1172  152.2262 LP  0  0  0  0  0  0  0  0  0  0  0  0  # atno 17342 bound_to 10162
  140.0575  144.5884  150.7289 LP  0  0  0  0  0  0  0  0  0  0  0  0  # atno 17343 bound_to 10162
  157.4411  130.7544  149.7070 LP  0  0  0  0  0  0  0  0  0  0  0  0  # atno 17370 bound_to 10713
  155.9812  130.4021  150.3484 LP  0  0  0  0  0  0  0  0  0  0  0  0  # atno 17371 bound_to 10713
  139.9090  134.8386  156.1598 LP  0  0  0  0  0  0  0  0  0  0  0  0  # atno 17394 bound_to 11000
  141.0626  133.6834  156.1982 LP  0  0  0  0  0  0  0  0  0  0  0  0  # atno 17395 bound_to 11000

$$$$
