AV-unprocessed.smi:1202|AV-procd|sdf|5032|dock8
  -GOLD-   22720 4 53D 1   1.00000     0.00000
 Structure written by MMmdl.
 44 45  0  0  0  0  0  0  0  0  3 V2000
  149.6330  131.9169  153.4033 C   0  0  0  0  0  0  0  0  0  0  0  0
  149.0425  133.1325  153.9513 N   0  5  0  0  0  0  0  0  0  0  0  0
  149.7297  134.0175  154.7253 C   0  0  0  0  0  0  0  0  0  0  0  0
  150.9024  134.0070  155.1128 O   0  0  0  0  0  0  0  0  0  0  0  0
  148.8382  135.1933  155.1453 C   0  0  0  0  0  0  0  0  0  0  0  0
  149.3542  136.4774  154.6039 N   0  3  2  0  0  0  0  0  0  0  0  0
  150.7501  136.7752  155.0233 C   0  0  0  0  0  0  0  0  0  0  0  0
  151.2823  138.0438  154.3317 C   0  0  0  0  0  0  0  0  0  0  0  0
  150.3697  139.2587  154.5734 C   0  0  2  0  0  0  0  0  0  0  0  0
  150.4686  139.7004  155.9639 N   0  0  0  0  0  0  0  0  0  0  0  0
  151.5920  140.1031  156.5769 C   0  0  0  0  0  0  0  0  0  0  0  0
  152.6913  140.1307  156.0221 O   0  0  0  0  0  0  0  0  0  0  0  0
  151.4422  140.5201  158.0467 C   0  0  0  0  0  0  0  0  0  0  0  0
  151.7025  141.9516  158.2731 N   0  0  0  0  0  0  0  0  0  0  0  0
  150.9265  142.8702  157.5385 C   0  0  0  0  0  0  0  0  0  0  0  0
  151.0811  144.1970  157.6721 C   0  0  0  0  0  0  0  0  0  0  0  0
  152.0763  144.6780  158.6010 C   0  0  0  0  0  0  0  0  0  0  0  0
  152.8235  143.8080  159.3093 C   0  0  0  0  0  0  0  0  0  0  0  0
  152.6579  142.3570  159.1662 C   0  0  0  0  0  0  0  0  0  0  0  0
  153.3354  141.5543  159.8094 O   0  0  0  0  0  0  0  0  0  0  0  0
  148.9211  138.8994  154.1869 C   0  0  0  0  0  0  0  0  0  0  0  0
  148.4410  137.6139  154.8836 C   0  0  0  0  0  0  0  0  0  0  0  0
  148.9235  131.3644  152.7876 H   0  0  0  0  0  0  0  0  0  0  0  0
  149.9685  131.2306  154.1810 H   0  0  0  0  0  0  0  0  0  0  0  0
  150.4958  132.1228  152.7691 H   0  0  0  0  0  0  0  0  0  0  0  0
  147.8326  134.9996  154.7680 H   0  0  0  0  0  0  0  0  0  0  0  0
  148.7570  135.2468  156.2322 H   0  0  0  0  0  0  0  0  0  0  0  0
  150.7874  136.8898  156.1077 H   0  0  0  0  0  0  0  0  0  0  0  0
  151.4043  135.9390  154.7755 H   0  0  0  0  0  0  0  0  0  0  0  0
  152.2966  138.2585  154.6707 H   0  0  0  0  0  0  0  0  0  0  0  0
  151.3550  137.8581  153.2592 H   0  0  0  0  0  0  0  0  0  0  0  0
  150.7137  140.0748  153.9352 H   0  0  0  0  0  0  0  0  0  0  0  0
  149.6148  139.7007  156.5031 H   0  0  0  0  0  0  0  0  0  0  0  0
  150.4410  140.2647  158.3995 H   0  0  0  0  0  0  0  0  0  0  0  0
  152.1194  139.9064  158.6425 H   0  0  0  0  0  0  0  0  0  0  0  0
  150.2002  142.4300  156.8708 H   0  0  0  0  0  0  0  0  0  0  0  0
  150.4749  144.8861  157.1026 H   0  0  0  0  0  0  0  0  0  0  0  0
  152.2206  145.7405  158.7301 H   0  0  0  0  0  0  0  0  0  0  0  0
  153.5619  144.1864  160.0008 H   0  0  0  0  0  0  0  0  0  0  0  0
  148.2443  139.7235  154.4157 H   0  0  0  0  0  0  0  0  0  0  0  0
  148.8655  138.7581  153.1067 H   0  0  0  0  0  0  0  0  0  0  0  0
  147.4376  137.3726  154.5310 H   0  0  0  0  0  0  0  0  0  0  0  0
  148.3684  137.7688  155.9612 H   0  0  0  0  0  0  0  0  0  0  0  0
  149.3656  136.3570  153.6003 H   0  0  0  0  0  0  0  0  0  0  0  0
  1  2  1  0  0  0  0
  1 23  1  0  0  0  0
  1 24  1  0  0  0  0
  1 25  1  0  0  0  0
  2  3  1  0  0  0  0
  3  4  2  0  0  0  0
  3  5  1  0  0  0  0
  5  6  1  0  0  0  0
  5 26  1  0  0  0  0
  5 27  1  0  0  0  0
  6 22  1  0  0  0  0
  6  7  1  0  0  0  0
  6 44  1  0  0  0  0
  7  8  1  0  0  0  0
  7 28  1  0  0  0  0
  7 29  1  0  0  0  0
  8  9  1  0  0  0  0
  8 30  1  0  0  0  0
  8 31  1  0  0  0  0
  9 10  1  0  0  0  0
  9 21  1  0  0  0  0
  9 32  1  0  0  0  0
 10 11  1  0  0  0  0
 10 33  1  0  0  0  0
 11 12  2  0  0  0  0
 11 13  1  0  0  0  0
 13 14  1  0  0  0  0
 13 34  1  0  0  0  0
 13 35  1  0  0  0  0
 14 19  1  0  0  0  0
 14 15  1  0  0  0  0
 15 16  2  0  0  0  0
 15 36  1  0  0  0  0
 16 17  1  0  0  0  0
 16 37  1  0  0  0  0
 17 18  2  0  0  0  0
 17 38  1  0  0  0  0
 18 19  1  0  0  0  0
 18 39  1  0  0  0  0
 19 20  2  0  0  0  0
 21 22  1  0  0  0  0
 21 40  1  0  0  0  0
 21 41  1  0  0  0  0
 22 42  1  0  0  0  0
 22 43  1  0  0  0  0
M  CHG  1   2  -1
M  CHG  1   6   1
M  END
> <s_m_source_file>
AV-unprocessed.smi

> <i_m_source_file_index>
1202

> <i_lp_mmshare_version>
43012

> <i_f3d_flags>
0

> <s_epik_input>
W0NIM11bTkhdQyg9TylbQ0gyXU4xW0NIMl1bQ0gyXVtDSF0oW0NIMl1bQ0gyXTEpW05IXUMoPU8pW0NIMl1uMltjSF1bY0hdW2NIXVtjSF1jMj1P

> <s_epik_cmdline>
J2VwaWtfcHl0aG9uJywgJy1waCcsICc3LjAnLCAnLXRuJywgJzgnLCAnLW1hJywgJzIwMCcsICctbWV0YWxfYmluZGluZycsICctaW1hZScsICc8aW5maWxlLm1hZT4nLCAnLW9tYWUnLCAnPG91dGZpbGUubWFlPic=

> <r_lp_tautomer_probability>
1

> <r_epik_Ionization_Penalty>
6.12124

> <r_epik_Ionization_Penalty_Charging>
6.12124

> <r_epik_Ionization_Penalty_Neutral>
4.50226e-08

> <r_epik_State_Penalty>
7.08052

> <r_epik_Charging_Adjusted_Penalty>
13.2018

> <i_epik_Tot_Q>
0

> <i_epik_Tot_abs_Q>
2

> <r_epik_Metal_State_Penalty>
3.01282

> <b_epik_Metal_Only>
1

> <s_lp_Force_Field>
OPLS_2005

> <r_lp_Energy>
20.2211

> <b_lp_Chiralities_Consistent>
1

> <s_lp_Variant>
AV-unprocessed.smi:1202-5

> <Gold.Version>
5.8.1

> <Gold.Id.Protein>
6NUR|6NUR_protein|mol2

> <Gold.PLP.Fitness>
52.7816

> <Gold.PLP.PLP>
-43.8771

> <Gold.PLP.part.hbond>
-2.0000

> <Gold.PLP.part.metal>
0.0000

> <Gold.PLP.part.buried>
-4.6651

> <Gold.PLP.part.nonpolar>
-37.8523

> <Gold.PLP.part.repulsive>
0.2531

> <Gold.PLP.ligand.clash>
0.0000

> <Gold.PLP.ligand.torsion>
0.0679

> <Gold.PLP.Chemscore.Hbond>
3.0000

> <Gold.PLP.Chemscore.CHOScore>
0.0000

> <Gold.PLP.Chemscore.Metal>
0.0000

> <Gold.Chemscore.Hbonds>
donor molecule, donor type, donor heavy atom, donor atom, acceptor molecule, acceptor atom, score
      L1  H     6    44       P1  7948  2.00
      P1  H  7997  8008       L1    12  1.00
      L1  C    15    36       P1  8028  0.03

> <Gold.PLP.Chemscore.Internal.Correction>
0.0403

> <Gold.Rescore>
     Score         DG    S(hbond)    S(metal)    S(lipo)     H(rot)  DE(clash)    DE(int)     intcor
     15.91     -17.48       1.98        0.00      93.12       2.15       0.14       1.43       ----

> <Gold.Chemscore.Fitness>
15.9125

> <Gold.Chemscore.DG>
-17.4842

> <Gold.Chemscore.ZeroCoef>
-5.4800

> <Gold.Chemscore.Hbond>
1.9808

> <Gold.Chemscore.Metal>
0.0000

> <Gold.Chemscore.Lipo>
93.1180

> <Gold.Chemscore.Internal_Hbond>
0.0000

> <Gold.Chemscore.DEClash>
0.1413

> <Gold.Chemscore.DEInternal>
1.4304

> <Gold.Chemscore.Rot>
2.1510

> <Gold.Chemscore.Internal.Correction>
   9.000000E+99

> <Gold.Chemscore.Hbonds>
donor molecule, donor type, donor heavy atom, donor atom, acceptor molecule, acceptor atom, score
      L1  H     6    44       P1  7948  0.82
      P1  H  7997  8008       L1    12  0.98

> <Gold.Chemscore.Hbond.Weighted>
-6.6159

> <Gold.Chemscore.Metal.Weighted>
-0.0000

> <Gold.Chemscore.Lipo.Weighted>
-10.8948

> <Gold.Chemscore.Internal_Hbond.Weighted>
0.0000

> <Gold.Chemscore.DEClash.Weighted>
0.1413

> <Gold.Chemscore.DEInternal.Weighted>
1.4304

> <Gold.Chemscore.Rot.Weighted>
5.5065

> <Gold.Chemscore.Internal.Correction.Weighted>
   9.000000E+99

> <Gold.Protein.RotatedTorsions>
[ 6907 6896 6895 6894 ] final   73.35 input  -60.11 | X-H torsion
[ 7974 7965 7964 7962 ] final  116.50 input  175.53 | X-H torsion
[ 8008 7997 7996 7995 ] final  -47.03 input   59.86 | X-H torsion
[ 10167 10162 10161 10158 ] final    8.28 input  -65.29 | X-H torsion
[ 10718 10713 10712 10709 ] final  -34.75 input   66.30 | X-H torsion
[ 10763 10752 10751 10750 ] final  139.12 input  -60.55 | X-H torsion
[ 11005 11000 10999 10996 ] final -155.85 input  -57.11 | X-H torsion

> <Gold.Protein.ActiveResidues>
 VAL166  LYS551  ARG553  GLY616  TRP617  ASP618  TYR619  PRO620  LYS621  CYS622 
 ASP623  PHE694  ASN695  SER759  ASP760  ASP761  ALA762  ILE779  LEU786  VAL792 
 PHE793  MET794  SER795  GLU796  ALA797  LYS798  CYS799  TRP800  GLU811  SER814 

> <Gold.Protein.RotatedAtoms>
  152.4918  134.4435  159.9550 H   0  0  0  0  0  0  0  0  0  0  0  0  # atno 6907 bound_to 6896
  151.4420  133.3634  159.2791 H   0  0  0  0  0  0  0  0  0  0  0  0  # atno 6908 bound_to 6896
  150.9081  134.8520  159.7466 H   0  0  0  0  0  0  0  0  0  0  0  0  # atno 6909 bound_to 6896
  145.1788  139.3061  143.4429 H   0  0  0  0  0  0  0  0  0  0  0  0  # atno 7974 bound_to 7965
  154.4012  140.1356  156.4108 H   0  0  0  0  0  0  0  0  0  0  0  0  # atno 8008 bound_to 7997
  155.7736  140.3483  155.5239 H   0  0  0  0  0  0  0  0  0  0  0  0  # atno 8009 bound_to 7997
  155.8743  140.0977  157.1519 H   0  0  0  0  0  0  0  0  0  0  0  0  # atno 8010 bound_to 7997
  140.6323  143.7965  150.7312 H   0  0  0  0  0  0  0  0  0  0  0  0  # atno 10167 bound_to 10162
  156.3469  130.4302  149.7738 H   0  0  0  0  0  0  0  0  0  0  0  0  # atno 10718 bound_to 10713
  153.9009  135.3022  155.3448 H   0  0  0  0  0  0  0  0  0  0  0  0  # atno 10763 bound_to 10752
  154.7670  135.4905  153.9578 H   0  0  0  0  0  0  0  0  0  0  0  0  # atno 10764 bound_to 10752
  153.1245  135.6790  153.9380 H   0  0  0  0  0  0  0  0  0  0  0  0  # atno 10765 bound_to 10752
  140.6820  134.4134  157.5226 H   0  0  0  0  0  0  0  0  0  0  0  0  # atno 11005 bound_to 11000
  146.3456  140.1960  142.8589 LP  0  0  0  0  0  0  0  0  0  0  0  0  # atno 17320 bound_to 7965
  145.0157  140.8752  143.5197 LP  0  0  0  0  0  0  0  0  0  0  0  0  # atno 17321 bound_to 7965
  140.1579  143.4301  152.2087 LP  0  0  0  0  0  0  0  0  0  0  0  0  # atno 17342 bound_to 10162
  139.5536  144.7356  151.4360 LP  0  0  0  0  0  0  0  0  0  0  0  0  # atno 17343 bound_to 10162
  156.4954  130.8104  151.3111 LP  0  0  0  0  0  0  0  0  0  0  0  0  # atno 17370 bound_to 10713
  157.7455  130.9962  150.2771 LP  0  0  0  0  0  0  0  0  0  0  0  0  # atno 17371 bound_to 10713
  139.8949  134.8696  156.2157 LP  0  0  0  0  0  0  0  0  0  0  0  0  # atno 17394 bound_to 11000
  141.0310  133.6989  156.1430 LP  0  0  0  0  0  0  0  0  0  0  0  0  # atno 17395 bound_to 11000

$$$$
