#       Name:                AV-unprocessed.smi:1787
#       Creating user name   scv26
#       Creation time:       Fri Mar 27 08:45:01 2020


#       File generated by GOLD software.
#

@<TRIPOS>MOLECULE
AV-unprocessed.smi:1787
    50    52     1
SMALL
NO_CHARGES


@<TRIPOS>ATOM
      1 ****        -0.5764   2.3039  -1.2372 O.2            1 S1                 0.0000
      2 ****        -0.9695   1.1389  -1.2670 C.2            1 S1                 0.0000
      3 ****        -0.1461   0.0821  -1.3035 N.am           1 S1                 0.0000
      4 ****         1.3159   0.1382  -1.3113 C.3            1 S1                 0.0000
      5 ****         1.9577  -0.0707   0.0990 C.3            1 S1                 0.0000
      6 ****         1.2613  -1.2183   0.7914 N.4            1 S1                 1.0000
      7 ****         1.5351  -2.5527   0.1873 C.3            1 S1                 0.0000
      8 ****         0.6421  -3.6326   0.8153 C.3            1 S1                 0.0000
      9 ****         0.8788  -3.6754   2.2142 O.3            1 S1                 0.0000
     10 ****         0.5301  -2.4488   2.8382 C.3            1 S1                 0.0000
     11 ****         1.3841  -1.2986   2.2744 C.3            1 S1                 0.0000
     12 ****         3.4813  -0.3015  -0.0474 C.3            1 S1                 0.0000
     13 ****         4.1453   1.0232  -0.4510 C.3            1 S1                 0.0000
     14 ****         3.1535   2.3780   0.2266 S.3            1 S1                 0.0000
     15 ****         1.8980   1.2603   0.8962 C.3            1 S1                 0.0000
     16 ****        -2.2547   0.7458  -1.2762 N.am           1 S1                 0.0000
     17 ****        -3.4359   1.5354  -1.2259 C.ar           1 S1                 0.0000
     18 ****        -3.4781   2.9047  -0.8652 C.ar           1 S1                 0.0000
     19 ****        -4.7224   3.5639  -0.8443 C.ar           1 S1                 0.0000
     20 ****        -5.8786   2.8319  -1.1771 C.ar           1 S1                 0.0000
     21 ****        -5.8546   1.5249  -1.5120 N.ar           1 S1                 0.0000
     22 ****        -4.6585   0.9003  -1.5315 C.ar           1 S1                 0.0000
     23 ****        -0.5637  -0.8356  -1.3522 H              1 S1                 0.0000
     24 ****         1.6526  -0.6406  -1.9948 H              1 S1                 0.0000
     25 ****         1.6509   1.0660  -1.7763 H              1 S1                 0.0000
     26 ****         1.3596  -2.5402  -0.8870 H              1 S1                 0.0000
     27 ****         2.5802  -2.8258   0.3378 H              1 S1                 0.0000
     28 ****        -0.4122  -3.4393   0.6104 H              1 S1                 0.0000
     29 ****         0.8766  -4.6080   0.3887 H              1 S1                 0.0000
     30 ****        -0.5329  -2.2471   2.6954 H              1 S1                 0.0000
     31 ****         0.6917  -2.5427   3.9122 H              1 S1                 0.0000
     32 ****         2.4285  -1.4310   2.5587 H              1 S1                 0.0000
     33 ****         1.0212  -0.3892   2.7498 H              1 S1                 0.0000
     34 ****         3.9002  -0.6198   0.9077 H              1 S1                 0.0000
     35 ****         3.7200  -1.0830  -0.7695 H              1 S1                 0.0000
     36 ****         5.1748   1.0824  -0.0973 H              1 S1                 0.0000
     37 ****         4.1645   1.1247  -1.5364 H              1 S1                 0.0000
     38 ****         0.9124   1.7235   0.9083 H              1 S1                 0.0000
     39 ****         2.2092   1.1347   1.9310 H              1 S1                 0.0000
     40 ****        -2.4111  -0.2473  -1.3672 H              1 S1                 0.0000
     41 ****        -2.5948   3.4610  -0.5946 H              1 S1                 0.0000
     42 ****        -4.7895   4.6076  -0.5756 H              1 S1                 0.0000
     43 ****        -6.8481   3.3073  -1.1699 H              1 S1                 0.0000
     44 ****        -4.6791  -0.1452  -1.8028 H              1 S1                 0.0000
     45 ****         0.2790  -1.0452   0.6318 H              1 S1                 0.0000
     46 ****         0.4040   2.5010  -1.2395 LP             1 S1                 0.0000
     47 ****        -1.2371   3.0540  -1.2107 LP             1 S1                 0.0000
     48 ****         1.8491  -3.8572   2.3742 LP             1 S1                 0.0000
     49 ****         0.3315  -4.4106   2.6141 LP             1 S1                 0.0000
     50 ****        -6.6963   1.0348  -1.7385 LP             1 S1                 0.0000
@<TRIPOS>BOND
    1    1    2 2     
    2    2    3 am    
    3    2   16 am    
    4    3    4 1     
    5    3   23 1     
    6    4    5 1     
    7    4   24 1     
    8    4   25 1     
    9    5   15 1     
   10    5    6 1     
   11    5   12 1     
   12    6   11 1     
   13    6    7 1     
   14    6   45 1     
   15    7    8 1     
   16    7   26 1     
   17    7   27 1     
   18    8    9 1     
   19    8   28 1     
   20    8   29 1     
   21    9   10 1     
   22   10   11 1     
   23   10   30 1     
   24   10   31 1     
   25   11   32 1     
   26   11   33 1     
   27   12   13 1     
   28   12   34 1     
   29   12   35 1     
   30   13   14 1     
   31   13   36 1     
   32   13   37 1     
   33   14   15 1     
   34   15   38 1     
   35   15   39 1     
   36   16   17 1     
   37   16   40 1     
   38   17   22 ar    
   39   17   18 ar    
   40   18   19 ar    
   41   18   41 1     
   42   19   20 ar    
   43   19   42 1     
   44   20   21 ar    
   45   20   43 1     
   46   21   22 ar    
   47   22   44 1     
   48    1   46 1     
   49    1   47 1     
   50    9   48 1     
   51    9   49 1     
   52   21   50 1     
@<TRIPOS>SUBSTRUCTURE
      1 S1             1
@<TRIPOS>SET
LONE_PAIRS      STATIC     ATOMS    <user>   **** ""
5 46 47 48 49 50
DONOR_HYDROGENS      STATIC     ATOMS    <user>   **** ""
3 23 45 40
ATOM$BLUE        STATIC     ATOMS    COLORGROUP SYSTEM
5 46 47 48 49 50
ATOM$RED        STATIC     ATOMS    COLORGROUP SYSTEM
3 23 45 40
