#       Name:                AV-unprocessed.smi:1839
#       Creating user name   scv26
#       Creation time:       Fri Mar 27 09:18:22 2020


#       File generated by GOLD software.
#

@<TRIPOS>MOLECULE
AV-unprocessed.smi:1839
    51    52     1
SMALL
NO_CHARGES


@<TRIPOS>ATOM
      1 ****        -4.2919  -4.4897   0.3160 C.3            1 S1                 0.0000
      2 ****        -2.9343  -3.9531   0.4132 N.am           1 S1                 0.0000
      3 ****        -1.9263  -4.7370  -0.3109 C.3            1 S1                 0.0000
      4 ****        -2.7268  -2.6945   0.8748 C.2            1 S1                 0.0000
      5 ****        -3.6349  -1.8633   0.9366 O.2            1 S1                 0.0000
      6 ****        -1.4548  -2.3911   1.2276 N.am           1 S1                 0.0000
      7 ****        -0.6760  -3.2062   2.1710 C.3            1 S1                 0.0000
      8 ****         0.7744  -3.3265   1.6725 C.3            1 S1                 0.0000
      9 ****         1.3968  -1.9360   1.4603 C.3            1 S1                 0.0000
     10 ****         0.4961  -1.0443   0.5766 C.3            1 S1                 0.0000
     11 ****         1.0638   0.3765   0.4611 C.2            1 S1                 0.0000
     12 ****         1.2312   1.0627   1.4699 O.2            1 S1                 0.0000
     13 ****         1.3517   0.8075  -0.7767 N.am           1 S1                 0.0000
     14 ****         1.8889   2.1237  -1.1016 C.3            1 S1                 0.0000
     15 ****         0.7925   3.2026  -1.0969 C.3            1 S1                 0.0000
     16 ****         1.3364   4.5726  -1.4548 C.ar           1 S1                 0.0000
     17 ****         1.6550   5.5063  -0.4456 C.ar           1 S1                 0.0000
     18 ****         2.1668   6.7609  -0.8293 C.ar           1 S1                 0.0000
     19 ****         2.3403   7.0321  -2.2003 C.ar           1 S1                 0.0000
     20 ****         1.9944   6.0314  -3.1302 C.ar           1 S1                 0.0000
     21 ****         1.5036   4.8248  -2.7730 N.ar           1 S1                 0.0000
     22 ****        -0.9438  -1.0184   1.1367 C.3            1 S1                 0.0000
     23 ****        -4.8976  -4.2064   1.1783 H              1 S1                 0.0000
     24 ****        -4.2833  -5.5797   0.2760 H              1 S1                 0.0000
     25 ****        -4.7842  -4.1202  -0.5844 H              1 S1                 0.0000
     26 ****        -1.1679  -4.1058  -0.7766 H              1 S1                 0.0000
     27 ****        -2.3813  -5.3187  -1.1136 H              1 S1                 0.0000
     28 ****        -1.4288  -5.4364   0.3609 H              1 S1                 0.0000
     29 ****        -0.6930  -2.7268   3.1511 H              1 S1                 0.0000
     30 ****        -1.1036  -4.1978   2.3218 H              1 S1                 0.0000
     31 ****         1.3699  -3.8964   2.3863 H              1 S1                 0.0000
     32 ****         0.7975  -3.8844   0.7360 H              1 S1                 0.0000
     33 ****         1.5466  -1.4664   2.4339 H              1 S1                 0.0000
     34 ****         2.3859  -2.0390   1.0125 H              1 S1                 0.0000
     35 ****         0.4618  -1.4842  -0.4222 H              1 S1                 0.0000
     36 ****         1.1838   0.1797  -1.5495 H              1 S1                 0.0000
     37 ****         2.6848   2.3848  -0.4022 H              1 S1                 0.0000
     38 ****         2.3496   2.0648  -2.0881 H              1 S1                 0.0000
     39 ****         0.0043   2.9381  -1.8035 H              1 S1                 0.0000
     40 ****         0.3176   3.2558  -0.1163 H              1 S1                 0.0000
     41 ****         1.5133   5.2665   0.5981 H              1 S1                 0.0000
     42 ****         2.4225   7.5013  -0.0857 H              1 S1                 0.0000
     43 ****         2.7295   7.9836  -2.5312 H              1 S1                 0.0000
     44 ****         2.1155   6.2049  -4.1893 H              1 S1                 0.0000
     45 ****        -1.5700  -0.4045   0.4859 H              1 S1                 0.0000
     46 ****        -0.9739  -0.5554   2.1248 H              1 S1                 0.0000
     47 ****        -4.5583  -2.1086   0.6413 LP             1 S1                 0.0000
     48 ****        -3.4483  -0.9436   1.2820 LP             1 S1                 0.0000
     49 ****         0.9968   0.6945   2.3696 LP             1 S1                 0.0000
     50 ****         1.6015   1.9881   1.3893 LP             1 S1                 0.0000
     51 ****         1.2709   4.1388  -3.4623 LP             1 S1                 0.0000
@<TRIPOS>BOND
    1    1    2 1     
    2    1   23 1     
    3    1   24 1     
    4    1   25 1     
    5    2    3 1     
    6    2    4 am    
    7    3   26 1     
    8    3   27 1     
    9    3   28 1     
   10    4    5 2     
   11    4    6 am    
   12    6   22 1     
   13    6    7 1     
   14    7    8 1     
   15    7   29 1     
   16    7   30 1     
   17    8    9 1     
   18    8   31 1     
   19    8   32 1     
   20    9   10 1     
   21    9   33 1     
   22    9   34 1     
   23   10   11 1     
   24   10   22 1     
   25   10   35 1     
   26   11   12 2     
   27   11   13 am    
   28   13   14 1     
   29   13   36 1     
   30   14   15 1     
   31   14   37 1     
   32   14   38 1     
   33   15   16 1     
   34   15   39 1     
   35   15   40 1     
   36   16   21 ar    
   37   16   17 ar    
   38   17   18 ar    
   39   17   41 1     
   40   18   19 ar    
   41   18   42 1     
   42   19   20 ar    
   43   19   43 1     
   44   20   21 ar    
   45   20   44 1     
   46   22   45 1     
   47   22   46 1     
   48    5   47 1     
   49    5   48 1     
   50   12   49 1     
   51   12   50 1     
   52   21   51 1     
@<TRIPOS>SUBSTRUCTURE
      1 S1             1
@<TRIPOS>SET
LONE_PAIRS      STATIC     ATOMS    <user>   **** ""
5 47 48 49 50 51
DONOR_HYDROGENS      STATIC     ATOMS    <user>   **** ""
1 36
ATOM$BLUE        STATIC     ATOMS    COLORGROUP SYSTEM
5 47 48 49 50 51
ATOM$RED        STATIC     ATOMS    COLORGROUP SYSTEM
1 36
