#       Name:                AV-unprocessed.smi:1006
#       Creating user name   scv26
#       Creation time:       Fri Mar 27 02:33:08 2020


#       File generated by GOLD software.
#

@<TRIPOS>MOLECULE
AV-unprocessed.smi:1006
    50    52     1
SMALL
NO_CHARGES


@<TRIPOS>ATOM
      1 ****        -7.1115   3.2722   0.7616 C.3            1 S1                 0.0000
      2 ****        -6.0997   2.3446   0.1227 C.ar           1 S1                 0.0000
      3 ****        -6.4890   1.2317  -0.6505 C.ar           1 S1                 0.0000
      4 ****        -5.4585   0.4423  -1.1900 C.ar           1 S1                 0.0000
      5 ****        -5.7470  -0.6766  -1.9671 N.pl3          1 S1                 0.0000
      6 ****        -4.1607   0.7362  -0.9764 N.ar           1 S1                 0.0000
      7 ****        -3.8594   1.8075  -0.2303 C.ar           1 S1                 0.0000
      8 ****        -2.1500   2.2222   0.0716 S.3            1 S1                 0.0000
      9 ****        -1.2539   0.8615  -0.7413 C.3            1 S1                 0.0000
     10 ****         0.2690   0.9935  -0.5754 C.3            1 S1                 0.0000
     11 ****         0.6005   0.8693   0.7945 O.3            1 S1                 0.0000
     12 ****         1.0329  -0.0621  -1.3986 C.3            1 S1                 0.0000
     13 ****         2.4927   0.0706  -1.2812 N.pl3          1 S1                 0.0000
     14 ****         3.3453   0.8890  -1.9561 C.2            1 S1                 0.0000
     15 ****         4.6025   0.6447  -1.4943 N.pl3          1 S1                 1.0000
     16 ****         4.5533  -0.3439  -0.5096 C.ar           1 S1                 0.0000
     17 ****         5.5644  -0.9239   0.2474 C.ar           1 S1                 0.0000
     18 ****         5.1840  -1.9131   1.1818 C.ar           1 S1                 0.0000
     19 ****         6.2645  -2.5667   2.0267 C.3            1 S1                 0.0000
     20 ****         3.8244  -2.2899   1.3329 C.ar           1 S1                 0.0000
     21 ****         3.4260  -3.3514   2.3444 C.3            1 S1                 0.0000
     22 ****         2.8111  -1.6895   0.5517 C.ar           1 S1                 0.0000
     23 ****         3.2025  -0.7169  -0.3659 C.ar           1 S1                 0.0000
     24 ****        -4.7835   2.6098   0.3178 N.pl3          1 S1                 1.0000
     25 ****        -8.1043   3.1208   0.3365 H              1 S1                 0.0000
     26 ****        -6.8312   4.3143   0.6042 H              1 S1                 0.0000
     27 ****        -7.1676   3.0883   1.8348 H              1 S1                 0.0000
     28 ****        -7.5303   0.9970  -0.8199 H              1 S1                 0.0000
     29 ****        -6.6976  -0.9538  -2.1659 H              1 S1                 0.0000
     30 ****        -5.0130  -1.2530  -2.3535 H              1 S1                 0.0000
     31 ****        -1.5956  -0.0921  -0.3364 H              1 S1                 0.0000
     32 ****        -1.5085   0.8714  -1.8017 H              1 S1                 0.0000
     33 ****         0.5780   1.9865  -0.9051 H              1 S1                 0.0000
     34 ****         0.3147   0.0218   1.0990 H              1 S1                 0.0000
     35 ****         0.7364  -1.0741  -1.1219 H              1 S1                 0.0000
     36 ****         0.7884   0.0469  -2.4560 H              1 S1                 0.0000
     37 ****         3.0741   1.6040  -2.7194 H              1 S1                 0.0000
     38 ****         6.5972  -0.6302   0.1282 H              1 S1                 0.0000
     39 ****         6.2795  -3.6447   1.8636 H              1 S1                 0.0000
     40 ****         6.0881  -2.3781   3.0860 H              1 S1                 0.0000
     41 ****         7.2532  -2.1793   1.7792 H              1 S1                 0.0000
     42 ****         2.3487  -3.5203   2.3431 H              1 S1                 0.0000
     43 ****         3.7135  -3.0479   3.3513 H              1 S1                 0.0000
     44 ****         3.9120  -4.3001   2.1157 H              1 S1                 0.0000
     45 ****         1.7772  -1.9762   0.6715 H              1 S1                 0.0000
     46 ****        -4.5061   3.4154   0.8791 H              1 S1                 0.0000
     47 ****         5.4312   1.1207  -1.8272 H              1 S1                 0.0000
     48 ****        -3.4375   0.1665  -1.3668 LP             1 S1                 0.0000
     49 ****         0.1422   1.5874   1.3182 LP             1 S1                 0.0000
     50 ****         1.5903   0.9525   0.9102 LP             1 S1                 0.0000
@<TRIPOS>BOND
    1    1    2 1     
    2    1   25 1     
    3    1   26 1     
    4    1   27 1     
    5    2   24 ar    
    6    2    3 ar    
    7    3    4 ar    
    8    3   28 1     
    9    4    5 1     
   10    4    6 ar    
   11    5   29 1     
   12    5   30 1     
   13    6    7 ar    
   14    7    8 1     
   15    7   24 ar    
   16    8    9 1     
   17    9   10 1     
   18    9   31 1     
   19    9   32 1     
   20   10   11 1     
   21   10   12 1     
   22   10   33 1     
   23   11   34 1     
   24   12   13 1     
   25   12   35 1     
   26   12   36 1     
   27   13   23 1     
   28   13   14 1     
   29   14   15 2     
   30   14   37 1     
   31   15   16 1     
   32   15   47 1     
   33   16   23 ar    
   34   16   17 ar    
   35   17   18 ar    
   36   17   38 1     
   37   18   19 1     
   38   18   20 ar    
   39   19   39 1     
   40   19   40 1     
   41   19   41 1     
   42   20   21 1     
   43   20   22 ar    
   44   21   42 1     
   45   21   43 1     
   46   21   44 1     
   47   22   23 ar    
   48   22   45 1     
   49   24   46 1     
   50    6   48 1     
   51   11   49 1     
   52   11   50 1     
@<TRIPOS>SUBSTRUCTURE
      1 S1             1
@<TRIPOS>SET
LONE_PAIRS      STATIC     ATOMS    <user>   **** ""
3 48 49 50
DONOR_HYDROGENS      STATIC     ATOMS    <user>   **** ""
5 29 30 34 47 46
ATOM$BLUE        STATIC     ATOMS    COLORGROUP SYSTEM
3 48 49 50
ATOM$RED        STATIC     ATOMS    COLORGROUP SYSTEM
5 29 30 34 47 46
