AV-unprocessed.smi:2502|AV-procd|sdf|9846|dock3
  -GOLD-   2272013473D 1   1.00000     0.00000
 Structure written by MMmdl.
 39 41  0  0  0  0  0  0  0  0  1 V2000
  150.5698  138.2220  156.6288 O   0  0  0  0  0  0  0  0  0  0  0  0
  151.6372  138.8584  155.9520 C   0  0  1  0  0  0  0  0  0  0  0  0
  151.3560  138.8095  154.4420 C   0  0  0  0  0  0  0  0  0  0  0  0
  150.6851  140.0024  154.0616 O   0  0  0  0  0  0  0  0  0  0  0  0
  149.3495  140.1083  154.5375 C   0  0  0  0  0  0  0  0  0  0  0  0
  148.4007  139.1656  153.7769 C   0  0  0  0  0  0  0  0  0  0  0  0
  146.9399  139.4427  154.1685 C   0  0  0  0  0  0  0  0  0  0  0  0
  146.6178  140.8083  153.9250 O   0  0  0  0  0  0  0  0  0  0  0  0
  147.4049  141.7115  154.6947 C   0  0  0  0  0  0  0  0  0  0  0  0
  148.8893  141.5566  154.3267 C   0  0  0  0  0  0  0  0  0  0  0  0
  151.7634  140.3059  156.4667 C   0  0  0  0  0  0  0  0  0  0  0  0
  152.2207  140.3713  157.8439 N   0  0  0  0  0  0  0  0  0  0  0  0
  152.7178  139.2487  158.4363 N   0  0  0  0  0  0  0  0  0  0  0  0
  153.0597  139.5384  159.6561 N   0  0  0  0  0  0  0  0  0  0  0  0
  152.7823  140.8779  159.8724 C   0  0  0  0  0  0  0  0  0  0  0  0
  152.9530  141.7042  161.0054 C   0  0  0  0  0  0  0  0  0  0  0  0
  152.5777  143.0648  160.9600 C   0  0  0  0  0  0  0  0  0  0  0  0
  152.8012  144.0426  162.3668 Cl  0  0  0  0  0  0  0  0  0  0  0  0
  152.0258  143.6147  159.7776 C   0  0  0  0  0  0  0  0  0  0  0  0
  151.5595  145.2767  159.7059 Cl  0  0  0  0  0  0  0  0  0  0  0  0
  151.8509  142.8024  158.6394 C   0  0  0  0  0  0  0  0  0  0  0  0
  152.2318  141.4512  158.7055 C   0  0  0  0  0  0  0  0  0  0  0  0
  150.6185  138.4456  157.5457 H   0  0  0  0  0  0  0  0  0  0  0  0
  152.5628  138.3224  156.1664 H   0  0  0  0  0  0  0  0  0  0  0  0
  152.2776  138.6574  153.8792 H   0  0  0  0  0  0  0  0  0  0  0  0
  150.7006  137.9657  154.2207 H   0  0  0  0  0  0  0  0  0  0  0  0
  149.3144  139.8879  155.6060 H   0  0  0  0  0  0  0  0  0  0  0  0
  148.5216  139.3097  152.7027 H   0  0  0  0  0  0  0  0  0  0  0  0
  148.6401  138.1226  153.9820 H   0  0  0  0  0  0  0  0  0  0  0  0
  146.2695  138.8139  153.5824 H   0  0  0  0  0  0  0  0  0  0  0  0
  146.7665  139.1996  155.2179 H   0  0  0  0  0  0  0  0  0  0  0  0
  147.0727  142.7295  154.4908 H   0  0  0  0  0  0  0  0  0  0  0  0
  147.2468  141.5323  155.7592 H   0  0  0  0  0  0  0  0  0  0  0  0
  149.4978  142.2359  154.9243 H   0  0  0  0  0  0  0  0  0  0  0  0
  149.0344  141.8418  153.2838 H   0  0  0  0  0  0  0  0  0  0  0  0
  152.4648  140.8668  155.8472 H   0  0  0  0  0  0  0  0  0  0  0  0
  150.8051  140.8221  156.3929 H   0  0  0  0  0  0  0  0  0  0  0  0
  153.3723  141.2904  161.9107 H   0  0  0  0  0  0  0  0  0  0  0  0
  151.4299  143.2094  157.7319 H   0  0  0  0  0  0  0  0  0  0  0  0
  1  2  1  0  0  0  0
  1 23  1  0  0  0  0
  2  3  1  0  0  0  0
  2 11  1  0  0  0  0
  2 24  1  0  0  0  0
  3  4  1  0  0  0  0
  3 25  1  0  0  0  0
  3 26  1  0  0  0  0
  4  5  1  0  0  0  0
  5 10  1  0  0  0  0
  5  6  1  0  0  0  0
  5 27  1  0  0  0  0
  6  7  1  0  0  0  0
  6 28  1  0  0  0  0
  6 29  1  0  0  0  0
  7  8  1  0  0  0  0
  7 30  1  0  0  0  0
  7 31  1  0  0  0  0
  8  9  1  0  0  0  0
  9 10  1  0  0  0  0
  9 32  1  0  0  0  0
  9 33  1  0  0  0  0
 10 34  1  0  0  0  0
 10 35  1  0  0  0  0
 11 12  1  0  0  0  0
 11 36  1  0  0  0  0
 11 37  1  0  0  0  0
 12 22  1  0  0  0  0
 12 13  1  0  0  0  0
 13 14  2  0  0  0  0
 14 15  1  0  0  0  0
 15 22  2  0  0  0  0
 15 16  1  0  0  0  0
 16 17  2  0  0  0  0
 16 38  1  0  0  0  0
 17 18  1  0  0  0  0
 17 19  1  0  0  0  0
 19 20  1  0  0  0  0
 19 21  2  0  0  0  0
 21 22  1  0  0  0  0
 21 39  1  0  0  0  0
M  END
> <s_m_source_file>
AV-unprocessed.smi

> <i_m_source_file_index>
2502

> <i_lp_mmshare_version>
43012

> <i_f3d_flags>
0

> <s_epik_input>
W2NIXTFjKENsKWMoQ2wpW2NIXWMoYzEyKW4obm4yKVtDSDJdW0NASF0oW09IXSlbQ0gyXU9bQ0hdM1tDSDJdW0NIMl1PW0NIMl1bQ0gyXTM=

> <s_epik_cmdline>
J2VwaWtfcHl0aG9uJywgJy1waCcsICc3LjAnLCAnLXRuJywgJzgnLCAnLW1hJywgJzIwMCcsICctbWV0YWxfYmluZGluZycsICctaW1hZScsICc8aW5maWxlLm1hZT4nLCAnLW9tYWUnLCAnPG91dGZpbGUubWFlPic=

> <r_lp_tautomer_probability>
1

> <r_epik_Ionization_Penalty>
2.65748e-06

> <r_epik_Ionization_Penalty_Charging>
0

> <r_epik_Ionization_Penalty_Neutral>
2.65748e-06

> <r_epik_State_Penalty>
-0

> <r_epik_Charging_Adjusted_Penalty>
0

> <i_epik_Tot_Q>
0

> <i_epik_Tot_abs_Q>
0

> <r_epik_Metal_State_Penalty>
-0

> <b_epik_Metal_Only>
0

> <s_lp_Force_Field>
OPLS_2005

> <r_lp_Energy>
14.648

> <b_lp_Chiralities_Consistent>
1

> <s_lp_Variant>
AV-unprocessed.smi:2502-2

> <Gold.Version>
5.8.1

> <Gold.Id.Protein>
6NUR|6NUR_protein|mol2

> <Gold.PLP.Fitness>
45.3336

> <Gold.PLP.PLP>
-43.7614

> <Gold.PLP.part.hbond>
-0.9086

> <Gold.PLP.part.metal>
0.0000

> <Gold.PLP.part.buried>
-4.8420

> <Gold.PLP.part.nonpolar>
-38.1092

> <Gold.PLP.part.repulsive>
0.3892

> <Gold.PLP.ligand.clash>
0.0000

> <Gold.PLP.ligand.torsion>
0.7095

> <Gold.PLP.Chemscore.Hbond>
0.9913

> <Gold.PLP.Chemscore.CHOScore>
0.0000

> <Gold.PLP.Chemscore.Metal>
0.0000

> <Gold.Chemscore.Hbonds>
donor molecule, donor type, donor heavy atom, donor atom, acceptor molecule, acceptor atom, score
      P1  H  7989  7998       L1     4  0.67

> <Gold.PLP.Chemscore.Internal.Correction>
0.0175

> <Gold.Rescore>
     Score         DG    S(hbond)    S(metal)    S(lipo)     H(rot)  DE(clash)    DE(int)     intcor
     17.19     -18.72       0.96        0.00     134.04       2.21       0.64       0.90       ----

> <Gold.Chemscore.Fitness>
17.1893

> <Gold.Chemscore.DG>
-18.7230

> <Gold.Chemscore.ZeroCoef>
-5.4800

> <Gold.Chemscore.Hbond>
0.9607

> <Gold.Chemscore.Metal>
0.0000

> <Gold.Chemscore.Lipo>
134.0409

> <Gold.Chemscore.Internal_Hbond>
0.0000

> <Gold.Chemscore.DEClash>
0.6354

> <Gold.Chemscore.DEInternal>
0.8982

> <Gold.Chemscore.Rot>
2.2065

> <Gold.Chemscore.Internal.Correction>
   9.000000E+99

> <Gold.Chemscore.Hbonds>
donor molecule, donor type, donor heavy atom, donor atom, acceptor molecule, acceptor atom, score
      P1  H  7989  7998       L1     4  0.43

> <Gold.Chemscore.Hbond.Weighted>
-3.2087

> <Gold.Chemscore.Metal.Weighted>
-0.0000

> <Gold.Chemscore.Lipo.Weighted>
-15.6828

> <Gold.Chemscore.Internal_Hbond.Weighted>
0.0000

> <Gold.Chemscore.DEClash.Weighted>
0.6354

> <Gold.Chemscore.DEInternal.Weighted>
0.8982

> <Gold.Chemscore.Rot.Weighted>
5.6485

> <Gold.Chemscore.Internal.Correction.Weighted>
   9.000000E+99

> <Gold.Protein.RotatedTorsions>
[ 6907 6896 6895 6894 ] final   31.85 input  -60.11 | X-H torsion
[ 7974 7965 7964 7962 ] final    8.19 input  175.53 | X-H torsion
[ 8008 7997 7996 7995 ] final   45.75 input   59.86 | X-H torsion
[ 10167 10162 10161 10158 ] final  160.61 input  -65.29 | X-H torsion
[ 10718 10713 10712 10709 ] final  -34.81 input   66.30 | X-H torsion
[ 10763 10752 10751 10750 ] final -159.92 input  -60.55 | X-H torsion
[ 11005 11000 10999 10996 ] final  -27.42 input  -57.11 | X-H torsion

> <Gold.Protein.ActiveResidues>
 VAL166  LYS551  ARG553  GLY616  TRP617  ASP618  TYR619  PRO620  LYS621  CYS622 
 ASP623  PHE694  ASN695  SER759  ASP760  ASP761  ALA762  ILE779  LEU786  VAL792 
 PHE793  MET794  SER795  GLU796  ALA797  LYS798  CYS799  TRP800  GLU811  SER814 

> <Gold.Protein.RotatedAtoms>
  152.0662  134.9563  160.0574 H   0  0  0  0  0  0  0  0  0  0  0  0  # atno 6907 bound_to 6896
  152.0907  133.4194  159.4550 H   0  0  0  0  0  0  0  0  0  0  0  0  # atno 6908 bound_to 6896
  150.6837  134.2795  159.4665 H   0  0  0  0  0  0  0  0  0  0  0  0  # atno 6909 bound_to 6896
  146.2419  139.9971  142.8420 H   0  0  0  0  0  0  0  0  0  0  0  0  # atno 7974 bound_to 7965
  155.3410  140.3408  155.4239 H   0  0  0  0  0  0  0  0  0  0  0  0  # atno 8008 bound_to 7997
  156.1813  140.1665  156.8305 H   0  0  0  0  0  0  0  0  0  0  0  0  # atno 8009 bound_to 7997
  154.5337  140.0740  156.8372 H   0  0  0  0  0  0  0  0  0  0  0  0  # atno 8010 bound_to 7997
  139.4841  144.4617  151.8695 H   0  0  0  0  0  0  0  0  0  0  0  0  # atno 10167 bound_to 10162
  156.3461  130.4301  149.7744 H   0  0  0  0  0  0  0  0  0  0  0  0  # atno 10718 bound_to 10713
  154.7434  135.3074  154.8687 H   0  0  0  0  0  0  0  0  0  0  0  0  # atno 10763 bound_to 10752
  153.9495  135.6765  153.4748 H   0  0  0  0  0  0  0  0  0  0  0  0  # atno 10764 bound_to 10752
  153.1032  135.4902  154.8829 H   0  0  0  0  0  0  0  0  0  0  0  0  # atno 10765 bound_to 10752
  140.9117  133.7456  156.0680 H   0  0  0  0  0  0  0  0  0  0  0  0  # atno 11005 bound_to 11000
  145.1450  140.9592  143.4466 LP  0  0  0  0  0  0  0  0  0  0  0  0  # atno 17320 bound_to 7965
  145.0260  139.3383  143.6049 LP  0  0  0  0  0  0  0  0  0  0  0  0  # atno 17321 bound_to 7965
  140.4080  144.2406  150.5890 LP  0  0  0  0  0  0  0  0  0  0  0  0  # atno 17342 bound_to 10162
  140.4994  143.2322  151.8702 LP  0  0  0  0  0  0  0  0  0  0  0  0  # atno 17343 bound_to 10162
  156.4962  130.8108  151.3114 LP  0  0  0  0  0  0  0  0  0  0  0  0  # atno 17370 bound_to 10713
  157.7454  130.9959  150.2761 LP  0  0  0  0  0  0  0  0  0  0  0  0  # atno 17371 bound_to 10713
  140.8101  134.3409  157.5414 LP  0  0  0  0  0  0  0  0  0  0  0  0  # atno 17394 bound_to 11000
  139.8759  134.9249  156.3361 LP  0  0  0  0  0  0  0  0  0  0  0  0  # atno 17395 bound_to 11000

$$$$
