AV-unprocessed.smi:2306|AV-procd|sdf|9248|dock5
  -GOLD-   2272012463D 1   1.00000     0.00000
 Structure written by MMmdl.
 41 42  0  0  0  0  0  0  0  0  1 V2000
  151.8410  144.5639  157.6494 C   0  0  0  0  0  0  0  0  0  0  0  0
  152.2644  143.7498  158.8591 C   0  0  0  0  0  0  0  0  0  0  0  0
  152.5708  142.4091  158.6075 N   0  0  0  0  0  0  0  0  0  0  0  0
  152.9287  141.6359  159.5800 C   0  0  0  0  0  0  0  0  0  0  0  0
  153.0207  142.1062  160.8996 N   0  0  0  0  0  0  0  0  0  0  0  0
  153.4377  141.1249  161.9136 C   0  0  0  0  0  0  0  0  0  0  0  0
  154.7772  140.4457  161.5451 C   0  0  2  0  0  0  0  0  0  0  0  0
  154.5072  139.2771  160.7974 O   0  0  0  0  0  0  0  0  0  0  0  0
  155.5748  140.0209  162.7872 C   0  0  0  0  0  0  0  0  0  0  0  0
  155.6593  141.1307  163.6651 O   0  0  0  0  0  0  0  0  0  0  0  0
  155.4759  140.7832  165.0273 C   0  0  0  0  0  0  0  0  0  0  0  0
  155.3889  142.0049  165.9240 C   0  0  0  0  0  0  0  0  0  0  0  0
  155.2533  141.8649  167.3228 C   0  0  0  0  0  0  0  0  0  0  0  0
  155.1583  143.0060  168.1431 C   0  0  0  0  0  0  0  0  0  0  0  0
  155.1914  144.2917  167.5696 C   0  0  0  0  0  0  0  0  0  0  0  0
  155.3170  144.4359  166.1745 C   0  0  0  0  0  0  0  0  0  0  0  0
  155.4127  143.2952  165.3536 C   0  0  0  0  0  0  0  0  0  0  0  0
  152.7599  143.4045  161.2299 C   0  0  0  0  0  0  0  0  0  0  0  0
  152.8702  143.8126  162.3880 O   0  0  0  0  0  0  0  0  0  0  0  0
  152.3453  144.2703  160.1142 C   0  0  0  0  0  0  0  0  0  0  0  0
  152.0200  145.7208  160.4484 C   0  0  0  0  0  0  0  0  0  0  0  0
  152.5312  145.3920  157.4861 H   0  0  0  0  0  0  0  0  0  0  0  0
  150.8384  144.9676  157.7925 H   0  0  0  0  0  0  0  0  0  0  0  0
  151.8298  143.9553  156.7442 H   0  0  0  0  0  0  0  0  0  0  0  0
  153.1815  140.5839  159.4370 H   0  0  0  0  0  0  0  0  0  0  0  0
  153.5378  141.6468  162.8671 H   0  0  0  0  0  0  0  0  0  0  0  0
  152.6644  140.3787  162.1098 H   0  0  0  0  0  0  0  0  0  0  0  0
  155.4017  141.1041  160.9394 H   0  0  0  0  0  0  0  0  0  0  0  0
  155.3286  138.8693  160.5691 H   0  0  0  0  0  0  0  0  0  0  0  0
  155.0977  139.1733  163.2820 H   0  0  0  0  0  0  0  0  0  0  0  0
  156.5817  139.7123  162.5006 H   0  0  0  0  0  0  0  0  0  0  0  0
  154.5621  140.1963  165.1341 H   0  0  0  0  0  0  0  0  0  0  0  0
  156.3056  140.1628  165.3688 H   0  0  0  0  0  0  0  0  0  0  0  0
  155.2216  140.8843  167.7749 H   0  0  0  0  0  0  0  0  0  0  0  0
  155.0580  142.8941  169.2127 H   0  0  0  0  0  0  0  0  0  0  0  0
  155.1176  145.1662  168.1992 H   0  0  0  0  0  0  0  0  0  0  0  0
  155.3387  145.4217  165.7339 H   0  0  0  0  0  0  0  0  0  0  0  0
  155.5052  143.4139  164.2839 H   0  0  0  0  0  0  0  0  0  0  0  0
  151.1767  145.7657  161.1381 H   0  0  0  0  0  0  0  0  0  0  0  0
  151.7615  146.3158  159.5741 H   0  0  0  0  0  0  0  0  0  0  0  0
  152.8752  146.1988  160.9274 H   0  0  0  0  0  0  0  0  0  0  0  0
  1  2  1  0  0  0  0
  1 22  1  0  0  0  0
  1 23  1  0  0  0  0
  1 24  1  0  0  0  0
  2 20  2  0  0  0  0
  2  3  1  0  0  0  0
  3  4  2  0  0  0  0
  4  5  1  0  0  0  0
  4 25  1  0  0  0  0
  5  6  1  0  0  0  0
  5 18  1  0  0  0  0
  6  7  1  0  0  0  0
  6 26  1  0  0  0  0
  6 27  1  0  0  0  0
  7  8  1  0  0  0  0
  7  9  1  0  0  0  0
  7 28  1  0  0  0  0
  8 29  1  0  0  0  0
  9 10  1  0  0  0  0
  9 30  1  0  0  0  0
  9 31  1  0  0  0  0
 10 11  1  0  0  0  0
 11 12  1  0  0  0  0
 11 32  1  0  0  0  0
 11 33  1  0  0  0  0
 12 17  1  0  0  0  0
 12 13  2  0  0  0  0
 13 14  1  0  0  0  0
 13 34  1  0  0  0  0
 14 15  2  0  0  0  0
 14 35  1  0  0  0  0
 15 16  1  0  0  0  0
 15 36  1  0  0  0  0
 16 17  2  0  0  0  0
 16 37  1  0  0  0  0
 17 38  1  0  0  0  0
 18 19  2  0  0  0  0
 18 20  1  0  0  0  0
 20 21  1  0  0  0  0
 21 39  1  0  0  0  0
 21 40  1  0  0  0  0
 21 41  1  0  0  0  0
M  END
> <s_m_source_file>
AV-unprocessed.smi

> <i_m_source_file_index>
2306

> <i_lp_mmshare_version>
43012

> <i_f3d_flags>
0

> <s_epik_input>
W0NIM11jMW5bY0hdbihjKD1PKWMxW0NIM10pW0NIMl1bQ0BIXShbT0hdKVtDSDJdT1tDSDJdYzJbY0hdW2NIXVtjSF1bY0hdW2NIXTI=

> <s_epik_cmdline>
J2VwaWtfcHl0aG9uJywgJy1waCcsICc3LjAnLCAnLXRuJywgJzgnLCAnLW1hJywgJzIwMCcsICctbWV0YWxfYmluZGluZycsICctaW1hZScsICc8aW5maWxlLm1hZT4nLCAnLW9tYWUnLCAnPG91dGZpbGUubWFlPic=

> <r_lp_tautomer_probability>
1

> <r_epik_Ionization_Penalty>
5.35985e-05

> <r_epik_Ionization_Penalty_Charging>
1.17753e-07

> <r_epik_Ionization_Penalty_Neutral>
5.34808e-05

> <r_epik_State_Penalty>
-0

> <r_epik_Charging_Adjusted_Penalty>
1.17753e-07

> <i_epik_Tot_Q>
0

> <i_epik_Tot_abs_Q>
0

> <r_epik_Metal_State_Penalty>
-0

> <b_epik_Metal_Only>
0

> <s_lp_Force_Field>
OPLS_2005

> <r_lp_Energy>
22.2439

> <b_lp_Chiralities_Consistent>
1

> <s_lp_Variant>
AV-unprocessed.smi:2306-1

> <Gold.Version>
5.8.1

> <Gold.Id.Protein>
6NUR|6NUR_protein|mol2

> <Gold.PLP.Fitness>
50.2524

> <Gold.PLP.PLP>
-51.6399

> <Gold.PLP.part.hbond>
-1.0000

> <Gold.PLP.part.metal>
0.0000

> <Gold.PLP.part.buried>
-2.2547

> <Gold.PLP.part.nonpolar>
-48.7556

> <Gold.PLP.part.repulsive>
0.1594

> <Gold.PLP.ligand.clash>
0.0000

> <Gold.PLP.ligand.torsion>
0.7628

> <Gold.PLP.Chemscore.Hbond>
0.0000

> <Gold.PLP.Chemscore.CHOScore>
0.0000

> <Gold.PLP.Chemscore.Metal>
0.0000

> <Gold.PLP.Chemscore.Internal.Correction>
0.1382

> <Gold.Rescore>
     Score         DG    S(hbond)    S(metal)    S(lipo)     H(rot)  DE(clash)    DE(int)     intcor
     11.90     -13.81       0.00        0.00     126.24       2.52       1.01       0.89       ----

> <Gold.Chemscore.Fitness>
11.8995

> <Gold.Chemscore.DG>
-13.8085

> <Gold.Chemscore.ZeroCoef>
-5.4800

> <Gold.Chemscore.Hbond>
0.0000

> <Gold.Chemscore.Metal>
0.0000

> <Gold.Chemscore.Lipo>
126.2380

> <Gold.Chemscore.Internal_Hbond>
0.0000

> <Gold.Chemscore.DEClash>
1.0150

> <Gold.Chemscore.DEInternal>
0.8940

> <Gold.Chemscore.Rot>
2.5162

> <Gold.Chemscore.Internal.Correction>
   9.000000E+99

> <Gold.Chemscore.Hbond.Weighted>
-0.0000

> <Gold.Chemscore.Metal.Weighted>
-0.0000

> <Gold.Chemscore.Lipo.Weighted>
-14.7698

> <Gold.Chemscore.Internal_Hbond.Weighted>
0.0000

> <Gold.Chemscore.DEClash.Weighted>
1.0150

> <Gold.Chemscore.DEInternal.Weighted>
0.8940

> <Gold.Chemscore.Rot.Weighted>
6.4414

> <Gold.Chemscore.Internal.Correction.Weighted>
   9.000000E+99

> <Gold.Protein.RotatedTorsions>
[ 6907 6896 6895 6894 ] final -133.00 input  -60.11 | X-H torsion
[ 7974 7965 7964 7962 ] final -105.08 input  175.53 | X-H torsion
[ 8008 7997 7996 7995 ] final  142.83 input   59.86 | X-H torsion
[ 10167 10162 10161 10158 ] final -170.61 input  -65.29 | X-H torsion
[ 10718 10713 10712 10709 ] final  158.52 input   66.30 | X-H torsion
[ 10763 10752 10751 10750 ] final -147.25 input  -60.55 | X-H torsion
[ 11005 11000 10999 10996 ] final  168.61 input  -57.11 | X-H torsion

> <Gold.Protein.ActiveResidues>
 VAL166  LYS551  ARG553  GLY616  TRP617  ASP618  TYR619  PRO620  LYS621  CYS622 
 ASP623  PHE694  ASN695  SER759  ASP760  ASP761  ALA762  ILE779  LEU786  VAL792 
 PHE793  MET794  SER795  GLU796  ALA797  LYS798  CYS799  TRP800  GLU811  SER814 

> <Gold.Protein.RotatedAtoms>
  150.9690  133.6364  159.2741 H   0  0  0  0  0  0  0  0  0  0  0  0  # atno 6907 bound_to 6896
  151.3660  135.0912  159.9460 H   0  0  0  0  0  0  0  0  0  0  0  0  # atno 6908 bound_to 6896
  152.5176  133.9254  159.7609 H   0  0  0  0  0  0  0  0  0  0  0  0  # atno 6909 bound_to 6896
  145.2350  140.9184  143.3182 H   0  0  0  0  0  0  0  0  0  0  0  0  # atno 7974 bound_to 7965
  156.2942  140.2278  156.4792 H   0  0  0  0  0  0  0  0  0  0  0  0  # atno 8008 bound_to 7997
  154.7868  140.0457  157.1191 H   0  0  0  0  0  0  0  0  0  0  0  0  # atno 8009 bound_to 7997
  154.9693  140.3064  155.4998 H   0  0  0  0  0  0  0  0  0  0  0  0  # atno 8010 bound_to 7997
  139.5852  144.1335  152.1566 H   0  0  0  0  0  0  0  0  0  0  0  0  # atno 10167 bound_to 10162
  157.1768  131.0623  151.2153 H   0  0  0  0  0  0  0  0  0  0  0  0  # atno 10718 bound_to 10713
  154.8295  135.3365  154.6788 H   0  0  0  0  0  0  0  0  0  0  0  0  # atno 10763 bound_to 10752
  153.7410  135.6946  153.4971 H   0  0  0  0  0  0  0  0  0  0  0  0  # atno 10764 bound_to 10752
  153.2244  135.4438  155.0476 H   0  0  0  0  0  0  0  0  0  0  0  0  # atno 10765 bound_to 10752
  140.2891  134.7688  157.3823 H   0  0  0  0  0  0  0  0  0  0  0  0  # atno 11005 bound_to 11000
  144.9641  139.3949  143.6341 LP  0  0  0  0  0  0  0  0  0  0  0  0  # atno 17320 bound_to 7965
  146.3343  139.8708  142.8840 LP  0  0  0  0  0  0  0  0  0  0  0  0  # atno 17321 bound_to 7965
  140.0897  144.5631  150.7063 LP  0  0  0  0  0  0  0  0  0  0  0  0  # atno 17342 bound_to 10162
  140.7124  143.2516  151.4539 LP  0  0  0  0  0  0  0  0  0  0  0  0  # atno 17343 bound_to 10162
  157.3991  130.7323  149.6753 LP  0  0  0  0  0  0  0  0  0  0  0  0  # atno 17370 bound_to 10713
  155.9730  130.4126  150.4038 LP  0  0  0  0  0  0  0  0  0  0  0  0  # atno 17371 bound_to 10713
  140.1212  134.5217  155.8182 LP  0  0  0  0  0  0  0  0  0  0  0  0  # atno 17394 bound_to 11000
  141.2149  133.6757  156.6869 LP  0  0  0  0  0  0  0  0  0  0  0  0  # atno 17395 bound_to 11000

$$$$
