AV-unprocessed.smi:107|AV-procd|sdf|1019|dock5
  -GOLD-   2262018 23D 1   1.00000     0.00000
 Structure written by MMmdl.
 31 32  0  0  0  0  0  0  0  0  1 V2000
  151.7179  144.7740  158.0796 C   0  0  0  0  0  0  0  0  0  0  0  0
  151.6636  143.2569  158.1499 C   0  0  0  0  0  0  0  0  0  0  0  0
  150.6800  142.5350  157.5543 C   0  0  0  0  0  0  0  0  0  0  0  0
  150.5988  141.1487  157.5977 N   0  0  0  0  0  0  0  0  0  0  0  0
  149.4190  140.4109  156.9972 C   0  0  2  0  0  0  0  0  0  0  0  0
  149.7988  139.3873  155.9104 C   0  0  0  0  0  0  0  0  0  0  0  0
  149.0673  139.8988  154.6769 C   0  0  2  0  0  0  0  0  0  0  0  0
  149.9473  140.5975  153.8171 O   0  0  0  0  0  0  0  0  0  0  0  0
  147.9767  140.8076  155.2668 C   0  0  2  0  0  0  0  0  0  0  0  0
  147.4200  141.9151  154.3553 C   0  0  0  0  0  0  0  0  0  0  0  0
  148.4387  142.8325  154.0187 O   0  0  0  0  0  0  0  0  0  0  0  0
  148.5757  141.3619  156.4289 O   0  0  0  0  0  0  0  0  0  0  0  0
  151.5248  140.4388  158.3944 C   0  0  0  0  0  0  0  0  0  0  0  0
  151.4703  139.2224  158.5705 O   0  0  0  0  0  0  0  0  0  0  0  0
  152.5446  141.1765  158.9935 N   0  0  0  0  0  0  0  0  0  0  0  0
  152.7011  142.5616  158.9147 C   0  0  0  0  0  0  0  0  0  0  0  0
  153.6533  143.0991  159.4780 O   0  0  0  0  0  0  0  0  0  0  0  0
  153.2212  140.6668  159.5428 H   0  0  0  0  0  0  0  0  0  0  0  0
  150.8970  145.1817  157.4890 H   0  0  0  0  0  0  0  0  0  0  0  0
  152.6528  145.1013  157.6233 H   0  0  0  0  0  0  0  0  0  0  0  0
  151.6552  145.2041  159.0798 H   0  0  0  0  0  0  0  0  0  0  0  0
  149.9118  143.0820  157.0314 H   0  0  0  0  0  0  0  0  0  0  0  0
  148.9013  139.9053  157.8135 H   0  0  0  0  0  0  0  0  0  0  0  0
  150.8746  139.2672  155.7819 H   0  0  0  0  0  0  0  0  0  0  0  0
  149.3968  138.4177  156.2076 H   0  0  0  0  0  0  0  0  0  0  0  0
  148.6290  139.0790  154.1070 H   0  0  0  0  0  0  0  0  0  0  0  0
  149.5912  140.5728  152.9419 H   0  0  0  0  0  0  0  0  0  0  0  0
  147.1516  140.1804  155.6103 H   0  0  0  0  0  0  0  0  0  0  0  0
  147.0354  141.4772  153.4340 H   0  0  0  0  0  0  0  0  0  0  0  0
  146.5893  142.4421  154.8252 H   0  0  0  0  0  0  0  0  0  0  0  0
  148.5735  143.4135  154.7521 H   0  0  0  0  0  0  0  0  0  0  0  0
  1  2  1  0  0  0  0
  1 19  1  0  0  0  0
  1 20  1  0  0  0  0
  1 21  1  0  0  0  0
  2 16  1  0  0  0  0
  2  3  2  0  0  0  0
  3  4  1  0  0  0  0
  3 22  1  0  0  0  0
  4  5  1  0  0  0  0
  4 13  1  0  0  0  0
  5 12  1  0  0  0  0
  5  6  1  0  0  0  0
  5 23  1  0  0  0  0
  6  7  1  0  0  0  0
  6 24  1  0  0  0  0
  6 25  1  0  0  0  0
  7  8  1  0  0  0  0
  7  9  1  0  0  0  0
  7 26  1  0  0  0  0
  8 27  1  0  0  0  0
  9 10  1  0  0  0  0
  9 12  1  0  0  0  0
  9 28  1  0  0  0  0
 10 11  1  0  0  0  0
 10 29  1  0  0  0  0
 10 30  1  0  0  0  0
 11 31  1  0  0  0  0
 13 14  2  0  0  0  0
 13 15  1  0  0  0  0
 15 18  1  0  0  0  0
 15 16  1  0  0  0  0
 16 17  2  0  0  0  0
M  END
> <s_m_source_file>
AV-unprocessed.smi

> <i_m_source_file_index>
107

> <i_lp_mmshare_version>
43012

> <i_f3d_flags>
0

> <s_epik_input>
Tz1jMVtuSF1jKD1PKW4oW2NIXWMxW0NIM10pW0NAQEhdMltDSDJdW0NAQEhdKFtPSF0pW0NASF0oTzIpW0NIMl1bT0hd

> <s_epik_cmdline>
J2VwaWtfcHl0aG9uJywgJy1waCcsICc3LjAnLCAnLXRuJywgJzgnLCAnLW1hJywgJzIwMCcsICctbWV0YWxfYmluZGluZycsICctaW1hZScsICc8aW5maWxlLm1hZT4nLCAnLW9tYWUnLCAnPG91dGZpbGUubWFlPic=

> <r_lp_tautomer_probability>
0.999537

> <r_epik_Ionization_Penalty>
0.00121888

> <r_epik_Ionization_Penalty_Charging>
0.00121876

> <r_epik_Ionization_Penalty_Neutral>
1.19946e-07

> <r_epik_State_Penalty>
0.000805124

> <r_epik_Charging_Adjusted_Penalty>
0.00202389

> <i_epik_Tot_Q>
0

> <i_epik_Tot_abs_Q>
0

> <r_epik_Metal_State_Penalty>
0.662472

> <b_epik_Metal_Only>
0

> <s_epik_Chemistry_Notes>
This compound contains an acetal/aminal-like group ( X-CH(R)-Y where X, Y are N, S, or O) that may be acid/base labile, releasing an aldehyde.

> <s_lp_Force_Field>
OPLS_2005

> <r_lp_Energy>
26.1821

> <b_lp_Chiralities_Consistent>
1

> <s_lp_Variant>
AV-unprocessed.smi:107-7

> <Gold.Version>
5.8.1

> <Gold.Id.Protein>
6NUR|6NUR_protein|mol2

> <Gold.PLP.Fitness>
40.4861

> <Gold.PLP.PLP>
-29.8026

> <Gold.PLP.part.hbond>
-4.8264

> <Gold.PLP.part.metal>
0.0000

> <Gold.PLP.part.buried>
-3.6984

> <Gold.PLP.part.nonpolar>
-20.7964

> <Gold.PLP.part.repulsive>
0.1994

> <Gold.PLP.ligand.clash>
0.0000

> <Gold.PLP.ligand.torsion>
0.0724

> <Gold.PLP.Chemscore.Hbond>
2.5760

> <Gold.PLP.Chemscore.CHOScore>
1.0000

> <Gold.PLP.Chemscore.Metal>
0.0000

> <Gold.Chemscore.Hbonds>
donor molecule, donor type, donor heavy atom, donor atom, acceptor molecule, acceptor atom, score
      L1  H     8    27       P1  7957  1.00
      L1  H    11    31       P1  8028  1.00
      P1  H  7989  7998       L1     8  0.59
      L1  C     3    22       P1  8028  1.00

> <Gold.PLP.Chemscore.Internal.Correction>
0.1003

> <Gold.Rescore>
     Score         DG    S(hbond)    S(metal)    S(lipo)     H(rot)  DE(clash)    DE(int)     intcor
     12.00     -12.08       2.25        0.00      51.79       2.73       0.03       0.06       ----

> <Gold.Chemscore.Fitness>
11.9951

> <Gold.Chemscore.DG>
-12.0842

> <Gold.Chemscore.ZeroCoef>
-5.4800

> <Gold.Chemscore.Hbond>
2.2522

> <Gold.Chemscore.Metal>
0.0000

> <Gold.Chemscore.Lipo>
51.7851

> <Gold.Chemscore.Internal_Hbond>
0.0000

> <Gold.Chemscore.DEClash>
0.0284

> <Gold.Chemscore.DEInternal>
0.0608

> <Gold.Chemscore.Rot>
2.7253

> <Gold.Chemscore.Internal.Correction>
   9.000000E+99

> <Gold.Chemscore.Hbonds>
donor molecule, donor type, donor heavy atom, donor atom, acceptor molecule, acceptor atom, score
      L1  H     8    27       P1  7957  0.97
      L1  H    11    31       P1  8028  0.98
      P1  H  7989  7998       L1     8  0.15
      P1  H  8011  8017       L1    11  0.03

> <Gold.Chemscore.Hbond.Weighted>
-7.5222

> <Gold.Chemscore.Metal.Weighted>
-0.0000

> <Gold.Chemscore.Lipo.Weighted>
-6.0589

> <Gold.Chemscore.Internal_Hbond.Weighted>
0.0000

> <Gold.Chemscore.DEClash.Weighted>
0.0284

> <Gold.Chemscore.DEInternal.Weighted>
0.0608

> <Gold.Chemscore.Rot.Weighted>
6.9769

> <Gold.Chemscore.Internal.Correction.Weighted>
   9.000000E+99

> <Gold.Protein.RotatedTorsions>
[ 6907 6896 6895 6894 ] final  117.64 input  -60.11 | X-H torsion
[ 7974 7965 7964 7962 ] final  -29.95 input  175.53 | X-H torsion
[ 8008 7997 7996 7995 ] final  -12.18 input   59.86 | X-H torsion
[ 10167 10162 10161 10158 ] final  173.47 input  -65.29 | X-H torsion
[ 10718 10713 10712 10709 ] final  -66.59 input   66.30 | X-H torsion
[ 10763 10752 10751 10750 ] final  139.11 input  -60.55 | X-H torsion
[ 11005 11000 10999 10996 ] final   22.78 input  -57.11 | X-H torsion

> <Gold.Protein.ActiveResidues>
 VAL166  LYS551  ARG553  GLY616  TRP617  ASP618  TYR619  PRO620  LYS621  CYS622 
 ASP623  PHE694  ASN695  SER759  ASP760  ASP761  ALA762  ILE779  LEU786  VAL792 
 PHE793  MET794  SER795  GLU796  ALA797  LYS798  CYS799  TRP800  GLU811  SER814 

> <Gold.Protein.RotatedAtoms>
  152.4598  133.7798  159.6844 H   0  0  0  0  0  0  0  0  0  0  0  0  # atno 6907 bound_to 6896
  150.8537  133.7737  159.3022 H   0  0  0  0  0  0  0  0  0  0  0  0  # atno 6908 bound_to 6896
  151.5324  135.1071  159.9958 H   0  0  0  0  0  0  0  0  0  0  0  0  # atno 6909 bound_to 6896
  146.1179  140.5478  142.8749 H   0  0  0  0  0  0  0  0  0  0  0  0  # atno 7974 bound_to 7965
  154.5399  140.2283  155.8659 H   0  0  0  0  0  0  0  0  0  0  0  0  # atno 8008 bound_to 7997
  156.1848  140.3091  155.9180 H   0  0  0  0  0  0  0  0  0  0  0  0  # atno 8009 bound_to 7997
  155.3278  140.0444  157.3032 H   0  0  0  0  0  0  0  0  0  0  0  0  # atno 8010 bound_to 7997
  139.5109  144.3256  152.0160 H   0  0  0  0  0  0  0  0  0  0  0  0  # atno 10167 bound_to 10162
  156.0604  130.4264  150.1731 H   0  0  0  0  0  0  0  0  0  0  0  0  # atno 10718 bound_to 10713
  153.9007  135.3022  155.3448 H   0  0  0  0  0  0  0  0  0  0  0  0  # atno 10763 bound_to 10752
  154.7672  135.4904  153.9580 H   0  0  0  0  0  0  0  0  0  0  0  0  # atno 10764 bound_to 10752
  153.1246  135.6790  153.9378 H   0  0  0  0  0  0  0  0  0  0  0  0  # atno 10765 bound_to 10752
  140.3768  134.1963  155.7665 H   0  0  0  0  0  0  0  0  0  0  0  0  # atno 11005 bound_to 11000
  144.7569  140.5330  143.6762 LP  0  0  0  0  0  0  0  0  0  0  0  0  # atno 17320 bound_to 7965
  145.5529  139.1477  143.3384 LP  0  0  0  0  0  0  0  0  0  0  0  0  # atno 17321 bound_to 7965
  140.2697  144.3977  150.6155 LP  0  0  0  0  0  0  0  0  0  0  0  0  # atno 17342 bound_to 10162
  140.6097  143.2169  151.6910 LP  0  0  0  0  0  0  0  0  0  0  0  0  # atno 17343 bound_to 10162
  156.9800  130.9861  151.3439 LP  0  0  0  0  0  0  0  0  0  0  0  0  # atno 17370 bound_to 10713
  157.5608  130.8244  149.8263 LP  0  0  0  0  0  0  0  0  0  0  0  0  # atno 17371 bound_to 10713
  141.1936  133.8146  157.0790 LP  0  0  0  0  0  0  0  0  0  0  0  0  # atno 17394 bound_to 11000
  140.0509  134.9806  157.1134 LP  0  0  0  0  0  0  0  0  0  0  0  0  # atno 17395 bound_to 11000

$$$$
