AV-unprocessed.smi:2351|AV-procd|sdf|9377|dock10
  -GOLD-   2272013 03D 1   1.00000     0.00000
 Structure written by MMmdl.
 47 49  0  0  0  0  0  0  0  0  2 V2000
  142.5924  136.1712  152.8626 O   0  0  0  0  0  0  0  0  0  0  0  0
  142.8663  137.3695  152.9173 C   0  0  0  0  0  0  0  0  0  0  0  0
  141.9929  138.3612  153.1634 N   0  0  0  0  0  0  0  0  0  0  0  0
  140.6054  138.2798  153.4651 C   0  0  0  0  0  0  0  0  0  0  0  0
  139.8339  137.0961  153.3678 C   0  0  0  0  0  0  0  0  0  0  0  0
  138.4689  137.1493  153.7162 C   0  0  0  0  0  0  0  0  0  0  0  0
  137.8538  138.2706  154.1474 N   0  0  0  0  0  0  0  0  0  0  0  0
  138.5947  139.3940  154.2503 C   0  0  0  0  0  0  0  0  0  0  0  0
  139.9655  139.4493  153.9275 C   0  0  0  0  0  0  0  0  0  0  0  0
  140.6523  140.6102  154.0588 F   0  0  0  0  0  0  0  0  0  0  0  0
  144.1020  137.8518  152.7201 N   0  0  0  0  0  0  0  0  0  0  0  0
  145.2871  137.0476  152.4219 C   0  0  2  0  0  0  0  0  0  0  0  0
  146.1936  136.8767  153.6573 C   0  0  0  0  0  0  0  0  0  0  0  0
  146.8942  138.1909  154.0430 C   0  0  0  0  0  0  0  0  0  0  0  0
  147.6722  138.7394  152.9024 N   0  3  2  0  0  0  0  0  0  0  0  0
  148.4743  139.9277  153.2911 C   0  0  0  0  0  0  0  0  0  0  0  0
  149.4090  139.6501  154.4850 C   0  0  1  0  0  0  0  0  0  0  0  0
  150.6226  138.8169  154.1256 C   0  0  0  0  0  0  0  0  0  0  0  0
  151.5642  139.1063  155.2910 C   0  0  0  0  0  0  0  0  0  0  0  0
  151.2548  140.4287  155.7224 O   0  0  0  0  0  0  0  0  0  0  0  0
  150.0815  140.8954  155.0649 C   0  0  0  0  0  0  0  0  0  0  0  0
  146.8061  138.9758  151.7163 C   0  0  0  0  0  0  0  0  0  0  0  0
  146.0938  137.6830  151.2765 C   0  0  0  0  0  0  0  0  0  0  0  0
  142.3570  139.3002  153.0923 H   0  0  0  0  0  0  0  0  0  0  0  0
  140.2538  136.1552  153.0489 H   0  0  0  0  0  0  0  0  0  0  0  0
  137.8552  136.2631  153.6520 H   0  0  0  0  0  0  0  0  0  0  0  0
  138.0799  140.2754  154.6031 H   0  0  0  0  0  0  0  0  0  0  0  0
  144.2308  138.8519  152.7693 H   0  0  0  0  0  0  0  0  0  0  0  0
  144.9488  136.0633  152.0931 H   0  0  0  0  0  0  0  0  0  0  0  0
  145.6248  136.4938  154.5051 H   0  0  0  0  0  0  0  0  0  0  0  0
  146.9508  136.1218  153.4412 H   0  0  0  0  0  0  0  0  0  0  0  0
  146.1633  138.9289  154.3775 H   0  0  0  0  0  0  0  0  0  0  0  0
  147.5598  138.0018  154.8862 H   0  0  0  0  0  0  0  0  0  0  0  0
  149.0466  140.2781  152.4307 H   0  0  0  0  0  0  0  0  0  0  0  0
  147.8057  140.7459  153.5631 H   0  0  0  0  0  0  0  0  0  0  0  0
  148.8753  139.1317  155.2817 H   0  0  0  0  0  0  0  0  0  0  0  0
  150.3980  137.7554  154.0169 H   0  0  0  0  0  0  0  0  0  0  0  0
  151.0668  139.1688  153.1931 H   0  0  0  0  0  0  0  0  0  0  0  0
  151.3718  138.4196  156.1162 H   0  0  0  0  0  0  0  0  0  0  0  0
  152.6135  139.0129  155.0103 H   0  0  0  0  0  0  0  0  0  0  0  0
  150.3831  141.5798  154.2707 H   0  0  0  0  0  0  0  0  0  0  0  0
  149.4319  141.4399  155.7507 H   0  0  0  0  0  0  0  0  0  0  0  0
  146.0734  139.7503  151.9482 H   0  0  0  0  0  0  0  0  0  0  0  0
  147.3982  139.3477  150.8813 H   0  0  0  0  0  0  0  0  0  0  0  0
  146.8403  136.9686  150.9266 H   0  0  0  0  0  0  0  0  0  0  0  0
  145.4456  137.8833  150.4223 H   0  0  0  0  0  0  0  0  0  0  0  0
  148.3341  138.0206  152.6462 H   0  0  0  0  0  0  0  0  0  0  0  0
  1  2  2  0  0  0  0
  2  3  1  0  0  0  0
  2 11  1  0  0  0  0
  3  4  1  0  0  0  0
  3 24  1  0  0  0  0
  4  9  1  0  0  0  0
  4  5  2  0  0  0  0
  5  6  1  0  0  0  0
  5 25  1  0  0  0  0
  6  7  2  0  0  0  0
  6 26  1  0  0  0  0
  7  8  1  0  0  0  0
  8  9  2  0  0  0  0
  8 27  1  0  0  0  0
  9 10  1  0  0  0  0
 11 12  1  0  0  0  0
 11 28  1  0  0  0  0
 12 23  1  0  0  0  0
 12 13  1  0  0  0  0
 12 29  1  0  0  0  0
 13 14  1  0  0  0  0
 13 30  1  0  0  0  0
 13 31  1  0  0  0  0
 14 15  1  0  0  0  0
 14 32  1  0  0  0  0
 14 33  1  0  0  0  0
 15 16  1  0  0  0  0
 15 22  1  0  0  0  0
 15 47  1  0  0  0  0
 16 17  1  0  0  0  0
 16 34  1  0  0  0  0
 16 35  1  0  0  0  0
 17 21  1  0  0  0  0
 17 18  1  0  0  0  0
 17 36  1  0  0  0  0
 18 19  1  0  0  0  0
 18 37  1  0  0  0  0
 18 38  1  0  0  0  0
 19 20  1  0  0  0  0
 19 39  1  0  0  0  0
 19 40  1  0  0  0  0
 20 21  1  0  0  0  0
 21 41  1  0  0  0  0
 21 42  1  0  0  0  0
 22 23  1  0  0  0  0
 22 43  1  0  0  0  0
 22 44  1  0  0  0  0
 23 45  1  0  0  0  0
 23 46  1  0  0  0  0
M  CHG  1  15   1
M  END
> <s_m_source_file>
AV-unprocessed.smi

> <i_m_source_file_index>
2351

> <i_lp_mmshare_version>
43012

> <i_f3d_flags>
0

> <s_epik_input>
RmMxW2NIXW5bY0hdW2NIXWMxW05IXUMoPU8pW05IXVtDSF0yW0NIMl1bQ0gyXU4oW0NIMl1bQ0gyXTIpW0NIMl1bQ0BASF0zW0NIMl1bQ0gyXU9bQ0gyXTM=

> <s_epik_cmdline>
J2VwaWtfcHl0aG9uJywgJy1waCcsICc3LjAnLCAnLXRuJywgJzgnLCAnLW1hJywgJzIwMCcsICctbWV0YWxfYmluZGluZycsICctaW1hZScsICc8aW5maWxlLm1hZT4nLCAnLW9tYWUnLCAnPG91dGZpbGUubWFlPic=

> <r_epik_Ionization_Penalty>
0.0102464

> <r_epik_Ionization_Penalty_Charging>
0.00747775

> <r_epik_Ionization_Penalty_Neutral>
0.00276864

> <r_epik_State_Penalty>
0.00558817

> <r_epik_Charging_Adjusted_Penalty>
0.0130659

> <i_epik_Tot_Q>
1

> <i_epik_Tot_abs_Q>
1

> <r_epik_Metal_State_Penalty>
-0

> <b_epik_Metal_Only>
0

> <s_lp_Force_Field>
OPLS_2005

> <r_lp_Energy>
39.2901

> <b_lp_Chiralities_Consistent>
1

> <s_lp_Variant>
AV-unprocessed.smi:2351-4

> <Gold.Version>
5.8.1

> <Gold.Id.Protein>
6NUR|6NUR_protein|mol2

> <Gold.PLP.Fitness>
50.8330

> <Gold.PLP.PLP>
-39.4647

> <Gold.PLP.part.hbond>
-5.7263

> <Gold.PLP.part.metal>
0.0000

> <Gold.PLP.part.buried>
5.5023

> <Gold.PLP.part.nonpolar>
-39.5344

> <Gold.PLP.part.repulsive>
0.2945

> <Gold.PLP.ligand.clash>
0.0000

> <Gold.PLP.ligand.torsion>
0.3175

> <Gold.PLP.Chemscore.Hbond>
3.9920

> <Gold.PLP.Chemscore.CHOScore>
0.0000

> <Gold.PLP.Chemscore.Metal>
0.0000

> <Gold.Chemscore.Hbonds>
donor molecule, donor type, donor heavy atom, donor atom, acceptor molecule, acceptor atom, score
      L1  H     3    24       P1 10175  1.00
      L1  H    11    28       P1 10175  0.99
      L1  H    15    47       P1  7948  2.00

> <Gold.PLP.Chemscore.Internal.Correction>
0.0272

> <Gold.Rescore>
     Score         DG    S(hbond)    S(metal)    S(lipo)     H(rot)  DE(clash)    DE(int)     intcor
     18.97     -23.92       2.93        0.00     105.77       1.45       3.40       1.54       ----

> <Gold.Chemscore.Fitness>
18.9740

> <Gold.Chemscore.DG>
-23.9170

> <Gold.Chemscore.ZeroCoef>
-5.4800

> <Gold.Chemscore.Hbond>
2.9251

> <Gold.Chemscore.Metal>
0.0000

> <Gold.Chemscore.Lipo>
105.7690

> <Gold.Chemscore.Internal_Hbond>
0.0000

> <Gold.Chemscore.DEClash>
3.4015

> <Gold.Chemscore.DEInternal>
1.5415

> <Gold.Chemscore.Rot>
1.4483

> <Gold.Chemscore.Internal.Correction>
   9.000000E+99

> <Gold.Chemscore.Hbonds>
donor molecule, donor type, donor heavy atom, donor atom, acceptor molecule, acceptor atom, score
      L1  H     3    24       P1 10175  0.94
      L1  H    11    28       P1 10175  0.94
      L1  H    15    47       P1  7948  0.92

> <Gold.Chemscore.Hbond.Weighted>
-9.7697

> <Gold.Chemscore.Metal.Weighted>
-0.0000

> <Gold.Chemscore.Lipo.Weighted>
-12.3750

> <Gold.Chemscore.Internal_Hbond.Weighted>
0.0000

> <Gold.Chemscore.DEClash.Weighted>
3.4015

> <Gold.Chemscore.DEInternal.Weighted>
1.5415

> <Gold.Chemscore.Rot.Weighted>
3.7077

> <Gold.Chemscore.Internal.Correction.Weighted>
   9.000000E+99

> <Gold.Protein.RotatedTorsions>
[ 6907 6896 6895 6894 ] final  -41.69 input  -60.11 | X-H torsion
[ 7974 7965 7964 7962 ] final   32.44 input  175.53 | X-H torsion
[ 8008 7997 7996 7995 ] final  163.31 input   59.86 | X-H torsion
[ 10167 10162 10161 10158 ] final  110.98 input  -65.29 | X-H torsion
[ 10718 10713 10712 10709 ] final  -12.22 input   66.30 | X-H torsion
[ 10763 10752 10751 10750 ] final   38.77 input  -60.55 | X-H torsion
[ 11005 11000 10999 10996 ] final -111.19 input  -57.11 | X-H torsion

> <Gold.Protein.ActiveResidues>
 VAL166  LYS551  ARG553  GLY616  TRP617  ASP618  TYR619  PRO620  LYS621  CYS622 
 ASP623  PHE694  ASN695  SER759  ASP760  ASP761  ALA762  ILE779  LEU786  VAL792 
 PHE793  MET794  SER795  GLU796  ALA797  LYS798  CYS799  TRP800  GLU811  SER814 

> <Gold.Protein.RotatedAtoms>
  150.9638  134.9022  159.7746 H   0  0  0  0  0  0  0  0  0  0  0  0  # atno 6907 bound_to 6896
  152.5166  134.3636  159.9303 H   0  0  0  0  0  0  0  0  0  0  0  0  # atno 6908 bound_to 6896
  151.3647  133.3836  159.2728 H   0  0  0  0  0  0  0  0  0  0  0  0  # atno 6909 bound_to 6896
  146.1486  139.6525  142.9114 H   0  0  0  0  0  0  0  0  0  0  0  0  # atno 7974 bound_to 7965
  156.1967  140.1727  156.7984 H   0  0  0  0  0  0  0  0  0  0  0  0  # atno 8008 bound_to 7997
  154.5538  140.0712  156.8742 H   0  0  0  0  0  0  0  0  0  0  0  0  # atno 8009 bound_to 7997
  155.2977  140.3359  155.4251 H   0  0  0  0  0  0  0  0  0  0  0  0  # atno 8010 bound_to 7997
  139.6646  144.7128  151.1801 H   0  0  0  0  0  0  0  0  0  0  0  0  # atno 10167 bound_to 10162
  156.6478  130.4946  149.6072 H   0  0  0  0  0  0  0  0  0  0  0  0  # atno 10718 bound_to 10713
  152.9989  135.6240  154.2359 H   0  0  0  0  0  0  0  0  0  0  0  0  # atno 10763 bound_to 10752
  154.2100  135.2800  155.2963 H   0  0  0  0  0  0  0  0  0  0  0  0  # atno 10764 bound_to 10752
  154.5614  135.5704  153.7070 H   0  0  0  0  0  0  0  0  0  0  0  0  # atno 10765 bound_to 10752
  141.0748  133.9319  157.2411 H   0  0  0  0  0  0  0  0  0  0  0  0  # atno 11005 bound_to 11000
  145.4878  141.0438  143.2610 LP  0  0  0  0  0  0  0  0  0  0  0  0  # atno 17320 bound_to 7965
  144.7876  139.6394  143.7127 LP  0  0  0  0  0  0  0  0  0  0  0  0  # atno 17321 bound_to 7965
  140.7594  143.5940  150.8767 LP  0  0  0  0  0  0  0  0  0  0  0  0  # atno 17342 bound_to 10162
  139.9600  143.6175  152.3005 LP  0  0  0  0  0  0  0  0  0  0  0  0  # atno 17343 bound_to 10162
  156.2108  130.6678  151.1268 LP  0  0  0  0  0  0  0  0  0  0  0  0  # atno 17370 bound_to 10713
  157.7151  131.0714  150.6358 LP  0  0  0  0  0  0  0  0  0  0  0  0  # atno 17371 bound_to 10713
  139.9561  135.0165  156.9131 LP  0  0  0  0  0  0  0  0  0  0  0  0  # atno 17394 bound_to 11000
  140.5596  134.0548  155.7394 LP  0  0  0  0  0  0  0  0  0  0  0  0  # atno 17395 bound_to 11000

$$$$
