AV-unprocessed.smi:1829|AV-procd|sdf|7429|dock8
  -GOLD-   22720 9113D 1   1.00000     0.00000
 Structure written by MMmdl.
 45 47  0  0  0  0  0  0  0  0  1 V2000
  153.6621  141.6963  161.5682 C   0  0  0  0  0  0  0  0  0  0  0  0
  153.0793  142.8984  160.8082 C   0  0  0  0  0  0  0  0  0  0  0  0
  152.1702  143.7505  161.7079 C   0  0  0  0  0  0  0  0  0  0  0  0
  152.3619  142.4674  159.5350 C   0  0  0  0  0  0  0  0  0  0  0  0
  151.8769  143.4389  158.6334 C   0  0  0  0  0  0  0  0  0  0  0  0
  151.2081  143.0481  157.4571 C   0  0  0  0  0  0  0  0  0  0  0  0
  151.0186  141.6809  157.1664 C   0  0  0  0  0  0  0  0  0  0  0  0
  150.2861  141.2665  155.9000 C   0  0  1  0  0  0  0  0  0  0  0  0
  151.0377  140.3544  155.1228 O   0  0  0  0  0  0  0  0  0  0  0  0
  148.9026  140.6688  156.2248 C   0  0  0  0  0  0  0  0  0  0  0  0
  147.8531  141.1754  155.3501 N   0  0  0  0  0  0  0  0  0  0  0  0
  147.6840  140.9608  154.0204 C   0  0  0  0  0  0  0  0  0  0  0  0
  148.6391  140.1049  153.2371 C   0  0  0  0  0  0  0  0  0  0  0  0
  148.0361  138.9845  152.6210 O   0  0  0  0  0  0  0  0  0  0  0  0
  146.6198  141.5537  153.4727 N   0  0  0  0  0  0  0  0  0  0  0  0
  146.0497  142.2122  154.5440 C   0  0  0  0  0  0  0  0  0  0  0  0
  144.8947  143.0238  154.6155 C   0  0  0  0  0  0  0  0  0  0  0  0
  144.5006  143.5978  155.8422 C   0  0  0  0  0  0  0  0  0  0  0  0
  145.2537  143.3692  157.0121 C   0  0  0  0  0  0  0  0  0  0  0  0
  146.4077  142.5638  156.9625 C   0  0  0  0  0  0  0  0  0  0  0  0
  146.7967  141.9939  155.7354 C   0  0  0  0  0  0  0  0  0  0  0  0
  151.5008  140.7080  158.0686 C   0  0  0  0  0  0  0  0  0  0  0  0
  152.1689  141.0991  159.2447 C   0  0  0  0  0  0  0  0  0  0  0  0
  154.3425  141.1252  160.9357 H   0  0  0  0  0  0  0  0  0  0  0  0
  152.8799  141.0195  161.9133 H   0  0  0  0  0  0  0  0  0  0  0  0
  154.2237  142.0231  162.4439 H   0  0  0  0  0  0  0  0  0  0  0  0
  153.9202  143.5288  160.5160 H   0  0  0  0  0  0  0  0  0  0  0  0
  151.8073  144.6306  161.1760 H   0  0  0  0  0  0  0  0  0  0  0  0
  152.7083  144.0983  162.5902 H   0  0  0  0  0  0  0  0  0  0  0  0
  151.3020  143.1879  162.0523 H   0  0  0  0  0  0  0  0  0  0  0  0
  152.0128  144.4904  158.8403 H   0  0  0  0  0  0  0  0  0  0  0  0
  150.8388  143.8045  156.7800 H   0  0  0  0  0  0  0  0  0  0  0  0
  150.1477  142.1551  155.2826 H   0  0  0  0  0  0  0  0  0  0  0  0
  151.1199  139.5467  155.6062 H   0  0  0  0  0  0  0  0  0  0  0  0
  148.9316  139.5805  156.1743 H   0  0  0  0  0  0  0  0  0  0  0  0
  148.6273  140.9142  157.2514 H   0  0  0  0  0  0  0  0  0  0  0  0
  149.1116  140.7075  152.4615 H   0  0  0  0  0  0  0  0  0  0  0  0
  149.4265  139.7516  153.9033 H   0  0  0  0  0  0  0  0  0  0  0  0
  148.7136  138.3673  152.3913 H   0  0  0  0  0  0  0  0  0  0  0  0
  144.3113  143.2045  153.7249 H   0  0  0  0  0  0  0  0  0  0  0  0
  143.6161  144.2163  155.8853 H   0  0  0  0  0  0  0  0  0  0  0  0
  144.9450  143.8127  157.9474 H   0  0  0  0  0  0  0  0  0  0  0  0
  146.9874  142.3863  157.8562 H   0  0  0  0  0  0  0  0  0  0  0  0
  151.3562  139.6575  157.8632 H   0  0  0  0  0  0  0  0  0  0  0  0
  152.5310  140.3418  159.9246 H   0  0  0  0  0  0  0  0  0  0  0  0
  1  2  1  0  0  0  0
  1 24  1  0  0  0  0
  1 25  1  0  0  0  0
  1 26  1  0  0  0  0
  2  3  1  0  0  0  0
  2  4  1  0  0  0  0
  2 27  1  0  0  0  0
  3 28  1  0  0  0  0
  3 29  1  0  0  0  0
  3 30  1  0  0  0  0
  4 23  1  0  0  0  0
  4  5  2  0  0  0  0
  5  6  1  0  0  0  0
  5 31  1  0  0  0  0
  6  7  2  0  0  0  0
  6 32  1  0  0  0  0
  7  8  1  0  0  0  0
  7 22  1  0  0  0  0
  8  9  1  0  0  0  0
  8 10  1  0  0  0  0
  8 33  1  0  0  0  0
  9 34  1  0  0  0  0
 10 11  1  0  0  0  0
 10 35  1  0  0  0  0
 10 36  1  0  0  0  0
 11 21  1  0  0  0  0
 11 12  1  0  0  0  0
 12 13  1  0  0  0  0
 12 15  2  0  0  0  0
 13 14  1  0  0  0  0
 13 37  1  0  0  0  0
 13 38  1  0  0  0  0
 14 39  1  0  0  0  0
 15 16  1  0  0  0  0
 16 21  2  0  0  0  0
 16 17  1  0  0  0  0
 17 18  2  0  0  0  0
 17 40  1  0  0  0  0
 18 19  1  0  0  0  0
 18 41  1  0  0  0  0
 19 20  2  0  0  0  0
 19 42  1  0  0  0  0
 20 21  1  0  0  0  0
 20 43  1  0  0  0  0
 22 23  2  0  0  0  0
 22 44  1  0  0  0  0
 23 45  1  0  0  0  0
M  END
> <s_m_source_file>
AV-unprocessed.smi

> <i_m_source_file_index>
1829

> <i_lp_mmshare_version>
43012

> <i_f3d_flags>
0

> <s_epik_input>
W0NIM11bQ0hdKFtDSDNdKWMxW2NIXVtjSF1jKFtjSF1bY0hdMSlbQ0BIXShbT0hdKVtDSDJdbihjKG4yKVtDSDJdW09IXSljKGMyMylbY0hdW2NIXVtjSF1bY0hdMw==

> <s_epik_cmdline>
J2VwaWtfcHl0aG9uJywgJy1waCcsICc3LjAnLCAnLXRuJywgJzgnLCAnLW1hJywgJzIwMCcsICctbWV0YWxfYmluZGluZycsICctaW1hZScsICc8aW5maWxlLm1hZT4nLCAnLW9tYWUnLCAnPG91dGZpbGUubWFlPic=

> <r_epik_Ionization_Penalty>
0.0634718

> <r_epik_Ionization_Penalty_Charging>
0

> <r_epik_Ionization_Penalty_Neutral>
0.0634718

> <r_epik_State_Penalty>
0.0551572

> <r_epik_Charging_Adjusted_Penalty>
0.0551572

> <i_epik_Tot_Q>
0

> <i_epik_Tot_abs_Q>
0

> <r_epik_Metal_State_Penalty>
5.78034e-05

> <b_epik_Metal_Only>
0

> <s_lp_Force_Field>
OPLS_2005

> <r_lp_Energy>
13.3672

> <b_lp_Chiralities_Consistent>
1

> <s_lp_Variant>
AV-unprocessed.smi:1829-2

> <Gold.Version>
5.8.1

> <Gold.Id.Protein>
6NUR|6NUR_protein|mol2

> <Gold.PLP.Fitness>
51.5370

> <Gold.PLP.PLP>
-47.5745

> <Gold.PLP.part.hbond>
-2.9671

> <Gold.PLP.part.metal>
0.0000

> <Gold.PLP.part.buried>
-1.2548

> <Gold.PLP.part.nonpolar>
-43.7190

> <Gold.PLP.part.repulsive>
0.2084

> <Gold.PLP.ligand.clash>
0.0000

> <Gold.PLP.ligand.torsion>
0.8295

> <Gold.PLP.Chemscore.Hbond>
1.8437

> <Gold.PLP.Chemscore.CHOScore>
0.0000

> <Gold.PLP.Chemscore.Metal>
0.0000

> <Gold.Chemscore.Hbonds>
donor molecule, donor type, donor heavy atom, donor atom, acceptor molecule, acceptor atom, score
      L1  H    14    39       P1  7948  0.52
      P1  H  7989  7998       L1     9  1.00

> <Gold.PLP.Chemscore.Internal.Correction>
0.0904

> <Gold.Rescore>
     Score         DG    S(hbond)    S(metal)    S(lipo)     H(rot)  DE(clash)    DE(int)     intcor
     17.50     -19.96       1.74        0.00     132.71       2.68       1.66       0.80       ----

> <Gold.Chemscore.Fitness>
17.5019

> <Gold.Chemscore.DG>
-19.9620

> <Gold.Chemscore.ZeroCoef>
-5.4800

> <Gold.Chemscore.Hbond>
1.7384

> <Gold.Chemscore.Metal>
0.0000

> <Gold.Chemscore.Lipo>
132.7053

> <Gold.Chemscore.Internal_Hbond>
0.0000

> <Gold.Chemscore.DEClash>
1.6638

> <Gold.Chemscore.DEInternal>
0.7963

> <Gold.Chemscore.Rot>
2.6761

> <Gold.Chemscore.Internal.Correction>
   9.000000E+99

> <Gold.Chemscore.Hbonds>
donor molecule, donor type, donor heavy atom, donor atom, acceptor molecule, acceptor atom, score
      L1  H    14    39       P1  7948  0.51
      P1  H  7989  7998       L1     9  0.94

> <Gold.Chemscore.Hbond.Weighted>
-5.8063

> <Gold.Chemscore.Metal.Weighted>
-0.0000

> <Gold.Chemscore.Lipo.Weighted>
-15.5265

> <Gold.Chemscore.Internal_Hbond.Weighted>
0.0000

> <Gold.Chemscore.DEClash.Weighted>
1.6638

> <Gold.Chemscore.DEInternal.Weighted>
0.7963

> <Gold.Chemscore.Rot.Weighted>
6.8507

> <Gold.Chemscore.Internal.Correction.Weighted>
   9.000000E+99

> <Gold.Protein.RotatedTorsions>
[ 6907 6896 6895 6894 ] final   41.42 input  -60.11 | X-H torsion
[ 7974 7965 7964 7962 ] final   41.88 input  175.53 | X-H torsion
[ 8008 7997 7996 7995 ] final  -22.30 input   59.86 | X-H torsion
[ 10167 10162 10161 10158 ] final -172.95 input  -65.29 | X-H torsion
[ 10718 10713 10712 10709 ] final  129.30 input   66.30 | X-H torsion
[ 10763 10752 10751 10750 ] final   27.75 input  -60.55 | X-H torsion
[ 11005 11000 10999 10996 ] final -126.61 input  -57.11 | X-H torsion

> <Gold.Protein.ActiveResidues>
 VAL166  LYS551  ARG553  GLY616  TRP617  ASP618  TYR619  PRO620  LYS621  CYS622 
 ASP623  PHE694  ASN695  SER759  ASP760  ASP761  ALA762  ILE779  LEU786  VAL792 
 PHE793  MET794  SER795  GLU796  ALA797  LYS798  CYS799  TRP800  GLU811  SER814 

> <Gold.Protein.RotatedAtoms>
  152.1951  134.8638  160.0513 H   0  0  0  0  0  0  0  0  0  0  0  0  # atno 6907 bound_to 6896
  151.9512  133.3661  159.4009 H   0  0  0  0  0  0  0  0  0  0  0  0  # atno 6908 bound_to 6896
  150.6943  134.4262  159.5271 H   0  0  0  0  0  0  0  0  0  0  0  0  # atno 6909 bound_to 6896
  146.0787  139.5365  142.9551 H   0  0  0  0  0  0  0  0  0  0  0  0  # atno 7974 bound_to 7965
  154.4652  140.2011  156.0137 H   0  0  0  0  0  0  0  0  0  0  0  0  # atno 8008 bound_to 7997
  156.0914  140.3257  155.7792 H   0  0  0  0  0  0  0  0  0  0  0  0  # atno 8009 bound_to 7997
  155.4950  140.0549  157.2938 H   0  0  0  0  0  0  0  0  0  0  0  0  # atno 8010 bound_to 7997
  139.5715  144.1630  152.1391 H   0  0  0  0  0  0  0  0  0  0  0  0  # atno 10167 bound_to 10162
  157.5167  131.1097  150.9215 H   0  0  0  0  0  0  0  0  0  0  0  0  # atno 10718 bound_to 10713
  153.0536  135.6529  154.0633 H   0  0  0  0  0  0  0  0  0  0  0  0  # atno 10763 bound_to 10752
  154.0316  135.2911  155.3369 H   0  0  0  0  0  0  0  0  0  0  0  0  # atno 10764 bound_to 10752
  154.6838  135.5309  153.8366 H   0  0  0  0  0  0  0  0  0  0  0  0  # atno 10765 bound_to 10752
  140.9667  134.0862  157.3913 H   0  0  0  0  0  0  0  0  0  0  0  0  # atno 11005 bound_to 11000
  145.6258  141.0314  143.1890 LP  0  0  0  0  0  0  0  0  0  0  0  0  # atno 17320 bound_to 7965
  144.7278  139.7819  143.7358 LP  0  0  0  0  0  0  0  0  0  0  0  0  # atno 17321 bound_to 7965
  140.1164  144.5412  150.6891 LP  0  0  0  0  0  0  0  0  0  0  0  0  # atno 17342 bound_to 10162
  140.7000  143.2428  151.4893 LP  0  0  0  0  0  0  0  0  0  0  0  0  # atno 17343 bound_to 10162
  156.9838  130.5537  149.5298 LP  0  0  0  0  0  0  0  0  0  0  0  0  # atno 17370 bound_to 10713
  156.0325  130.5415  150.8570 LP  0  0  0  0  0  0  0  0  0  0  0  0  # atno 17371 bound_to 10713
  139.8897  135.0107  156.6694 LP  0  0  0  0  0  0  0  0  0  0  0  0  # atno 17394 bound_to 11000
  140.7389  133.8995  155.8264 LP  0  0  0  0  0  0  0  0  0  0  0  0  # atno 17395 bound_to 11000

$$$$
