#       Name:                AV-unprocessed.smi:629
#       Creating user name   scv26
#       Creation time:       Fri Mar 27 00:03:59 2020


#       File generated by GOLD software.
#

@<TRIPOS>MOLECULE
AV-unprocessed.smi:629
    37    38     1
SMALL
NO_CHARGES


@<TRIPOS>ATOM
      1 ****        -3.9021   2.4026  -3.5164 C.3            1 S1                 0.0000
      2 ****        -3.4210   1.1962  -2.8613 N.am           1 S1                 0.0000
      3 ****        -3.5357   0.9535  -1.5470 C.2            1 S1                 0.0000
      4 ****        -4.0758   1.7318  -0.7612 O.2            1 S1                 0.0000
      5 ****        -2.9627  -0.3718  -1.0398 C.3            1 S1                 0.0000
      6 ****        -1.4693  -0.3158  -0.9759 C.2            1 S1                 0.0000
      7 ****        -0.7195  -0.7290  -1.9916 N.2            1 S1                 0.0000
      8 ****         0.5894  -0.5151  -1.5370 O.3            1 S1                 0.0000
      9 ****         0.4678   0.0153  -0.2964 C.2            1 S1                 0.0000
     10 ****         1.7039   0.3161   0.4849 C.3            1 S1                 0.0000
     11 ****         2.2729  -0.9201   1.2050 C.3            1 S1                 0.0000
     12 ****         1.5691  -1.2153   2.5054 C.2            1 S1                 0.0000
     13 ****         2.4078  -1.3355   3.5320 C.2            1 S1                 0.0000
     14 ****         3.8419  -1.1417   3.1268 C.3            1 S1                 0.0000
     15 ****         3.7525  -0.7449   1.6366 C.3            1 S1                 0.0000
     16 ****        -0.7917   0.1417   0.1137 N.2            1 S1                 0.0000
     17 ****        -3.6784   2.3610  -4.5823 H              1 S1                 0.0000
     18 ****        -3.4201   3.2886  -3.1012 H              1 S1                 0.0000
     19 ****        -4.9815   2.5049  -3.3978 H              1 S1                 0.0000
     20 ****        -2.9623   0.5074  -3.4403 H              1 S1                 0.0000
     21 ****        -3.3615  -0.5912  -0.0485 H              1 S1                 0.0000
     22 ****        -3.2781  -1.1855  -1.6944 H              1 S1                 0.0000
     23 ****         2.4434   0.7029  -0.2175 H              1 S1                 0.0000
     24 ****         1.5018   1.1218   1.1920 H              1 S1                 0.0000
     25 ****         2.1962  -1.7976   0.5611 H              1 S1                 0.0000
     26 ****         0.4965  -1.3294   2.5645 H              1 S1                 0.0000
     27 ****         2.1209  -1.5604   4.5488 H              1 S1                 0.0000
     28 ****         4.3130  -0.3629   3.7274 H              1 S1                 0.0000
     29 ****         4.3937  -2.0721   3.2644 H              1 S1                 0.0000
     30 ****         4.4212  -1.3487   1.0219 H              1 S1                 0.0000
     31 ****         4.0677   0.2934   1.5228 H              1 S1                 0.0000
     32 ****        -4.4560   2.5947  -1.0940 LP             1 S1                 0.0000
     33 ****        -4.1344   1.5012   0.2101 LP             1 S1                 0.0000
     34 ****        -1.0173  -1.1030  -2.8699 LP             1 S1                 0.0000
     35 ****         1.0685   0.1208  -2.1420 LP             1 S1                 0.0000
     36 ****         1.0902  -1.3798  -1.4983 LP             1 S1                 0.0000
     37 ****        -1.1451   0.4807   0.9856 LP             1 S1                 0.0000
@<TRIPOS>BOND
    1    1    2 1     
    2    1   17 1     
    3    1   18 1     
    4    1   19 1     
    5    2    3 am    
    6    2   20 1     
    7    3    4 2     
    8    3    5 1     
    9    5    6 1     
   10    5   21 1     
   11    5   22 1     
   12    6   16 1     
   13    6    7 2     
   14    7    8 1     
   15    8    9 1     
   16    9   10 1     
   17    9   16 2     
   18   10   11 1     
   19   10   23 1     
   20   10   24 1     
   21   11   15 1     
   22   11   12 1     
   23   11   25 1     
   24   12   13 2     
   25   12   26 1     
   26   13   14 1     
   27   13   27 1     
   28   14   15 1     
   29   14   28 1     
   30   14   29 1     
   31   15   30 1     
   32   15   31 1     
   33    4   32 1     
   34    4   33 1     
   35    7   34 1     
   36    8   35 1     
   37    8   36 1     
   38   16   37 1     
@<TRIPOS>SUBSTRUCTURE
      1 S1             1
@<TRIPOS>SET
LONE_PAIRS      STATIC     ATOMS    <user>   **** ""
6 32 33 34 35 36 37
DONOR_HYDROGENS      STATIC     ATOMS    <user>   **** ""
1 20
ATOM$BLUE        STATIC     ATOMS    COLORGROUP SYSTEM
6 32 33 34 35 36 37
ATOM$RED        STATIC     ATOMS    COLORGROUP SYSTEM
1 20
