AV-unprocessed.smi:84|AV-procd|sdf|808|dock4
  -GOLD-   2262017203D 1   1.00000     0.00000
 Structure written by MMmdl.
 51 55  0  0  0  0  0  0  0  0  1 V2000
  156.3572  127.9890  156.6541 O   0  0  0  0  0  0  0  0  0  0  0  0
  155.4823  128.6845  156.1437 C   0  0  0  0  0  0  0  0  0  0  0  0
  154.3751  129.3625  156.9341 C   0  0  0  0  0  0  0  0  0  0  0  0
  153.3611  129.7532  155.8412 C   0  0  1  0  0  0  0  0  0  0  0  0
  152.2325  128.7193  155.6693 C   0  0  0  0  0  0  0  0  0  0  0  0
  151.1087  129.5222  155.0163 C   0  0  0  0  0  0  0  0  0  0  0  0
  151.2575  130.8658  155.5544 N   0  0  0  0  0  0  0  0  0  0  0  0
  150.4991  131.9064  155.1228 C   0  0  0  0  0  0  0  0  0  0  0  0
  150.7920  133.1548  155.5747 N   0  0  0  0  0  0  0  0  0  0  0  0
  150.0701  134.2070  155.1804 C   0  0  0  0  0  0  0  0  0  0  0  0
  149.0324  134.2386  154.3438 N   0  0  0  0  0  0  0  0  0  0  0  0
  148.7405  132.9938  153.8703 C   0  0  0  0  0  0  0  0  0  0  0  0
  149.4122  131.7830  154.2070 C   0  0  0  0  0  0  0  0  0  0  0  0
  148.8236  130.7209  153.5282 N   0  0  0  0  0  0  0  0  0  0  0  0
  147.8555  131.2685  152.8463 C   0  0  0  0  0  0  0  0  0  0  0  0
  147.7529  132.6347  152.9699 N   0  0  0  0  0  0  0  0  0  0  0  0
  146.7655  133.4797  152.3650 C   0  0  0  0  0  0  0  0  0  0  0  0
  145.2781  133.1209  152.4090 C   0  0  0  0  0  0  0  0  0  0  0  0
  145.0845  133.7910  151.0295 C   0  0  0  0  0  0  0  0  0  0  0  0
  144.1700  133.0381  150.0491 C   0  0  0  0  0  0  0  0  0  0  0  0
  144.0613  133.7253  148.8189 O   0  0  0  0  0  0  0  0  0  0  0  0
  144.6703  135.2760  151.0707 C   0  0  0  0  0  0  0  0  0  0  0  0
  144.8254  135.8909  149.8079 O   0  0  0  0  0  0  0  0  0  0  0  0
  146.5967  133.5375  150.8449 C   0  0  0  0  0  0  0  0  0  0  0  0
  152.5873  131.0555  156.1178 C   0  0  0  0  0  0  0  0  0  0  0  0
  154.2314  129.8272  154.5635 C   0  0  0  0  0  0  0  0  0  0  0  0
  155.3589  128.9598  154.8464 N   0  0  0  0  0  0  0  0  0  0  0  0
  153.9569  128.7033  157.6955 H   0  0  0  0  0  0  0  0  0  0  0  0
  154.7884  130.2423  157.4290 H   0  0  0  0  0  0  0  0  0  0  0  0
  152.5223  127.8444  155.0858 H   0  0  0  0  0  0  0  0  0  0  0  0
  151.8938  128.3663  156.6445 H   0  0  0  0  0  0  0  0  0  0  0  0
  151.2308  129.5441  153.9326 H   0  0  0  0  0  0  0  0  0  0  0  0
  150.1285  129.1025  155.2455 H   0  0  0  0  0  0  0  0  0  0  0  0
  150.3675  135.1597  155.5931 H   0  0  0  0  0  0  0  0  0  0  0  0
  147.1910  130.6860  152.2246 H   0  0  0  0  0  0  0  0  0  0  0  0
  146.9343  134.4777  152.7733 H   0  0  0  0  0  0  0  0  0  0  0  0
  145.1084  132.0426  152.3846 H   0  0  0  0  0  0  0  0  0  0  0  0
  144.7287  133.5815  153.2306 H   0  0  0  0  0  0  0  0  0  0  0  0
  144.5637  132.0429  149.8392 H   0  0  0  0  0  0  0  0  0  0  0  0
  143.1723  132.8899  150.4627 H   0  0  0  0  0  0  0  0  0  0  0  0
  144.9002  134.1101  148.6154 H   0  0  0  0  0  0  0  0  0  0  0  0
  143.6274  135.3870  151.3676 H   0  0  0  0  0  0  0  0  0  0  0  0
  145.2521  135.8325  151.8057 H   0  0  0  0  0  0  0  0  0  0  0  0
  145.5685  135.5001  149.3738 H   0  0  0  0  0  0  0  0  0  0  0  0
  147.1419  134.3481  150.3605 H   0  0  0  0  0  0  0  0  0  0  0  0
  146.8131  132.5807  150.3651 H   0  0  0  0  0  0  0  0  0  0  0  0
  152.4816  131.2205  157.1905 H   0  0  0  0  0  0  0  0  0  0  0  0
  153.0953  131.9217  155.6930 H   0  0  0  0  0  0  0  0  0  0  0  0
  153.7032  129.5108  153.6634 H   0  0  0  0  0  0  0  0  0  0  0  0
  154.6117  130.8349  154.3909 H   0  0  0  0  0  0  0  0  0  0  0  0
  155.9824  128.6189  154.1290 H   0  0  0  0  0  0  0  0  0  0  0  0
  1  2  2  0  0  0  0
  2 27  1  0  0  0  0
  2  3  1  0  0  0  0
  3  4  1  0  0  0  0
  3 28  1  0  0  0  0
  3 29  1  0  0  0  0
  4 25  1  0  0  0  0
  4  5  1  0  0  0  0
  4 26  1  0  0  0  0
  5  6  1  0  0  0  0
  5 30  1  0  0  0  0
  5 31  1  0  0  0  0
  6  7  1  0  0  0  0
  6 32  1  0  0  0  0
  6 33  1  0  0  0  0
  7  8  1  0  0  0  0
  7 25  1  0  0  0  0
  8 13  1  0  0  0  0
  8  9  2  0  0  0  0
  9 10  1  0  0  0  0
 10 11  2  0  0  0  0
 10 34  1  0  0  0  0
 11 12  1  0  0  0  0
 12 16  1  0  0  0  0
 12 13  2  0  0  0  0
 13 14  1  0  0  0  0
 14 15  2  0  0  0  0
 15 16  1  0  0  0  0
 15 35  1  0  0  0  0
 16 17  1  0  0  0  0
 17 24  1  0  0  0  0
 17 18  1  0  0  0  0
 17 36  1  0  0  0  0
 18 19  1  0  0  0  0
 18 37  1  0  0  0  0
 18 38  1  0  0  0  0
 19 20  1  0  0  0  0
 19 22  1  0  0  0  0
 19 24  1  0  0  0  0
 20 21  1  0  0  0  0
 20 39  1  0  0  0  0
 20 40  1  0  0  0  0
 21 41  1  0  0  0  0
 22 23  1  0  0  0  0
 22 42  1  0  0  0  0
 22 43  1  0  0  0  0
 23 44  1  0  0  0  0
 24 45  1  0  0  0  0
 24 46  1  0  0  0  0
 25 47  1  0  0  0  0
 25 48  1  0  0  0  0
 26 27  1  0  0  0  0
 26 49  1  0  0  0  0
 26 50  1  0  0  0  0
 27 51  1  0  0  0  0
M  END
> <s_m_source_file>
AV-unprocessed.smi

> <i_m_source_file_index>
84

> <i_lp_mmshare_version>
43012

> <i_f3d_flags>
0

> <s_epik_input>
W0NIMl0xW05IXUMoPU8pW0NIMl1bQ0BdMTJbQ0gyXVtDSDJdTihbQ0gyXTIpYyhuW2NIXW4zKWMoYzM0KW5bY0hdbjRbQ0hdKFtDSDJdNSlbQ0gyXUM1KFtDSDJdW09IXSlbQ0gyXVtPSF0=

> <s_epik_cmdline>
J2VwaWtfcHl0aG9uJywgJy1waCcsICc3LjAnLCAnLXRuJywgJzgnLCAnLW1hJywgJzIwMCcsICctbWV0YWxfYmluZGluZycsICctaW1hZScsICc8aW5maWxlLm1hZT4nLCAnLW9tYWUnLCAnPG91dGZpbGUubWFlPic=

> <r_lp_tautomer_probability>
1

> <r_epik_Ionization_Penalty>
0.00201507

> <r_epik_Ionization_Penalty_Charging>
0

> <r_epik_Ionization_Penalty_Neutral>
0.00201507

> <r_epik_State_Penalty>
0.00133787

> <r_epik_Charging_Adjusted_Penalty>
0.00133787

> <i_epik_Tot_Q>
0

> <i_epik_Tot_abs_Q>
0

> <r_epik_Metal_State_Penalty>
-0

> <b_epik_Metal_Only>
0

> <s_lp_Force_Field>
OPLS_2005

> <r_lp_Energy>
65.4538

> <b_lp_Chiralities_Consistent>
1

> <s_lp_Variant>
AV-unprocessed.smi:84-1

> <Gold.Version>
5.8.1

> <Gold.Id.Protein>
6NUR|6NUR_protein|mol2

> <Gold.PLP.Fitness>
49.3544

> <Gold.PLP.PLP>
-43.7141

> <Gold.PLP.part.hbond>
-3.8283

> <Gold.PLP.part.metal>
0.0000

> <Gold.PLP.part.buried>
-4.9691

> <Gold.PLP.part.nonpolar>
-35.7362

> <Gold.PLP.part.repulsive>
0.9498

> <Gold.PLP.ligand.clash>
0.0000

> <Gold.PLP.ligand.torsion>
0.4525

> <Gold.PLP.Chemscore.Hbond>
1.9440

> <Gold.PLP.Chemscore.CHOScore>
0.0199

> <Gold.PLP.Chemscore.Metal>
0.0000

> <Gold.Chemscore.Hbonds>
donor molecule, donor type, donor heavy atom, donor atom, acceptor molecule, acceptor atom, score
      L1  H    21    41       P1  7921  1.00
      L1  H    23    44       P1  7921  0.83
      L1  C    15    35       P1 10747  0.12

> <Gold.PLP.Chemscore.Internal.Correction>
0.6536

> <Gold.Rescore>
     Score         DG    S(hbond)    S(metal)    S(lipo)     H(rot)  DE(clash)    DE(int)     intcor
     10.20     -13.33       1.97        0.00      75.77       2.96       1.42       1.71       ----

> <Gold.Chemscore.Fitness>
10.2006

> <Gold.Chemscore.DG>
-13.3284

> <Gold.Chemscore.ZeroCoef>
-5.4800

> <Gold.Chemscore.Hbond>
1.9681

> <Gold.Chemscore.Metal>
0.0000

> <Gold.Chemscore.Lipo>
75.7713

> <Gold.Chemscore.Internal_Hbond>
0.0000

> <Gold.Chemscore.DEClash>
1.4161

> <Gold.Chemscore.DEInternal>
1.7117

> <Gold.Chemscore.Rot>
2.9649

> <Gold.Chemscore.Internal.Correction>
   9.000000E+99

> <Gold.Chemscore.Hbonds>
donor molecule, donor type, donor heavy atom, donor atom, acceptor molecule, acceptor atom, score
      L1  H    21    41       P1  7921  0.98
      L1  H    23    44       P1  7921  0.82

> <Gold.Chemscore.Hbond.Weighted>
-6.5733

> <Gold.Chemscore.Metal.Weighted>
-0.0000

> <Gold.Chemscore.Lipo.Weighted>
-8.8652

> <Gold.Chemscore.Internal_Hbond.Weighted>
0.0000

> <Gold.Chemscore.DEClash.Weighted>
1.4161

> <Gold.Chemscore.DEInternal.Weighted>
1.7117

> <Gold.Chemscore.Rot.Weighted>
7.5902

> <Gold.Chemscore.Internal.Correction.Weighted>
   9.000000E+99

> <Gold.Protein.RotatedTorsions>
[ 6907 6896 6895 6894 ] final  -99.24 input  -60.11 | X-H torsion
[ 7974 7965 7964 7962 ] final -177.89 input  175.53 | X-H torsion
[ 8008 7997 7996 7995 ] final   40.89 input   59.86 | X-H torsion
[ 10167 10162 10161 10158 ] final -170.92 input  -65.29 | X-H torsion
[ 10718 10713 10712 10709 ] final   77.04 input   66.30 | X-H torsion
[ 10763 10752 10751 10750 ] final   73.14 input  -60.55 | X-H torsion
[ 11005 11000 10999 10996 ] final -163.53 input  -57.11 | X-H torsion

> <Gold.Protein.ActiveResidues>
 VAL166  LYS551  ARG553  GLY616  TRP617  ASP618  TYR619  PRO620  LYS621  CYS622 
 ASP623  PHE694  ASN695  SER759  ASP760  ASP761  ALA762  ILE779  LEU786  VAL792 
 PHE793  MET794  SER795  GLU796  ALA797  LYS798  CYS799  TRP800  GLU811  SER814 

> <Gold.Protein.RotatedAtoms>
  150.7073  134.1071  159.3986 H   0  0  0  0  0  0  0  0  0  0  0  0  # atno 6907 bound_to 6896
  151.9057  135.0357  160.0519 H   0  0  0  0  0  0  0  0  0  0  0  0  # atno 6908 bound_to 6896
  152.2377  133.5074  159.5289 H   0  0  0  0  0  0  0  0  0  0  0  0  # atno 6909 bound_to 6896
  144.7129  140.0951  143.6419 H   0  0  0  0  0  0  0  0  0  0  0  0  # atno 7974 bound_to 7965
  155.2606  140.3359  155.4273 H   0  0  0  0  0  0  0  0  0  0  0  0  # atno 8008 bound_to 7997
  156.2176  140.1795  156.7595 H   0  0  0  0  0  0  0  0  0  0  0  0  # atno 8009 bound_to 7997
  154.5777  140.0659  156.9042 H   0  0  0  0  0  0  0  0  0  0  0  0  # atno 8010 bound_to 7997
  139.5833  144.1375  152.1543 H   0  0  0  0  0  0  0  0  0  0  0  0  # atno 10167 bound_to 10162
  157.6696  130.9803  150.1584 H   0  0  0  0  0  0  0  0  0  0  0  0  # atno 10718 bound_to 10713
  153.0502  135.5074  154.7849 H   0  0  0  0  0  0  0  0  0  0  0  0  # atno 10763 bound_to 10752
  154.6717  135.2954  154.9736 H   0  0  0  0  0  0  0  0  0  0  0  0  # atno 10764 bound_to 10752
  154.0552  135.6698  153.4857 H   0  0  0  0  0  0  0  0  0  0  0  0  # atno 10765 bound_to 10752
  140.5971  134.4986  157.5200 H   0  0  0  0  0  0  0  0  0  0  0  0  # atno 11005 bound_to 11000
  145.9586  139.2784  143.1169 LP  0  0  0  0  0  0  0  0  0  0  0  0  # atno 17320 bound_to 7965
  145.9245  140.9092  143.0388 LP  0  0  0  0  0  0  0  0  0  0  0  0  # atno 17321 bound_to 7965
  140.0932  144.5602  150.7040 LP  0  0  0  0  0  0  0  0  0  0  0  0  # atno 17342 bound_to 10162
  140.7108  143.2504  151.4586 LP  0  0  0  0  0  0  0  0  0  0  0  0  # atno 17343 bound_to 10162
  156.2366  130.3687  149.8384 LP  0  0  0  0  0  0  0  0  0  0  0  0  # atno 17370 bound_to 10713
  156.6196  130.8620  151.3472 LP  0  0  0  0  0  0  0  0  0  0  0  0  # atno 17371 bound_to 10713
  139.9249  134.8076  156.1100 LP  0  0  0  0  0  0  0  0  0  0  0  0  # atno 17394 bound_to 11000
  141.0897  133.6719  156.2513 LP  0  0  0  0  0  0  0  0  0  0  0  0  # atno 17395 bound_to 11000

$$$$
