AV-unprocessed.smi:1264|AV-procd|sdf|5314|dock10
  -GOLD-   22720 4443D 1   1.00000     0.00000
 Structure written by MMmdl.
 43 43  0  0  0  0  0  0  0  0  1 V2000
  147.1440  145.7037  160.6606 C   0  0  0  0  0  0  0  0  0  0  0  0
  148.1905  145.3048  159.7324 N   0  0  0  0  0  0  0  0  0  0  0  0
  149.2119  144.4962  160.0491 C   0  0  0  0  0  0  0  0  0  0  0  0
  149.3685  144.0198  161.1752 O   0  0  0  0  0  0  0  0  0  0  0  0
  150.2171  144.1975  158.9235 C   0  0  1  0  0  0  0  0  0  0  0  0
  151.6360  144.4924  159.4656 C   0  0  0  0  0  0  0  0  0  0  0  0
  152.2811  143.3484  160.2809 C   0  0  0  0  0  0  0  0  0  0  0  0
  152.4876  143.7784  161.7411 C   0  0  0  0  0  0  0  0  0  0  0  0
  153.6094  142.8684  159.6724 C   0  0  0  0  0  0  0  0  0  0  0  0
  150.1400  142.7854  158.5529 N   0  0  0  0  0  0  0  0  0  0  0  0
  149.0622  142.1709  158.0403 C   0  0  0  0  0  0  0  0  0  0  0  0
  148.0089  142.7502  157.7766 O   0  0  0  0  0  0  0  0  0  0  0  0
  149.1907  140.6670  157.8053 C   0  0  0  0  0  0  0  0  0  0  0  0
  150.3110  140.4070  156.8310 C   0  0  0  0  0  0  0  0  0  0  0  0
  151.5505  139.7503  157.0787 C   0  0  0  0  0  0  0  0  0  0  0  0
  152.0497  139.1527  158.3628 C   0  0  0  0  0  0  0  0  0  0  0  0
  152.3072  139.6967  155.9954 N   0  0  0  0  0  0  0  0  0  0  0  0
  151.5786  140.3355  154.9875 O   0  0  0  0  0  0  0  0  0  0  0  0
  150.3961  140.7497  155.5091 C   0  0  0  0  0  0  0  0  0  0  0  0
  149.4752  141.4706  154.5837 C   0  0  0  0  0  0  0  0  0  0  0  0
  146.4323  146.3592  160.1589 H   0  0  0  0  0  0  0  0  0  0  0  0
  147.5642  146.2424  161.5110 H   0  0  0  0  0  0  0  0  0  0  0  0
  146.6024  144.8328  161.0325 H   0  0  0  0  0  0  0  0  0  0  0  0
  148.1328  145.6601  158.7888 H   0  0  0  0  0  0  0  0  0  0  0  0
  149.9973  144.8292  158.0614 H   0  0  0  0  0  0  0  0  0  0  0  0
  152.2991  144.7421  158.6350 H   0  0  0  0  0  0  0  0  0  0  0  0
  151.5980  145.3868  160.0907 H   0  0  0  0  0  0  0  0  0  0  0  0
  151.5961  142.5001  160.2959 H   0  0  0  0  0  0  0  0  0  0  0  0
  153.1715  144.6251  161.8120 H   0  0  0  0  0  0  0  0  0  0  0  0
  152.9025  142.9648  162.3365 H   0  0  0  0  0  0  0  0  0  0  0  0
  151.5446  144.0726  162.2028 H   0  0  0  0  0  0  0  0  0  0  0  0
  154.3264  143.6858  159.5903 H   0  0  0  0  0  0  0  0  0  0  0  0
  153.4683  142.4444  158.6787 H   0  0  0  0  0  0  0  0  0  0  0  0
  154.0629  142.0913  160.2885 H   0  0  0  0  0  0  0  0  0  0  0  0
  150.9566  142.2233  158.7427 H   0  0  0  0  0  0  0  0  0  0  0  0
  149.3692  140.1718  158.7604 H   0  0  0  0  0  0  0  0  0  0  0  0
  148.2413  140.2771  157.4365 H   0  0  0  0  0  0  0  0  0  0  0  0
  151.8291  139.8045  159.2083 H   0  0  0  0  0  0  0  0  0  0  0  0
  153.1288  138.9956  158.3418 H   0  0  0  0  0  0  0  0  0  0  0  0
  151.5764  138.1897  158.5537 H   0  0  0  0  0  0  0  0  0  0  0  0
  148.4367  141.3424  154.8886 H   0  0  0  0  0  0  0  0  0  0  0  0
  149.5749  141.0972  153.5644 H   0  0  0  0  0  0  0  0  0  0  0  0
  149.6961  142.5381  154.5773 H   0  0  0  0  0  0  0  0  0  0  0  0
  1  2  1  0  0  0  0
  1 21  1  0  0  0  0
  1 22  1  0  0  0  0
  1 23  1  0  0  0  0
  2  3  1  0  0  0  0
  2 24  1  0  0  0  0
  3  4  2  0  0  0  0
  3  5  1  0  0  0  0
  5  6  1  0  0  0  0
  5 10  1  0  0  0  0
  5 25  1  0  0  0  0
  6  7  1  0  0  0  0
  6 26  1  0  0  0  0
  6 27  1  0  0  0  0
  7  8  1  0  0  0  0
  7  9  1  0  0  0  0
  7 28  1  0  0  0  0
  8 29  1  0  0  0  0
  8 30  1  0  0  0  0
  8 31  1  0  0  0  0
  9 32  1  0  0  0  0
  9 33  1  0  0  0  0
  9 34  1  0  0  0  0
 10 11  1  0  0  0  0
 10 35  1  0  0  0  0
 11 12  2  0  0  0  0
 11 13  1  0  0  0  0
 13 14  1  0  0  0  0
 13 36  1  0  0  0  0
 13 37  1  0  0  0  0
 14 19  2  0  0  0  0
 14 15  1  0  0  0  0
 15 16  1  0  0  0  0
 15 17  2  0  0  0  0
 16 38  1  0  0  0  0
 16 39  1  0  0  0  0
 16 40  1  0  0  0  0
 17 18  1  0  0  0  0
 18 19  1  0  0  0  0
 19 20  1  0  0  0  0
 20 41  1  0  0  0  0
 20 42  1  0  0  0  0
 20 43  1  0  0  0  0
M  END
> <s_m_source_file>
AV-unprocessed.smi

> <i_m_source_file_index>
1264

> <i_lp_mmshare_version>
43012

> <i_f3d_flags>
0

> <s_epik_input>
W0NIM11bTkhdQyg9TylbQ0BIXShbQ0gyXVtDSF0oW0NIM10pW0NIM10pW05IXUMoPU8pW0NIMl1jMWMoW0NIM10pbm9jMVtDSDNd

> <s_epik_cmdline>
J2VwaWtfcHl0aG9uJywgJy1waCcsICc3LjAnLCAnLXRuJywgJzgnLCAnLW1hJywgJzIwMCcsICctbWV0YWxfYmluZGluZycsICctaW1hZScsICc8aW5maWxlLm1hZT4nLCAnLW9tYWUnLCAnPG91dGZpbGUubWFlPic=

> <r_lp_tautomer_probability>
1

> <r_epik_Ionization_Penalty>
6.00781e-08

> <r_epik_Ionization_Penalty_Charging>
0

> <r_epik_Ionization_Penalty_Neutral>
6.00781e-08

> <r_epik_State_Penalty>
-0

> <r_epik_Charging_Adjusted_Penalty>
0

> <i_epik_Tot_Q>
0

> <i_epik_Tot_abs_Q>
0

> <r_epik_Metal_State_Penalty>
-0

> <b_epik_Metal_Only>
0

> <s_lp_Force_Field>
OPLS_2005

> <r_lp_Energy>
-0.987692

> <b_lp_Chiralities_Consistent>
1

> <s_lp_Variant>
AV-unprocessed.smi:1264-2

> <Gold.Version>
5.8.1

> <Gold.Id.Protein>
6NUR|6NUR_protein|mol2

> <Gold.PLP.Fitness>
45.7423

> <Gold.PLP.PLP>
-37.9877

> <Gold.PLP.part.hbond>
-3.9222

> <Gold.PLP.part.metal>
0.0000

> <Gold.PLP.part.buried>
-7.4540

> <Gold.PLP.part.nonpolar>
-28.2590

> <Gold.PLP.part.repulsive>
0.7152

> <Gold.PLP.ligand.clash>
0.0000

> <Gold.PLP.ligand.torsion>
1.1679

> <Gold.PLP.Chemscore.Hbond>
3.3440

> <Gold.PLP.Chemscore.CHOScore>
0.0000

> <Gold.PLP.Chemscore.Metal>
0.0000

> <Gold.Chemscore.Hbonds>
donor molecule, donor type, donor heavy atom, donor atom, acceptor molecule, acceptor atom, score
      L1  H     2    24       P1  8029  1.00
      P1  H  6933  6944       L1     4  0.38
      P1  H  7989  7998       L1    18  0.94
      P1  H  7997  8009       L1    17  0.84

> <Gold.PLP.Chemscore.Internal.Correction>
0.0584

> <Gold.Rescore>
     Score         DG    S(hbond)    S(metal)    S(lipo)     H(rot)  DE(clash)    DE(int)     intcor
     20.34     -21.59       3.19        0.00      92.46       2.09       0.01       1.24       ----

> <Gold.Chemscore.Fitness>
20.3381

> <Gold.Chemscore.DG>
-21.5927

> <Gold.Chemscore.ZeroCoef>
-5.4800

> <Gold.Chemscore.Hbond>
3.1896

> <Gold.Chemscore.Metal>
0.0000

> <Gold.Chemscore.Lipo>
92.4595

> <Gold.Chemscore.Internal_Hbond>
0.0000

> <Gold.Chemscore.DEClash>
0.0149

> <Gold.Chemscore.DEInternal>
1.2396

> <Gold.Chemscore.Rot>
2.0931

> <Gold.Chemscore.Internal.Correction>
   9.000000E+99

> <Gold.Chemscore.Hbonds>
donor molecule, donor type, donor heavy atom, donor atom, acceptor molecule, acceptor atom, score
      L1  H     2    24       P1  8029  0.95
      P1  H  6933  6944       L1     4  0.35
      P1  H  7989  7998       L1    18  0.53
      P1  H  7997  8009       L1    17  0.76

> <Gold.Chemscore.Hbond.Weighted>
-10.6533

> <Gold.Chemscore.Metal.Weighted>
-0.0000

> <Gold.Chemscore.Lipo.Weighted>
-10.8178

> <Gold.Chemscore.Internal_Hbond.Weighted>
0.0000

> <Gold.Chemscore.DEClash.Weighted>
0.0149

> <Gold.Chemscore.DEInternal.Weighted>
1.2396

> <Gold.Chemscore.Rot.Weighted>
5.3584

> <Gold.Chemscore.Internal.Correction.Weighted>
   9.000000E+99

> <Gold.Protein.RotatedTorsions>
[ 6907 6896 6895 6894 ] final  -43.46 input  -60.11 | X-H torsion
[ 7974 7965 7964 7962 ] final -158.35 input  175.53 | X-H torsion
[ 8008 7997 7996 7995 ] final -157.08 input   59.86 | X-H torsion
[ 10167 10162 10161 10158 ] final  126.42 input  -65.29 | X-H torsion
[ 10718 10713 10712 10709 ] final  -67.97 input   66.30 | X-H torsion
[ 10763 10752 10751 10750 ] final  147.19 input  -60.55 | X-H torsion
[ 11005 11000 10999 10996 ] final -134.42 input  -57.11 | X-H torsion

> <Gold.Protein.ActiveResidues>
 VAL166  LYS551  ARG553  GLY616  TRP617  ASP618  TYR619  PRO620  LYS621  CYS622 
 ASP623  PHE694  ASN695  SER759  ASP760  ASP761  ALA762  ILE779  LEU786  VAL792 
 PHE793  MET794  SER795  GLU796  ALA797  LYS798  CYS799  TRP800  GLU811  SER814 

> <Gold.Protein.RotatedAtoms>
  150.9437  134.8844  159.7628 H   0  0  0  0  0  0  0  0  0  0  0  0  # atno 6907 bound_to 6896
  152.5091  134.3905  159.9392 H   0  0  0  0  0  0  0  0  0  0  0  0  # atno 6908 bound_to 6896
  151.3925  133.3744  159.2757 H   0  0  0  0  0  0  0  0  0  0  0  0  # atno 6909 bound_to 6896
  144.7509  140.3840  143.6048 H   0  0  0  0  0  0  0  0  0  0  0  0  # atno 7974 bound_to 7965
  155.7270  140.0797  157.2306 H   0  0  0  0  0  0  0  0  0  0  0  0  # atno 8008 bound_to 7997
  154.4037  140.1602  156.2520 H   0  0  0  0  0  0  0  0  0  0  0  0  # atno 8009 bound_to 7997
  155.9144  140.3402  155.6126 H   0  0  0  0  0  0  0  0  0  0  0  0  # atno 8010 bound_to 7997
  139.5632  144.6895  151.3984 H   0  0  0  0  0  0  0  0  0  0  0  0  # atno 10167 bound_to 10162
  156.0530  130.4287  150.1932 H   0  0  0  0  0  0  0  0  0  0  0  0  # atno 10718 bound_to 10713
  154.0342  135.2895  155.3364 H   0  0  0  0  0  0  0  0  0  0  0  0  # atno 10763 bound_to 10752
  154.6969  135.5204  153.8474 H   0  0  0  0  0  0  0  0  0  0  0  0  # atno 10764 bound_to 10752
  153.0627  135.6619  154.0552 H   0  0  0  0  0  0  0  0  0  0  0  0  # atno 10765 bound_to 10752
  140.8991  134.1713  157.4473 H   0  0  0  0  0  0  0  0  0  0  0  0  # atno 11005 bound_to 11000
  145.6947  139.1647  143.2627 LP  0  0  0  0  0  0  0  0  0  0  0  0  # atno 17320 bound_to 7965
  146.1458  140.6994  142.9345 LP  0  0  0  0  0  0  0  0  0  0  0  0  # atno 17321 bound_to 7965
  140.6913  143.7854  150.7260 LP  0  0  0  0  0  0  0  0  0  0  0  0  # atno 17342 bound_to 10162
  140.1337  143.4503  152.2238 LP  0  0  0  0  0  0  0  0  0  0  0  0  # atno 17343 bound_to 10162
  157.0012  130.9923  151.3390 LP  0  0  0  0  0  0  0  0  0  0  0  0  # atno 17370 bound_to 10713
  157.5473  130.8159  149.8102 LP  0  0  0  0  0  0  0  0  0  0  0  0  # atno 17371 bound_to 10713
  139.8740  134.9891  156.5440 LP  0  0  0  0  0  0  0  0  0  0  0  0  # atno 17394 bound_to 11000
  140.8252  133.8322  155.8932 LP  0  0  0  0  0  0  0  0  0  0  0  0  # atno 17395 bound_to 11000

$$$$
