#       Name:                AV-unprocessed.smi:2459
#       Creating user name   scv26
#       Creation time:       Fri Mar 27 13:35:19 2020


#       File generated by GOLD software.
#

@<TRIPOS>MOLECULE
AV-unprocessed.smi:2459
    52    53     1
SMALL
NO_CHARGES


@<TRIPOS>ATOM
      1 ****        -4.3424   3.0958  -1.2878 C.3            1 S1                 0.0000
      2 ****        -5.0580   2.5250  -0.1942 O.3            1 S1                 0.0000
      3 ****        -4.7625   1.1757   0.1887 C.3            1 S1                 0.0000
      4 ****        -5.6670   0.9123   1.4084 C.3            1 S1                 0.0000
      5 ****        -5.1622   0.2043  -0.9501 C.3            1 S1                 0.0000
      6 ****        -3.2764   1.0612   0.6164 C.2            1 S1                 0.0000
      7 ****        -2.8871   1.6987   1.5947 O.2            1 S1                 0.0000
      8 ****        -2.4800   0.2627  -0.1217 N.am           1 S1                 0.0000
      9 ****        -1.0916  -0.0066   0.0223 C.ar           1 S1                 0.0000
     10 ****        -0.2018   0.7849   0.7864 C.ar           1 S1                 0.0000
     11 ****         1.1073   0.4610   0.8441 N.pl3          1 S1                 1.0000
     12 ****         1.6521  -0.5992   0.1992 C.ar           1 S1                 0.0000
     13 ****         3.0371  -0.8224   0.3146 N.3            1 S1                 0.0000
     14 ****         3.7924  -0.3827  -0.8569 C.3            1 S1                 0.0000
     15 ****         5.2274  -0.9361  -0.8241 C.3            1 S1                 0.0000
     16 ****         5.9264  -0.5764   0.4966 C.3            1 S1                 0.0000
     17 ****         5.0772  -1.0402   1.6908 C.3            1 S1                 0.0000
     18 ****         3.6477  -0.4795   1.5990 C.3            1 S1                 0.0000
     19 ****         0.8075  -1.4277  -0.5844 C.ar           1 S1                 0.0000
     20 ****         1.3368  -2.6472  -1.3209 C.3            1 S1                 0.0000
     21 ****        -0.5677  -1.1177  -0.6710 C.ar           1 S1                 0.0000
     22 ****        -4.6908   4.1171  -1.4409 H              1 S1                 0.0000
     23 ****        -4.5160   2.5545  -2.2171 H              1 S1                 0.0000
     24 ****        -3.2688   3.1475  -1.1062 H              1 S1                 0.0000
     25 ****        -5.5157  -0.0909   1.8089 H              1 S1                 0.0000
     26 ****        -6.7206   1.0023   1.1415 H              1 S1                 0.0000
     27 ****        -5.4804   1.6229   2.2148 H              1 S1                 0.0000
     28 ****        -5.0749  -0.8354  -0.6316 H              1 S1                 0.0000
     29 ****        -4.5482   0.3229  -1.8429 H              1 S1                 0.0000
     30 ****        -6.1986   0.3634  -1.2494 H              1 S1                 0.0000
     31 ****        -2.9435  -0.2458  -0.8608 H              1 S1                 0.0000
     32 ****        -0.4702   1.6709   1.3413 H              1 S1                 0.0000
     33 ****         3.2999  -0.6971  -1.7767 H              1 S1                 0.0000
     34 ****         3.8158   0.7079  -0.8714 H              1 S1                 0.0000
     35 ****         5.2027  -2.0205  -0.9409 H              1 S1                 0.0000
     36 ****         5.7976  -0.5465  -1.6679 H              1 S1                 0.0000
     37 ****         6.9161  -1.0323   0.5363 H              1 S1                 0.0000
     38 ****         6.0768   0.5026   0.5503 H              1 S1                 0.0000
     39 ****         5.0413  -2.1303   1.7119 H              1 S1                 0.0000
     40 ****         5.5424  -0.7274   2.6259 H              1 S1                 0.0000
     41 ****         3.6711   0.6052   1.7135 H              1 S1                 0.0000
     42 ****         3.0424  -0.8776   2.4145 H              1 S1                 0.0000
     43 ****         0.5424  -3.3755  -1.4866 H              1 S1                 0.0000
     44 ****         2.1239  -3.1445  -0.7537 H              1 S1                 0.0000
     45 ****         1.7379  -2.3601  -2.2927 H              1 S1                 0.0000
     46 ****        -1.2227  -1.7371  -1.2670 H              1 S1                 0.0000
     47 ****         1.7231   1.0562   1.3984 H              1 S1                 0.0000
     48 ****        -6.0297   2.5593  -0.4277 LP             1 S1                 0.0000
     49 ****        -4.8864   3.1024   0.6040 LP             1 S1                 0.0000
     50 ****        -3.5259   2.2789   2.0999 LP             1 S1                 0.0000
     51 ****        -1.9319   1.6365   1.8842 LP             1 S1                 0.0000
     52 ****         3.1087  -1.8198   0.3225 LP             1 S1                 0.0000
@<TRIPOS>BOND
    1    1    2 1     
    2    1   22 1     
    3    1   23 1     
    4    1   24 1     
    5    2    3 1     
    6    3    4 1     
    7    3    5 1     
    8    3    6 1     
    9    4   25 1     
   10    4   26 1     
   11    4   27 1     
   12    5   28 1     
   13    5   29 1     
   14    5   30 1     
   15    6    7 2     
   16    6    8 am    
   17    8    9 1     
   18    8   31 1     
   19    9   21 ar    
   20    9   10 ar    
   21   10   11 ar    
   22   10   32 1     
   23   11   12 ar    
   24   11   47 1     
   25   12   13 1     
   26   12   19 ar    
   27   13   18 1     
   28   13   14 1     
   29   14   15 1     
   30   14   33 1     
   31   14   34 1     
   32   15   16 1     
   33   15   35 1     
   34   15   36 1     
   35   16   17 1     
   36   16   37 1     
   37   16   38 1     
   38   17   18 1     
   39   17   39 1     
   40   17   40 1     
   41   18   41 1     
   42   18   42 1     
   43   19   20 1     
   44   19   21 ar    
   45   20   43 1     
   46   20   44 1     
   47   20   45 1     
   48   21   46 1     
   49    2   48 1     
   50    2   49 1     
   51    7   50 1     
   52    7   51 1     
   53   13   52 1     
@<TRIPOS>SUBSTRUCTURE
      1 S1             1
@<TRIPOS>SET
LONE_PAIRS      STATIC     ATOMS    <user>   **** ""
5 48 49 50 51 52
DONOR_HYDROGENS      STATIC     ATOMS    <user>   **** ""
2 31 47
ATOM$BLUE        STATIC     ATOMS    COLORGROUP SYSTEM
5 48 49 50 51 52
ATOM$RED        STATIC     ATOMS    COLORGROUP SYSTEM
2 31 47
