AV-unprocessed.smi:1674|AV-procd|sdf|6714|dock5
  -GOLD-   22720 7453D 1   1.00000     0.00000
 Structure written by MMmdl.
 47 48  0  0  0  0  0  0  0  0  1 V2000
  145.6645  139.3070  157.1518 C   0  0  0  0  0  0  0  0  0  0  0  0
  145.7333  140.4770  156.2085 C   0  0  0  0  0  0  0  0  0  0  0  0
  146.8056  140.5853  155.4955 N   0  0  0  0  0  0  0  0  0  0  0  0
  146.9644  141.6130  154.5861 N   0  0  0  0  0  0  0  0  0  0  0  0
  148.2137  141.5476  153.8144 C   0  0  0  0  0  0  0  0  0  0  0  0
  149.2377  140.5554  154.4141 C   0  0  1  0  0  0  0  0  0  0  0  0
  150.1986  140.2507  153.4241 O   0  0  0  0  0  0  0  0  0  0  0  0
  149.8763  141.0691  155.6986 C   0  0  0  0  0  0  0  0  0  0  0  0
  149.0656  141.5820  156.7335 C   0  0  0  0  0  0  0  0  0  0  0  0
  149.6506  142.0905  157.9087 C   0  0  0  0  0  0  0  0  0  0  0  0
  151.0526  142.0877  158.0614 C   0  0  0  0  0  0  0  0  0  0  0  0
  151.6870  142.6347  159.3287 C   0  0  0  0  0  0  0  0  0  0  0  0
  151.4954  144.1551  159.5059 C   0  0  0  0  0  0  0  0  0  0  0  0
  152.3888  144.9737  158.5583 C   0  0  0  0  0  0  0  0  0  0  0  0
  151.7274  144.5678  160.9670 C   0  0  0  0  0  0  0  0  0  0  0  0
  151.8649  141.5761  157.0286 C   0  0  0  0  0  0  0  0  0  0  0  0
  151.2798  141.0699  155.8523 C   0  0  0  0  0  0  0  0  0  0  0  0
  146.0536  142.6032  154.3667 C   0  0  0  0  0  0  0  0  0  0  0  0
  146.2395  143.5038  153.5472 O   0  0  0  0  0  0  0  0  0  0  0  0
  144.8442  142.4792  155.1836 C   0  0  0  0  0  0  0  0  0  0  0  0
  143.8597  143.4925  154.9796 C   0  0  0  0  0  0  0  0  0  0  0  0
  143.0763  144.3281  154.8109 N   0  0  0  0  0  0  0  0  0  0  0  0
  144.6698  141.4663  156.0689 C   0  0  0  0  0  0  0  0  0  0  0  0
  143.4311  141.2879  156.9357 C   0  0  0  0  0  0  0  0  0  0  0  0
  145.5553  139.6464  158.1818 H   0  0  0  0  0  0  0  0  0  0  0  0
  146.5635  138.6904  157.1021 H   0  0  0  0  0  0  0  0  0  0  0  0
  144.8144  138.6679  156.9127 H   0  0  0  0  0  0  0  0  0  0  0  0
  148.0005  141.2885  152.7757 H   0  0  0  0  0  0  0  0  0  0  0  0
  148.6611  142.5431  153.7746 H   0  0  0  0  0  0  0  0  0  0  0  0
  148.7265  139.6193  154.6418 H   0  0  0  0  0  0  0  0  0  0  0  0
  149.8220  140.4334  152.5766 H   0  0  0  0  0  0  0  0  0  0  0  0
  147.9909  141.5973  156.6252 H   0  0  0  0  0  0  0  0  0  0  0  0
  149.0188  142.4813  158.6929 H   0  0  0  0  0  0  0  0  0  0  0  0
  151.2482  142.1069  160.1766 H   0  0  0  0  0  0  0  0  0  0  0  0
  152.7498  142.3883  159.3392 H   0  0  0  0  0  0  0  0  0  0  0  0
  150.4576  144.3931  159.2688 H   0  0  0  0  0  0  0  0  0  0  0  0
  153.4446  144.7562  158.7239 H   0  0  0  0  0  0  0  0  0  0  0  0
  152.2423  146.0438  158.7082 H   0  0  0  0  0  0  0  0  0  0  0  0
  152.1647  144.7618  157.5128 H   0  0  0  0  0  0  0  0  0  0  0  0
  152.7496  144.3547  161.2814 H   0  0  0  0  0  0  0  0  0  0  0  0
  151.0544  144.0339  161.6386 H   0  0  0  0  0  0  0  0  0  0  0  0
  151.5514  145.6347  161.1078 H   0  0  0  0  0  0  0  0  0  0  0  0
  152.9399  141.5724  157.1354 H   0  0  0  0  0  0  0  0  0  0  0  0
  151.9128  140.6897  155.0639 H   0  0  0  0  0  0  0  0  0  0  0  0
  142.6947  142.0738  156.7714 H   0  0  0  0  0  0  0  0  0  0  0  0
  143.6978  141.3054  157.9928 H   0  0  0  0  0  0  0  0  0  0  0  0
  142.9468  140.3352  156.7186 H   0  0  0  0  0  0  0  0  0  0  0  0
  1  2  1  0  0  0  0
  1 25  1  0  0  0  0
  1 26  1  0  0  0  0
  1 27  1  0  0  0  0
  2 23  1  0  0  0  0
  2  3  2  0  0  0  0
  3  4  1  0  0  0  0
  4  5  1  0  0  0  0
  4 18  1  0  0  0  0
  5  6  1  0  0  0  0
  5 28  1  0  0  0  0
  5 29  1  0  0  0  0
  6  7  1  0  0  0  0
  6  8  1  0  0  0  0
  6 30  1  0  0  0  0
  7 31  1  0  0  0  0
  8 17  1  0  0  0  0
  8  9  2  0  0  0  0
  9 10  1  0  0  0  0
  9 32  1  0  0  0  0
 10 11  2  0  0  0  0
 10 33  1  0  0  0  0
 11 12  1  0  0  0  0
 11 16  1  0  0  0  0
 12 13  1  0  0  0  0
 12 34  1  0  0  0  0
 12 35  1  0  0  0  0
 13 14  1  0  0  0  0
 13 15  1  0  0  0  0
 13 36  1  0  0  0  0
 14 37  1  0  0  0  0
 14 38  1  0  0  0  0
 14 39  1  0  0  0  0
 15 40  1  0  0  0  0
 15 41  1  0  0  0  0
 15 42  1  0  0  0  0
 16 17  2  0  0  0  0
 16 43  1  0  0  0  0
 17 44  1  0  0  0  0
 18 19  2  0  0  0  0
 18 20  1  0  0  0  0
 20 21  1  0  0  0  0
 20 23  2  0  0  0  0
 21 22  3  0  0  0  0
 23 24  1  0  0  0  0
 24 45  1  0  0  0  0
 24 46  1  0  0  0  0
 24 47  1  0  0  0  0
M  END
> <s_m_source_file>
AV-unprocessed.smi

> <i_m_source_file_index>
1674

> <i_lp_mmshare_version>
43012

> <i_f3d_flags>
0

> <s_epik_input>
TiNDYyhjMVtDSDNdKWMoPU8pbihuYzFbQ0gzXSlbQ0gyXVtDQEhdKFtPSF0pYzJbY0hdW2NIXWMoW2NIXVtjSF0yKVtDSDJdW0NIXShbQ0gzXSlbQ0gzXQ==

> <s_epik_cmdline>
J2VwaWtfcHl0aG9uJywgJy1waCcsICc3LjAnLCAnLXRuJywgJzgnLCAnLW1hJywgJzIwMCcsICctbWV0YWxfYmluZGluZycsICctaW1hZScsICc8aW5maWxlLm1hZT4nLCAnLW9tYWUnLCAnPG91dGZpbGUubWFlPic=

> <r_lp_tautomer_probability>
1

> <r_epik_Ionization_Penalty>
4.60566e-08

> <r_epik_Ionization_Penalty_Charging>
1.40848e-10

> <r_epik_Ionization_Penalty_Neutral>
4.59158e-08

> <r_epik_State_Penalty>
-0

> <r_epik_Charging_Adjusted_Penalty>
1.40848e-10

> <i_epik_Tot_Q>
0

> <i_epik_Tot_abs_Q>
0

> <r_epik_Metal_State_Penalty>
-0

> <b_epik_Metal_Only>
0

> <s_lp_Force_Field>
OPLS_2005

> <r_lp_Energy>
26.1271

> <b_lp_Chiralities_Consistent>
1

> <s_lp_Variant>
AV-unprocessed.smi:1674-2

> <Gold.Version>
5.8.1

> <Gold.Id.Protein>
6NUR|6NUR_protein|mol2

> <Gold.PLP.Fitness>
47.8043

> <Gold.PLP.PLP>
-43.7172

> <Gold.PLP.part.hbond>
-2.6157

> <Gold.PLP.part.metal>
0.0000

> <Gold.PLP.part.buried>
-2.6110

> <Gold.PLP.part.nonpolar>
-37.3407

> <Gold.PLP.part.repulsive>
0.3654

> <Gold.PLP.ligand.clash>
0.0000

> <Gold.PLP.ligand.torsion>
0.5948

> <Gold.PLP.Chemscore.Hbond>
1.7200

> <Gold.PLP.Chemscore.CHOScore>
0.0000

> <Gold.PLP.Chemscore.Metal>
0.0000

> <Gold.Chemscore.Hbonds>
donor molecule, donor type, donor heavy atom, donor atom, acceptor molecule, acceptor atom, score
      L1  H     7    31       P1  7957  0.87
      P1  H  7989  7998       L1     7  0.58

> <Gold.PLP.Chemscore.Internal.Correction>
0.1167

> <Gold.Rescore>
     Score         DG    S(hbond)    S(metal)    S(lipo)     H(rot)  DE(clash)    DE(int)     intcor
     13.83     -15.90       0.98        0.00     107.54       2.13       1.29       0.78       ----

> <Gold.Chemscore.Fitness>
13.8302

> <Gold.Chemscore.DG>
-15.8961

> <Gold.Chemscore.ZeroCoef>
-5.4800

> <Gold.Chemscore.Hbond>
0.9841

> <Gold.Chemscore.Metal>
0.0000

> <Gold.Chemscore.Lipo>
107.5373

> <Gold.Chemscore.Internal_Hbond>
0.0000

> <Gold.Chemscore.DEClash>
1.2874

> <Gold.Chemscore.DEInternal>
0.7785

> <Gold.Chemscore.Rot>
2.1299

> <Gold.Chemscore.Internal.Correction>
   9.000000E+99

> <Gold.Chemscore.Hbonds>
donor molecule, donor type, donor heavy atom, donor atom, acceptor molecule, acceptor atom, score
      L1  H     7    31       P1  7957  0.81
      P1  H  7989  7998       L1     7  0.32

> <Gold.Chemscore.Hbond.Weighted>
-3.2869

> <Gold.Chemscore.Metal.Weighted>
-0.0000

> <Gold.Chemscore.Lipo.Weighted>
-12.5819

> <Gold.Chemscore.Internal_Hbond.Weighted>
0.0000

> <Gold.Chemscore.DEClash.Weighted>
1.2874

> <Gold.Chemscore.DEInternal.Weighted>
0.7785

> <Gold.Chemscore.Rot.Weighted>
5.4526

> <Gold.Chemscore.Internal.Correction.Weighted>
   9.000000E+99

> <Gold.Protein.RotatedTorsions>
[ 6907 6896 6895 6894 ] final  -79.61 input  -60.11 | X-H torsion
[ 7974 7965 7964 7962 ] final   89.29 input  175.53 | X-H torsion
[ 8008 7997 7996 7995 ] final   93.91 input   59.86 | X-H torsion
[ 10167 10162 10161 10158 ] final  131.97 input  -65.29 | X-H torsion
[ 10718 10713 10712 10709 ] final  -85.82 input   66.30 | X-H torsion
[ 10763 10752 10751 10750 ] final  -83.87 input  -60.55 | X-H torsion
[ 11005 11000 10999 10996 ] final  -53.36 input  -57.11 | X-H torsion

> <Gold.Protein.ActiveResidues>
 VAL166  LYS551  ARG553  GLY616  TRP617  ASP618  TYR619  PRO620  LYS621  CYS622 
 ASP623  PHE694  ASN695  SER759  ASP760  ASP761  ALA762  ILE779  LEU786  VAL792 
 PHE793  MET794  SER795  GLU796  ALA797  LYS798  CYS799  TRP800  GLU811  SER814 

> <Gold.Protein.RotatedAtoms>
  150.6946  134.4094  159.5154 H   0  0  0  0  0  0  0  0  0  0  0  0  # atno 6907 bound_to 6896
  152.1855  134.8714  160.0531 H   0  0  0  0  0  0  0  0  0  0  0  0  # atno 6908 bound_to 6896
  151.9689  133.3684  159.4100 H   0  0  0  0  0  0  0  0  0  0  0  0  # atno 6909 bound_to 6896
  145.5343  139.2285  143.2601 H   0  0  0  0  0  0  0  0  0  0  0  0  # atno 7974 bound_to 7965
  156.0521  140.3307  155.7362 H   0  0  0  0  0  0  0  0  0  0  0  0  # atno 8008 bound_to 7997
  155.5586  140.0617  157.2851 H   0  0  0  0  0  0  0  0  0  0  0  0  # atno 8009 bound_to 7997
  154.4440  140.1881  156.0747 H   0  0  0  0  0  0  0  0  0  0  0  0  # atno 8010 bound_to 7997
  139.5360  144.6683  151.4784 H   0  0  0  0  0  0  0  0  0  0  0  0  # atno 10167 bound_to 10162
  155.9994  130.4744  150.4620 H   0  0  0  0  0  0  0  0  0  0  0  0  # atno 10718 bound_to 10713
  154.5928  135.5541  153.7295 H   0  0  0  0  0  0  0  0  0  0  0  0  # atno 10763 bound_to 10752
  153.0123  135.6347  154.1825 H   0  0  0  0  0  0  0  0  0  0  0  0  # atno 10764 bound_to 10752
  154.1766  135.2889  155.3045 H   0  0  0  0  0  0  0  0  0  0  0  0  # atno 10765 bound_to 10752
  141.0972  133.6623  156.4161 H   0  0  0  0  0  0  0  0  0  0  0  0  # atno 11005 bound_to 11000
  146.2023  140.6161  142.9097 LP  0  0  0  0  0  0  0  0  0  0  0  0  # atno 17320 bound_to 7965
  144.7609  140.5420  143.6736 LP  0  0  0  0  0  0  0  0  0  0  0  0  # atno 17321 bound_to 7965
  140.6567  143.8585  150.6842 LP  0  0  0  0  0  0  0  0  0  0  0  0  # atno 17342 bound_to 10162
  140.1967  143.3992  152.1823 LP  0  0  0  0  0  0  0  0  0  0  0  0  # atno 17343 bound_to 10162
  157.2643  131.0573  151.2300 LP  0  0  0  0  0  0  0  0  0  0  0  0  # atno 17370 bound_to 10713
  157.3403  130.7030  149.6378 LP  0  0  0  0  0  0  0  0  0  0  0  0  # atno 17371 bound_to 10713
  140.5111  134.6394  157.5284 LP  0  0  0  0  0  0  0  0  0  0  0  0  # atno 17394 bound_to 11000
  139.9812  134.7134  155.9856 LP  0  0  0  0  0  0  0  0  0  0  0  0  # atno 17395 bound_to 11000

$$$$
