AV-unprocessed.smi:136|AV-procd|sdf|1172|dock2
  -GOLD-   2262018313D 1   1.00000     0.00000
 Structure written by MMmdl.
 54 58  0  0  0  0  0  0  0  0  1 V2000
  153.0072  136.7881  159.1755 O   0  0  0  0  0  0  0  0  0  0  0  0
  154.0856  137.0967  159.6863 C   0  0  0  0  0  0  0  0  0  0  0  0
  155.2060  136.0419  159.8135 C   0  0  0  0  0  0  0  0  0  0  0  0
  155.4510  135.2864  158.5657 N   0  0  0  0  0  0  0  0  0  0  0  0
  154.7887  134.0478  158.3793 C   0  0  0  0  0  0  0  0  0  0  0  0
  154.0175  133.6014  159.2297 O   0  0  0  0  0  0  0  0  0  0  0  0
  155.0890  133.3551  157.1315 C   0  0  0  0  0  0  0  0  0  0  0  0
  154.4899  132.1831  156.8604 F   0  0  0  0  0  0  0  0  0  0  0  0
  155.9584  133.8736  156.2399 C   0  0  0  0  0  0  0  0  0  0  0  0
  156.6170  135.0732  156.4457 N   0  0  0  0  0  0  0  0  0  0  0  0
  157.5910  135.6429  155.4343 C   0  0  1  0  0  0  0  0  0  0  0  0
  158.6462  134.5902  155.0397 C   0  0  0  0  0  0  0  0  0  0  0  0
  158.5585  134.5727  153.5261 C   0  0  0  0  0  0  0  0  0  0  0  0
  157.1122  134.9787  153.2877 C   0  0  0  0  0  0  0  0  0  0  0  0
  156.9107  135.9930  154.2625 O   0  0  0  0  0  0  0  0  0  0  0  0
  156.3632  135.8136  157.6209 C   0  0  0  0  0  0  0  0  0  0  0  0
  156.9313  136.8901  157.8184 O   0  0  0  0  0  0  0  0  0  0  0  0
  154.3246  138.3426  160.1527 N   0  0  0  0  0  0  0  0  0  0  0  0
  153.4520  139.3709  160.0052 N   0  0  0  0  0  0  0  0  0  0  0  0
  153.9880  140.4573  160.4227 C   0  0  0  0  0  0  0  0  0  0  0  0
  153.3201  141.7775  160.4136 C   0  0  0  0  0  0  0  0  0  0  0  0
  152.5008  142.1334  159.3182 C   0  0  0  0  0  0  0  0  0  0  0  0
  151.8651  143.3903  159.3081 C   0  0  0  0  0  0  0  0  0  0  0  0
  152.0467  144.2844  160.3824 C   0  0  0  0  0  0  0  0  0  0  0  0
  151.2659  145.8230  160.3634 Cl  0  0  0  0  0  0  0  0  0  0  0  0
  152.8652  143.9245  161.4717 C   0  0  0  0  0  0  0  0  0  0  0  0
  153.5065  142.6704  161.4929 C   0  0  0  0  0  0  0  0  0  0  0  0
  155.3758  140.2834  160.9410 C   0  0  0  0  0  0  0  0  0  0  0  0
  155.5796  138.7745  160.7812 C   0  0  1  0  0  0  0  0  0  0  0  0
  155.8600  138.0808  162.0817 C   0  0  0  0  0  0  0  0  0  0  0  0
  155.2565  137.0464  162.7419 C   0  0  0  0  0  0  0  0  0  0  0  0
  156.0064  136.8374  163.9323 C   0  0  0  0  0  0  0  0  0  0  0  0
  157.0164  137.7562  163.9074 C   0  0  0  0  0  0  0  0  0  0  0  0
  156.9446  138.5193  162.7836 O   0  0  0  0  0  0  0  0  0  0  0  0
  156.1169  136.5408  160.1484 H   0  0  0  0  0  0  0  0  0  0  0  0
  154.9603  135.3612  160.6303 H   0  0  0  0  0  0  0  0  0  0  0  0
  156.1315  133.3119  155.3348 H   0  0  0  0  0  0  0  0  0  0  0  0
  158.0041  136.5392  155.9002 H   0  0  0  0  0  0  0  0  0  0  0  0
  159.6335  134.8709  155.4074 H   0  0  0  0  0  0  0  0  0  0  0  0
  158.3805  133.6138  155.4480 H   0  0  0  0  0  0  0  0  0  0  0  0
  159.2303  135.3200  153.1020 H   0  0  0  0  0  0  0  0  0  0  0  0
  158.8072  133.6029  153.0943 H   0  0  0  0  0  0  0  0  0  0  0  0
  156.9379  135.3509  152.2783 H   0  0  0  0  0  0  0  0  0  0  0  0
  156.4381  134.1406  153.4690 H   0  0  0  0  0  0  0  0  0  0  0  0
  152.3478  141.4615  158.4859 H   0  0  0  0  0  0  0  0  0  0  0  0
  151.2373  143.6672  158.4741 H   0  0  0  0  0  0  0  0  0  0  0  0
  153.0029  144.6116  162.2938 H   0  0  0  0  0  0  0  0  0  0  0  0
  154.1300  142.4191  162.3380 H   0  0  0  0  0  0  0  0  0  0  0  0
  156.0940  140.8489  160.3461 H   0  0  0  0  0  0  0  0  0  0  0  0
  155.4507  140.6049  161.9809 H   0  0  0  0  0  0  0  0  0  0  0  0
  156.4008  138.5903  160.0862 H   0  0  0  0  0  0  0  0  0  0  0  0
  154.3810  136.5086  162.4097 H   0  0  0  0  0  0  0  0  0  0  0  0
  155.8305  136.1068  164.7079 H   0  0  0  0  0  0  0  0  0  0  0  0
  157.8334  137.9923  164.5732 H   0  0  0  0  0  0  0  0  0  0  0  0
  1  2  2  0  0  0  0
  2  3  1  0  0  0  0
  2 18  1  0  0  0  0
  3  4  1  0  0  0  0
  3 35  1  0  0  0  0
  3 36  1  0  0  0  0
  4 16  1  0  0  0  0
  4  5  1  0  0  0  0
  5  6  2  0  0  0  0
  5  7  1  0  0  0  0
  7  8  1  0  0  0  0
  7  9  2  0  0  0  0
  9 10  1  0  0  0  0
  9 37  1  0  0  0  0
 10 11  1  0  0  0  0
 10 16  1  0  0  0  0
 11 15  1  0  0  0  0
 11 12  1  0  0  0  0
 11 38  1  0  0  0  0
 12 13  1  0  0  0  0
 12 39  1  0  0  0  0
 12 40  1  0  0  0  0
 13 14  1  0  0  0  0
 13 41  1  0  0  0  0
 13 42  1  0  0  0  0
 14 15  1  0  0  0  0
 14 43  1  0  0  0  0
 14 44  1  0  0  0  0
 16 17  2  0  0  0  0
 18 29  1  0  0  0  0
 18 19  1  0  0  0  0
 19 20  2  0  0  0  0
 20 21  1  0  0  0  0
 20 28  1  0  0  0  0
 21 27  1  0  0  0  0
 21 22  2  0  0  0  0
 22 23  1  0  0  0  0
 22 45  1  0  0  0  0
 23 24  2  0  0  0  0
 23 46  1  0  0  0  0
 24 25  1  0  0  0  0
 24 26  1  0  0  0  0
 26 27  2  0  0  0  0
 26 47  1  0  0  0  0
 27 48  1  0  0  0  0
 28 29  1  0  0  0  0
 28 49  1  0  0  0  0
 28 50  1  0  0  0  0
 29 30  1  0  0  0  0
 29 51  1  0  0  0  0
 30 34  1  0  0  0  0
 30 31  2  0  0  0  0
 31 32  1  0  0  0  0
 31 52  1  0  0  0  0
 32 33  2  0  0  0  0
 32 53  1  0  0  0  0
 33 34  1  0  0  0  0
 33 54  1  0  0  0  0
M  END
> <s_m_source_file>
AV-unprocessed.smi

> <i_m_source_file_index>
136

> <i_lp_mmshare_version>
43012

> <i_f3d_flags>
0

> <s_epik_input>
bzFbY0hdW2NIXVtjSF1jMVtDQEBIXTJbQ0gyXUMoYzNbY0hdW2NIXWMoQ2wpW2NIXVtjSF0zKT1OTjJDKD1PKVtDSDJdbjRjKD1PKWMoRilbY0hdbihjND1PKVtDQEBIXTVbQ0gyXVtDSDJdW0NIMl1PNQ==

> <s_epik_cmdline>
J2VwaWtfcHl0aG9uJywgJy1waCcsICc3LjAnLCAnLXRuJywgJzgnLCAnLW1hJywgJzIwMCcsICctbWV0YWxfYmluZGluZycsICctaW1hZScsICc8aW5maWxlLm1hZT4nLCAnLW9tYWUnLCAnPG91dGZpbGUubWFlPic=

> <r_lp_tautomer_probability>
1

> <r_epik_Ionization_Penalty>
2.55467e-08

> <r_epik_Ionization_Penalty_Charging>
4.85705e-09

> <r_epik_Ionization_Penalty_Neutral>
2.06897e-08

> <r_epik_State_Penalty>
-0

> <r_epik_Charging_Adjusted_Penalty>
4.85705e-09

> <i_epik_Tot_Q>
0

> <i_epik_Tot_abs_Q>
0

> <r_epik_Metal_State_Penalty>
-0

> <b_epik_Metal_Only>
0

> <s_epik_Chemistry_Notes>
This compound has an imine and may undergo hydrolysis. This compound contains an acetal/aminal-like group ( X-CH(R)-Y where X, Y are N, S, or O) that may be acid/base labile, releasing an aldehyde.

> <s_lp_Force_Field>
OPLS_2005

> <r_lp_Energy>
41.711

> <b_lp_Chiralities_Consistent>
1

> <s_lp_Variant>
AV-unprocessed.smi:136-2

> <Gold.Version>
5.8.1

> <Gold.Id.Protein>
6NUR|6NUR_protein|mol2

> <Gold.PLP.Fitness>
58.4078

> <Gold.PLP.PLP>
-57.8496

> <Gold.PLP.part.hbond>
-1.0000

> <Gold.PLP.part.metal>
0.0000

> <Gold.PLP.part.buried>
-5.1995

> <Gold.PLP.part.nonpolar>
-50.5562

> <Gold.PLP.part.repulsive>
0.1816

> <Gold.PLP.ligand.clash>
0.0000

> <Gold.PLP.ligand.torsion>
1.2651

> <Gold.PLP.Chemscore.Hbond>
1.0000

> <Gold.PLP.Chemscore.CHOScore>
0.0000

> <Gold.PLP.Chemscore.Metal>
0.0000

> <Gold.Chemscore.Hbonds>
donor molecule, donor type, donor heavy atom, donor atom, acceptor molecule, acceptor atom, score
      P1  H  6896  6909       L1     6  1.00
      P1  H 10752 10764       L1    15  0.28

> <Gold.PLP.Chemscore.Internal.Correction>
0.0884

> <Gold.Rescore>
     Score         DG    S(hbond)    S(metal)    S(lipo)     H(rot)  DE(clash)    DE(int)     intcor
     20.63     -21.38       1.00        0.00     146.86       1.81       0.08       0.67       ----

> <Gold.Chemscore.Fitness>
20.6253

> <Gold.Chemscore.DG>
-21.3756

> <Gold.Chemscore.ZeroCoef>
-5.4800

> <Gold.Chemscore.Hbond>
0.9986

> <Gold.Chemscore.Metal>
0.0000

> <Gold.Chemscore.Lipo>
146.8608

> <Gold.Chemscore.Internal_Hbond>
0.0000

> <Gold.Chemscore.DEClash>
0.0776

> <Gold.Chemscore.DEInternal>
0.6727

> <Gold.Chemscore.Rot>
1.8056

> <Gold.Chemscore.Internal.Correction>
   9.000000E+99

> <Gold.Chemscore.Hbonds>
donor molecule, donor type, donor heavy atom, donor atom, acceptor molecule, acceptor atom, score
      P1  H  6896  6909       L1     6  0.97

> <Gold.Chemscore.Hbond.Weighted>
-3.3352

> <Gold.Chemscore.Metal.Weighted>
-0.0000

> <Gold.Chemscore.Lipo.Weighted>
-17.1827

> <Gold.Chemscore.Internal_Hbond.Weighted>
0.0000

> <Gold.Chemscore.DEClash.Weighted>
0.0776

> <Gold.Chemscore.DEInternal.Weighted>
0.6727

> <Gold.Chemscore.Rot.Weighted>
4.6223

> <Gold.Chemscore.Internal.Correction.Weighted>
   9.000000E+99

> <Gold.Protein.RotatedTorsions>
[ 6907 6896 6895 6894 ] final -142.54 input  -60.11 | X-H torsion
[ 7974 7965 7964 7962 ] final   50.44 input  175.53 | X-H torsion
[ 8008 7997 7996 7995 ] final -123.60 input   59.86 | X-H torsion
[ 10167 10162 10161 10158 ] final   90.52 input  -65.29 | X-H torsion
[ 10718 10713 10712 10709 ] final   83.27 input   66.30 | X-H torsion
[ 10763 10752 10751 10750 ] final  122.87 input  -60.55 | X-H torsion
[ 11005 11000 10999 10996 ] final   13.91 input  -57.11 | X-H torsion

> <Gold.Protein.ActiveResidues>
 VAL166  LYS551  ARG553  GLY616  TRP617  ASP618  TYR619  PRO620  LYS621  CYS622 
 ASP623  PHE694  ASN695  SER759  ASP760  ASP761  ALA762  ILE779  LEU786  VAL792 
 PHE793  MET794  SER795  GLU796  ALA797  LYS798  CYS799  TRP800  GLU811  SER814 

> <Gold.Protein.RotatedAtoms>
  151.0885  133.5334  159.2616 H   0  0  0  0  0  0  0  0  0  0  0  0  # atno 6907 bound_to 6896
  151.2211  135.0518  159.8960 H   0  0  0  0  0  0  0  0  0  0  0  0  # atno 6908 bound_to 6896
  152.5431  134.0687  159.8238 H   0  0  0  0  0  0  0  0  0  0  0  0  # atno 6909 bound_to 6896
  146.0011  139.4440  143.0014 H   0  0  0  0  0  0  0  0  0  0  0  0  # atno 7974 bound_to 7965
  155.1832  140.0411  157.2886 H   0  0  0  0  0  0  0  0  0  0  0  0  # atno 8008 bound_to 7997
  154.6189  140.2496  155.7546 H   0  0  0  0  0  0  0  0  0  0  0  0  # atno 8009 bound_to 7997
  156.2422  140.2899  156.0488 H   0  0  0  0  0  0  0  0  0  0  0  0  # atno 8010 bound_to 7997
  139.8465  144.6615  150.9221 H   0  0  0  0  0  0  0  0  0  0  0  0  # atno 10167 bound_to 10162
  157.6875  131.0083  150.2498 H   0  0  0  0  0  0  0  0  0  0  0  0  # atno 10718 bound_to 10713
  153.6365  135.3387  155.3058 H   0  0  0  0  0  0  0  0  0  0  0  0  # atno 10763 bound_to 10752
  154.8569  135.4308  154.2050 H   0  0  0  0  0  0  0  0  0  0  0  0  # atno 10764 bound_to 10752
  153.2958  135.7020  153.7323 H   0  0  0  0  0  0  0  0  0  0  0  0  # atno 10765 bound_to 10752
  140.4754  134.0988  155.7740 H   0  0  0  0  0  0  0  0  0  0  0  0  # atno 11005 bound_to 11000
  145.7486  140.9981  143.1263 LP  0  0  0  0  0  0  0  0  0  0  0  0  # atno 17320 bound_to 7965
  144.6920  139.9186  143.7467 LP  0  0  0  0  0  0  0  0  0  0  0  0  # atno 17321 bound_to 7965
  140.7792  143.3866  151.1383 LP  0  0  0  0  0  0  0  0  0  0  0  0  # atno 17342 bound_to 10162
  139.7508  143.8782  152.3076 LP  0  0  0  0  0  0  0  0  0  0  0  0  # atno 17343 bound_to 10162
  156.3097  130.3770  149.7673 LP  0  0  0  0  0  0  0  0  0  0  0  0  # atno 17370 bound_to 10713
  156.5278  130.8244  151.3226 LP  0  0  0  0  0  0  0  0  0  0  0  0  # atno 17371 bound_to 10713
  141.1557  133.8887  157.1984 LP  0  0  0  0  0  0  0  0  0  0  0  0  # atno 17394 bound_to 11000
  139.9859  135.0082  156.9861 LP  0  0  0  0  0  0  0  0  0  0  0  0  # atno 17395 bound_to 11000

$$$$
