AV-unprocessed.smi:1828|AV-procd|sdf|7424|dock5
  -GOLD-   22720 9103D 1   1.00000     0.00000
 Structure written by MMmdl.
 39 41  0  0  0  0  0  0  0  0  1 V2000
  151.9312  139.4130  154.6878 O   0  0  0  0  0  0  0  0  0  0  0  0
  151.8314  139.0411  156.0457 C   0  0  0  0  0  0  0  0  0  0  0  0
  151.8986  140.2160  156.9726 C   0  0  0  0  0  0  0  0  0  0  0  0
  152.7787  140.2742  157.9730 N   0  0  0  0  0  0  0  0  0  0  0  0
  152.5034  141.4989  158.5492 C   0  0  0  0  0  0  0  0  0  0  0  0
  153.0955  142.1472  159.6566 C   0  0  0  0  0  0  0  0  0  0  0  0
  152.6412  143.4179  160.0668 C   0  0  0  0  0  0  0  0  0  0  0  0
  151.5905  144.0572  159.3772 C   0  0  0  0  0  0  0  0  0  0  0  0
  150.9857  143.4281  158.2720 C   0  0  0  0  0  0  0  0  0  0  0  0
  151.4430  142.1598  157.8672 C   0  0  0  0  0  0  0  0  0  0  0  0
  151.0747  141.2876  156.8483 N   0  0  0  0  0  0  0  0  0  0  0  0
  150.0211  141.5160  155.8681 C   0  0  0  0  0  0  0  0  0  0  0  0
  148.6420  141.0302  156.3567 C   0  0  2  0  0  0  0  0  0  0  0  0
  148.5320  139.6297  156.1902 O   0  0  0  0  0  0  0  0  0  0  0  0
  147.5160  141.7810  155.6636 C   0  0  0  0  0  0  0  0  0  0  0  0
  147.4571  141.8471  154.2548 C   0  0  0  0  0  0  0  0  0  0  0  0
  146.4126  142.5468  153.6222 C   0  0  0  0  0  0  0  0  0  0  0  0
  145.4251  143.1896  154.3929 C   0  0  0  0  0  0  0  0  0  0  0  0
  145.4795  143.1411  155.8030 C   0  0  0  0  0  0  0  0  0  0  0  0
  144.4151  143.8282  156.6458 C   0  0  0  0  0  0  0  0  0  0  0  0
  143.2153  143.3009  156.4003 F   0  0  0  0  0  0  0  0  0  0  0  0
  144.6684  143.6998  157.9488 F   0  0  0  0  0  0  0  0  0  0  0  0
  144.3845  145.1247  156.3410 F   0  0  0  0  0  0  0  0  0  0  0  0
  146.5258  142.4309  156.4307 C   0  0  0  0  0  0  0  0  0  0  0  0
  152.7203  139.0348  154.3314 H   0  0  0  0  0  0  0  0  0  0  0  0
  150.9026  138.4943  156.2064 H   0  0  0  0  0  0  0  0  0  0  0  0
  152.6439  138.3521  156.2778 H   0  0  0  0  0  0  0  0  0  0  0  0
  153.9015  141.6659  160.1906 H   0  0  0  0  0  0  0  0  0  0  0  0
  153.1016  143.9050  160.9139 H   0  0  0  0  0  0  0  0  0  0  0  0
  151.2492  145.0310  159.6971 H   0  0  0  0  0  0  0  0  0  0  0  0
  150.1808  143.9147  157.7414 H   0  0  0  0  0  0  0  0  0  0  0  0
  149.9835  142.5864  155.6628 H   0  0  0  0  0  0  0  0  0  0  0  0
  150.2851  141.0387  154.9247 H   0  0  0  0  0  0  0  0  0  0  0  0
  148.5654  141.2183  157.4284 H   0  0  0  0  0  0  0  0  0  0  0  0
  147.6775  139.3594  156.4901 H   0  0  0  0  0  0  0  0  0  0  0  0
  148.2129  141.3613  153.6550 H   0  0  0  0  0  0  0  0  0  0  0  0
  146.3686  142.5907  152.5439 H   0  0  0  0  0  0  0  0  0  0  0  0
  144.6266  143.7188  153.8939 H   0  0  0  0  0  0  0  0  0  0  0  0
  146.5675  142.3851  157.5093 H   0  0  0  0  0  0  0  0  0  0  0  0
  1  2  1  0  0  0  0
  1 25  1  0  0  0  0
  2  3  1  0  0  0  0
  2 26  1  0  0  0  0
  2 27  1  0  0  0  0
  3 11  1  0  0  0  0
  3  4  2  0  0  0  0
  4  5  1  0  0  0  0
  5 10  2  0  0  0  0
  5  6  1  0  0  0  0
  6  7  2  0  0  0  0
  6 28  1  0  0  0  0
  7  8  1  0  0  0  0
  7 29  1  0  0  0  0
  8  9  2  0  0  0  0
  8 30  1  0  0  0  0
  9 10  1  0  0  0  0
  9 31  1  0  0  0  0
 10 11  1  0  0  0  0
 11 12  1  0  0  0  0
 12 13  1  0  0  0  0
 12 32  1  0  0  0  0
 12 33  1  0  0  0  0
 13 14  1  0  0  0  0
 13 15  1  0  0  0  0
 13 34  1  0  0  0  0
 14 35  1  0  0  0  0
 15 24  1  0  0  0  0
 15 16  2  0  0  0  0
 16 17  1  0  0  0  0
 16 36  1  0  0  0  0
 17 18  2  0  0  0  0
 17 37  1  0  0  0  0
 18 19  1  0  0  0  0
 18 38  1  0  0  0  0
 19 20  1  0  0  0  0
 19 24  2  0  0  0  0
 20 21  1  0  0  0  0
 20 22  1  0  0  0  0
 20 23  1  0  0  0  0
 24 39  1  0  0  0  0
M  END
> <s_m_source_file>
AV-unprocessed.smi

> <i_m_source_file_index>
1828

> <i_lp_mmshare_version>
43012

> <i_f3d_flags>
0

> <s_epik_input>
W2NIXTFbY0hdW2NIXVtjSF1jKGMxMiluKGMobjIpW0NIMl1bT0hdKVtDSDJdW0NASF0oW09IXSljM1tjSF1bY0hdW2NIXWMoQyhGKShGKUYpW2NIXTM=

> <s_epik_cmdline>
J2VwaWtfcHl0aG9uJywgJy1waCcsICc3LjAnLCAnLXRuJywgJzgnLCAnLW1hJywgJzIwMCcsICctbWV0YWxfYmluZGluZycsICctaW1hZScsICc8aW5maWxlLm1hZT4nLCAnLW9tYWUnLCAnPG91dGZpbGUubWFlPic=

> <r_epik_Ionization_Penalty>
0.0634719

> <r_epik_Ionization_Penalty_Charging>
0

> <r_epik_Ionization_Penalty_Neutral>
0.0634719

> <r_epik_State_Penalty>
0.0551572

> <r_epik_Charging_Adjusted_Penalty>
0.0551572

> <i_epik_Tot_Q>
0

> <i_epik_Tot_abs_Q>
0

> <r_epik_Metal_State_Penalty>
5.78034e-05

> <b_epik_Metal_Only>
0

> <s_lp_Force_Field>
OPLS_2005

> <r_lp_Energy>
12.8621

> <b_lp_Chiralities_Consistent>
1

> <s_lp_Variant>
AV-unprocessed.smi:1828-1

> <Gold.Version>
5.8.1

> <Gold.Id.Protein>
6NUR|6NUR_protein|mol2

> <Gold.PLP.Fitness>
49.2589

> <Gold.PLP.PLP>
-45.4752

> <Gold.PLP.part.hbond>
-2.0000

> <Gold.PLP.part.metal>
0.0000

> <Gold.PLP.part.buried>
-6.1650

> <Gold.PLP.part.nonpolar>
-37.2322

> <Gold.PLP.part.repulsive>
0.0000

> <Gold.PLP.ligand.clash>
1.3071

> <Gold.PLP.ligand.torsion>
0.7915

> <Gold.PLP.Chemscore.Hbond>
1.9360

> <Gold.PLP.Chemscore.CHOScore>
0.0000

> <Gold.PLP.Chemscore.Metal>
0.0000

> <Gold.Chemscore.Hbonds>
donor molecule, donor type, donor heavy atom, donor atom, acceptor molecule, acceptor atom, score
      P1  H  7989  7998       L1     1  0.96
      P1  H  7997  8009       L1     4  0.94

> <Gold.PLP.Chemscore.Internal.Correction>
0.8657

> <Gold.Rescore>
     Score         DG    S(hbond)    S(metal)    S(lipo)     H(rot)  DE(clash)    DE(int)     intcor
     14.95     -15.77       1.39        0.00     112.00       2.91       0.17       0.66       ----

> <Gold.Chemscore.Fitness>
14.9499

> <Gold.Chemscore.DG>
-15.7731

> <Gold.Chemscore.ZeroCoef>
-5.4800

> <Gold.Chemscore.Hbond>
1.3919

> <Gold.Chemscore.Metal>
0.0000

> <Gold.Chemscore.Lipo>
112.0009

> <Gold.Chemscore.Internal_Hbond>
0.0000

> <Gold.Chemscore.DEClash>
0.1675

> <Gold.Chemscore.DEInternal>
0.6556

> <Gold.Chemscore.Rot>
2.9141

> <Gold.Chemscore.Internal.Correction>
   9.000000E+99

> <Gold.Chemscore.Hbonds>
donor molecule, donor type, donor heavy atom, donor atom, acceptor molecule, acceptor atom, score
      P1  H  7989  7998       L1     1  0.24
      P1  H  7997  8009       L1     4  0.21

> <Gold.Chemscore.Hbond.Weighted>
-4.6490

> <Gold.Chemscore.Metal.Weighted>
-0.0000

> <Gold.Chemscore.Lipo.Weighted>
-13.1041

> <Gold.Chemscore.Internal_Hbond.Weighted>
0.0000

> <Gold.Chemscore.DEClash.Weighted>
0.1675

> <Gold.Chemscore.DEInternal.Weighted>
0.6556

> <Gold.Chemscore.Rot.Weighted>
7.4600

> <Gold.Chemscore.Internal.Correction.Weighted>
   9.000000E+99

> <Gold.Protein.RotatedTorsions>
[ 6907 6896 6895 6894 ] final -149.07 input  -60.11 | X-H torsion
[ 7974 7965 7964 7962 ] final  -70.93 input  175.53 | X-H torsion
[ 8008 7997 7996 7995 ] final  162.35 input   59.86 | X-H torsion
[ 10167 10162 10161 10158 ] final    9.52 input  -65.29 | X-H torsion
[ 10718 10713 10712 10709 ] final  -33.43 input   66.30 | X-H torsion
[ 10763 10752 10751 10750 ] final  160.31 input  -60.55 | X-H torsion
[ 11005 11000 10999 10996 ] final   98.71 input  -57.11 | X-H torsion

> <Gold.Protein.ActiveResidues>
 VAL166  LYS551  ARG553  GLY616  TRP617  ASP618  TYR619  PRO620  LYS621  CYS622 
 ASP623  PHE694  ASN695  SER759  ASP760  ASP761  ALA762  ILE779  LEU786  VAL792 
 PHE793  MET794  SER795  GLU796  ALA797  LYS798  CYS799  TRP800  GLU811  SER814 

> <Gold.Protein.RotatedAtoms>
  151.1789  133.4737  159.2593 H   0  0  0  0  0  0  0  0  0  0  0  0  # atno 6907 bound_to 6896
  151.1279  135.0114  159.8579 H   0  0  0  0  0  0  0  0  0  0  0  0  # atno 6908 bound_to 6896
  152.5459  134.1694  159.8644 H   0  0  0  0  0  0  0  0  0  0  0  0  # atno 6909 bound_to 6896
  145.6846  140.9175  143.0814 H   0  0  0  0  0  0  0  0  0  0  0  0  # atno 7974 bound_to 7965
  156.2037  140.1752  156.7845 H   0  0  0  0  0  0  0  0  0  0  0  0  # atno 8008 bound_to 7997
  154.5626  140.0697  156.8873 H   0  0  0  0  0  0  0  0  0  0  0  0  # atno 8009 bound_to 7997
  155.2820  140.3349  155.4260 H   0  0  0  0  0  0  0  0  0  0  0  0  # atno 8010 bound_to 7997
  140.6250  143.8121  150.7221 H   0  0  0  0  0  0  0  0  0  0  0  0  # atno 10167 bound_to 10162
  156.3628  130.4326  149.7609 H   0  0  0  0  0  0  0  0  0  0  0  0  # atno 10718 bound_to 10713
  154.2455  135.2773  155.2837 H   0  0  0  0  0  0  0  0  0  0  0  0  # atno 10763 bound_to 10752
  154.5509  135.5675  153.6925 H   0  0  0  0  0  0  0  0  0  0  0  0  # atno 10764 bound_to 10752
  152.9991  135.6274  154.2600 H   0  0  0  0  0  0  0  0  0  0  0  0  # atno 10765 bound_to 10752
  139.8772  134.9062  156.4497 H   0  0  0  0  0  0  0  0  0  0  0  0  # atno 11005 bound_to 11000
  144.7015  139.8741  143.7442 LP  0  0  0  0  0  0  0  0  0  0  0  0  # atno 17320 bound_to 7965
  146.0935  139.3926  143.0391 LP  0  0  0  0  0  0  0  0  0  0  0  0  # atno 17321 bound_to 7965
  140.1720  143.4186  152.1994 LP  0  0  0  0  0  0  0  0  0  0  0  0  # atno 17342 bound_to 10162
  139.5472  144.7308  151.4548 LP  0  0  0  0  0  0  0  0  0  0  0  0  # atno 17343 bound_to 10162
  156.4767  130.8022  151.3038 LP  0  0  0  0  0  0  0  0  0  0  0  0  # atno 17370 bound_to 10713
  157.7475  131.0019  150.2979 LP  0  0  0  0  0  0  0  0  0  0  0  0  # atno 17371 bound_to 10713
  140.8941  133.7827  155.9605 LP  0  0  0  0  0  0  0  0  0  0  0  0  # atno 17394 bound_to 11000
  140.8722  134.2713  157.5185 LP  0  0  0  0  0  0  0  0  0  0  0  0  # atno 17395 bound_to 11000

$$$$
