#       Name:                AV-unprocessed.smi:1829
#       Creating user name   scv26
#       Creation time:       Fri Mar 27 09:11:25 2020


#       File generated by GOLD software.
#

@<TRIPOS>MOLECULE
AV-unprocessed.smi:1829
    50    52     1
SMALL
NO_CHARGES


@<TRIPOS>ATOM
      1 ****        -4.3484   1.6326  -0.3378 C.3            1 S1                 0.0000
      2 ****        -3.9064   1.1987   1.0683 C.3            1 S1                 0.0000
      3 ****        -4.4653   2.1318   2.1544 C.3            1 S1                 0.0000
      4 ****        -2.3916   1.0673   1.1573 C.ar           1 S1                 0.0000
      5 ****        -1.8042  -0.2009   1.3508 C.ar           1 S1                 0.0000
      6 ****        -0.4044  -0.3335   1.4151 C.ar           1 S1                 0.0000
      7 ****         0.4259   0.7997   1.2874 C.ar           1 S1                 0.0000
      8 ****         1.9388   0.6340   1.3113 C.3            1 S1                 0.0000
      9 ****         2.5803   1.6415   2.0651 O.3            1 S1                 0.0000
     10 ****         2.5469   0.6338  -0.1070 C.3            1 S1                 0.0000
     11 ****         2.0212  -0.4499  -0.9532 N.pl3          1 S1                 0.0000
     12 ****         1.0856  -0.4258  -1.9474 C.2            1 S1                 0.0000
     13 ****         0.3430   0.7638  -2.4595 C.3            1 S1                 0.0000
     14 ****         1.1073   1.5216  -3.3703 O.3            1 S1                 0.0000
     15 ****         0.9493  -1.7026  -2.4035 N.pl3          1 S1                 1.0000
     16 ****         1.8051  -2.5504  -1.6998 C.ar           1 S1                 0.0000
     17 ****         2.0185  -3.9214  -1.8039 C.ar           1 S1                 0.0000
     18 ****         2.9735  -4.4809  -0.9299 C.ar           1 S1                 0.0000
     19 ****         3.6746  -3.6846  -0.0008 C.ar           1 S1                 0.0000
     20 ****         3.4493  -2.2955   0.0956 C.ar           1 S1                 0.0000
     21 ****         2.5015  -1.7512  -0.7703 C.ar           1 S1                 0.0000
     22 ****        -0.1604   2.0703   1.1026 C.ar           1 S1                 0.0000
     23 ****        -1.5604   2.2024   1.0355 C.ar           1 S1                 0.0000
     24 ****        -3.9947   0.9297  -1.0929 H              1 S1                 0.0000
     25 ****        -3.9613   2.6191  -0.5944 H              1 S1                 0.0000
     26 ****        -5.4353   1.6745  -0.4119 H              1 S1                 0.0000
     27 ****        -4.3344   0.2114   1.2479 H              1 S1                 0.0000
     28 ****        -4.1795   1.7888   3.1493 H              1 S1                 0.0000
     29 ****        -5.5544   2.1645   2.1186 H              1 S1                 0.0000
     30 ****        -4.1025   3.1532   2.0369 H              1 S1                 0.0000
     31 ****        -2.4241  -1.0808   1.4433 H              1 S1                 0.0000
     32 ****         0.0310  -1.3128   1.5490 H              1 S1                 0.0000
     33 ****         2.1726  -0.3097   1.8050 H              1 S1                 0.0000
     34 ****         2.2704   1.5919   2.9568 H              1 S1                 0.0000
     35 ****         2.3457   1.5808  -0.6092 H              1 S1                 0.0000
     36 ****         3.6325   0.5338  -0.0660 H              1 S1                 0.0000
     37 ****        -0.5712   0.4340  -2.9536 H              1 S1                 0.0000
     38 ****         0.0429   1.3992  -1.6277 H              1 S1                 0.0000
     39 ****         1.8522   1.8800  -2.9121 H              1 S1                 0.0000
     40 ****         1.4835  -4.5332  -2.5154 H              1 S1                 0.0000
     41 ****         3.1726  -5.5420  -0.9734 H              1 S1                 0.0000
     42 ****         4.4000  -4.1485   0.6518 H              1 S1                 0.0000
     43 ****         3.9910  -1.6940   0.8106 H              1 S1                 0.0000
     44 ****         0.4614   2.9469   0.9937 H              1 S1                 0.0000
     45 ****        -1.9924   3.1802   0.8813 H              1 S1                 0.0000
     46 ****         0.3161  -1.9697  -3.1464 H              1 S1                 0.0000
     47 ****         2.3632   2.5394   1.6819 LP             1 S1                 0.0000
     48 ****         3.5700   1.5004   2.0435 LP             1 S1                 0.0000
     49 ****         0.5503   2.2646  -3.7415 LP             1 S1                 0.0000
     50 ****         1.4210   0.9351  -4.1170 LP             1 S1                 0.0000
@<TRIPOS>BOND
    1    1    2 1     
    2    1   24 1     
    3    1   25 1     
    4    1   26 1     
    5    2    3 1     
    6    2    4 1     
    7    2   27 1     
    8    3   28 1     
    9    3   29 1     
   10    3   30 1     
   11    4   23 ar    
   12    4    5 ar    
   13    5    6 ar    
   14    5   31 1     
   15    6    7 ar    
   16    6   32 1     
   17    7    8 1     
   18    7   22 ar    
   19    8    9 1     
   20    8   10 1     
   21    8   33 1     
   22    9   34 1     
   23   10   11 1     
   24   10   35 1     
   25   10   36 1     
   26   11   21 1     
   27   11   12 1     
   28   12   13 1     
   29   12   15 2     
   30   13   14 1     
   31   13   37 1     
   32   13   38 1     
   33   14   39 1     
   34   15   16 1     
   35   15   46 1     
   36   16   21 ar    
   37   16   17 ar    
   38   17   18 ar    
   39   17   40 1     
   40   18   19 ar    
   41   18   41 1     
   42   19   20 ar    
   43   19   42 1     
   44   20   21 ar    
   45   20   43 1     
   46   22   23 ar    
   47   22   44 1     
   48   23   45 1     
   49    9   47 1     
   50    9   48 1     
   51   14   49 1     
   52   14   50 1     
@<TRIPOS>SUBSTRUCTURE
      1 S1             1
@<TRIPOS>SET
LONE_PAIRS      STATIC     ATOMS    <user>   **** ""
4 47 48 49 50
DONOR_HYDROGENS      STATIC     ATOMS    <user>   **** ""
3 34 39 46
ATOM$BLUE        STATIC     ATOMS    COLORGROUP SYSTEM
4 47 48 49 50
ATOM$RED        STATIC     ATOMS    COLORGROUP SYSTEM
3 34 39 46
