AV-unprocessed.smi:33|AV-procd|sdf|208|dock3
  -GOLD-   2262015503D 1   1.00000     0.00000
 Structure written by MMmdl.
 67 72  0  0  0  0  0  0  0  0  1 V2000
  154.7773  141.2047  162.5606 O   0  0  0  0  0  0  0  0  0  0  0  0
  154.1954  141.1708  161.4744 C   0  0  0  0  0  0  0  0  0  0  0  0
  154.2231  140.1100  160.6434 O   0  0  0  0  0  0  0  0  0  0  0  0
  154.8804  138.9136  161.0313 C   0  0  0  0  0  0  0  0  0  0  0  0
  155.5623  138.2953  159.8001 C   0  0  1  0  0  0  0  0  0  0  0  0
  156.1889  137.0681  160.1877 O   0  0  0  0  0  0  0  0  0  0  0  0
  155.5682  135.9732  159.5796 C   0  0  1  0  0  0  0  0  0  0  0  0
  155.4359  134.8485  160.5611 N   0  0  0  0  0  0  0  0  0  0  0  0
  155.7571  133.5250  160.3549 C   0  0  0  0  0  0  0  0  0  0  0  0
  155.5531  132.7316  161.3716 N   0  0  0  0  0  0  0  0  0  0  0  0
  155.0537  133.5726  162.3570 C   0  0  0  0  0  0  0  0  0  0  0  0
  154.6251  133.3779  163.6978 C   0  0  0  0  0  0  0  0  0  0  0  0
  154.6522  132.1720  164.3117 N   0  0  0  0  0  0  0  0  0  0  0  0
  153.8349  131.1029  163.7191 C   0  0  0  0  0  0  0  0  0  0  0  0
  153.5267  131.1615  162.5273 O   0  0  0  0  0  0  0  0  0  0  0  0
  153.4098  129.9214  164.5439 C   0  0  0  0  0  0  0  0  0  0  0  0
  153.3137  128.6434  163.9509 C   0  0  0  0  0  0  0  0  0  0  0  0
  152.9027  127.5347  164.7162 C   0  0  0  0  0  0  0  0  0  0  0  0
  152.5660  127.7005  166.0732 C   0  0  0  0  0  0  0  0  0  0  0  0
  152.6318  128.9773  166.6629 C   0  0  0  0  0  0  0  0  0  0  0  0
  153.0446  130.0861  165.8991 C   0  0  0  0  0  0  0  0  0  0  0  0
  155.5050  132.0419  165.5024 C   0  0  0  0  0  0  0  0  0  0  0  0
  155.7710  133.0430  166.1704 O   0  0  0  0  0  0  0  0  0  0  0  0
  156.0043  130.6942  165.9414 C   0  0  0  0  0  0  0  0  0  0  0  0
  156.4010  129.7396  164.9790 C   0  0  0  0  0  0  0  0  0  0  0  0
  156.8595  128.4710  165.3842 C   0  0  0  0  0  0  0  0  0  0  0  0
  156.9058  128.1419  166.7524 C   0  0  0  0  0  0  0  0  0  0  0  0
  156.4837  129.0780  167.7153 C   0  0  0  0  0  0  0  0  0  0  0  0
  156.0259  130.3469  167.3111 C   0  0  0  0  0  0  0  0  0  0  0  0
  154.1735  134.4569  164.3878 N   0  0  0  0  0  0  0  0  0  0  0  0
  154.1478  135.6558  163.7993 C   0  0  0  0  0  0  0  0  0  0  0  0
  154.5198  135.9840  162.5604 N   0  0  0  0  0  0  0  0  0  0  0  0
  154.9719  134.9032  161.8615 C   0  0  0  0  0  0  0  0  0  0  0  0
  154.2232  136.4550  159.0227 C   0  0  1  0  0  0  0  0  0  0  0  0
  153.1601  136.3596  159.9549 O   0  0  0  0  0  0  0  0  0  0  0  0
  154.5849  137.8902  158.6907 C   0  0  1  0  0  0  0  0  0  0  0  0
  153.5286  138.6923  158.5441 F   0  0  0  0  0  0  0  0  0  0  0  0
  153.3968  142.3088  160.9350 C   0  0  0  0  0  0  0  0  0  0  0  0
  153.3229  142.5011  159.5355 C   0  0  0  0  0  0  0  0  0  0  0  0
  152.5725  143.5639  158.9961 C   0  0  0  0  0  0  0  0  0  0  0  0
  151.8878  144.4485  159.8496 C   0  0  0  0  0  0  0  0  0  0  0  0
  151.9542  144.2686  161.2434 C   0  0  0  0  0  0  0  0  0  0  0  0
  152.7029  143.2053  161.7847 C   0  0  0  0  0  0  0  0  0  0  0  0
  155.6112  139.1022  161.8173 H   0  0  0  0  0  0  0  0  0  0  0  0
  154.1376  138.2271  161.4387 H   0  0  0  0  0  0  0  0  0  0  0  0
  156.3074  138.9894  159.4094 H   0  0  0  0  0  0  0  0  0  0  0  0
  156.2263  135.5872  158.7996 H   0  0  0  0  0  0  0  0  0  0  0  0
  156.1513  133.1631  159.4164 H   0  0  0  0  0  0  0  0  0  0  0  0
  153.5701  128.5046  162.9103 H   0  0  0  0  0  0  0  0  0  0  0  0
  152.8447  126.5570  164.2614 H   0  0  0  0  0  0  0  0  0  0  0  0
  152.2505  126.8499  166.6590 H   0  0  0  0  0  0  0  0  0  0  0  0
  152.3641  129.1070  167.7011 H   0  0  0  0  0  0  0  0  0  0  0  0
  153.0863  131.0622  166.3607 H   0  0  0  0  0  0  0  0  0  0  0  0
  156.3701  129.9813  163.9263 H   0  0  0  0  0  0  0  0  0  0  0  0
  157.1750  127.7501  164.6446 H   0  0  0  0  0  0  0  0  0  0  0  0
  157.2583  127.1691  167.0623 H   0  0  0  0  0  0  0  0  0  0  0  0
  156.5101  128.8233  168.7645 H   0  0  0  0  0  0  0  0  0  0  0  0
  155.7008  131.0557  168.0593 H   0  0  0  0  0  0  0  0  0  0  0  0
  153.7778  136.4687  164.4069 H   0  0  0  0  0  0  0  0  0  0  0  0
  153.9621  135.8782  158.1349 H   0  0  0  0  0  0  0  0  0  0  0  0
  153.2093  137.0982  160.5426 H   0  0  0  0  0  0  0  0  0  0  0  0
  155.1126  137.9070  157.7359 H   0  0  0  0  0  0  0  0  0  0  0  0
  153.8385  141.8337  158.8601 H   0  0  0  0  0  0  0  0  0  0  0  0
  152.5215  143.6997  157.9259 H   0  0  0  0  0  0  0  0  0  0  0  0
  151.3124  145.2634  159.4357 H   0  0  0  0  0  0  0  0  0  0  0  0
  151.4290  144.9469  161.8994 H   0  0  0  0  0  0  0  0  0  0  0  0
  152.7322  143.0955  162.8590 H   0  0  0  0  0  0  0  0  0  0  0  0
  1  2  2  0  0  0  0
  2  3  1  0  0  0  0
  2 38  1  0  0  0  0
  3  4  1  0  0  0  0
  4  5  1  0  0  0  0
  4 44  1  0  0  0  0
  4 45  1  0  0  0  0
  5 36  1  0  0  0  0
  5  6  1  0  0  0  0
  5 46  1  0  0  0  0
  6  7  1  0  0  0  0
  7  8  1  0  0  0  0
  7 34  1  0  0  0  0
  7 47  1  0  0  0  0
  8 33  1  0  0  0  0
  8  9  1  0  0  0  0
  9 10  2  0  0  0  0
  9 48  1  0  0  0  0
 10 11  1  0  0  0  0
 11 33  2  0  0  0  0
 11 12  1  0  0  0  0
 12 13  1  0  0  0  0
 12 30  2  0  0  0  0
 13 14  1  0  0  0  0
 13 22  1  0  0  0  0
 14 15  2  0  0  0  0
 14 16  1  0  0  0  0
 16 21  1  0  0  0  0
 16 17  2  0  0  0  0
 17 18  1  0  0  0  0
 17 49  1  0  0  0  0
 18 19  2  0  0  0  0
 18 50  1  0  0  0  0
 19 20  1  0  0  0  0
 19 51  1  0  0  0  0
 20 21  2  0  0  0  0
 20 52  1  0  0  0  0
 21 53  1  0  0  0  0
 22 23  2  0  0  0  0
 22 24  1  0  0  0  0
 24 29  1  0  0  0  0
 24 25  2  0  0  0  0
 25 26  1  0  0  0  0
 25 54  1  0  0  0  0
 26 27  2  0  0  0  0
 26 55  1  0  0  0  0
 27 28  1  0  0  0  0
 27 56  1  0  0  0  0
 28 29  2  0  0  0  0
 28 57  1  0  0  0  0
 29 58  1  0  0  0  0
 30 31  1  0  0  0  0
 31 32  2  0  0  0  0
 31 59  1  0  0  0  0
 32 33  1  0  0  0  0
 34 35  1  0  0  0  0
 34 36  1  0  0  0  0
 34 60  1  0  0  0  0
 35 61  1  0  0  0  0
 36 37  1  0  0  0  0
 36 62  1  0  0  0  0
 38 43  1  0  0  0  0
 38 39  2  0  0  0  0
 39 40  1  0  0  0  0
 39 63  1  0  0  0  0
 40 41  2  0  0  0  0
 40 64  1  0  0  0  0
 41 42  1  0  0  0  0
 41 65  1  0  0  0  0
 42 43  2  0  0  0  0
 42 66  1  0  0  0  0
 43 67  1  0  0  0  0
M  END
> <s_m_source_file>
AV-unprocessed.smi

> <i_m_source_file_index>
33

> <i_lp_mmshare_version>
43012

> <i_f3d_flags>
0

> <s_epik_input>
W2NIXTFbY0hdW2NIXVtjSF1bY0hdYzFDKD1PKU9bQ0gyXVtDQEBIXTJPW0NASF0oW0NAQEhdKFtPSF0pW0NAQEhdMkYpbihbY0hdbjMpYyhjMzQpbltjSF1uYzROKEMoPU8pYzVbY0hdW2NIXVtjSF1bY0hdW2NIXTUpQyg9TyljNltjSF1bY0hdW2NIXVtjSF1bY0hdNg==

> <s_epik_cmdline>
J2VwaWtfcHl0aG9uJywgJy1waCcsICc3LjAnLCAnLXRuJywgJzgnLCAnLW1hJywgJzIwMCcsICctbWV0YWxfYmluZGluZycsICctaW1hZScsICc8aW5maWxlLm1hZT4nLCAnLW9tYWUnLCAnPG91dGZpbGUubWFlPic=

> <r_lp_tautomer_probability>
1

> <r_epik_Ionization_Penalty>
0.00067664

> <r_epik_Ionization_Penalty_Charging>
0

> <r_epik_Ionization_Penalty_Neutral>
0.00067664

> <r_epik_State_Penalty>
0.000428095

> <r_epik_Charging_Adjusted_Penalty>
0.000428095

> <i_epik_Tot_Q>
0

> <i_epik_Tot_abs_Q>
0

> <r_epik_Metal_State_Penalty>
-0

> <b_epik_Metal_Only>
0

> <s_epik_Chemistry_Notes>
This compound has an ester and may undergo hydrolysis at high or low pH. This compound contains an acetal/aminal-like group ( X-CH(R)-Y where X, Y are N, S, or O) that may be acid/base labile, releasing an aldehyde.

> <s_lp_Force_Field>
OPLS_2005

> <r_lp_Energy>
79.915

> <b_lp_Chiralities_Consistent>
1

> <s_lp_Variant>
AV-unprocessed.smi:33-10

> <Gold.Version>
5.8.1

> <Gold.Id.Protein>
6NUR|6NUR_protein|mol2

> <Gold.PLP.Fitness>
60.7949

> <Gold.PLP.PLP>
-60.7517

> <Gold.PLP.part.hbond>
-2.0000

> <Gold.PLP.part.metal>
0.0000

> <Gold.PLP.part.buried>
-8.1194

> <Gold.PLP.part.nonpolar>
-50.4979

> <Gold.PLP.part.repulsive>
0.1634

> <Gold.PLP.ligand.clash>
0.0000

> <Gold.PLP.ligand.torsion>
3.6727

> <Gold.PLP.Chemscore.Hbond>
1.0000

> <Gold.PLP.Chemscore.CHOScore>
0.0000

> <Gold.PLP.Chemscore.Metal>
0.0000

> <Gold.Chemscore.Hbonds>
donor molecule, donor type, donor heavy atom, donor atom, acceptor molecule, acceptor atom, score
      P1  H  6896  6908       L1    35  1.00

> <Gold.PLP.Chemscore.Internal.Correction>
4.3886

> <Gold.Rescore>
     Score         DG    S(hbond)    S(metal)    S(lipo)     H(rot)  DE(clash)    DE(int)     intcor
      8.67     -20.21       0.99        0.00     152.76       2.52       0.26      11.28       ----

> <Gold.Chemscore.Fitness>
8.6739

> <Gold.Chemscore.DG>
-20.2131

> <Gold.Chemscore.ZeroCoef>
-5.4800

> <Gold.Chemscore.Hbond>
0.9950

> <Gold.Chemscore.Metal>
0.0000

> <Gold.Chemscore.Lipo>
152.7623

> <Gold.Chemscore.Internal_Hbond>
0.0000

> <Gold.Chemscore.DEClash>
0.2640

> <Gold.Chemscore.DEInternal>
11.2752

> <Gold.Chemscore.Rot>
2.5247

> <Gold.Chemscore.Internal.Correction>
   9.000000E+99

> <Gold.Chemscore.Hbonds>
donor molecule, donor type, donor heavy atom, donor atom, acceptor molecule, acceptor atom, score
      P1  H  6896  6908       L1    35  0.99

> <Gold.Chemscore.Hbond.Weighted>
-3.3232

> <Gold.Chemscore.Metal.Weighted>
-0.0000

> <Gold.Chemscore.Lipo.Weighted>
-17.8732

> <Gold.Chemscore.Internal_Hbond.Weighted>
0.0000

> <Gold.Chemscore.DEClash.Weighted>
0.2640

> <Gold.Chemscore.DEInternal.Weighted>
11.2752

> <Gold.Chemscore.Rot.Weighted>
6.4633

> <Gold.Chemscore.Internal.Correction.Weighted>
   9.000000E+99

> <Gold.Protein.RotatedTorsions>
[ 6907 6896 6895 6894 ] final  -83.91 input  -60.11 | X-H torsion
[ 7974 7965 7964 7962 ] final  121.17 input  175.53 | X-H torsion
[ 8008 7997 7996 7995 ] final  178.40 input   59.86 | X-H torsion
[ 10167 10162 10161 10158 ] final  151.63 input  -65.29 | X-H torsion
[ 10718 10713 10712 10709 ] final  -40.31 input   66.30 | X-H torsion
[ 10763 10752 10751 10750 ] final    2.64 input  -60.55 | X-H torsion
[ 11005 11000 10999 10996 ] final   32.93 input  -57.11 | X-H torsion

> <Gold.Protein.ActiveResidues>
 VAL166  LYS551  ARG553  GLY616  TRP617  ASP618  TYR619  PRO620  LYS621  CYS622 
 ASP623  PHE694  ASN695  SER759  ASP760  ASP761  ALA762  ILE779  LEU786  VAL792 
 PHE793  MET794  SER795  GLU796  ALA797  LYS798  CYS799  TRP800  GLU811  SER814 

> <Gold.Protein.RotatedAtoms>
  150.6881  134.3439  159.4879 H   0  0  0  0  0  0  0  0  0  0  0  0  # atno 6907 bound_to 6896
  152.1289  134.9147  160.0569 H   0  0  0  0  0  0  0  0  0  0  0  0  # atno 6908 bound_to 6896
  152.0325  133.3908  159.4340 H   0  0  0  0  0  0  0  0  0  0  0  0  # atno 6909 bound_to 6896
  145.1225  139.3380  143.4707 H   0  0  0  0  0  0  0  0  0  0  0  0  # atno 7974 bound_to 7965
  156.0550  140.1334  157.0007 H   0  0  0  0  0  0  0  0  0  0  0  0  # atno 8008 bound_to 7997
  154.4453  140.1003  156.6503 H   0  0  0  0  0  0  0  0  0  0  0  0  # atno 8009 bound_to 7997
  155.5465  140.3462  155.4461 H   0  0  0  0  0  0  0  0  0  0  0  0  # atno 8010 bound_to 7997
  139.4839  144.5425  151.7540 H   0  0  0  0  0  0  0  0  0  0  0  0  # atno 10167 bound_to 10162
  156.2827  130.4219  149.8320 H   0  0  0  0  0  0  0  0  0  0  0  0  # atno 10718 bound_to 10713
  153.2931  135.6950  153.7274 H   0  0  0  0  0  0  0  0  0  0  0  0  # atno 10763 bound_to 10752
  153.6218  135.3426  155.3014 H   0  0  0  0  0  0  0  0  0  0  0  0  # atno 10764 bound_to 10752
  154.8529  135.4388  154.2019 H   0  0  0  0  0  0  0  0  0  0  0  0  # atno 10765 bound_to 10752
  140.2683  134.3111  155.7835 H   0  0  0  0  0  0  0  0  0  0  0  0  # atno 11005 bound_to 11000
  146.3520  140.1190  142.8601 LP  0  0  0  0  0  0  0  0  0  0  0  0  # atno 17320 bound_to 7965
  145.0725  140.9165  143.4873 LP  0  0  0  0  0  0  0  0  0  0  0  0  # atno 17321 bound_to 7965
  140.4967  144.1230  150.5962 LP  0  0  0  0  0  0  0  0  0  0  0  0  # atno 17342 bound_to 10162
  140.4109  143.2657  151.9833 LP  0  0  0  0  0  0  0  0  0  0  0  0  # atno 17343 bound_to 10162
  156.5762  130.8446  151.3370 LP  0  0  0  0  0  0  0  0  0  0  0  0  # atno 17370 bound_to 10713
  157.7319  130.9707  150.1903 LP  0  0  0  0  0  0  0  0  0  0  0  0  # atno 17371 bound_to 10713
  141.2181  133.7451  156.9295 LP  0  0  0  0  0  0  0  0  0  0  0  0  # atno 17394 bound_to 11000
  140.1397  134.9301  157.2450 LP  0  0  0  0  0  0  0  0  0  0  0  0  # atno 17395 bound_to 11000

$$$$
