AV-unprocessed.smi:1752|AV-procd|sdf|7061|dock4
  -GOLD-   22720 8273D 1   1.00000     0.00000
 Structure written by MMmdl.
 43 44  0  0  0  0  0  0  0  0  2 V2000
  151.1750  143.9931  157.7265 C   0  0  0  0  0  0  0  0  0  0  0  0
  151.2827  142.5674  157.1608 C   0  0  1  0  0  0  0  0  0  0  0  0
  151.2594  141.4752  158.2529 C   0  0  0  0  0  0  0  0  0  0  0  0
  152.0786  141.8138  159.4026 N   0  0  0  0  0  0  0  0  0  0  0  0
  153.2896  141.2715  159.7777 C   0  0  0  0  0  0  0  0  0  0  0  0
  153.6806  141.9043  160.9229 C   0  0  0  0  0  0  0  0  0  0  0  0
  152.6274  142.8274  161.1753 C   0  0  0  0  0  0  0  0  0  0  0  0
  151.6689  142.7696  160.2649 N   0  0  0  0  0  0  0  0  0  0  0  0
  150.1975  142.3504  156.2083 N   0  0  0  0  0  0  0  0  0  0  0  0
  150.1076  141.3242  155.3438 C   0  0  0  0  0  0  0  0  0  0  0  0
  150.9769  140.4558  155.2579 O   0  0  0  0  0  0  0  0  0  0  0  0
  149.0170  141.3613  154.5374 N   0  0  0  0  0  0  0  0  0  0  0  0
  148.1508  142.5504  154.3732 C   0  0  0  0  0  0  0  0  0  0  0  0
  146.6624  142.2183  154.1117 C   0  0  0  0  0  0  0  0  0  0  0  0
  145.9813  141.3550  155.1963 C   0  0  0  0  0  0  0  0  0  0  0  0
  146.7972  140.2179  155.7017 N   0  3  1  0  0  0  0  0  0  0  0  0
  146.0480  139.3964  156.6778 C   0  0  0  0  0  0  0  0  0  0  0  0
  147.4573  139.3889  154.6573 C   0  0  0  0  0  0  0  0  0  0  0  0
  148.5522  140.1382  153.8608 C   0  0  0  0  0  0  0  0  0  0  0  0
  152.0188  144.2315  158.3746 H   0  0  0  0  0  0  0  0  0  0  0  0
  150.2621  144.1203  158.3093 H   0  0  0  0  0  0  0  0  0  0  0  0
  151.1654  144.7333  156.9259 H   0  0  0  0  0  0  0  0  0  0  0  0
  152.2311  142.5026  156.6242 H   0  0  0  0  0  0  0  0  0  0  0  0
  150.2358  141.2970  158.5876 H   0  0  0  0  0  0  0  0  0  0  0  0
  151.6229  140.5277  157.8530 H   0  0  0  0  0  0  0  0  0  0  0  0
  153.7672  140.4913  159.2031 H   0  0  0  0  0  0  0  0  0  0  0  0
  154.5813  141.7338  161.4934 H   0  0  0  0  0  0  0  0  0  0  0  0
  152.5318  143.5327  161.9879 H   0  0  0  0  0  0  0  0  0  0  0  0
  149.4592  143.0392  156.2006 H   0  0  0  0  0  0  0  0  0  0  0  0
  148.1838  143.1817  155.2628 H   0  0  0  0  0  0  0  0  0  0  0  0
  148.5416  143.1517  153.5516 H   0  0  0  0  0  0  0  0  0  0  0  0
  146.1098  143.1544  154.0254 H   0  0  0  0  0  0  0  0  0  0  0  0
  146.5373  141.7482  153.1366 H   0  0  0  0  0  0  0  0  0  0  0  0
  145.7378  141.9907  156.0483 H   0  0  0  0  0  0  0  0  0  0  0  0
  145.0324  140.9806  154.8097 H   0  0  0  0  0  0  0  0  0  0  0  0
  145.2181  138.8780  156.1960 H   0  0  0  0  0  0  0  0  0  0  0  0
  145.6453  140.0187  157.4775 H   0  0  0  0  0  0  0  0  0  0  0  0
  146.6974  138.6507  157.1372 H   0  0  0  0  0  0  0  0  0  0  0  0
  147.9341  138.5423  155.1537 H   0  0  0  0  0  0  0  0  0  0  0  0
  146.7113  138.9665  153.9827 H   0  0  0  0  0  0  0  0  0  0  0  0
  148.1921  140.3918  152.8640 H   0  0  0  0  0  0  0  0  0  0  0  0
  149.3817  139.4583  153.6576 H   0  0  0  0  0  0  0  0  0  0  0  0
  147.5549  140.6362  156.2228 H   0  0  0  0  0  0  0  0  0  0  0  0
  1  2  1  0  0  0  0
  1 20  1  0  0  0  0
  1 21  1  0  0  0  0
  1 22  1  0  0  0  0
  2  3  1  0  0  0  0
  2  9  1  0  0  0  0
  2 23  1  0  0  0  0
  3  4  1  0  0  0  0
  3 24  1  0  0  0  0
  3 25  1  0  0  0  0
  4  8  1  0  0  0  0
  4  5  1  0  0  0  0
  5  6  2  0  0  0  0
  5 26  1  0  0  0  0
  6  7  1  0  0  0  0
  6 27  1  0  0  0  0
  7  8  2  0  0  0  0
  7 28  1  0  0  0  0
  9 10  1  0  0  0  0
  9 29  1  0  0  0  0
 10 11  2  0  0  0  0
 10 12  1  0  0  0  0
 12 19  1  0  0  0  0
 12 13  1  0  0  0  0
 13 14  1  0  0  0  0
 13 30  1  0  0  0  0
 13 31  1  0  0  0  0
 14 15  1  0  0  0  0
 14 32  1  0  0  0  0
 14 33  1  0  0  0  0
 15 16  1  0  0  0  0
 15 34  1  0  0  0  0
 15 35  1  0  0  0  0
 16 17  1  0  0  0  0
 16 18  1  0  0  0  0
 16 43  1  0  0  0  0
 17 36  1  0  0  0  0
 17 37  1  0  0  0  0
 17 38  1  0  0  0  0
 18 19  1  0  0  0  0
 18 39  1  0  0  0  0
 18 40  1  0  0  0  0
 19 41  1  0  0  0  0
 19 42  1  0  0  0  0
M  CHG  1  16   1
M  END
> <s_m_source_file>
AV-unprocessed.smi

> <i_m_source_file_index>
1752

> <i_lp_mmshare_version>
43012

> <i_f3d_flags>
0

> <s_epik_input>
bjFbY0hdW2NIXVtjSF1uMVtDSDJdW0NAQEhdKFtDSDNdKVtOSF1DKD1PKU4yW0NIMl1bQ0gyXVtDSDJdTihbQ0gzXSlbQ0gyXVtDSDJdMg==

> <s_epik_cmdline>
J2VwaWtfcHl0aG9uJywgJy1waCcsICc3LjAnLCAnLXRuJywgJzgnLCAnLW1hJywgJzIwMCcsICctbWV0YWxfYmluZGluZycsICctaW1hZScsICc8aW5maWxlLm1hZT4nLCAnLW9tYWUnLCAnPG91dGZpbGUubWFlPic=

> <r_lp_tautomer_probability>
1

> <r_epik_Ionization_Penalty>
0.00208423

> <r_epik_Ionization_Penalty_Charging>
0.00203643

> <r_epik_Ionization_Penalty_Neutral>
4.77939e-05

> <r_epik_State_Penalty>
0.00139278

> <r_epik_Charging_Adjusted_Penalty>
0.00342922

> <i_epik_Tot_Q>
1

> <i_epik_Tot_abs_Q>
1

> <r_epik_Metal_State_Penalty>
-0

> <b_epik_Metal_Only>
0

> <s_lp_Force_Field>
OPLS_2005

> <r_lp_Energy>
45.7643

> <b_lp_Chiralities_Consistent>
1

> <s_lp_Variant>
AV-unprocessed.smi:1752-4

> <Gold.Version>
5.8.1

> <Gold.Id.Protein>
6NUR|6NUR_protein|mol2

> <Gold.PLP.Fitness>
40.9114

> <Gold.PLP.PLP>
-36.1033

> <Gold.PLP.part.hbond>
-2.5429

> <Gold.PLP.part.metal>
0.0000

> <Gold.PLP.part.buried>
2.7309

> <Gold.PLP.part.nonpolar>
-34.7331

> <Gold.PLP.part.repulsive>
0.1728

> <Gold.PLP.ligand.clash>
0.0000

> <Gold.PLP.ligand.torsion>
0.5083

> <Gold.PLP.Chemscore.Hbond>
1.9184

> <Gold.PLP.Chemscore.CHOScore>
0.0000

> <Gold.PLP.Chemscore.Metal>
0.0000

> <Gold.Chemscore.Hbonds>
donor molecule, donor type, donor heavy atom, donor atom, acceptor molecule, acceptor atom, score
      L1  H     9    29       P1  8028  0.96
      P1  H  7989  7998       L1    11  0.94

> <Gold.PLP.Chemscore.Internal.Correction>
0.0695

> <Gold.Rescore>
     Score         DG    S(hbond)    S(metal)    S(lipo)     H(rot)  DE(clash)    DE(int)     intcor
     13.50     -17.00       1.53        0.00      85.69       1.41       1.73       1.78       ----

> <Gold.Chemscore.Fitness>
13.4961

> <Gold.Chemscore.DG>
-17.0020

> <Gold.Chemscore.ZeroCoef>
-5.4800

> <Gold.Chemscore.Hbond>
1.5306

> <Gold.Chemscore.Metal>
0.0000

> <Gold.Chemscore.Lipo>
85.6910

> <Gold.Chemscore.Internal_Hbond>
0.0000

> <Gold.Chemscore.DEClash>
1.7275

> <Gold.Chemscore.DEInternal>
1.7785

> <Gold.Chemscore.Rot>
1.4125

> <Gold.Chemscore.Internal.Correction>
   9.000000E+99

> <Gold.Chemscore.Hbonds>
donor molecule, donor type, donor heavy atom, donor atom, acceptor molecule, acceptor atom, score
      L1  H     9    29       P1  8028  0.92
      P1  H  7989  7998       L1    11  0.20

> <Gold.Chemscore.Hbond.Weighted>
-5.1122

> <Gold.Chemscore.Metal.Weighted>
-0.0000

> <Gold.Chemscore.Lipo.Weighted>
-10.0258

> <Gold.Chemscore.Internal_Hbond.Weighted>
0.0000

> <Gold.Chemscore.DEClash.Weighted>
1.7275

> <Gold.Chemscore.DEInternal.Weighted>
1.7785

> <Gold.Chemscore.Rot.Weighted>
3.6160

> <Gold.Chemscore.Internal.Correction.Weighted>
   9.000000E+99

> <Gold.Protein.RotatedTorsions>
[ 6907 6896 6895 6894 ] final -150.25 input  -60.11 | X-H torsion
[ 7974 7965 7964 7962 ] final -179.67 input  175.53 | X-H torsion
[ 8008 7997 7996 7995 ] final -121.83 input   59.86 | X-H torsion
[ 10167 10162 10161 10158 ] final   62.97 input  -65.29 | X-H torsion
[ 10718 10713 10712 10709 ] final -151.38 input   66.30 | X-H torsion
[ 10763 10752 10751 10750 ] final -157.18 input  -60.55 | X-H torsion
[ 11005 11000 10999 10996 ] final  131.94 input  -57.11 | X-H torsion

> <Gold.Protein.ActiveResidues>
 VAL166  LYS551  ARG553  GLY616  TRP617  ASP618  TYR619  PRO620  LYS621  CYS622 
 ASP623  PHE694  ASN695  SER759  ASP760  ASP761  ALA762  ILE779  LEU786  VAL792 
 PHE793  MET794  SER795  GLU796  ALA797  LYS798  CYS799  TRP800  GLU811  SER814 

> <Gold.Protein.RotatedAtoms>
  151.1959  133.4639  159.2595 H   0  0  0  0  0  0  0  0  0  0  0  0  # atno 6907 bound_to 6896
  151.1118  135.0030  159.8507 H   0  0  0  0  0  0  0  0  0  0  0  0  # atno 6908 bound_to 6896
  152.5451  134.1877  159.8714 H   0  0  0  0  0  0  0  0  0  0  0  0  # atno 6909 bound_to 6896
  144.7138  140.0682  143.6430 H   0  0  0  0  0  0  0  0  0  0  0  0  # atno 7974 bound_to 7965
  155.1543  140.0404  157.2828 H   0  0  0  0  0  0  0  0  0  0  0  0  # atno 8008 bound_to 7997
  154.6381  140.2540  155.7327 H   0  0  0  0  0  0  0  0  0  0  0  0  # atno 8009 bound_to 7997
  156.2519  140.2861  156.0763 H   0  0  0  0  0  0  0  0  0  0  0  0  # atno 8010 bound_to 7997
  140.1381  144.4580  150.6826 H   0  0  0  0  0  0  0  0  0  0  0  0  # atno 10167 bound_to 10162
  156.4585  130.8202  151.2433 H   0  0  0  0  0  0  0  0  0  0  0  0  # atno 10718 bound_to 10713
  154.7656  135.3130  154.8293 H   0  0  0  0  0  0  0  0  0  0  0  0  # atno 10763 bound_to 10752
  153.9042  135.6812  153.4758 H   0  0  0  0  0  0  0  0  0  0  0  0  # atno 10764 bound_to 10752
  153.1261  135.4801  154.9207 H   0  0  0  0  0  0  0  0  0  0  0  0  # atno 10765 bound_to 10752
  139.9760  134.9563  156.9510 H   0  0  0  0  0  0  0  0  0  0  0  0  # atno 11005 bound_to 11000
  145.9806  139.2938  143.1044 LP  0  0  0  0  0  0  0  0  0  0  0  0  # atno 17320 bound_to 7965
  145.9015  140.9240  143.0500 LP  0  0  0  0  0  0  0  0  0  0  0  0  # atno 17321 bound_to 7965
  140.6777  143.2312  151.5465 LP  0  0  0  0  0  0  0  0  0  0  0  0  # atno 17342 bound_to 10162
  139.5486  144.2456  152.1488 LP  0  0  0  0  0  0  0  0  0  0  0  0  # atno 17343 bound_to 10162
  157.7499  131.0115  150.3347 LP  0  0  0  0  0  0  0  0  0  0  0  0  # atno 17370 bound_to 10713
  156.3741  130.3869  149.7152 LP  0  0  0  0  0  0  0  0  0  0  0  0  # atno 17371 bound_to 10713
  140.5194  134.0923  155.7288 LP  0  0  0  0  0  0  0  0  0  0  0  0  # atno 17394 bound_to 11000
  141.1437  133.9093  157.2266 LP  0  0  0  0  0  0  0  0  0  0  0  0  # atno 17395 bound_to 11000

$$$$
