AV-unprocessed.smi:287|AV-procd|sdf|2200|dock7
  -GOLD-   2262022 13D 1   1.00000     0.00000
 Structure written by MMmdl.
 55 58  0  0  0  0  0  0  0  0  1 V2000
  135.3643  142.8620  152.5726 C   0  0  0  0  0  0  0  0  0  0  0  0
  135.5435  141.5821  153.3146 C   0  0  0  0  0  0  0  0  0  0  0  0
  136.6197  140.7854  153.5772 C   0  0  0  0  0  0  0  0  0  0  0  0
  136.1552  139.6866  154.3607 C   0  0  0  0  0  0  0  0  0  0  0  0
  136.9968  138.5340  154.8920 C   0  0  2  0  0  0  0  0  0  0  0  0
  136.4297  137.2004  154.3794 C   0  0  0  0  0  0  0  0  0  0  0  0
  136.9621  138.4423  156.3034 O   0  0  0  0  0  0  0  0  0  0  0  0
  138.4924  138.6563  154.5172 C   0  0  0  0  0  0  0  0  0  0  0  0
  139.2254  137.4060  154.6878 N   0  0  0  0  0  0  0  0  0  0  0  0
  140.5002  137.3014  154.2593 C   0  0  0  0  0  0  0  0  0  0  0  0
  141.3224  138.3826  154.2343 N   0  0  0  0  0  0  0  0  0  0  0  0
  142.5791  138.2539  153.7985 C   0  0  0  0  0  0  0  0  0  0  0  0
  143.1996  137.1592  153.3542 N   0  0  0  0  0  0  0  0  0  0  0  0
  142.3790  136.0690  153.3822 C   0  0  0  0  0  0  0  0  0  0  0  0
  141.0248  136.0596  153.8180 C   0  0  0  0  0  0  0  0  0  0  0  0
  140.5018  134.7782  153.7060 N   0  0  0  0  0  0  0  0  0  0  0  0
  141.4930  134.0742  153.2288 C   0  0  0  0  0  0  0  0  0  0  0  0
  142.6597  134.7711  153.0051 N   0  0  0  0  0  0  0  0  0  0  0  0
  143.9472  134.2389  152.4671 C   0  0  1  0  0  0  0  0  0  0  0  0
  143.6530  133.3248  151.4603 O   0  0  0  0  0  0  0  0  0  0  0  0
  144.6623  133.3963  150.4642 C   0  0  1  0  0  0  0  0  0  0  0  0
  144.1797  132.7693  149.1445 C   0  0  0  0  0  0  0  0  0  0  0  0
  143.0049  132.0189  149.3663 O   0  0  0  0  0  0  0  0  0  0  0  0
  144.9963  134.8957  150.4088 C   0  0  1  0  0  0  0  0  0  0  0  0
  144.1247  135.5951  149.5402 O   0  0  0  0  0  0  0  0  0  0  0  0
  144.8021  135.3608  151.8512 C   0  0  2  0  0  0  0  0  0  0  0  0
  146.0606  135.4463  152.4900 O   0  0  0  0  0  0  0  0  0  0  0  0
  134.8039  139.8974  154.4924 C   0  0  0  0  0  0  0  0  0  0  0  0
  133.6986  139.1429  155.1549 C   0  0  0  0  0  0  0  0  0  0  0  0
  134.4262  141.0476  153.8678 O   0  0  0  0  0  0  0  0  0  0  0  0
  144.4217  133.7370  153.3119 H   0  0  0  0  0  0  0  0  0  0  0  0
  145.5439  132.8668  150.8313 H   0  0  0  0  0  0  0  0  0  0  0  0
  146.0128  135.0601  150.0484 H   0  0  0  0  0  0  0  0  0  0  0  0
  144.2991  136.3276  151.9156 H   0  0  0  0  0  0  0  0  0  0  0  0
  136.3133  143.2130  152.1671 H   0  0  0  0  0  0  0  0  0  0  0  0
  134.9704  143.6374  153.2298 H   0  0  0  0  0  0  0  0  0  0  0  0
  134.6685  142.7343  151.7433 H   0  0  0  0  0  0  0  0  0  0  0  0
  137.6320  140.9741  153.2514 H   0  0  0  0  0  0  0  0  0  0  0  0
  136.4431  137.1596  153.2897 H   0  0  0  0  0  0  0  0  0  0  0  0
  135.3964  137.0595  154.7001 H   0  0  0  0  0  0  0  0  0  0  0  0
  137.0082  136.3514  154.7459 H   0  0  0  0  0  0  0  0  0  0  0  0
  137.4332  137.6661  156.5648 H   0  0  0  0  0  0  0  0  0  0  0  0
  138.6050  139.0307  153.4985 H   0  0  0  0  0  0  0  0  0  0  0  0
  138.9615  139.3919  155.1725 H   0  0  0  0  0  0  0  0  0  0  0  0
  138.7389  136.6697  155.1796 H   0  0  0  0  0  0  0  0  0  0  0  0
  143.1721  139.1561  153.8059 H   0  0  0  0  0  0  0  0  0  0  0  0
  141.3991  133.0173  153.0263 H   0  0  0  0  0  0  0  0  0  0  0  0
  144.0043  133.5308  148.3837 H   0  0  0  0  0  0  0  0  0  0  0  0
  144.9330  132.0843  148.7549 H   0  0  0  0  0  0  0  0  0  0  0  0
  142.2896  132.6179  149.5171 H   0  0  0  0  0  0  0  0  0  0  0  0
  144.2861  136.5215  149.6316 H   0  0  0  0  0  0  0  0  0  0  0  0
  146.7152  135.6463  151.8384 H   0  0  0  0  0  0  0  0  0  0  0  0
  133.6959  138.1011  154.8343 H   0  0  0  0  0  0  0  0  0  0  0  0
  132.7260  139.5706  154.9108 H   0  0  0  0  0  0  0  0  0  0  0  0
  133.8126  139.1637  156.2386 H   0  0  0  0  0  0  0  0  0  0  0  0
  1  2  1  0  0  0  0
  1 35  1  0  0  0  0
  1 36  1  0  0  0  0
  1 37  1  0  0  0  0
  2 30  1  0  0  0  0
  2  3  2  0  0  0  0
  3  4  1  0  0  0  0
  3 38  1  0  0  0  0
  4  5  1  0  0  0  0
  4 28  2  0  0  0  0
  5  6  1  0  0  0  0
  5  7  1  0  0  0  0
  5  8  1  0  0  0  0
  6 39  1  0  0  0  0
  6 40  1  0  0  0  0
  6 41  1  0  0  0  0
  7 42  1  0  0  0  0
  8  9  1  0  0  0  0
  8 43  1  0  0  0  0
  8 44  1  0  0  0  0
  9 10  1  0  0  0  0
  9 45  1  0  0  0  0
 10 15  1  0  0  0  0
 10 11  2  0  0  0  0
 11 12  1  0  0  0  0
 12 13  2  0  0  0  0
 12 46  1  0  0  0  0
 13 14  1  0  0  0  0
 14 18  1  0  0  0  0
 14 15  2  0  0  0  0
 15 16  1  0  0  0  0
 16 17  2  0  0  0  0
 17 18  1  0  0  0  0
 17 47  1  0  0  0  0
 18 19  1  0  0  0  0
 19 31  1  0  0  0  0
 19 26  1  0  0  0  0
 19 20  1  0  0  0  0
 20 21  1  0  0  0  0
 21 32  1  0  0  0  0
 21 22  1  0  0  0  0
 21 24  1  0  0  0  0
 22 23  1  0  0  0  0
 22 48  1  0  0  0  0
 22 49  1  0  0  0  0
 23 50  1  0  0  0  0
 24 33  1  0  0  0  0
 24 25  1  0  0  0  0
 24 26  1  0  0  0  0
 25 51  1  0  0  0  0
 26 34  1  0  0  0  0
 26 27  1  0  0  0  0
 27 52  1  0  0  0  0
 28 29  1  0  0  0  0
 28 30  1  0  0  0  0
 29 53  1  0  0  0  0
 29 54  1  0  0  0  0
 29 55  1  0  0  0  0
M  END
> <s_m_source_file>
AV-unprocessed.smi

> <i_m_source_file_index>
287

> <i_lp_mmshare_version>
43012

> <i_f3d_flags>
0

> <s_epik_input>
W0NIM11jMVtjSF1jKGMobzEpW0NIM10pW0NAQF0oW0NIM10pKFtPSF0pW0NIMl1bTkhdYyhuW2NIXW4yKWMoYzIzKW5bY0hdbjNbQ0BASF00T1tDQEhdKFtDSDJdW09IXSlbQ0BASF0oW09IXSlbQ0BIXTRbT0hd

> <s_epik_cmdline>
J2VwaWtfcHl0aG9uJywgJy1waCcsICc3LjAnLCAnLXRuJywgJzgnLCAnLW1hJywgJzIwMCcsICctbWV0YWxfYmluZGluZycsICctaW1hZScsICc8aW5maWxlLm1hZT4nLCAnLW9tYWUnLCAnPG91dGZpbGUubWFlPic=

> <r_lp_tautomer_probability>
1

> <r_epik_Ionization_Penalty>
0.000992612

> <r_epik_Ionization_Penalty_Charging>
0

> <r_epik_Ionization_Penalty_Neutral>
0.000992612

> <r_epik_State_Penalty>
-0

> <r_epik_Charging_Adjusted_Penalty>
0

> <i_epik_Tot_Q>
0

> <i_epik_Tot_abs_Q>
0

> <r_epik_Metal_State_Penalty>
-0

> <b_epik_Metal_Only>
0

> <s_epik_Chemistry_Notes>
This compound contains an acetal/aminal-like group ( X-CH(R)-Y where X, Y are N, S, or O) that may be acid/base labile, releasing an aldehyde.

> <s_lp_Force_Field>
OPLS_2005

> <r_lp_Energy>
38.4634

> <b_lp_Chiralities_Consistent>
1

> <s_lp_Variant>
AV-unprocessed.smi:287-24

> <Gold.Version>
5.8.1

> <Gold.Id.Protein>
6NUR|6NUR_protein|mol2

> <Gold.PLP.Fitness>
56.9914

> <Gold.PLP.PLP>
-44.3909

> <Gold.PLP.part.hbond>
-7.8057

> <Gold.PLP.part.metal>
0.0000

> <Gold.PLP.part.buried>
-1.7944

> <Gold.PLP.part.nonpolar>
-35.8651

> <Gold.PLP.part.repulsive>
0.7008

> <Gold.PLP.ligand.clash>
0.0000

> <Gold.PLP.ligand.torsion>
1.7027

> <Gold.PLP.Chemscore.Hbond>
3.8619

> <Gold.PLP.Chemscore.CHOScore>
1.4219

> <Gold.PLP.Chemscore.Metal>
0.0000

> <Gold.Chemscore.Hbonds>
donor molecule, donor type, donor heavy atom, donor atom, acceptor molecule, acceptor atom, score
      L1  H    23    50       P1 10186  0.57
      L1  H    25    51       P1 10171  0.86
      L1  H    27    52       P1  7948  0.28
      P1  H 10785 10796       L1    23  1.00
      P1  H 10995 11001       L1    16  0.02
      P1  H 11000 11005       L1    16  0.89
      L1  C    12    46       P1 10175  0.67
      L1  C    17    47       P1 10957  0.59

> <Gold.PLP.Chemscore.Internal.Correction>
0.1544

> <Gold.Rescore>
     Score         DG    S(hbond)    S(metal)    S(lipo)     H(rot)  DE(clash)    DE(int)     intcor
      7.53     -12.37       2.88        0.00      92.03       5.27       1.80       3.03       ----

> <Gold.Chemscore.Fitness>
7.5303

> <Gold.Chemscore.DG>
-12.3680

> <Gold.Chemscore.ZeroCoef>
-5.4800

> <Gold.Chemscore.Hbond>
2.8756

> <Gold.Chemscore.Metal>
0.0000

> <Gold.Chemscore.Lipo>
92.0282

> <Gold.Chemscore.Internal_Hbond>
0.0000

> <Gold.Chemscore.DEClash>
1.8045

> <Gold.Chemscore.DEInternal>
3.0332

> <Gold.Chemscore.Rot>
5.2672

> <Gold.Chemscore.Internal.Correction>
   9.000000E+99

> <Gold.Chemscore.Hbonds>
donor molecule, donor type, donor heavy atom, donor atom, acceptor molecule, acceptor atom, score
      L1  H    23    50       P1 10186  0.56
      L1  H    25    51       P1 10171  0.83
      L1  H    27    52       P1  7948  0.27
      P1  H 10785 10796       L1    23  0.80
      P1  H 11000 11005       L1    16  0.13

> <Gold.Chemscore.Hbond.Weighted>
-9.6046

> <Gold.Chemscore.Metal.Weighted>
-0.0000

> <Gold.Chemscore.Lipo.Weighted>
-10.7673

> <Gold.Chemscore.Internal_Hbond.Weighted>
0.0000

> <Gold.Chemscore.DEClash.Weighted>
1.8045

> <Gold.Chemscore.DEInternal.Weighted>
3.0332

> <Gold.Chemscore.Rot.Weighted>
13.4839

> <Gold.Chemscore.Internal.Correction.Weighted>
   9.000000E+99

> <Gold.Protein.RotatedTorsions>
[ 6907 6896 6895 6894 ] final -112.01 input  -60.11 | X-H torsion
[ 7974 7965 7964 7962 ] final -127.93 input  175.53 | X-H torsion
[ 8008 7997 7996 7995 ] final   93.82 input   59.86 | X-H torsion
[ 10167 10162 10161 10158 ] final   15.09 input  -65.29 | X-H torsion
[ 10718 10713 10712 10709 ] final  -40.44 input   66.30 | X-H torsion
[ 10763 10752 10751 10750 ] final   63.98 input  -60.55 | X-H torsion
[ 11005 11000 10999 10996 ] final   24.02 input  -57.11 | X-H torsion

> <Gold.Protein.ActiveResidues>
 VAL166  LYS551  ARG553  GLY616  TRP617  ASP618  TYR619  PRO620  LYS621  CYS622 
 ASP623  PHE694  ASN695  SER759  ASP760  ASP761  ALA762  ILE779  LEU786  VAL792 
 PHE793  MET794  SER795  GLU796  ALA797  LYS798  CYS799  TRP800  GLU811  SER814 

> <Gold.Protein.RotatedAtoms>
  150.7729  133.9151  159.3380 H   0  0  0  0  0  0  0  0  0  0  0  0  # atno 6907 bound_to 6896
  151.7033  135.0924  160.0264 H   0  0  0  0  0  0  0  0  0  0  0  0  # atno 6908 bound_to 6896
  152.3754  133.6436  159.6155 H   0  0  0  0  0  0  0  0  0  0  0  0  # atno 6909 bound_to 6896
  144.9721  140.7556  143.4664 H   0  0  0  0  0  0  0  0  0  0  0  0  # atno 7974 bound_to 7965
  156.0511  140.3308  155.7352 H   0  0  0  0  0  0  0  0  0  0  0  0  # atno 8008 bound_to 7997
  155.5600  140.0618  157.2848 H   0  0  0  0  0  0  0  0  0  0  0  0  # atno 8009 bound_to 7997
  154.4436  140.1879  156.0761 H   0  0  0  0  0  0  0  0  0  0  0  0  # atno 8010 bound_to 7997
  140.5891  143.8830  150.6857 H   0  0  0  0  0  0  0  0  0  0  0  0  # atno 10167 bound_to 10162
  156.2813  130.4217  149.8334 H   0  0  0  0  0  0  0  0  0  0  0  0  # atno 10718 bound_to 10713
  153.0038  135.5409  154.6437 H   0  0  0  0  0  0  0  0  0  0  0  0  # atno 10763 bound_to 10752
  154.5686  135.2840  155.0851 H   0  0  0  0  0  0  0  0  0  0  0  0  # atno 10764 bound_to 10752
  154.2026  135.6481  153.5144 H   0  0  0  0  0  0  0  0  0  0  0  0  # atno 10765 bound_to 10752
  140.3633  134.2102  155.7671 H   0  0  0  0  0  0  0  0  0  0  0  0  # atno 11005 bound_to 11000
  145.2543  139.2018  143.4926 LP  0  0  0  0  0  0  0  0  0  0  0  0  # atno 17320 bound_to 7965
  146.3385  140.2462  142.8597 LP  0  0  0  0  0  0  0  0  0  0  0  0  # atno 17321 bound_to 7965
  140.2349  143.3708  152.1535 LP  0  0  0  0  0  0  0  0  0  0  0  0  # atno 17342 bound_to 10162
  139.5216  144.7048  151.5386 LP  0  0  0  0  0  0  0  0  0  0  0  0  # atno 17343 bound_to 10162
  156.5780  130.8453  151.3375 LP  0  0  0  0  0  0  0  0  0  0  0  0  # atno 17370 bound_to 10713
  157.7315  130.9701  150.1883 LP  0  0  0  0  0  0  0  0  0  0  0  0  # atno 17371 bound_to 10713
  141.1977  133.8052  157.0614 LP  0  0  0  0  0  0  0  0  0  0  0  0  # atno 17394 bound_to 11000
  140.0609  134.9755  157.1304 LP  0  0  0  0  0  0  0  0  0  0  0  0  # atno 17395 bound_to 11000

$$$$
