#       Name:                AV-unprocessed.smi:813
#       Creating user name   scv26
#       Creation time:       Fri Mar 27 01:25:57 2020


#       File generated by GOLD software.
#

@<TRIPOS>MOLECULE
AV-unprocessed.smi:813
    42    43     1
SMALL
NO_CHARGES


@<TRIPOS>ATOM
      1 ****        -0.1146  -2.3656   2.6192 C.3            1 S1                 0.0000
      2 ****         0.2181  -1.6208   1.3156 C.3            1 S1                 0.0000
      3 ****         1.6741  -1.5513   1.1911 N.am           1 S1                 0.0000
      4 ****         2.3580  -1.3066   0.0629 C.2            1 S1                 0.0000
      5 ****         1.7522  -1.1212  -0.9955 O.2            1 S1                 0.0000
      6 ****         3.6999  -1.2940   0.2305 N.pl3          1 S1                -1.0000
      7 ****         4.5047  -1.0500  -0.8168 C.2            1 S1                 0.0000
      8 ****         5.0312   0.1629  -1.0509 N.2            1 S1                 0.0000
      9 ****         5.8380   0.1991  -2.1802 N.2            1 S1                 0.0000
     10 ****         5.9055  -0.9954  -2.7674 C.2            1 S1                 0.0000
     11 ****         4.9921  -2.2732  -1.9934 S.3            1 S1                 0.0000
     12 ****        -0.3874  -0.2104   1.3986 C.2            1 S1                 0.0000
     13 ****         0.1279   0.6548   2.1087 O.2            1 S1                 0.0000
     14 ****        -1.4956  -0.0005   0.6721 N.am           1 S1                 0.0000
     15 ****        -2.2237   1.2629   0.5948 C.3            1 S1                 0.0000
     16 ****        -3.6716   1.0336   0.1201 C.3            1 S1                 0.0000
     17 ****        -3.9175   2.0497  -0.9969 C.3            1 S1                 0.0000
     18 ****        -2.5421   2.2633  -1.6206 C.3            1 S1                 0.0000
     19 ****        -1.5824   2.2183  -0.4315 C.3            1 S1                 0.0000
     20 ****        -1.1925  -2.4499   2.7633 H              1 S1                 0.0000
     21 ****         0.3006  -1.8616   3.4935 H              1 S1                 0.0000
     22 ****         0.2896  -3.3782   2.6013 H              1 S1                 0.0000
     23 ****        -0.2016  -2.1659   0.4678 H              1 S1                 0.0000
     24 ****         2.2097  -1.6881   2.0355 H              1 S1                 0.0000
     25 ****         6.4987  -1.1255  -3.6600 H              1 S1                 0.0000
     26 ****        -1.8472  -0.7660   0.1157 H              1 S1                 0.0000
     27 ****        -2.2368   1.7397   1.5766 H              1 S1                 0.0000
     28 ****        -3.7900   0.0269  -0.2848 H              1 S1                 0.0000
     29 ****        -4.3921   1.1394   0.9318 H              1 S1                 0.0000
     30 ****        -4.6592   1.7085  -1.7195 H              1 S1                 0.0000
     31 ****        -4.2751   2.9876  -0.5698 H              1 S1                 0.0000
     32 ****        -2.3175   1.4439  -2.3048 H              1 S1                 0.0000
     33 ****        -2.4731   3.1959  -2.1812 H              1 S1                 0.0000
     34 ****        -1.5050   3.2143   0.0063 H              1 S1                 0.0000
     35 ****        -0.5753   1.9235  -0.7313 H              1 S1                 0.0000
     36 ****         0.7529  -1.1534  -1.0119 LP             1 S1                 0.0000
     37 ****         2.2604  -0.9387  -1.8372 LP             1 S1                 0.0000
     38 ****         4.0928  -1.4663   1.1338 LP             1 S1                 0.0000
     39 ****         4.8596   0.9592  -0.4708 LP             1 S1                 0.0000
     40 ****         6.3085   1.0172  -2.5109 LP             1 S1                 0.0000
     41 ****         0.9489   0.4428   2.6388 LP             1 S1                 0.0000
     42 ****        -0.2749   1.5689   2.1548 LP             1 S1                 0.0000
@<TRIPOS>BOND
    1    1    2 1     
    2    1   20 1     
    3    1   21 1     
    4    1   22 1     
    5    2    3 1     
    6    2   12 1     
    7    2   23 1     
    8    3    4 am    
    9    3   24 1     
   10    4    5 2     
   11    4    6 1     
   12    6    7 1     
   13    7   11 1     
   14    7    8 2     
   15    8    9 1     
   16    9   10 2     
   17   10   11 1     
   18   10   25 1     
   19   12   13 2     
   20   12   14 am    
   21   14   15 1     
   22   14   26 1     
   23   15   19 1     
   24   15   16 1     
   25   15   27 1     
   26   16   17 1     
   27   16   28 1     
   28   16   29 1     
   29   17   18 1     
   30   17   30 1     
   31   17   31 1     
   32   18   19 1     
   33   18   32 1     
   34   18   33 1     
   35   19   34 1     
   36   19   35 1     
   37    5   36 1     
   38    5   37 1     
   39    6   38 1     
   40    8   39 1     
   41    9   40 1     
   42   13   41 1     
   43   13   42 1     
@<TRIPOS>SUBSTRUCTURE
      1 S1             1
@<TRIPOS>SET
LONE_PAIRS      STATIC     ATOMS    <user>   **** ""
7 36 37 38 39 40 41 42
DONOR_HYDROGENS      STATIC     ATOMS    <user>   **** ""
2 24 26
ATOM$BLUE        STATIC     ATOMS    COLORGROUP SYSTEM
7 36 37 38 39 40 41 42
ATOM$RED        STATIC     ATOMS    COLORGROUP SYSTEM
2 24 26
