AV-unprocessed.smi:754|AV-procd|sdf|3610|dock10
  -GOLD-   22720 1 03D 1   1.00000     0.00000
 Structure written by MMmdl.
 37 38  0  0  0  0  0  0  0  0  1 V2000
  143.6928  132.3814  149.5621 C   0  0  0  0  0  0  0  0  0  0  0  0
  144.4098  133.0439  150.7404 C   0  0  0  0  0  0  0  0  0  0  0  0
  144.6842  134.3949  150.4100 O   0  0  0  0  0  0  0  0  0  0  0  0
  145.4507  135.0605  151.4015 C   0  0  1  0  0  0  0  0  0  0  0  0
  145.6401  136.5613  151.1621 C   0  0  0  0  0  0  0  0  0  0  0  0
  145.3873  136.7610  152.6601 C   0  0  2  0  0  0  0  0  0  0  0  0
  146.6435  136.7560  153.4084 N   0  0  0  0  0  0  0  0  0  0  0  0
  146.8412  137.3874  154.5750 C   0  0  0  0  0  0  0  0  0  0  0  0
  146.0055  138.1201  155.1031 O   0  0  0  0  0  0  0  0  0  0  0  0
  148.1753  137.1212  155.2704 C   0  0  0  0  0  0  0  0  0  0  0  0
  149.0390  138.2825  155.1661 N   0  0  0  0  0  0  0  0  0  0  0  0
  149.6437  138.8338  154.1117 C   0  0  0  0  0  0  0  0  0  0  0  0
  150.3226  139.9191  154.4502 N   0  0  0  0  0  0  0  0  0  0  0  0
  150.1027  140.0156  155.8142 N   0  0  0  0  0  0  0  0  0  0  0  0
  149.3406  139.0481  156.2444 N   0  0  0  0  0  0  0  0  0  0  0  0
  144.6434  135.3937  152.6795 C   0  0  0  0  0  0  0  0  0  0  0  0
  143.1237  135.5088  152.5002 C   0  0  0  0  0  0  0  0  0  0  0  0
  144.8706  134.4591  153.8747 C   0  0  0  0  0  0  0  0  0  0  0  0
  143.4689  131.3371  149.7799 H   0  0  0  0  0  0  0  0  0  0  0  0
  144.3085  132.4114  148.6628 H   0  0  0  0  0  0  0  0  0  0  0  0
  142.7521  132.8865  149.3419 H   0  0  0  0  0  0  0  0  0  0  0  0
  143.7837  132.9947  151.6323 H   0  0  0  0  0  0  0  0  0  0  0  0
  145.3360  132.5102  150.9576 H   0  0  0  0  0  0  0  0  0  0  0  0
  146.3897  134.5509  151.6293 H   0  0  0  0  0  0  0  0  0  0  0  0
  146.6329  136.8452  150.8109 H   0  0  0  0  0  0  0  0  0  0  0  0
  144.8569  136.9963  150.5393 H   0  0  0  0  0  0  0  0  0  0  0  0
  144.7458  137.6190  152.8694 H   0  0  0  0  0  0  0  0  0  0  0  0
  147.3884  136.1767  153.0480 H   0  0  0  0  0  0  0  0  0  0  0  0
  148.0117  136.8785  156.3214 H   0  0  0  0  0  0  0  0  0  0  0  0
  148.6765  136.2676  154.8120 H   0  0  0  0  0  0  0  0  0  0  0  0
  149.5775  138.4499  153.1043 H   0  0  0  0  0  0  0  0  0  0  0  0
  142.6517  135.9428  153.3821 H   0  0  0  0  0  0  0  0  0  0  0  0
  142.6640  134.5351  152.3274 H   0  0  0  0  0  0  0  0  0  0  0  0
  142.8597  136.1414  151.6522 H   0  0  0  0  0  0  0  0  0  0  0  0
  144.5129  134.9049  154.8033 H   0  0  0  0  0  0  0  0  0  0  0  0
  145.9255  134.2215  154.0142 H   0  0  0  0  0  0  0  0  0  0  0  0
  144.3525  133.5086  153.7443 H   0  0  0  0  0  0  0  0  0  0  0  0
  1  2  1  0  0  0  0
  1 19  1  0  0  0  0
  1 20  1  0  0  0  0
  1 21  1  0  0  0  0
  2  3  1  0  0  0  0
  2 22  1  0  0  0  0
  2 23  1  0  0  0  0
  3  4  1  0  0  0  0
  4 16  1  0  0  0  0
  4  5  1  0  0  0  0
  4 24  1  0  0  0  0
  5  6  1  0  0  0  0
  5 25  1  0  0  0  0
  5 26  1  0  0  0  0
  6  7  1  0  0  0  0
  6 16  1  0  0  0  0
  6 27  1  0  0  0  0
  7  8  1  0  0  0  0
  7 28  1  0  0  0  0
  8  9  2  0  0  0  0
  8 10  1  0  0  0  0
 10 11  1  0  0  0  0
 10 29  1  0  0  0  0
 10 30  1  0  0  0  0
 11 15  1  0  0  0  0
 11 12  1  0  0  0  0
 12 13  2  0  0  0  0
 12 31  1  0  0  0  0
 13 14  1  0  0  0  0
 14 15  2  0  0  0  0
 16 17  1  0  0  0  0
 16 18  1  0  0  0  0
 17 32  1  0  0  0  0
 17 33  1  0  0  0  0
 17 34  1  0  0  0  0
 18 35  1  0  0  0  0
 18 36  1  0  0  0  0
 18 37  1  0  0  0  0
M  END
> <s_m_source_file>
AV-unprocessed.smi

> <i_m_source_file_index>
754

> <i_lp_mmshare_version>
43012

> <i_f3d_flags>
0

> <s_epik_input>
W0NIM11bQ0gyXU9bQ0BASF0oQzEoW0NIM10pW0NIM10pW0NIMl1bQ0BIXTFbTkhdQyg9TylbQ0gyXW4yW2NIXW5ubjI=

> <s_epik_cmdline>
J2VwaWtfcHl0aG9uJywgJy1waCcsICc3LjAnLCAnLXRuJywgJzgnLCAnLW1hJywgJzIwMCcsICctbWV0YWxfYmluZGluZycsICctaW1hZScsICc8aW5maWxlLm1hZT4nLCAnLW9tYWUnLCAnPG91dGZpbGUubWFlPic=

> <r_lp_tautomer_probability>
1

> <r_epik_Ionization_Penalty>
8.28422e-07

> <r_epik_Ionization_Penalty_Charging>
0

> <r_epik_Ionization_Penalty_Neutral>
8.28422e-07

> <r_epik_State_Penalty>
-0

> <r_epik_Charging_Adjusted_Penalty>
0

> <i_epik_Tot_Q>
0

> <i_epik_Tot_abs_Q>
0

> <r_epik_Metal_State_Penalty>
-0

> <b_epik_Metal_Only>
0

> <s_lp_Force_Field>
OPLS_2005

> <r_lp_Energy>
21.5247

> <b_lp_Chiralities_Consistent>
1

> <s_lp_Variant>
AV-unprocessed.smi:754-4

> <Gold.Version>
5.8.1

> <Gold.Id.Protein>
6NUR|6NUR_protein|mol2

> <Gold.PLP.Fitness>
32.8470

> <Gold.PLP.PLP>
-22.4866

> <Gold.PLP.part.hbond>
-2.0000

> <Gold.PLP.part.metal>
0.0000

> <Gold.PLP.part.buried>
-3.8890

> <Gold.PLP.part.nonpolar>
-17.8319

> <Gold.PLP.part.repulsive>
0.6300

> <Gold.PLP.ligand.clash>
0.0000

> <Gold.PLP.ligand.torsion>
0.5407

> <Gold.PLP.Chemscore.Hbond>
1.8640

> <Gold.PLP.Chemscore.CHOScore>
1.8402

> <Gold.PLP.Chemscore.Metal>
0.0000

> <Gold.Chemscore.Hbonds>
donor molecule, donor type, donor heavy atom, donor atom, acceptor molecule, acceptor atom, score
      L1  H     7    28       P1  7948  0.85
      P1  H  7989  7998       L1    13  1.00
      L1  C    12    31       P1  7948  0.88
      L1  C    12    31       P1  7957  0.81

> <Gold.PLP.Chemscore.Internal.Correction>
0.3290

> <Gold.Rescore>
     Score         DG    S(hbond)    S(metal)    S(lipo)     H(rot)  DE(clash)    DE(int)     intcor
     10.39     -10.86       1.89        0.00      45.80       2.46       0.03       0.44       ----

> <Gold.Chemscore.Fitness>
10.3918

> <Gold.Chemscore.DG>
-10.8592

> <Gold.Chemscore.ZeroCoef>
-5.4800

> <Gold.Chemscore.Hbond>
1.8928

> <Gold.Chemscore.Metal>
0.0000

> <Gold.Chemscore.Lipo>
45.8026

> <Gold.Chemscore.Internal_Hbond>
0.0000

> <Gold.Chemscore.DEClash>
0.0301

> <Gold.Chemscore.DEInternal>
0.4374

> <Gold.Chemscore.Rot>
2.4616

> <Gold.Chemscore.Internal.Correction>
   9.000000E+99

> <Gold.Chemscore.Hbonds>
donor molecule, donor type, donor heavy atom, donor atom, acceptor molecule, acceptor atom, score
      L1  H     7    28       P1  7948  0.82
      P1  H  7989  7998       L1    13  0.99

> <Gold.Chemscore.Hbond.Weighted>
-6.3219

> <Gold.Chemscore.Metal.Weighted>
-0.0000

> <Gold.Chemscore.Lipo.Weighted>
-5.3589

> <Gold.Chemscore.Internal_Hbond.Weighted>
0.0000

> <Gold.Chemscore.DEClash.Weighted>
0.0301

> <Gold.Chemscore.DEInternal.Weighted>
0.4374

> <Gold.Chemscore.Rot.Weighted>
6.3016

> <Gold.Chemscore.Internal.Correction.Weighted>
   9.000000E+99

> <Gold.Protein.RotatedTorsions>
[ 6907 6896 6895 6894 ] final    0.39 input  -60.11 | X-H torsion
[ 7974 7965 7964 7962 ] final   92.96 input  175.53 | X-H torsion
[ 8008 7997 7996 7995 ] final -153.98 input   59.86 | X-H torsion
[ 10167 10162 10161 10158 ] final -175.56 input  -65.29 | X-H torsion
[ 10718 10713 10712 10709 ] final   60.02 input   66.30 | X-H torsion
[ 10763 10752 10751 10750 ] final    9.30 input  -60.55 | X-H torsion
[ 11005 11000 10999 10996 ] final  -52.28 input  -57.11 | X-H torsion

> <Gold.Protein.ActiveResidues>
 VAL166  LYS551  ARG553  GLY616  TRP617  ASP618  TYR619  PRO620  LYS621  CYS622 
 ASP623  PHE694  ASN695  SER759  ASP760  ASP761  ALA762  ILE779  LEU786  VAL792 
 PHE793  MET794  SER795  GLU796  ALA797  LYS798  CYS799  TRP800  GLU811  SER814 

> <Gold.Protein.RotatedAtoms>
  151.5756  135.1060  160.0005 H   0  0  0  0  0  0  0  0  0  0  0  0  # atno 6907 bound_to 6896
  152.4379  133.7390  159.6641 H   0  0  0  0  0  0  0  0  0  0  0  0  # atno 6908 bound_to 6896
  150.8280  133.8070  159.3134 H   0  0  0  0  0  0  0  0  0  0  0  0  # atno 6909 bound_to 6896
  145.4853  139.2277  143.2860 H   0  0  0  0  0  0  0  0  0  0  0  0  # atno 7974 bound_to 7965
  155.6793  140.0742  157.2490 H   0  0  0  0  0  0  0  0  0  0  0  0  # atno 8008 bound_to 7997
  154.4108  140.1685  156.2017 H   0  0  0  0  0  0  0  0  0  0  0  0  # atno 8009 bound_to 7997
  155.9548  140.3374  155.6442 H   0  0  0  0  0  0  0  0  0  0  0  0  # atno 8010 bound_to 7997
  139.5574  144.1954  152.1183 H   0  0  0  0  0  0  0  0  0  0  0  0  # atno 10167 bound_to 10162
  157.5721  130.8915  149.9284 H   0  0  0  0  0  0  0  0  0  0  0  0  # atno 10718 bound_to 10713
  153.2155  135.6874  153.8062 H   0  0  0  0  0  0  0  0  0  0  0  0  # atno 10763 bound_to 10752
  153.7279  135.3257  155.3281 H   0  0  0  0  0  0  0  0  0  0  0  0  # atno 10764 bound_to 10752
  154.8244  135.4629  154.0981 H   0  0  0  0  0  0  0  0  0  0  0  0  # atno 10765 bound_to 10752
  141.0916  133.6631  156.4002 H   0  0  0  0  0  0  0  0  0  0  0  0  # atno 11005 bound_to 11000
  146.2317  140.5642  142.8972 LP  0  0  0  0  0  0  0  0  0  0  0  0  # atno 17320 bound_to 7965
  144.7865  140.5947  143.6570 LP  0  0  0  0  0  0  0  0  0  0  0  0  # atno 17321 bound_to 7965
  140.1461  144.5158  150.6715 LP  0  0  0  0  0  0  0  0  0  0  0  0  # atno 17342 bound_to 10162
  140.6849  143.2345  151.5286 LP  0  0  0  0  0  0  0  0  0  0  0  0  # atno 17343 bound_to 10162
  156.0766  130.3678  150.0665 LP  0  0  0  0  0  0  0  0  0  0  0  0  # atno 17370 bound_to 10713
  156.8816  130.9558  151.3599 LP  0  0  0  0  0  0  0  0  0  0  0  0  # atno 17371 bound_to 10713
  140.5238  134.6278  157.5327 LP  0  0  0  0  0  0  0  0  0  0  0  0  # atno 17394 bound_to 11000
  139.9743  134.7241  155.9980 LP  0  0  0  0  0  0  0  0  0  0  0  0  # atno 17395 bound_to 11000

$$$$
