AV-unprocessed.smi:3287|AV-procd|sdf|12590|dock10
  -GOLD-   2272018513D 1   1.00000     0.00000
 Structure written by MMmdl.
 43 44  0  0  0  0  0  0  0  0  2 V2000
  152.6930  143.3370  161.9247 C   0  0  0  0  0  0  0  0  0  0  0  0
  152.4936  143.2904  160.3992 C   0  0  2  0  0  0  0  0  0  0  0  0
  151.2785  144.1543  160.0049 C   0  0  0  0  0  0  0  0  0  0  0  0
  151.0373  144.1509  158.4894 C   0  0  0  0  0  0  0  0  0  0  0  0
  150.8462  142.7208  157.9619 C   0  0  1  0  0  0  0  0  0  0  0  0
  150.6260  142.7530  156.4992 N   0  3  0  0  0  0  0  0  0  0  0  0
  149.7418  141.6924  155.9693 C   0  0  0  0  0  0  0  0  0  0  0  0
  150.2849  141.1133  154.6512 C   0  0  2  0  0  0  0  0  0  0  0  0
  149.2434  141.0987  153.6941 O   0  0  0  0  0  0  0  0  0  0  0  0
  150.8745  139.7279  154.8637 C   0  0  0  0  0  0  0  0  0  0  0  0
  150.3491  138.6135  154.1767 C   0  0  0  0  0  0  0  0  0  0  0  0
  150.9318  137.3493  154.3977 C   0  0  0  0  0  0  0  0  0  0  0  0
  151.9722  137.1486  155.2344 N   0  0  0  0  0  0  0  0  0  0  0  0
  152.4729  138.2183  155.8882 C   0  0  0  0  0  0  0  0  0  0  0  0
  151.9640  139.5238  155.7382 C   0  0  0  0  0  0  0  0  0  0  0  0
  152.0690  141.8586  158.3338 C   0  0  0  0  0  0  0  0  0  0  0  0
  152.3367  141.8461  159.8540 C   0  0  1  0  0  0  0  0  0  0  0  0
  153.5535  140.9547  160.1622 C   0  0  0  0  0  0  0  0  0  0  0  0
  151.8738  142.8418  162.4466 H   0  0  0  0  0  0  0  0  0  0  0  0
  152.7380  144.3663  162.2818 H   0  0  0  0  0  0  0  0  0  0  0  0
  153.6237  142.8579  162.2272 H   0  0  0  0  0  0  0  0  0  0  0  0
  153.3782  143.7332  159.9386 H   0  0  0  0  0  0  0  0  0  0  0  0
  150.3856  143.7889  160.5145 H   0  0  0  0  0  0  0  0  0  0  0  0
  151.4256  145.1807  160.3434 H   0  0  0  0  0  0  0  0  0  0  0  0
  150.1589  144.7552  158.2592 H   0  0  0  0  0  0  0  0  0  0  0  0
  151.8807  144.6261  157.9859 H   0  0  0  0  0  0  0  0  0  0  0  0
  149.9547  142.3032  158.4329 H   0  0  0  0  0  0  0  0  0  0  0  0
  150.1886  143.6357  156.2755 H   0  0  0  0  0  0  0  0  0  0  0  0
  149.6608  140.8934  156.7065 H   0  0  0  0  0  0  0  0  0  0  0  0
  148.7377  142.0927  155.8199 H   0  0  0  0  0  0  0  0  0  0  0  0
  151.0696  141.7670  154.2671 H   0  0  0  0  0  0  0  0  0  0  0  0
  149.3439  140.3293  153.1536 H   0  0  0  0  0  0  0  0  0  0  0  0
  149.5183  138.7184  153.4944 H   0  0  0  0  0  0  0  0  0  0  0  0
  150.5528  136.4762  153.8874 H   0  0  0  0  0  0  0  0  0  0  0  0
  153.3055  138.0290  156.5495 H   0  0  0  0  0  0  0  0  0  0  0  0
  152.4045  140.3459  156.2835 H   0  0  0  0  0  0  0  0  0  0  0  0
  151.9217  140.8339  157.9924 H   0  0  0  0  0  0  0  0  0  0  0  0
  152.9517  142.2313  157.8121 H   0  0  0  0  0  0  0  0  0  0  0  0
  151.4695  141.3940  160.3380 H   0  0  0  0  0  0  0  0  0  0  0  0
  154.4740  141.3904  159.7724 H   0  0  0  0  0  0  0  0  0  0  0  0
  153.4394  139.9674  159.7139 H   0  0  0  0  0  0  0  0  0  0  0  0
  153.6819  140.8007  161.2332 H   0  0  0  0  0  0  0  0  0  0  0  0
  151.5193  142.7125  156.0299 H   0  0  0  0  0  0  0  0  0  0  0  0
  1  2  1  0  0  0  0
  1 19  1  0  0  0  0
  1 20  1  0  0  0  0
  1 21  1  0  0  0  0
  2 17  1  0  0  0  0
  2  3  1  0  0  0  0
  2 22  1  0  0  0  0
  3  4  1  0  0  0  0
  3 23  1  0  0  0  0
  3 24  1  0  0  0  0
  4  5  1  0  0  0  0
  4 25  1  0  0  0  0
  4 26  1  0  0  0  0
  5  6  1  0  0  0  0
  5 16  1  0  0  0  0
  5 27  1  0  0  0  0
  6  7  1  0  0  0  0
  6 28  1  0  0  0  0
  6 43  1  0  0  0  0
  7  8  1  0  0  0  0
  7 29  1  0  0  0  0
  7 30  1  0  0  0  0
  8  9  1  0  0  0  0
  8 10  1  0  0  0  0
  8 31  1  0  0  0  0
  9 32  1  0  0  0  0
 10 15  1  0  0  0  0
 10 11  2  0  0  0  0
 11 12  1  0  0  0  0
 11 33  1  0  0  0  0
 12 13  2  0  0  0  0
 12 34  1  0  0  0  0
 13 14  1  0  0  0  0
 14 15  2  0  0  0  0
 14 35  1  0  0  0  0
 15 36  1  0  0  0  0
 16 17  1  0  0  0  0
 16 37  1  0  0  0  0
 16 38  1  0  0  0  0
 17 18  1  0  0  0  0
 17 39  1  0  0  0  0
 18 40  1  0  0  0  0
 18 41  1  0  0  0  0
 18 42  1  0  0  0  0
M  CHG  1   6   1
M  END
> <s_m_source_file>
AV-unprocessed.smi

> <i_m_source_file_index>
3287

> <i_lp_mmshare_version>
43012

> <i_f3d_flags>
0

> <s_epik_input>
W0NIM11bQ0BASF0xW0NIMl1bQ0gyXVtDQEhdKFtDSDJdW0NASF0xW0NIM10pW05IXVtDSDJdW0NASF0oW09IXSljMltjSF1bY0hdbltjSF1bY0hdMg==

> <s_epik_cmdline>
J2VwaWtfcHl0aG9uJywgJy1waCcsICc3LjAnLCAnLXRuJywgJzgnLCAnLW1hJywgJzIwMCcsICctbWV0YWxfYmluZGluZycsICctaW1hZScsICc8aW5maWxlLm1hZT4nLCAnLW9tYWUnLCAnPG91dGZpbGUubWFlPic=

> <r_lp_tautomer_probability>
1

> <r_epik_Ionization_Penalty>
0.00537262

> <r_epik_Ionization_Penalty_Charging>
0.00321624

> <r_epik_Ionization_Penalty_Neutral>
0.00215638

> <r_epik_State_Penalty>
-0

> <r_epik_Charging_Adjusted_Penalty>
0.00321624

> <i_epik_Tot_Q>
1

> <i_epik_Tot_abs_Q>
1

> <r_epik_Metal_State_Penalty>
-0

> <b_epik_Metal_Only>
0

> <s_lp_Force_Field>
OPLS_2005

> <r_lp_Energy>
16.0387

> <b_lp_Chiralities_Consistent>
1

> <s_lp_Variant>
AV-unprocessed.smi:3287-1

> <Gold.Version>
5.8.1

> <Gold.Id.Protein>
6NUR|6NUR_protein|mol2

> <Gold.PLP.Fitness>
55.7249

> <Gold.PLP.PLP>
-42.4540

> <Gold.PLP.part.hbond>
-5.0000

> <Gold.PLP.part.metal>
0.0000

> <Gold.PLP.part.buried>
0.8208

> <Gold.PLP.part.nonpolar>
-37.5205

> <Gold.PLP.part.repulsive>
0.1442

> <Gold.PLP.ligand.clash>
0.0000

> <Gold.PLP.ligand.torsion>
1.3696

> <Gold.PLP.Chemscore.Hbond>
4.4768

> <Gold.PLP.Chemscore.CHOScore>
0.8544

> <Gold.PLP.Chemscore.Metal>
0.0000

> <Gold.Chemscore.Hbonds>
donor molecule, donor type, donor heavy atom, donor atom, acceptor molecule, acceptor atom, score
      L1  H     6    28       P1  8028  2.00
      L1  H     9    32       P1  7957  0.67
      P1  H  8011  8017       L1     9  0.83
      P1  H 10752 10763       L1    13  0.94
      L1  C    12    34       P1  7948  0.45
      L1  C    12    34       P1  7949  0.43

> <Gold.PLP.Chemscore.Internal.Correction>
0.0165

> <Gold.Rescore>
     Score         DG    S(hbond)    S(metal)    S(lipo)     H(rot)  DE(clash)    DE(int)     intcor
     21.53     -24.63       2.55        0.00     132.66       1.90       1.69       1.42       ----

> <Gold.Chemscore.Fitness>
21.5291

> <Gold.Chemscore.DG>
-24.6347

> <Gold.Chemscore.ZeroCoef>
-5.4800

> <Gold.Chemscore.Hbond>
2.5468

> <Gold.Chemscore.Metal>
0.0000

> <Gold.Chemscore.Lipo>
132.6596

> <Gold.Chemscore.Internal_Hbond>
0.0000

> <Gold.Chemscore.DEClash>
1.6866

> <Gold.Chemscore.DEInternal>
1.4191

> <Gold.Chemscore.Rot>
1.9035

> <Gold.Chemscore.Internal.Correction>
   9.000000E+99

> <Gold.Chemscore.Hbonds>
donor molecule, donor type, donor heavy atom, donor atom, acceptor molecule, acceptor atom, score
      L1  H     6    28       P1  8028  0.99
      L1  H     9    32       P1  7957  0.62
      P1  H  8011  8017       L1     9  0.07
      P1  H 10752 10763       L1    13  0.59

> <Gold.Chemscore.Hbond.Weighted>
-8.5064

> <Gold.Chemscore.Metal.Weighted>
-0.0000

> <Gold.Chemscore.Lipo.Weighted>
-15.5212

> <Gold.Chemscore.Internal_Hbond.Weighted>
0.0000

> <Gold.Chemscore.DEClash.Weighted>
1.6866

> <Gold.Chemscore.DEInternal.Weighted>
1.4191

> <Gold.Chemscore.Rot.Weighted>
4.8729

> <Gold.Chemscore.Internal.Correction.Weighted>
   9.000000E+99

> <Gold.Protein.RotatedTorsions>
[ 6907 6896 6895 6894 ] final  -24.78 input  -60.11 | X-H torsion
[ 7974 7965 7964 7962 ] final  156.14 input  175.53 | X-H torsion
[ 8008 7997 7996 7995 ] final  168.77 input   59.86 | X-H torsion
[ 10167 10162 10161 10158 ] final  126.88 input  -65.29 | X-H torsion
[ 10718 10713 10712 10709 ] final  -16.72 input   66.30 | X-H torsion
[ 10763 10752 10751 10750 ] final   60.57 input  -60.55 | X-H torsion
[ 11005 11000 10999 10996 ] final -156.31 input  -57.11 | X-H torsion

> <Gold.Protein.ActiveResidues>
 VAL166  LYS551  ARG553  GLY616  TRP617  ASP618  TYR619  PRO620  LYS621  CYS622 
 ASP623  PHE694  ASN695  SER759  ASP760  ASP761  ALA762  ILE779  LEU786  VAL792 
 PHE793  MET794  SER795  GLU796  ALA797  LYS798  CYS799  TRP800  GLU811  SER814 

> <Gold.Protein.RotatedAtoms>
  151.1846  135.0376  159.8806 H   0  0  0  0  0  0  0  0  0  0  0  0  # atno 6907 bound_to 6896
  152.5443  134.1025  159.8334 H   0  0  0  0  0  0  0  0  0  0  0  0  # atno 6908 bound_to 6896
  151.1146  133.5101  159.2636 H   0  0  0  0  0  0  0  0  0  0  0  0  # atno 6909 bound_to 6896
  144.7981  139.7163  143.6193 H   0  0  0  0  0  0  0  0  0  0  0  0  # atno 7974 bound_to 7965
  156.1518  140.1582  156.8758 H   0  0  0  0  0  0  0  0  0  0  0  0  # atno 8008 bound_to 7997
  154.5078  140.0808  156.7965 H   0  0  0  0  0  0  0  0  0  0  0  0  # atno 8009 bound_to 7997
  155.3882  140.3408  155.4252 H   0  0  0  0  0  0  0  0  0  0  0  0  # atno 8010 bound_to 7997
  139.5607  144.6880  151.4050 H   0  0  0  0  0  0  0  0  0  0  0  0  # atno 10167 bound_to 10162
  156.5836  130.4780  149.6309 H   0  0  0  0  0  0  0  0  0  0  0  0  # atno 10718 bound_to 10713
  152.9925  135.5531  154.5895 H   0  0  0  0  0  0  0  0  0  0  0  0  # atno 10763 bound_to 10752
  154.5260  135.2810  155.1224 H   0  0  0  0  0  0  0  0  0  0  0  0  # atno 10764 bound_to 10752
  154.2558  135.6390  153.5309 H   0  0  0  0  0  0  0  0  0  0  0  0  # atno 10765 bound_to 10752
  140.6770  134.4186  157.5229 H   0  0  0  0  0  0  0  0  0  0  0  0  # atno 11005 bound_to 11000
  146.2255  139.5715  142.9590 LP  0  0  0  0  0  0  0  0  0  0  0  0  # atno 17320 bound_to 7965
  145.5621  141.0403  143.2220 LP  0  0  0  0  0  0  0  0  0  0  0  0  # atno 17321 bound_to 7965
  140.6887  143.7914  150.7223 LP  0  0  0  0  0  0  0  0  0  0  0  0  # atno 17342 bound_to 10162
  140.1389  143.4459  152.2206 LP  0  0  0  0  0  0  0  0  0  0  0  0  # atno 17343 bound_to 10162
  156.2610  130.6962  151.1730 LP  0  0  0  0  0  0  0  0  0  0  0  0  # atno 17370 bound_to 10713
  157.7320  131.0603  150.5647 LP  0  0  0  0  0  0  0  0  0  0  0  0  # atno 17371 bound_to 10713
  139.8963  134.8661  156.2091 LP  0  0  0  0  0  0  0  0  0  0  0  0  # atno 17394 bound_to 11000
  141.0348  133.6969  156.1492 LP  0  0  0  0  0  0  0  0  0  0  0  0  # atno 17395 bound_to 11000

$$$$
