AV-unprocessed.smi:2591|AV-procd|sdf|10157|dock3
  -GOLD-   2272014173D 1   1.00000     0.00000
 Structure written by MMmdl.
 34 35  0  0  0  0  0  0  0  0  1 V2000
  146.5907  137.7038  154.5553 C   0  0  0  0  0  0  0  0  0  0  0  0
  147.4668  138.7733  154.1019 N   0  0  0  0  0  0  0  0  0  0  0  0
  146.7580  140.0407  153.9908 C   0  0  0  0  0  0  0  0  0  0  0  0
  147.6886  141.1689  153.5153 C   0  0  0  0  0  0  0  0  0  0  0  0
  148.8016  141.2752  154.3980 O   0  0  0  0  0  0  0  0  0  0  0  0
  149.5545  140.0657  154.5042 C   0  0  1  0  0  0  0  0  0  0  0  0
  150.7409  140.3009  155.4504 C   0  0  0  0  0  0  0  0  0  0  0  0
  151.8772  139.9659  155.1118 O   0  0  0  0  0  0  0  0  0  0  0  0
  150.4432  140.8992  156.6198 N   0  0  0  0  0  0  0  0  0  0  0  0
  151.3204  141.2530  157.6789 C   0  0  0  0  0  0  0  0  0  0  0  0
  151.0475  142.4963  158.2916 C   0  0  0  0  0  0  0  0  0  0  0  0
  151.8647  142.9499  159.3497 C   0  0  0  0  0  0  0  0  0  0  0  0
  151.5923  144.2825  160.0303 C   0  0  0  0  0  0  0  0  0  0  0  0
  150.2820  144.4818  160.1759 F   0  0  0  0  0  0  0  0  0  0  0  0
  152.1577  144.3221  161.2375 F   0  0  0  0  0  0  0  0  0  0  0  0
  152.0967  145.2666  159.2872 F   0  0  0  0  0  0  0  0  0  0  0  0
  152.9293  142.1274  159.7709 C   0  0  0  0  0  0  0  0  0  0  0  0
  153.1294  140.9026  159.1093 C   0  0  0  0  0  0  0  0  0  0  0  0
  152.3519  140.4765  158.0928 N   0  0  0  0  0  0  0  0  0  0  0  0
  148.6183  138.9314  154.9810 C   0  0  0  0  0  0  0  0  0  0  0  0
  145.7514  137.5755  153.8710 H   0  0  0  0  0  0  0  0  0  0  0  0
  146.1915  137.9154  155.5482 H   0  0  0  0  0  0  0  0  0  0  0  0
  147.1298  136.7570  154.6006 H   0  0  0  0  0  0  0  0  0  0  0  0
  145.9244  139.9395  153.2951 H   0  0  0  0  0  0  0  0  0  0  0  0
  146.3283  140.3108  154.9569 H   0  0  0  0  0  0  0  0  0  0  0  0
  148.0383  140.9787  152.4995 H   0  0  0  0  0  0  0  0  0  0  0  0
  147.1549  142.1190  153.4978 H   0  0  0  0  0  0  0  0  0  0  0  0
  149.9613  139.8151  153.5227 H   0  0  0  0  0  0  0  0  0  0  0  0
  149.4701  141.1254  156.7654 H   0  0  0  0  0  0  0  0  0  0  0  0
  150.2176  143.0989  157.9515 H   0  0  0  0  0  0  0  0  0  0  0  0
  153.5783  142.4226  160.5823 H   0  0  0  0  0  0  0  0  0  0  0  0
  153.9345  140.2462  159.4048 H   0  0  0  0  0  0  0  0  0  0  0  0
  148.2788  139.1398  155.9973 H   0  0  0  0  0  0  0  0  0  0  0  0
  149.1721  137.9924  155.0238 H   0  0  0  0  0  0  0  0  0  0  0  0
  1  2  1  0  0  0  0
  1 21  1  0  0  0  0
  1 22  1  0  0  0  0
  1 23  1  0  0  0  0
  2 20  1  0  0  0  0
  2  3  1  0  0  0  0
  3  4  1  0  0  0  0
  3 24  1  0  0  0  0
  3 25  1  0  0  0  0
  4  5  1  0  0  0  0
  4 26  1  0  0  0  0
  4 27  1  0  0  0  0
  5  6  1  0  0  0  0
  6  7  1  0  0  0  0
  6 20  1  0  0  0  0
  6 28  1  0  0  0  0
  7  8  2  0  0  0  0
  7  9  1  0  0  0  0
  9 10  1  0  0  0  0
  9 29  1  0  0  0  0
 10 19  1  0  0  0  0
 10 11  2  0  0  0  0
 11 12  1  0  0  0  0
 11 30  1  0  0  0  0
 12 13  1  0  0  0  0
 12 17  2  0  0  0  0
 13 14  1  0  0  0  0
 13 15  1  0  0  0  0
 13 16  1  0  0  0  0
 17 18  1  0  0  0  0
 17 31  1  0  0  0  0
 18 19  2  0  0  0  0
 18 32  1  0  0  0  0
 20 33  1  0  0  0  0
 20 34  1  0  0  0  0
M  END
> <s_m_source_file>
AV-unprocessed.smi

> <i_m_source_file_index>
2591

> <i_lp_mmshare_version>
43012

> <i_f3d_flags>
0

> <s_epik_input>
W0NIM11OMVtDSDJdW0NIMl1PW0NASF0oW0NIMl0xKUMoPU8pW05IXWMyW2NIXWMoQyhGKShGKUYpW2NIXVtjSF1uMg==

> <s_epik_cmdline>
J2VwaWtfcHl0aG9uJywgJy1waCcsICc3LjAnLCAnLXRuJywgJzgnLCAnLW1hJywgJzIwMCcsICctbWV0YWxfYmluZGluZycsICctaW1hZScsICc8aW5maWxlLm1hZT4nLCAnLW9tYWUnLCAnPG91dGZpbGUubWFlPic=

> <r_epik_Ionization_Penalty>
0.526245

> <r_epik_Ionization_Penalty_Charging>
0

> <r_epik_Ionization_Penalty_Neutral>
0.526245

> <r_epik_State_Penalty>
0.534659

> <r_epik_Charging_Adjusted_Penalty>
0.534659

> <i_epik_Tot_Q>
0

> <i_epik_Tot_abs_Q>
0

> <r_epik_Metal_State_Penalty>
0.534657

> <b_epik_Metal_Only>
0

> <s_lp_Force_Field>
OPLS_2005

> <r_lp_Energy>
21.9247

> <b_lp_Chiralities_Consistent>
1

> <s_lp_Variant>
AV-unprocessed.smi:2591-5

> <Gold.Version>
5.8.1

> <Gold.Id.Protein>
6NUR|6NUR_protein|mol2

> <Gold.PLP.Fitness>
39.4788

> <Gold.PLP.PLP>
-39.8352

> <Gold.PLP.part.hbond>
-1.0021

> <Gold.PLP.part.metal>
0.0000

> <Gold.PLP.part.buried>
-6.7491

> <Gold.PLP.part.nonpolar>
-32.3210

> <Gold.PLP.part.repulsive>
0.3770

> <Gold.PLP.ligand.clash>
0.0000

> <Gold.PLP.ligand.torsion>
1.4173

> <Gold.PLP.Chemscore.Hbond>
0.4640

> <Gold.PLP.Chemscore.CHOScore>
0.0000

> <Gold.PLP.Chemscore.Metal>
0.0000

> <Gold.Chemscore.Hbonds>
donor molecule, donor type, donor heavy atom, donor atom, acceptor molecule, acceptor atom, score
      P1  H  7989  7998       L1     8  0.46

> <Gold.PLP.Chemscore.Internal.Correction>
1.0861

> <Gold.Rescore>
     Score         DG    S(hbond)    S(metal)    S(lipo)     H(rot)  DE(clash)    DE(int)     intcor
     10.27     -11.73       0.01        0.00      75.10       1.00       0.18       1.27       ----

> <Gold.Chemscore.Fitness>
10.2725

> <Gold.Chemscore.DG>
-11.7261

> <Gold.Chemscore.ZeroCoef>
-5.4800

> <Gold.Chemscore.Hbond>
0.0058

> <Gold.Chemscore.Metal>
0.0000

> <Gold.Chemscore.Lipo>
75.0988

> <Gold.Chemscore.Internal_Hbond>
0.0000

> <Gold.Chemscore.DEClash>
0.1797

> <Gold.Chemscore.DEInternal>
1.2738

> <Gold.Chemscore.Rot>
1.0000

> <Gold.Chemscore.Internal.Correction>
   9.000000E+99

> <Gold.Chemscore.Hbonds>
donor molecule, donor type, donor heavy atom, donor atom, acceptor molecule, acceptor atom, score
      P1  H  7989  7998       L1     8  0.02

> <Gold.Chemscore.Hbond.Weighted>
-0.0195

> <Gold.Chemscore.Metal.Weighted>
-0.0000

> <Gold.Chemscore.Lipo.Weighted>
-8.7866

> <Gold.Chemscore.Internal_Hbond.Weighted>
0.0000

> <Gold.Chemscore.DEClash.Weighted>
0.1797

> <Gold.Chemscore.DEInternal.Weighted>
1.2738

> <Gold.Chemscore.Rot.Weighted>
2.5600

> <Gold.Chemscore.Internal.Correction.Weighted>
   9.000000E+99

> <Gold.Protein.RotatedTorsions>
[ 6907 6896 6895 6894 ] final   92.23 input  -60.11 | X-H torsion
[ 7974 7965 7964 7962 ] final   65.73 input  175.53 | X-H torsion
[ 8008 7997 7996 7995 ] final  -89.84 input   59.86 | X-H torsion
[ 10167 10162 10161 10158 ] final -130.51 input  -65.29 | X-H torsion
[ 10718 10713 10712 10709 ] final  -71.82 input   66.30 | X-H torsion
[ 10763 10752 10751 10750 ] final -139.24 input  -60.55 | X-H torsion
[ 11005 11000 10999 10996 ] final  168.97 input  -57.11 | X-H torsion

> <Gold.Protein.ActiveResidues>
 VAL166  LYS551  ARG553  GLY616  TRP617  ASP618  TYR619  PRO620  LYS621  CYS622 
 ASP623  PHE694  ASN695  SER759  ASP760  ASP761  ALA762  ILE779  LEU786  VAL792 
 PHE793  MET794  SER795  GLU796  ALA797  LYS798  CYS799  TRP800  GLU811  SER814 

> <Gold.Protein.RotatedAtoms>
  152.5452  134.1534  159.8527 H   0  0  0  0  0  0  0  0  0  0  0  0  # atno 6907 bound_to 6896
  151.1559  133.4870  159.2602 H   0  0  0  0  0  0  0  0  0  0  0  0  # atno 6908 bound_to 6896
  151.1424  135.0197  159.8686 H   0  0  0  0  0  0  0  0  0  0  0  0  # atno 6909 bound_to 6896
  145.8350  139.3161  143.0965 H   0  0  0  0  0  0  0  0  0  0  0  0  # atno 7974 bound_to 7965
  154.6914  140.0537  157.0367 H   0  0  0  0  0  0  0  0  0  0  0  0  # atno 8008 bound_to 7997
  155.0811  140.3209  155.4582 H   0  0  0  0  0  0  0  0  0  0  0  0  # atno 8009 bound_to 7997
  156.2729  140.2064  156.5939 H   0  0  0  0  0  0  0  0  0  0  0  0  # atno 8010 bound_to 7997
  139.9286  143.6298  152.2535 H   0  0  0  0  0  0  0  0  0  0  0  0  # atno 10167 bound_to 10162
  156.0346  130.4359  150.2500 H   0  0  0  0  0  0  0  0  0  0  0  0  # atno 10718 bound_to 10713
  154.8615  135.3588  154.5514 H   0  0  0  0  0  0  0  0  0  0  0  0  # atno 10763 bound_to 10752
  153.6132  135.7008  153.5344 H   0  0  0  0  0  0  0  0  0  0  0  0  # atno 10764 bound_to 10752
  153.3192  135.4156  155.1362 H   0  0  0  0  0  0  0  0  0  0  0  0  # atno 10765 bound_to 10752
  140.2928  134.7659  157.3853 H   0  0  0  0  0  0  0  0  0  0  0  0  # atno 11005 bound_to 11000
  145.9528  140.8895  143.0250 LP  0  0  0  0  0  0  0  0  0  0  0  0  # atno 17320 bound_to 7965
  144.6737  140.1704  143.7415 LP  0  0  0  0  0  0  0  0  0  0  0  0  # atno 17321 bound_to 7965
  139.6801  144.7656  151.1624 LP  0  0  0  0  0  0  0  0  0  0  0  0  # atno 17342 bound_to 10162
  140.7643  143.5737  150.8968 LP  0  0  0  0  0  0  0  0  0  0  0  0  # atno 17343 bound_to 10162
  157.0600  131.0087  151.3225 LP  0  0  0  0  0  0  0  0  0  0  0  0  # atno 17370 bound_to 10713
  157.5077  130.7919  149.7671 LP  0  0  0  0  0  0  0  0  0  0  0  0  # atno 17371 bound_to 10713
  140.1179  134.5258  155.8208 LP  0  0  0  0  0  0  0  0  0  0  0  0  # atno 17394 bound_to 11000
  141.2143  133.6746  156.6812 LP  0  0  0  0  0  0  0  0  0  0  0  0  # atno 17395 bound_to 11000

$$$$
