#       Name:                AV-unprocessed.smi:2827
#       Creating user name   scv26
#       Creation time:       Fri Mar 27 15:34:24 2020


#       File generated by GOLD software.
#

@<TRIPOS>MOLECULE
AV-unprocessed.smi:2827
    54    57     1
SMALL
NO_CHARGES


@<TRIPOS>ATOM
      1 ****         0.6835   2.3131   2.1630 O.2            1 S1                 0.0000
      2 ****         1.3391   1.2778   2.2765 C.2            1 S1                 0.0000
      3 ****         2.8636   1.3188   2.1575 C.3            1 S1                 0.0000
      4 ****         3.2459   1.2981   0.7488 N.pl3          1 S1                 0.0000
      5 ****         3.3309   2.4716   0.0061 C.2            1 S1                 0.0000
      6 ****         3.3732   2.5119  -1.3390 C.2            1 S1                 0.0000
      7 ****         3.3222   1.2502  -2.1050 C.2            1 S1                 0.0000
      8 ****         3.3122   1.2629  -3.3348 O.2            1 S1                 0.0000
      9 ****         3.2714  -0.0146  -1.3167 C.2            1 S1                 0.0000
     10 ****         3.2412  -1.3470  -1.8823 N.pl3          1 S1                 1.0000
     11 ****         2.7083  -2.2525  -1.2462 O.2            1 S1                 0.0000
     12 ****         3.7491  -1.5316  -2.9833 O.2            1 S1                -1.0000
     13 ****         3.2459   0.0997   0.0345 C.2            1 S1                 0.0000
     14 ****         0.7951   0.0647   2.4571 N.am           1 S1                 0.0000
     15 ****        -0.6265  -0.2486   2.3650 C.3            1 S1                 0.0000
     16 ****        -0.9546  -0.9483   1.0225 C.3            1 S1                 0.0000
     17 ****        -0.6472  -0.1095  -0.2515 C.3            1 S1                 0.0000
     18 ****        -1.6212   1.0850  -0.3723 C.3            1 S1                 0.0000
     19 ****        -3.0703   0.5602  -0.4573 C.3            1 S1                 0.0000
     20 ****        -3.2187  -0.3434  -1.7003 C.3            1 S1                 0.0000
     21 ****        -2.2448  -1.5353  -1.5829 C.3            1 S1                 0.0000
     22 ****        -0.7960  -1.0080  -1.4995 C.3            1 S1                 0.0000
     23 ****        -2.5756  -2.3477  -0.3112 C.3            1 S1                 0.0000
     24 ****        -2.4219  -1.4438   0.9338 C.3            1 S1                 0.0000
     25 ****        -3.4026  -0.2534   0.8118 C.3            1 S1                 0.0000
     26 ****         3.2425   2.2205   2.6405 H              1 S1                 0.0000
     27 ****         3.3115   0.4744   2.6840 H              1 S1                 0.0000
     28 ****         3.3628   3.3736   0.5997 H              1 S1                 0.0000
     29 ****         3.4377   3.4489  -1.8724 H              1 S1                 0.0000
     30 ****         3.2167  -0.7706   0.6746 H              1 S1                 0.0000
     31 ****         1.4224  -0.7202   2.5578 H              1 S1                 0.0000
     32 ****        -0.8685  -0.9166   3.1919 H              1 S1                 0.0000
     33 ****        -1.2342   0.6437   2.5145 H              1 S1                 0.0000
     34 ****        -0.3137  -1.8314   0.9918 H              1 S1                 0.0000
     35 ****         0.3754   0.2631  -0.2249 H              1 S1                 0.0000
     36 ****        -1.5119   1.7615   0.4751 H              1 S1                 0.0000
     37 ****        -1.3825   1.6732  -1.2592 H              1 S1                 0.0000
     38 ****        -3.7574   1.4031  -0.5382 H              1 S1                 0.0000
     39 ****        -4.2455  -0.7015  -1.7873 H              1 S1                 0.0000
     40 ****        -3.0129   0.2252  -2.6080 H              1 S1                 0.0000
     41 ****        -2.3478  -2.1751  -2.4599 H              1 S1                 0.0000
     42 ****        -0.5450  -0.4464  -2.4004 H              1 S1                 0.0000
     43 ****        -0.0932  -1.8406  -1.4532 H              1 S1                 0.0000
     44 ****        -3.5913  -2.7410  -0.3693 H              1 S1                 0.0000
     45 ****        -1.9161  -3.2131  -0.2351 H              1 S1                 0.0000
     46 ****        -2.6657  -2.0244   1.8240 H              1 S1                 0.0000
     47 ****        -3.3542   0.3837   1.6947 H              1 S1                 0.0000
     48 ****        -4.4290  -0.6189   0.7629 H              1 S1                 0.0000
     49 ****         1.1473   3.1825   1.9928 LP             1 S1                 0.0000
     50 ****        -0.3131   2.2849   2.2410 LP             1 S1                 0.0000
     51 ****         3.3387   2.1335  -3.8260 LP             1 S1                 0.0000
     52 ****         3.2775   0.4026  -3.8434 LP             1 S1                 0.0000
     53 ****         2.3035  -2.0640  -0.3514 LP             1 S1                 0.0000
     54 ****         2.6792  -3.1783  -1.6230 LP             1 S1                 0.0000
@<TRIPOS>BOND
    1    1    2 2     
    2    2    3 1     
    3    2   14 am    
    4    3    4 1     
    5    3   26 1     
    6    3   27 1     
    7    4   13 1     
    8    4    5 1     
    9    5    6 2     
   10    5   28 1     
   11    6    7 1     
   12    6   29 1     
   13    7    8 2     
   14    7    9 1     
   15    9   10 1     
   16    9   13 2     
   17   10   11 2     
   18   10   12 1     
   19   13   30 1     
   20   14   15 1     
   21   14   31 1     
   22   15   16 1     
   23   15   32 1     
   24   15   33 1     
   25   16   24 1     
   26   16   17 1     
   27   16   34 1     
   28   17   22 1     
   29   17   18 1     
   30   17   35 1     
   31   18   19 1     
   32   18   36 1     
   33   18   37 1     
   34   19   25 1     
   35   19   20 1     
   36   19   38 1     
   37   20   21 1     
   38   20   39 1     
   39   20   40 1     
   40   21   22 1     
   41   21   23 1     
   42   21   41 1     
   43   22   42 1     
   44   22   43 1     
   45   23   24 1     
   46   23   44 1     
   47   23   45 1     
   48   24   25 1     
   49   24   46 1     
   50   25   47 1     
   51   25   48 1     
   52    1   49 1     
   53    1   50 1     
   54    8   51 1     
   55    8   52 1     
   56   11   53 1     
   57   11   54 1     
@<TRIPOS>SUBSTRUCTURE
      1 S1             1
@<TRIPOS>SET
LONE_PAIRS      STATIC     ATOMS    <user>   **** ""
7 49 50 51 52 53 54 12
DONOR_HYDROGENS      STATIC     ATOMS    <user>   **** ""
1 31
ATOM$BLUE        STATIC     ATOMS    COLORGROUP SYSTEM
7 49 50 51 52 53 54 12
ATOM$RED        STATIC     ATOMS    COLORGROUP SYSTEM
1 31
