#       Name:                AV-unprocessed.smi:2886
#       Creating user name   scv26
#       Creation time:       Fri Mar 27 15:56:05 2020


#       File generated by GOLD software.
#

@<TRIPOS>MOLECULE
AV-unprocessed.smi:2886
    33    35     1
SMALL
NO_CHARGES


@<TRIPOS>ATOM
      1 ****        -4.2018  -3.5238   0.7998 O.2            1 S1                 0.0000
      2 ****        -3.6318  -2.4357   0.7461 C.2            1 S1                 0.0000
      3 ****        -4.2612  -1.2902   1.0989 N.am           1 S1                 0.0000
      4 ****        -3.7309  -0.0234   1.0719 N.2            1 S1                 0.0000
      5 ****        -2.5108   0.1229   0.6821 C.2            1 S1                 0.0000
      6 ****        -1.6696  -0.9982   0.2758 C.2            1 S1                 0.0000
      7 ****        -0.3549  -0.8401  -0.1449 N.pl3          1 S1                 0.0000
      8 ****         0.4252   0.3835  -0.2677 C.3            1 S1                 0.0000
      9 ****         0.6201   0.8104  -1.7248 C.3            1 S1                 0.0000
     10 ****         2.1490   0.8836  -1.8277 C.3            1 S1                 0.0000
     11 ****         2.7328   2.0461  -1.0127 C.3            1 S1                 0.0000
     12 ****         2.5730   1.5360   0.4194 C.3            1 S1                 0.0000
     13 ****         1.8773   0.1862   0.1978 C.3            1 S1                 0.0000
     14 ****         2.5061  -0.2159  -1.0087 O.3            1 S1                 0.0000
     15 ****        -2.2433  -2.2332   0.3096 C.2            1 S1                 0.0000
     16 ****        -1.3411  -3.6346  -0.1618 Cl             1 S1                 0.0000
     17 ****        -5.2198  -1.3313   1.4138 H              1 S1                 0.0000
     18 ****        -2.0533   1.1104   0.6348 H              1 S1                 0.0000
     19 ****         0.1808  -1.6876  -0.2706 H              1 S1                 0.0000
     20 ****        -0.0315   1.1788   0.3205 H              1 S1                 0.0000
     21 ****         0.2300   0.0629  -2.4174 H              1 S1                 0.0000
     22 ****         0.1406   1.7633  -1.9508 H              1 S1                 0.0000
     23 ****         2.5265   0.8245  -2.8488 H              1 S1                 0.0000
     24 ****         3.7866   2.1976  -1.2489 H              1 S1                 0.0000
     25 ****         2.2037   2.9829  -1.1912 H              1 S1                 0.0000
     26 ****         3.5491   1.3951   0.8851 H              1 S1                 0.0000
     27 ****         1.9896   2.2092   1.0482 H              1 S1                 0.0000
     28 ****         1.9973  -0.5092   1.0293 H              1 S1                 0.0000
     29 ****        -3.7159  -4.3565   0.5342 LP             1 S1                 0.0000
     30 ****        -5.1513  -3.5761   1.1091 LP             1 S1                 0.0000
     31 ****        -4.2782   0.7666   1.3481 LP             1 S1                 0.0000
     32 ****         3.4972  -0.2985  -0.9046 LP             1 S1                 0.0000
     33 ****         2.1344  -1.0770  -1.3555 LP             1 S1                 0.0000
@<TRIPOS>BOND
    1    1    2 2     
    2    2   15 1     
    3    2    3 am    
    4    3   17 1     
    5    3    4 1     
    6    4    5 2     
    7    5    6 1     
    8    5   18 1     
    9    6    7 1     
   10    6   15 2     
   11    7    8 1     
   12    7   19 1     
   13    8   13 1     
   14    8    9 1     
   15    8   20 1     
   16    9   10 1     
   17    9   21 1     
   18    9   22 1     
   19   10   14 1     
   20   10   11 1     
   21   10   23 1     
   22   11   12 1     
   23   11   24 1     
   24   11   25 1     
   25   12   13 1     
   26   12   26 1     
   27   12   27 1     
   28   13   14 1     
   29   13   28 1     
   30   15   16 1     
   31    1   29 1     
   32    1   30 1     
   33    4   31 1     
   34   14   32 1     
   35   14   33 1     
@<TRIPOS>SUBSTRUCTURE
      1 S1             1
@<TRIPOS>SET
LONE_PAIRS      STATIC     ATOMS    <user>   **** ""
5 29 30 31 32 33
DONOR_HYDROGENS      STATIC     ATOMS    <user>   **** ""
2 17 19
ATOM$BLUE        STATIC     ATOMS    COLORGROUP SYSTEM
5 29 30 31 32 33
ATOM$RED        STATIC     ATOMS    COLORGROUP SYSTEM
2 17 19
