#       Name:                AV-unprocessed.smi:2858
#       Creating user name   scv26
#       Creation time:       Fri Mar 27 15:45:59 2020


#       File generated by GOLD software.
#

@<TRIPOS>MOLECULE
AV-unprocessed.smi:2858
    45    46     1
SMALL
NO_CHARGES


@<TRIPOS>ATOM
      1 ****        -5.4174   0.7379   2.2517 O.2            1 S1                 0.0000
      2 ****        -4.7663   1.5429   1.5896 C.2            1 S1                 0.0000
      3 ****        -3.2320   1.5676   1.8274 C.3            1 S1                 0.0000
      4 ****        -2.4926   2.2086   0.7013 N.4            1 S1                 1.0000
      5 ****        -1.0313   2.3066   0.9443 C.3            1 S1                 0.0000
      6 ****        -0.3231   0.9490   0.8060 C.3            1 S1                 0.0000
      7 ****         1.2001   1.0640   0.9758 C.3            1 S1                 0.0000
      8 ****         1.8498  -0.2333   0.8302 N.am           1 S1                 0.0000
      9 ****         2.1592  -0.8089  -0.3407 C.2            1 S1                 0.0000
     10 ****         1.9369  -0.2842  -1.4325 O.2            1 S1                 0.0000
     11 ****         2.7237  -2.0152  -0.1564 N.am           1 S1                 0.0000
     12 ****         3.1991  -2.9218  -1.1410 C.ar           1 S1                 0.0000
     13 ****         3.7079  -4.1396  -0.6361 C.ar           1 S1                 0.0000
     14 ****         4.2085  -5.1052  -1.5306 C.ar           1 S1                 0.0000
     15 ****         4.1878  -4.8277  -2.9091 C.ar           1 S1                 0.0000
     16 ****         3.6638  -3.5911  -3.3286 C.ar           1 S1                 0.0000
     17 ****         3.1828  -2.6643  -2.4730 N.ar           1 S1                 0.0000
     18 ****        -3.0951   3.5093   0.3108 C.3            1 S1                 0.0000
     19 ****        -4.5272   3.3003  -0.2172 C.3            1 S1                 0.0000
     20 ****        -5.2873   2.4450   0.7009 N.pl3          1 S1                -1.0000
     21 ****        -3.0359   2.1059   2.7558 H              1 S1                 0.0000
     22 ****        -2.8889   0.5428   1.9674 H              1 S1                 0.0000
     23 ****        -0.5919   2.9880   0.2145 H              1 S1                 0.0000
     24 ****        -0.8457   2.7447   1.9260 H              1 S1                 0.0000
     25 ****        -0.7051   0.2436   1.5437 H              1 S1                 0.0000
     26 ****        -0.5512   0.5267  -0.1737 H              1 S1                 0.0000
     27 ****         1.6148   1.7744   0.2584 H              1 S1                 0.0000
     28 ****         1.4355   1.4514   1.9674 H              1 S1                 0.0000
     29 ****         2.0676  -0.7325   1.6802 H              1 S1                 0.0000
     30 ****         2.8279  -2.3210   0.7996 H              1 S1                 0.0000
     31 ****         3.7167  -4.3365   0.4263 H              1 S1                 0.0000
     32 ****         4.6018  -6.0420  -1.1643 H              1 S1                 0.0000
     33 ****         4.5639  -5.5428  -3.6258 H              1 S1                 0.0000
     34 ****         3.6299  -3.3384  -4.3780 H              1 S1                 0.0000
     35 ****        -3.0959   4.1835   1.1690 H              1 S1                 0.0000
     36 ****        -2.5003   3.9873  -0.4682 H              1 S1                 0.0000
     37 ****        -5.0039   4.2695  -0.3614 H              1 S1                 0.0000
     38 ****        -4.4697   2.8471  -1.2072 H              1 S1                 0.0000
     39 ****        -2.6163   1.6089  -0.1017 H              1 S1                 0.0000
     40 ****        -6.4130   0.7070   2.1632 LP             1 S1                 0.0000
     41 ****        -4.9516   0.1137   2.8789 LP             1 S1                 0.0000
     42 ****         1.5046   0.6165  -1.4756 LP             1 S1                 0.0000
     43 ****         2.1887  -0.7589  -2.2759 LP             1 S1                 0.0000
     44 ****         2.8189  -1.7986  -2.8168 LP             1 S1                 0.0000
     45 ****        -6.2834   2.5290   0.6752 LP             1 S1                 0.0000
@<TRIPOS>BOND
    1    1    2 2     
    2    2   20 1     
    3    2    3 1     
    4    3    4 1     
    5    3   21 1     
    6    3   22 1     
    7    4    5 1     
    8    4   18 1     
    9    4   39 1     
   10    5    6 1     
   11    5   23 1     
   12    5   24 1     
   13    6    7 1     
   14    6   25 1     
   15    6   26 1     
   16    7    8 1     
   17    7   27 1     
   18    7   28 1     
   19    8    9 am    
   20    8   29 1     
   21    9   10 2     
   22    9   11 am    
   23   11   12 1     
   24   11   30 1     
   25   12   17 ar    
   26   12   13 ar    
   27   13   14 ar    
   28   13   31 1     
   29   14   15 ar    
   30   14   32 1     
   31   15   16 ar    
   32   15   33 1     
   33   16   17 ar    
   34   16   34 1     
   35   18   19 1     
   36   18   35 1     
   37   18   36 1     
   38   19   20 1     
   39   19   37 1     
   40   19   38 1     
   41    1   40 1     
   42    1   41 1     
   43   10   42 1     
   44   10   43 1     
   45   17   44 1     
   46   20   45 1     
@<TRIPOS>SUBSTRUCTURE
      1 S1             1
@<TRIPOS>SET
LONE_PAIRS      STATIC     ATOMS    <user>   **** ""
6 40 41 42 43 44 45
DONOR_HYDROGENS      STATIC     ATOMS    <user>   **** ""
3 39 29 30
ATOM$BLUE        STATIC     ATOMS    COLORGROUP SYSTEM
6 40 41 42 43 44 45
ATOM$RED        STATIC     ATOMS    COLORGROUP SYSTEM
3 39 29 30
