AV-unprocessed.smi:2062|AV-procd|sdf|8402|dock7
  -GOLD-   2272011 93D 1   1.00000     0.00000
 Structure written by MMmdl.
 42 43  0  0  0  0  0  0  0  0  3 V2000
  152.0501  144.8374  159.2653 C   0  0  0  0  0  0  0  0  0  0  0  0
  152.3248  143.4441  158.6803 C   0  0  0  0  0  0  0  0  0  0  0  0
  151.4068  143.1769  157.4755 C   0  0  0  0  0  0  0  0  0  0  0  0
  152.1762  142.3609  159.7707 C   0  0  0  0  0  0  0  0  0  0  0  0
  152.4109  140.9833  159.2665 N   0  3  1  0  0  0  0  0  0  0  0  0
  153.1092  140.1056  160.2382 C   0  0  0  0  0  0  0  0  0  0  0  0
  153.3317  138.7089  159.6370 C   0  0  0  0  0  0  0  0  0  0  0  0
  152.0822  138.1659  159.2364 O   0  0  0  0  0  0  0  0  0  0  0  0
  151.4550  138.9385  158.2181 C   0  0  1  0  0  0  0  0  0  0  0  0
  150.1683  138.2255  157.7663 C   0  0  0  0  0  0  0  0  0  0  0  0
  149.1204  138.3203  158.7769 N   0  0  0  0  0  0  0  0  0  0  0  0
  148.5060  137.2889  159.3729 C   0  0  0  0  0  0  0  0  0  0  0  0
  148.8367  136.1328  159.0999 O   0  0  0  0  0  0  0  0  0  0  0  0
  147.5423  137.6625  160.2441 N   0  5  0  0  0  0  0  0  0  0  0  0
  146.9125  136.7367  160.9857 C   0  0  0  0  0  0  0  0  0  0  0  0
  146.2234  135.7213  160.4524 N   0  0  0  0  0  0  0  0  0  0  0  0
  145.6464  134.8806  161.4061 C   0  0  0  0  0  0  0  0  0  0  0  0
  145.8955  135.2695  162.6956 C   0  0  0  0  0  0  0  0  0  0  0  0
  146.8671  136.7126  162.7509 S   0  0  0  0  0  0  0  0  0  0  0  0
  151.1633  140.3392  158.7904 C   0  0  0  0  0  0  0  0  0  0  0  0
  151.0295  144.9172  159.6412 H   0  0  0  0  0  0  0  0  0  0  0  0
  152.1892  145.6146  158.5131 H   0  0  0  0  0  0  0  0  0  0  0  0
  152.7266  145.0577  160.0916 H   0  0  0  0  0  0  0  0  0  0  0  0
  153.3534  143.4547  158.3220 H   0  0  0  0  0  0  0  0  0  0  0  0
  150.3578  143.1559  157.7726 H   0  0  0  0  0  0  0  0  0  0  0  0
  151.6381  142.2235  157.0000 H   0  0  0  0  0  0  0  0  0  0  0  0
  151.5206  143.9524  156.7175 H   0  0  0  0  0  0  0  0  0  0  0  0
  152.8561  142.5563  160.6013 H   0  0  0  0  0  0  0  0  0  0  0  0
  151.1680  142.4280  160.1830 H   0  0  0  0  0  0  0  0  0  0  0  0
  154.0723  140.5304  160.5179 H   0  0  0  0  0  0  0  0  0  0  0  0
  152.5169  140.0250  161.1510 H   0  0  0  0  0  0  0  0  0  0  0  0
  154.0159  138.7506  158.7880 H   0  0  0  0  0  0  0  0  0  0  0  0
  153.7823  138.0484  160.3779 H   0  0  0  0  0  0  0  0  0  0  0  0
  152.1270  139.0283  157.3620 H   0  0  0  0  0  0  0  0  0  0  0  0
  149.8232  138.6147  156.8070 H   0  0  0  0  0  0  0  0  0  0  0  0
  150.3712  137.1655  157.6119 H   0  0  0  0  0  0  0  0  0  0  0  0
  148.8201  139.2479  159.0384 H   0  0  0  0  0  0  0  0  0  0  0  0
  145.0725  134.0274  161.0769 H   0  0  0  0  0  0  0  0  0  0  0  0
  145.5684  134.8000  163.6110 H   0  0  0  0  0  0  0  0  0  0  0  0
  150.4513  140.2696  159.6148 H   0  0  0  0  0  0  0  0  0  0  0  0
  150.7027  140.9594  158.0201 H   0  0  0  0  0  0  0  0  0  0  0  0
  153.0107  141.0681  158.4581 H   0  0  0  0  0  0  0  0  0  0  0  0
  1  2  1  0  0  0  0
  1 21  1  0  0  0  0
  1 22  1  0  0  0  0
  1 23  1  0  0  0  0
  2  3  1  0  0  0  0
  2  4  1  0  0  0  0
  2 24  1  0  0  0  0
  3 25  1  0  0  0  0
  3 26  1  0  0  0  0
  3 27  1  0  0  0  0
  4  5  1  0  0  0  0
  4 28  1  0  0  0  0
  4 29  1  0  0  0  0
  5 20  1  0  0  0  0
  5  6  1  0  0  0  0
  5 42  1  0  0  0  0
  6  7  1  0  0  0  0
  6 30  1  0  0  0  0
  6 31  1  0  0  0  0
  7  8  1  0  0  0  0
  7 32  1  0  0  0  0
  7 33  1  0  0  0  0
  8  9  1  0  0  0  0
  9 10  1  0  0  0  0
  9 20  1  0  0  0  0
  9 34  1  0  0  0  0
 10 11  1  0  0  0  0
 10 35  1  0  0  0  0
 10 36  1  0  0  0  0
 11 12  1  0  0  0  0
 11 37  1  0  0  0  0
 12 13  2  0  0  0  0
 12 14  1  0  0  0  0
 14 15  1  0  0  0  0
 15 19  1  0  0  0  0
 15 16  2  0  0  0  0
 16 17  1  0  0  0  0
 17 18  2  0  0  0  0
 17 38  1  0  0  0  0
 18 19  1  0  0  0  0
 18 39  1  0  0  0  0
 20 40  1  0  0  0  0
 20 41  1  0  0  0  0
M  CHG  1   5   1
M  CHG  1  14  -1
M  END
> <s_m_source_file>
AV-unprocessed.smi

> <i_m_source_file_index>
2062

> <i_lp_mmshare_version>
43012

> <i_f3d_flags>
0

> <s_epik_input>
W0NIM11bQ0hdKFtDSDNdKVtDSDJdTjFbQ0gyXVtDSDJdT1tDQEhdKFtDSDJdMSlbQ0gyXVtOSF1DKD1PKVtOSF1jMm5bY0hdW2NIXXMy

> <s_epik_cmdline>
J2VwaWtfcHl0aG9uJywgJy1waCcsICc3LjAnLCAnLXRuJywgJzgnLCAnLW1hJywgJzIwMCcsICctbWV0YWxfYmluZGluZycsICctaW1hZScsICc8aW5maWxlLm1hZT4nLCAnLW9tYWUnLCAnPG91dGZpbGUubWFlPic=

> <r_lp_tautomer_probability>
0.999

> <r_epik_Ionization_Penalty>
6.35835

> <r_epik_Ionization_Penalty_Charging>
5.49938

> <r_epik_Ionization_Penalty_Neutral>
0.858963

> <r_epik_State_Penalty>
5.49328

> <r_epik_Charging_Adjusted_Penalty>
10.9927

> <i_epik_Tot_Q>
0

> <i_epik_Tot_abs_Q>
2

> <r_epik_Metal_State_Penalty>
1.51523

> <b_epik_Metal_Only>
1

> <s_lp_Force_Field>
OPLS_2005

> <r_lp_Energy>
7.56536

> <b_lp_Chiralities_Consistent>
1

> <s_lp_Variant>
AV-unprocessed.smi:2062-7

> <Gold.Version>
5.8.1

> <Gold.Id.Protein>
6NUR|6NUR_protein|mol2

> <Gold.PLP.Fitness>
48.8809

> <Gold.PLP.PLP>
-39.8257

> <Gold.PLP.part.hbond>
-3.0000

> <Gold.PLP.part.metal>
0.0000

> <Gold.PLP.part.buried>
-5.1497

> <Gold.PLP.part.nonpolar>
-33.8233

> <Gold.PLP.part.repulsive>
0.3352

> <Gold.PLP.ligand.clash>
0.0000

> <Gold.PLP.ligand.torsion>
1.0864

> <Gold.PLP.Chemscore.Hbond>
3.6915

> <Gold.PLP.Chemscore.CHOScore>
0.0000

> <Gold.PLP.Chemscore.Metal>
0.0000

> <Gold.Chemscore.Hbonds>
donor molecule, donor type, donor heavy atom, donor atom, acceptor molecule, acceptor atom, score
      P1  H  6931  6943       L1    14  0.18
      P1  H  6934  6947       L1    14  1.76

> <Gold.PLP.Chemscore.Internal.Correction>
0.1534

> <Gold.Rescore>
     Score         DG    S(hbond)    S(metal)    S(lipo)     H(rot)  DE(clash)    DE(int)     intcor
     16.50     -17.73       1.69        0.00      94.02       1.72       0.00       1.23       ----

> <Gold.Chemscore.Fitness>
16.4997

> <Gold.Chemscore.DG>
-17.7325

> <Gold.Chemscore.ZeroCoef>
-5.4800

> <Gold.Chemscore.Hbond>
1.6928

> <Gold.Chemscore.Metal>
0.0000

> <Gold.Chemscore.Lipo>
94.0199

> <Gold.Chemscore.Internal_Hbond>
0.0000

> <Gold.Chemscore.DEClash>
0.0029

> <Gold.Chemscore.DEInternal>
1.2299

> <Gold.Chemscore.Rot>
1.7194

> <Gold.Chemscore.Internal.Correction>
   9.000000E+99

> <Gold.Chemscore.Hbonds>
donor molecule, donor type, donor heavy atom, donor atom, acceptor molecule, acceptor atom, score
      P1  H  6934  6947       L1    14  0.46

> <Gold.Chemscore.Hbond.Weighted>
-5.6539

> <Gold.Chemscore.Metal.Weighted>
-0.0000

> <Gold.Chemscore.Lipo.Weighted>
-11.0003

> <Gold.Chemscore.Internal_Hbond.Weighted>
0.0000

> <Gold.Chemscore.DEClash.Weighted>
0.0029

> <Gold.Chemscore.DEInternal.Weighted>
1.2299

> <Gold.Chemscore.Rot.Weighted>
4.4017

> <Gold.Chemscore.Internal.Correction.Weighted>
   9.000000E+99

> <Gold.Protein.RotatedTorsions>
[ 6907 6896 6895 6894 ] final   33.64 input  -60.11 | X-H torsion
[ 7974 7965 7964 7962 ] final -109.87 input  175.53 | X-H torsion
[ 8008 7997 7996 7995 ] final  -57.41 input   59.86 | X-H torsion
[ 10167 10162 10161 10158 ] final  -29.38 input  -65.29 | X-H torsion
[ 10718 10713 10712 10709 ] final   -2.77 input   66.30 | X-H torsion
[ 10763 10752 10751 10750 ] final -158.14 input  -60.55 | X-H torsion
[ 11005 11000 10999 10996 ] final  159.99 input  -57.11 | X-H torsion

> <Gold.Protein.ActiveResidues>
 VAL166  LYS551  ARG553  GLY616  TRP617  ASP618  TYR619  PRO620  LYS621  CYS622 
 ASP623  PHE694  ASN695  SER759  ASP760  ASP761  ALA762  ILE779  LEU786  VAL792 
 PHE793  MET794  SER795  GLU796  ALA797  LYS798  CYS799  TRP800  GLU811  SER814 

> <Gold.Protein.RotatedAtoms>
  152.0913  134.9405  160.0571 H   0  0  0  0  0  0  0  0  0  0  0  0  # atno 6907 bound_to 6896
  152.0656  133.4077  159.4445 H   0  0  0  0  0  0  0  0  0  0  0  0  # atno 6908 bound_to 6896
  150.6837  134.3071  159.4774 H   0  0  0  0  0  0  0  0  0  0  0  0  # atno 6909 bound_to 6896
  145.1752  140.8945  143.3512 H   0  0  0  0  0  0  0  0  0  0  0  0  # atno 7974 bound_to 7965
  154.4267  140.1107  156.5793 H   0  0  0  0  0  0  0  0  0  0  0  0  # atno 8008 bound_to 7997
  155.6129  140.3494  155.4609 H   0  0  0  0  0  0  0  0  0  0  0  0  # atno 8009 bound_to 7997
  156.0085  140.1214  157.0467 H   0  0  0  0  0  0  0  0  0  0  0  0  # atno 8010 bound_to 7997
  140.7261  143.3933  151.1391 H   0  0  0  0  0  0  0  0  0  0  0  0  # atno 10167 bound_to 10162
  156.7859  130.5346  149.5743 H   0  0  0  0  0  0  0  0  0  0  0  0  # atno 10718 bound_to 10713
  154.7580  135.3110  154.8432 H   0  0  0  0  0  0  0  0  0  0  0  0  # atno 10763 bound_to 10752
  153.9200  135.6796  153.4752 H   0  0  0  0  0  0  0  0  0  0  0  0  # atno 10764 bound_to 10752
  153.1179  135.4836  154.9077 H   0  0  0  0  0  0  0  0  0  0  0  0  # atno 10765 bound_to 10752
  140.2016  134.8334  157.3024 H   0  0  0  0  0  0  0  0  0  0  0  0  # atno 11005 bound_to 11000
  145.0192  139.3439  143.6081 LP  0  0  0  0  0  0  0  0  0  0  0  0  # atno 17320 bound_to 7965
  146.3462  139.9486  142.8732 LP  0  0  0  0  0  0  0  0  0  0  0  0  # atno 17321 bound_to 7965
  139.7542  143.8733  152.3084 LP  0  0  0  0  0  0  0  0  0  0  0  0  # atno 17342 bound_to 10162
  139.8597  144.7123  150.9115 LP  0  0  0  0  0  0  0  0  0  0  0  0  # atno 17343 bound_to 10162
  156.1189  130.6095  151.0163 LP  0  0  0  0  0  0  0  0  0  0  0  0  # atno 17370 bound_to 10713
  157.6624  131.0878  150.7808 LP  0  0  0  0  0  0  0  0  0  0  0  0  # atno 17371 bound_to 10713
  140.2048  134.4210  155.7643 LP  0  0  0  0  0  0  0  0  0  0  0  0  # atno 17394 bound_to 11000
  141.2227  133.7089  156.8242 LP  0  0  0  0  0  0  0  0  0  0  0  0  # atno 17395 bound_to 11000

$$$$
