AV-unprocessed.smi:2340|AV-procd|sdf|9351|dock5
  -GOLD-   2272012573D 1   1.00000     0.00000
 Structure written by MMmdl.
 40 41  0  0  0  0  0  0  0  0  1 V2000
  145.8316  136.7013  153.7071 C   0  0  0  0  0  0  0  0  0  0  0  0
  146.3216  137.9663  153.0762 C   0  0  0  0  0  0  0  0  0  0  0  0
  146.2368  138.3191  151.7527 C   0  0  0  0  0  0  0  0  0  0  0  0
  146.9173  139.8956  151.4560 S   0  0  0  0  0  0  0  0  0  0  0  0
  147.3095  140.0164  153.1691 C   0  0  0  0  0  0  0  0  0  0  0  0
  147.9321  141.2273  153.7995 C   0  0  1  0  0  0  0  0  0  0  0  0
  146.9267  142.0207  154.6462 C   0  0  0  0  0  0  0  0  0  0  0  0
  149.2286  140.9020  154.5788 C   0  0  0  0  0  0  0  0  0  0  0  0
  149.7743  142.0560  155.2889 N   0  0  0  0  0  0  0  0  0  0  0  0
  150.7548  142.0070  156.2002 C   0  0  0  0  0  0  0  0  0  0  0  0
  151.3896  140.9894  156.4777 O   0  0  0  0  0  0  0  0  0  0  0  0
  150.9245  143.1900  156.8047 N   0  0  0  0  0  0  0  0  0  0  0  0
  151.8042  143.4270  157.9443 C   0  0  1  0  0  0  0  0  0  0  0  0
  151.6723  144.8418  158.4712 C   0  0  0  0  0  0  0  0  0  0  0  0
  152.1012  144.6992  159.9307 C   0  0  0  0  0  0  0  0  0  0  0  0
  151.9052  143.3318  160.2811 O   0  0  0  0  0  0  0  0  0  0  0  0
  151.3835  142.6105  159.1714 C   0  0  2  0  0  0  0  0  0  0  0  0
  151.8981  141.1656  159.1876 C   0  0  0  0  0  0  0  0  0  0  0  0
  146.9379  138.9389  153.8668 N   0  0  0  0  0  0  0  0  0  0  0  0
  145.3277  136.0624  152.9816 H   0  0  0  0  0  0  0  0  0  0  0  0
  145.1230  136.9112  154.5088 H   0  0  0  0  0  0  0  0  0  0  0  0
  146.6558  136.1298  154.1344 H   0  0  0  0  0  0  0  0  0  0  0  0
  145.8108  137.7527  150.9379 H   0  0  0  0  0  0  0  0  0  0  0  0
  148.2166  141.8872  152.9782 H   0  0  0  0  0  0  0  0  0  0  0  0
  146.0598  142.3133  154.0530 H   0  0  0  0  0  0  0  0  0  0  0  0
  147.3793  142.9310  155.0404 H   0  0  0  0  0  0  0  0  0  0  0  0
  146.5691  141.4354  155.4937 H   0  0  0  0  0  0  0  0  0  0  0  0
  149.0649  140.0763  155.2728 H   0  0  0  0  0  0  0  0  0  0  0  0
  149.9971  140.5701  153.8803 H   0  0  0  0  0  0  0  0  0  0  0  0
  149.3161  142.9419  155.1332 H   0  0  0  0  0  0  0  0  0  0  0  0
  150.3525  143.9651  156.5028 H   0  0  0  0  0  0  0  0  0  0  0  0
  152.8500  143.2340  157.6959 H   0  0  0  0  0  0  0  0  0  0  0  0
  152.2764  145.5627  157.9192 H   0  0  0  0  0  0  0  0  0  0  0  0
  150.6321  145.1692  158.4289 H   0  0  0  0  0  0  0  0  0  0  0  0
  153.1595  144.9361  160.0454 H   0  0  0  0  0  0  0  0  0  0  0  0
  151.5348  145.3590  160.5885 H   0  0  0  0  0  0  0  0  0  0  0  0
  150.2957  142.6141  159.2631 H   0  0  0  0  0  0  0  0  0  0  0  0
  151.4873  140.5909  158.3577 H   0  0  0  0  0  0  0  0  0  0  0  0
  151.6113  140.6613  160.1105 H   0  0  0  0  0  0  0  0  0  0  0  0
  152.9852  141.1326  159.1127 H   0  0  0  0  0  0  0  0  0  0  0  0
  1  2  1  0  0  0  0
  1 20  1  0  0  0  0
  1 21  1  0  0  0  0
  1 22  1  0  0  0  0
  2 19  1  0  0  0  0
  2  3  2  0  0  0  0
  3  4  1  0  0  0  0
  3 23  1  0  0  0  0
  4  5  1  0  0  0  0
  5  6  1  0  0  0  0
  5 19  2  0  0  0  0
  6  7  1  0  0  0  0
  6  8  1  0  0  0  0
  6 24  1  0  0  0  0
  7 25  1  0  0  0  0
  7 26  1  0  0  0  0
  7 27  1  0  0  0  0
  8  9  1  0  0  0  0
  8 28  1  0  0  0  0
  8 29  1  0  0  0  0
  9 10  1  0  0  0  0
  9 30  1  0  0  0  0
 10 11  2  0  0  0  0
 10 12  1  0  0  0  0
 12 13  1  0  0  0  0
 12 31  1  0  0  0  0
 13 17  1  0  0  0  0
 13 14  1  0  0  0  0
 13 32  1  0  0  0  0
 14 15  1  0  0  0  0
 14 33  1  0  0  0  0
 14 34  1  0  0  0  0
 15 16  1  0  0  0  0
 15 35  1  0  0  0  0
 15 36  1  0  0  0  0
 16 17  1  0  0  0  0
 17 18  1  0  0  0  0
 17 37  1  0  0  0  0
 18 38  1  0  0  0  0
 18 39  1  0  0  0  0
 18 40  1  0  0  0  0
M  END
> <s_m_source_file>
AV-unprocessed.smi

> <i_m_source_file_index>
2340

> <i_lp_mmshare_version>
43012

> <i_f3d_flags>
0

> <s_epik_input>
W0NIM11jMVtjSF1zYyhuMSlbQ0BIXShbQ0gzXSlbQ0gyXVtOSF1DKD1PKVtOSF1bQ0BASF0yW0NIMl1bQ0gyXU9bQ0BIXTJbQ0gzXQ==

> <s_epik_cmdline>
J2VwaWtfcHl0aG9uJywgJy1waCcsICc3LjAnLCAnLXRuJywgJzgnLCAnLW1hJywgJzIwMCcsICctbWV0YWxfYmluZGluZycsICctaW1hZScsICc8aW5maWxlLm1hZT4nLCAnLW9tYWUnLCAnPG91dGZpbGUubWFlPic=

> <r_epik_Ionization_Penalty>
0.00156622

> <r_epik_Ionization_Penalty_Charging>
0

> <r_epik_Ionization_Penalty_Neutral>
0.00156622

> <r_epik_State_Penalty>
0.00101902

> <r_epik_Charging_Adjusted_Penalty>
0.00101902

> <i_epik_Tot_Q>
0

> <i_epik_Tot_abs_Q>
0

> <r_epik_Metal_State_Penalty>
-0

> <b_epik_Metal_Only>
0

> <s_lp_Force_Field>
OPLS_2005

> <r_lp_Energy>
3.95119

> <b_lp_Chiralities_Consistent>
1

> <s_lp_Variant>
AV-unprocessed.smi:2340-8

> <Gold.Version>
5.8.1

> <Gold.Id.Protein>
6NUR|6NUR_protein|mol2

> <Gold.PLP.Fitness>
46.7962

> <Gold.PLP.PLP>
-38.8030

> <Gold.PLP.part.hbond>
-2.0000

> <Gold.PLP.part.metal>
0.0000

> <Gold.PLP.part.buried>
-0.9496

> <Gold.PLP.part.nonpolar>
-36.1451

> <Gold.PLP.part.repulsive>
0.4664

> <Gold.PLP.ligand.clash>
0.0000

> <Gold.PLP.ligand.torsion>
0.2691

> <Gold.PLP.Chemscore.Hbond>
2.0000

> <Gold.PLP.Chemscore.CHOScore>
0.7995

> <Gold.PLP.Chemscore.Metal>
0.0000

> <Gold.Chemscore.Hbonds>
donor molecule, donor type, donor heavy atom, donor atom, acceptor molecule, acceptor atom, score
      L1  H     9    30       P1  8028  1.00
      L1  H    12    31       P1  8028  1.00
      L1  C     3    23       P1 10171  0.79

> <Gold.PLP.Chemscore.Internal.Correction>
0.1329

> <Gold.Rescore>
     Score         DG    S(hbond)    S(metal)    S(lipo)     H(rot)  DE(clash)    DE(int)     intcor
     18.06     -20.32       1.90        0.00     106.19       1.53       0.72       1.53       ----

> <Gold.Chemscore.Fitness>
18.0650

> <Gold.Chemscore.DG>
-20.3202

> <Gold.Chemscore.ZeroCoef>
-5.4800

> <Gold.Chemscore.Hbond>
1.8979

> <Gold.Chemscore.Metal>
0.0000

> <Gold.Chemscore.Lipo>
106.1928

> <Gold.Chemscore.Internal_Hbond>
0.0000

> <Gold.Chemscore.DEClash>
0.7217

> <Gold.Chemscore.DEInternal>
1.5336

> <Gold.Chemscore.Rot>
1.5325

> <Gold.Chemscore.Internal.Correction>
   9.000000E+99

> <Gold.Chemscore.Hbonds>
donor molecule, donor type, donor heavy atom, donor atom, acceptor molecule, acceptor atom, score
      L1  H     9    30       P1  8028  0.97
      L1  H    12    31       P1  8028  0.98

> <Gold.Chemscore.Hbond.Weighted>
-6.3390

> <Gold.Chemscore.Metal.Weighted>
-0.0000

> <Gold.Chemscore.Lipo.Weighted>
-12.4246

> <Gold.Chemscore.Internal_Hbond.Weighted>
0.0000

> <Gold.Chemscore.DEClash.Weighted>
0.7217

> <Gold.Chemscore.DEInternal.Weighted>
1.5336

> <Gold.Chemscore.Rot.Weighted>
3.9233

> <Gold.Chemscore.Internal.Correction.Weighted>
   9.000000E+99

> <Gold.Protein.RotatedTorsions>
[ 6907 6896 6895 6894 ] final  -52.66 input  -60.11 | X-H torsion
[ 7974 7965 7964 7962 ] final  109.75 input  175.53 | X-H torsion
[ 8008 7997 7996 7995 ] final  102.89 input   59.86 | X-H torsion
[ 10167 10162 10161 10158 ] final   57.30 input  -65.29 | X-H torsion
[ 10718 10713 10712 10709 ] final  117.30 input   66.30 | X-H torsion
[ 10763 10752 10751 10750 ] final  127.44 input  -60.55 | X-H torsion
[ 11005 11000 10999 10996 ] final  115.76 input  -57.11 | X-H torsion

> <Gold.Protein.ActiveResidues>
 VAL166  LYS551  ARG553  GLY616  TRP617  ASP618  TYR619  PRO620  LYS621  CYS622 
 ASP623  PHE694  ASN695  SER759  ASP760  ASP761  ALA762  ILE779  LEU786  VAL792 
 PHE793  MET794  SER795  GLU796  ALA797  LYS798  CYS799  TRP800  GLU811  SER814 

> <Gold.Protein.RotatedAtoms>
  150.8497  134.7818  159.6998 H   0  0  0  0  0  0  0  0  0  0  0  0  # atno 6907 bound_to 6896
  152.4565  134.5277  159.9811 H   0  0  0  0  0  0  0  0  0  0  0  0  # atno 6908 bound_to 6896
  151.5400  133.3396  159.2969 H   0  0  0  0  0  0  0  0  0  0  0  0  # atno 6909 bound_to 6896
  145.2638  139.2692  143.4002 H   0  0  0  0  0  0  0  0  0  0  0  0  # atno 7974 bound_to 7965
  156.1435  140.3174  155.8532 H   0  0  0  0  0  0  0  0  0  0  0  0  # atno 8008 bound_to 7997
  155.4109  140.0506  157.3049 H   0  0  0  0  0  0  0  0  0  0  0  0  # atno 8009 bound_to 7997
  154.4996  140.2124  155.9386 H   0  0  0  0  0  0  0  0  0  0  0  0  # atno 8010 bound_to 7997
  140.1995  144.4003  150.6535 H   0  0  0  0  0  0  0  0  0  0  0  0  # atno 10167 bound_to 10162
  157.6105  131.1035  150.7595 H   0  0  0  0  0  0  0  0  0  0  0  0  # atno 10718 bound_to 10713
  153.7094  135.3270  155.3243 H   0  0  0  0  0  0  0  0  0  0  0  0  # atno 10763 bound_to 10752
  154.8389  135.4473  154.1329 H   0  0  0  0  0  0  0  0  0  0  0  0  # atno 10764 bound_to 10752
  153.2419  135.6972  153.7853 H   0  0  0  0  0  0  0  0  0  0  0  0  # atno 10765 bound_to 10752
  139.9020  134.9588  156.7095 H   0  0  0  0  0  0  0  0  0  0  0  0  # atno 11005 bound_to 11000
  146.3267  140.3063  142.8624 LP  0  0  0  0  0  0  0  0  0  0  0  0  # atno 17320 bound_to 7965
  144.9395  140.8062  143.5639 LP  0  0  0  0  0  0  0  0  0  0  0  0  # atno 17321 bound_to 7965
  140.6400  143.2202  151.6310 LP  0  0  0  0  0  0  0  0  0  0  0  0  # atno 17342 bound_to 10162
  139.5223  144.3167  152.0946 LP  0  0  0  0  0  0  0  0  0  0  0  0  # atno 17343 bound_to 10162
  156.7974  130.4910  149.5375 LP  0  0  0  0  0  0  0  0  0  0  0  0  # atno 17370 bound_to 10713
  156.1206  130.6107  151.0188 LP  0  0  0  0  0  0  0  0  0  0  0  0  # atno 17371 bound_to 10713
  140.7087  133.9243  155.8070 LP  0  0  0  0  0  0  0  0  0  0  0  0  # atno 17394 bound_to 11000
  141.0317  134.0747  157.4006 LP  0  0  0  0  0  0  0  0  0  0  0  0  # atno 17395 bound_to 11000

$$$$
