AV-unprocessed.smi:2025|AV-procd|sdf|8199|dock10
  -GOLD-   2272010453D 1   1.00000     0.00000
 Structure written by MMmdl.
 39 40  0  0  0  0  0  0  0  0  1 V2000
  145.0566  136.4197  152.3201 C   0  0  0  0  0  0  0  0  0  0  0  0
  145.6351  135.0172  152.5578 C   0  0  2  0  0  0  0  0  0  0  0  0
  146.8836  135.1464  153.3068 N   0  0  0  0  0  0  0  0  0  0  0  0
  147.0097  135.1019  154.6421 C   0  0  0  0  0  0  0  0  0  0  0  0
  146.0563  134.9742  155.4109 O   0  0  0  0  0  0  0  0  0  0  0  0
  148.4362  135.2333  155.1896 C   0  0  0  0  0  0  0  0  0  0  0  0
  148.9381  136.6115  155.1208 N   0  0  0  0  0  0  0  0  0  0  0  0
  148.0457  137.6608  154.9967 C   0  0  0  0  0  0  0  0  0  0  0  0
  148.4227  138.9569  154.9466 C   0  0  0  0  0  0  0  0  0  0  0  0
  149.8302  139.3288  155.0178 C   0  0  0  0  0  0  0  0  0  0  0  0
  150.2230  140.4960  154.9941 O   0  0  0  0  0  0  0  0  0  0  0  0
  150.7227  138.2375  155.1289 N   0  0  0  0  0  0  0  0  0  0  0  0
  152.1343  138.5491  155.2172 C   0  0  0  0  0  0  0  0  0  0  0  0
  150.3215  136.8834  155.2009 C   0  0  0  0  0  0  0  0  0  0  0  0
  151.1311  135.9624  155.3356 O   0  0  0  0  0  0  0  0  0  0  0  0
  145.8741  134.2634  151.2319 C   0  0  1  0  0  0  0  0  0  0  0  0
  146.4540  132.8553  151.3764 C   0  0  0  0  0  0  0  0  0  0  0  0
  146.0757  132.2331  150.0519 C   0  0  0  0  0  0  0  0  0  0  0  0
  144.7035  132.8481  149.7823 C   0  0  0  0  0  0  0  0  0  0  0  0
  144.6433  134.0503  150.5476 O   0  0  0  0  0  0  0  0  0  0  0  0
  144.1028  136.3688  151.7945 H   0  0  0  0  0  0  0  0  0  0  0  0
  145.7324  137.0331  151.7229 H   0  0  0  0  0  0  0  0  0  0  0  0
  144.8817  136.9376  153.2637 H   0  0  0  0  0  0  0  0  0  0  0  0
  144.9075  134.4582  153.1490 H   0  0  0  0  0  0  0  0  0  0  0  0
  147.7255  135.2593  152.7611 H   0  0  0  0  0  0  0  0  0  0  0  0
  148.4813  134.8703  156.2184 H   0  0  0  0  0  0  0  0  0  0  0  0
  149.0832  134.5696  154.6148 H   0  0  0  0  0  0  0  0  0  0  0  0
  146.9903  137.4362  154.9443 H   0  0  0  0  0  0  0  0  0  0  0  0
  147.6731  139.7292  154.8556 H   0  0  0  0  0  0  0  0  0  0  0  0
  152.7367  137.6770  154.9629 H   0  0  0  0  0  0  0  0  0  0  0  0
  152.3234  138.8739  156.2413 H   0  0  0  0  0  0  0  0  0  0  0  0
  152.3598  139.3392  154.4989 H   0  0  0  0  0  0  0  0  0  0  0  0
  146.5238  134.8492  150.5789 H   0  0  0  0  0  0  0  0  0  0  0  0
  147.5295  132.8509  151.5566 H   0  0  0  0  0  0  0  0  0  0  0  0
  145.9663  132.3204  152.1925 H   0  0  0  0  0  0  0  0  0  0  0  0
  146.7829  132.5430  149.2815 H   0  0  0  0  0  0  0  0  0  0  0  0
  146.0571  131.1433  150.0793 H   0  0  0  0  0  0  0  0  0  0  0  0
  144.5508  133.0495  148.7217 H   0  0  0  0  0  0  0  0  0  0  0  0
  143.9072  132.1832  150.1183 H   0  0  0  0  0  0  0  0  0  0  0  0
  1  2  1  0  0  0  0
  1 21  1  0  0  0  0
  1 22  1  0  0  0  0
  1 23  1  0  0  0  0
  2  3  1  0  0  0  0
  2 16  1  0  0  0  0
  2 24  1  0  0  0  0
  3  4  1  0  0  0  0
  3 25  1  0  0  0  0
  4  5  2  0  0  0  0
  4  6  1  0  0  0  0
  6  7  1  0  0  0  0
  6 26  1  0  0  0  0
  6 27  1  0  0  0  0
  7 14  1  0  0  0  0
  7  8  1  0  0  0  0
  8  9  2  0  0  0  0
  8 28  1  0  0  0  0
  9 10  1  0  0  0  0
  9 29  1  0  0  0  0
 10 11  2  0  0  0  0
 10 12  1  0  0  0  0
 12 13  1  0  0  0  0
 12 14  1  0  0  0  0
 13 30  1  0  0  0  0
 13 31  1  0  0  0  0
 13 32  1  0  0  0  0
 14 15  2  0  0  0  0
 16 20  1  0  0  0  0
 16 17  1  0  0  0  0
 16 33  1  0  0  0  0
 17 18  1  0  0  0  0
 17 34  1  0  0  0  0
 17 35  1  0  0  0  0
 18 19  1  0  0  0  0
 18 36  1  0  0  0  0
 18 37  1  0  0  0  0
 19 20  1  0  0  0  0
 19 38  1  0  0  0  0
 19 39  1  0  0  0  0
M  END
> <s_m_source_file>
AV-unprocessed.smi

> <i_m_source_file_index>
2025

> <i_lp_mmshare_version>
43012

> <i_f3d_flags>
0

> <s_epik_input>
TzFbQ0gyXVtDSDJdW0NIMl1bQ0BIXTFbQ0BIXShbQ0gzXSlbTkhdQyg9TylbQ0gyXW4yW2NIXVtjSF1jKD1PKW4oW0NIM10pYzI9Tw==

> <s_epik_cmdline>
J2VwaWtfcHl0aG9uJywgJy1waCcsICc3LjAnLCAnLXRuJywgJzgnLCAnLW1hJywgJzIwMCcsICctbWV0YWxfYmluZGluZycsICctaW1hZScsICc8aW5maWxlLm1hZT4nLCAnLW9tYWUnLCAnPG91dGZpbGUubWFlPic=

> <r_lp_tautomer_probability>
1

> <r_epik_Ionization_Penalty>
3.54787e-08

> <r_epik_Ionization_Penalty_Charging>
1.24654e-08

> <r_epik_Ionization_Penalty_Neutral>
2.30132e-08

> <r_epik_State_Penalty>
-0

> <r_epik_Charging_Adjusted_Penalty>
1.24654e-08

> <i_epik_Tot_Q>
0

> <i_epik_Tot_abs_Q>
0

> <r_epik_Metal_State_Penalty>
-0

> <b_epik_Metal_Only>
0

> <s_lp_Force_Field>
OPLS_2005

> <r_lp_Energy>
25.1152

> <b_lp_Chiralities_Consistent>
1

> <s_lp_Variant>
AV-unprocessed.smi:2025-3

> <Gold.Version>
5.8.1

> <Gold.Id.Protein>
6NUR|6NUR_protein|mol2

> <Gold.PLP.Fitness>
37.9668

> <Gold.PLP.PLP>
-30.5997

> <Gold.PLP.part.hbond>
-2.7616

> <Gold.PLP.part.metal>
0.0000

> <Gold.PLP.part.buried>
-3.4314

> <Gold.PLP.part.nonpolar>
-25.0688

> <Gold.PLP.part.repulsive>
0.4436

> <Gold.PLP.ligand.clash>
0.0000

> <Gold.PLP.ligand.torsion>
0.8222

> <Gold.PLP.Chemscore.Hbond>
3.0000

> <Gold.PLP.Chemscore.CHOScore>
0.0000

> <Gold.PLP.Chemscore.Metal>
0.0000

> <Gold.Chemscore.Hbonds>
donor molecule, donor type, donor heavy atom, donor atom, acceptor molecule, acceptor atom, score
      L1  H     3    25       P1  7948  1.00
      P1  H  7989  7998       L1    11  0.84
      P1  H 10752 10765       L1    15  1.00

> <Gold.PLP.Chemscore.Internal.Correction>
0.0114

> <Gold.Rescore>
     Score         DG    S(hbond)    S(metal)    S(lipo)     H(rot)  DE(clash)    DE(int)     intcor
     16.17     -17.02       2.88        0.00      56.34       1.82       0.05       0.81       ----

> <Gold.Chemscore.Fitness>
16.1662

> <Gold.Chemscore.DG>
-17.0193

> <Gold.Chemscore.ZeroCoef>
-5.4800

> <Gold.Chemscore.Hbond>
2.8784

> <Gold.Chemscore.Metal>
0.0000

> <Gold.Chemscore.Lipo>
56.3407

> <Gold.Chemscore.Internal_Hbond>
0.0000

> <Gold.Chemscore.DEClash>
0.0462

> <Gold.Chemscore.DEInternal>
0.8069

> <Gold.Chemscore.Rot>
1.8228

> <Gold.Chemscore.Internal.Correction>
   9.000000E+99

> <Gold.Chemscore.Hbonds>
donor molecule, donor type, donor heavy atom, donor atom, acceptor molecule, acceptor atom, score
      L1  H     3    25       P1  7948  0.98
      P1  H  7989  7998       L1    11  0.68
      P1  H 10752 10765       L1    15  0.94

> <Gold.Chemscore.Hbond.Weighted>
-9.6140

> <Gold.Chemscore.Metal.Weighted>
-0.0000

> <Gold.Chemscore.Lipo.Weighted>
-6.5919

> <Gold.Chemscore.Internal_Hbond.Weighted>
0.0000

> <Gold.Chemscore.DEClash.Weighted>
0.0462

> <Gold.Chemscore.DEInternal.Weighted>
0.8069

> <Gold.Chemscore.Rot.Weighted>
4.6665

> <Gold.Chemscore.Internal.Correction.Weighted>
   9.000000E+99

> <Gold.Protein.RotatedTorsions>
[ 6907 6896 6895 6894 ] final -107.94 input  -60.11 | X-H torsion
[ 7974 7965 7964 7962 ] final -131.62 input  175.53 | X-H torsion
[ 8008 7997 7996 7995 ] final  -11.71 input   59.86 | X-H torsion
[ 10167 10162 10161 10158 ] final  173.10 input  -65.29 | X-H torsion
[ 10718 10713 10712 10709 ] final  130.90 input   66.30 | X-H torsion
[ 10763 10752 10751 10750 ] final  172.99 input  -60.55 | X-H torsion
[ 11005 11000 10999 10996 ] final  -85.67 input  -57.11 | X-H torsion

> <Gold.Protein.ActiveResidues>
 VAL166  LYS551  ARG553  GLY616  TRP617  ASP618  TYR619  PRO620  LYS621  CYS622 
 ASP623  PHE694  ASN695  SER759  ASP760  ASP761  ALA762  ILE779  LEU786  VAL792 
 PHE793  MET794  SER795  GLU796  ALA797  LYS798  CYS799  TRP800  GLU811  SER814 

> <Gold.Protein.RotatedAtoms>
  150.7472  133.9752  159.3558 H   0  0  0  0  0  0  0  0  0  0  0  0  # atno 6907 bound_to 6896
  151.7689  135.0789  160.0366 H   0  0  0  0  0  0  0  0  0  0  0  0  # atno 6908 bound_to 6896
  152.3352  133.5967  159.5874 H   0  0  0  0  0  0  0  0  0  0  0  0  # atno 6909 bound_to 6896
  144.9362  140.7186  143.4875 H   0  0  0  0  0  0  0  0  0  0  0  0  # atno 7974 bound_to 7965
  154.5441  140.2295  155.8593 H   0  0  0  0  0  0  0  0  0  0  0  0  # atno 8008 bound_to 7997
  156.1886  140.3083  155.9249 H   0  0  0  0  0  0  0  0  0  0  0  0  # atno 8009 bound_to 7997
  155.3200  140.0440  157.3029 H   0  0  0  0  0  0  0  0  0  0  0  0  # atno 8010 bound_to 7997
  139.5097  144.3299  152.0122 H   0  0  0  0  0  0  0  0  0  0  0  0  # atno 10167 bound_to 10162
  157.5018  131.1094  150.9416 H   0  0  0  0  0  0  0  0  0  0  0  0  # atno 10718 bound_to 10713
  154.4338  135.2760  155.1894 H   0  0  0  0  0  0  0  0  0  0  0  0  # atno 10763 bound_to 10752
  154.3789  135.6092  153.5783 H   0  0  0  0  0  0  0  0  0  0  0  0  # atno 10764 bound_to 10752
  152.9837  135.5875  154.4654 H   0  0  0  0  0  0  0  0  0  0  0  0  # atno 10765 bound_to 10752
  141.1638  133.7412  156.9049 H   0  0  0  0  0  0  0  0  0  0  0  0  # atno 11005 bound_to 11000
  145.3063  139.1833  143.4662 LP  0  0  0  0  0  0  0  0  0  0  0  0  # atno 17320 bound_to 7965
  146.3267  140.3062  142.8624 LP  0  0  0  0  0  0  0  0  0  0  0  0  # atno 17321 bound_to 7965
  140.2738  144.3934  150.6142 LP  0  0  0  0  0  0  0  0  0  0  0  0  # atno 17342 bound_to 10162
  140.6068  143.2168  151.6964 LP  0  0  0  0  0  0  0  0  0  0  0  0  # atno 17343 bound_to 10162
  157.0084  130.5627  149.5318 LP  0  0  0  0  0  0  0  0  0  0  0  0  # atno 17370 bound_to 10713
  156.0234  130.5328  150.8339 LP  0  0  0  0  0  0  0  0  0  0  0  0  # atno 17371 bound_to 10713
  140.1556  134.9200  157.2650 LP  0  0  0  0  0  0  0  0  0  0  0  0  # atno 17394 bound_to 11000
  140.2671  134.3504  155.7386 LP  0  0  0  0  0  0  0  0  0  0  0  0  # atno 17395 bound_to 11000

$$$$
