#       Name:                AV-unprocessed.smi:2923
#       Creating user name   scv26
#       Creation time:       Fri Mar 27 16:10:52 2020


#       File generated by GOLD software.
#

@<TRIPOS>MOLECULE
AV-unprocessed.smi:2923
    52    54     1
SMALL
NO_CHARGES


@<TRIPOS>ATOM
      1 ****        -6.6752   1.0322   1.1091 C.3            1 S1                 0.0000
      2 ****        -6.0394   1.4594  -0.1278 N.3            1 S1                 0.0000
      3 ****        -6.7077   1.0761  -1.3617 C.3            1 S1                 0.0000
      4 ****        -4.6621   1.2044  -0.1521 C.ar           1 S1                 0.0000
      5 ****        -4.1591  -0.1164  -0.1653 C.ar           1 S1                 0.0000
      6 ****        -2.7648  -0.3110  -0.1873 C.ar           1 S1                 0.0000
      7 ****        -1.9167   0.8217  -0.2029 C.ar           1 S1                 0.0000
      8 ****        -0.4975   0.7589  -0.1998 N.am           1 S1                 0.0000
      9 ****         0.2967  -0.2542  -0.5849 C.2            1 S1                 0.0000
     10 ****        -0.0878  -1.3246  -1.0552 O.2            1 S1                 0.0000
     11 ****         1.5881   0.0523  -0.4067 N.am           1 S1                 0.0000
     12 ****         2.7104  -0.8280  -0.7487 C.3            1 S1                 0.0000
     13 ****         4.0593  -0.1068  -0.6870 C.3            1 S1                 0.0000
     14 ****         4.5098   1.3093  -0.6811 C.3            1 S1                 0.0000
     15 ****         5.6078   1.1591   0.4069 C.3            1 S1                 0.0000
     16 ****         5.4282  -0.1634   0.9759 O.3            1 S1                 0.0000
     17 ****         4.0512  -0.4275   0.7938 C.3            1 S1                 0.0000
     18 ****         3.2729  -1.7130   0.4348 C.3            1 S1                 0.0000
     19 ****         2.2701  -2.1914   1.4906 C.3            1 S1                 0.0000
     20 ****         4.1036  -2.9528   0.0558 C.3            1 S1                 0.0000
     21 ****        -2.5220   2.0951  -0.1764 C.ar           1 S1                 0.0000
     22 ****        -3.8575   2.2890  -0.1565 N.ar           1 S1                 0.0000
     23 ****        -6.1118   1.3806   1.9757 H              1 S1                 0.0000
     24 ****        -6.7471  -0.0547   1.1585 H              1 S1                 0.0000
     25 ****        -7.6826   1.4439   1.1757 H              1 S1                 0.0000
     26 ****        -6.1569   1.4380  -2.2309 H              1 S1                 0.0000
     27 ****        -7.7091   1.5058  -1.3956 H              1 S1                 0.0000
     28 ****        -6.7981  -0.0080  -1.4374 H              1 S1                 0.0000
     29 ****        -4.8252  -0.9668  -0.1537 H              1 S1                 0.0000
     30 ****        -2.3782  -1.3181  -0.1762 H              1 S1                 0.0000
     31 ****        -0.0287   1.6062   0.0854 H              1 S1                 0.0000
     32 ****         1.8169   0.9552  -0.0177 H              1 S1                 0.0000
     33 ****         2.5697  -1.3836  -1.6774 H              1 S1                 0.0000
     34 ****         4.7891  -0.6991  -1.2443 H              1 S1                 0.0000
     35 ****         4.9116   1.6323  -1.6418 H              1 S1                 0.0000
     36 ****         3.7186   1.9943  -0.3737 H              1 S1                 0.0000
     37 ****         6.6110   1.2438  -0.0118 H              1 S1                 0.0000
     38 ****         5.4969   1.9227   1.1778 H              1 S1                 0.0000
     39 ****         3.4499   0.2604   1.3972 H              1 S1                 0.0000
     40 ****         2.7690  -2.6960   2.3186 H              1 S1                 0.0000
     41 ****         1.5483  -2.8896   1.0656 H              1 S1                 0.0000
     42 ****         1.7048  -1.3656   1.9226 H              1 S1                 0.0000
     43 ****         4.6876  -3.3093   0.9049 H              1 S1                 0.0000
     44 ****         4.8075  -2.7750  -0.7553 H              1 S1                 0.0000
     45 ****         3.4635  -3.7747  -0.2665 H              1 S1                 0.0000
     46 ****        -1.9166   2.9897  -0.1746 H              1 S1                 0.0000
     47 ****        -6.1559   2.4524  -0.1071 LP             1 S1                 0.0000
     48 ****        -1.0656  -1.4946  -1.1774 LP             1 S1                 0.0000
     49 ****         0.5777  -2.0244  -1.3151 LP             1 S1                 0.0000
     50 ****         5.6661  -0.1682   1.9472 LP             1 S1                 0.0000
     51 ****         5.9868  -0.8376   0.4927 LP             1 S1                 0.0000
     52 ****        -4.2414   3.2123  -0.1453 LP             1 S1                 0.0000
@<TRIPOS>BOND
    1    1    2 1     
    2    1   23 1     
    3    1   24 1     
    4    1   25 1     
    5    2    3 1     
    6    2    4 1     
    7    3   26 1     
    8    3   27 1     
    9    3   28 1     
   10    4   22 ar    
   11    4    5 ar    
   12    5    6 ar    
   13    5   29 1     
   14    6    7 ar    
   15    6   30 1     
   16    7    8 1     
   17    7   21 ar    
   18    8    9 am    
   19    8   31 1     
   20    9   10 2     
   21    9   11 am    
   22   11   12 1     
   23   11   32 1     
   24   12   18 1     
   25   12   13 1     
   26   12   33 1     
   27   13   17 1     
   28   13   14 1     
   29   13   34 1     
   30   14   15 1     
   31   14   35 1     
   32   14   36 1     
   33   15   16 1     
   34   15   37 1     
   35   15   38 1     
   36   16   17 1     
   37   17   18 1     
   38   17   39 1     
   39   18   19 1     
   40   18   20 1     
   41   19   40 1     
   42   19   41 1     
   43   19   42 1     
   44   20   43 1     
   45   20   44 1     
   46   20   45 1     
   47   21   22 ar    
   48   21   46 1     
   49    2   47 1     
   50   10   48 1     
   51   10   49 1     
   52   16   50 1     
   53   16   51 1     
   54   22   52 1     
@<TRIPOS>SUBSTRUCTURE
      1 S1             1
@<TRIPOS>SET
LONE_PAIRS      STATIC     ATOMS    <user>   **** ""
6 47 48 49 50 51 52
DONOR_HYDROGENS      STATIC     ATOMS    <user>   **** ""
2 31 32
ATOM$BLUE        STATIC     ATOMS    COLORGROUP SYSTEM
6 47 48 49 50 51 52
ATOM$RED        STATIC     ATOMS    COLORGROUP SYSTEM
2 31 32
