AV-unprocessed.smi:304|AV-procd|sdf|2277|dock3
  -GOLD-   2262022173D 1   1.00000     0.00000
 Structure written by MMmdl.
 36 38  0  0  0  0  0  0  0  0  1 V2000
  148.6984  142.1666  156.9466 O   0  0  0  0  0  0  0  0  0  0  0  0
  149.2907  141.4506  155.8805 C   0  0  1  0  0  0  0  0  0  0  0  0
  148.6931  141.9638  154.5612 C   0  0  0  0  0  0  0  0  0  0  0  0
  147.2798  141.8719  154.6271 O   0  0  0  0  0  0  0  0  0  0  0  0
  146.6310  142.7489  153.7201 C   0  0  0  0  0  0  0  0  0  0  0  0
  145.6964  143.6116  154.5067 C   0  0  0  0  0  0  0  0  0  0  0  0
  145.2279  144.8524  154.1561 C   0  0  0  0  0  0  0  0  0  0  0  0
  144.3315  145.4089  155.1153 C   0  0  0  0  0  0  0  0  0  0  0  0
  144.1186  144.5814  156.1854 C   0  0  0  0  0  0  0  0  0  0  0  0
  145.0173  143.0967  156.0341 S   0  0  0  0  0  0  0  0  0  0  0  0
  150.8186  141.6448  155.9322 C   0  0  0  0  0  0  0  0  0  0  0  0
  151.4227  141.0150  157.0932 N   0  0  0  0  0  0  0  0  0  0  0  0
  151.8583  139.7442  157.1884 C   0  0  0  0  0  0  0  0  0  0  0  0
  152.3853  139.3657  158.3493 N   0  0  0  0  0  0  0  0  0  0  0  0
  152.2791  140.5265  159.0961 C   0  0  0  0  0  0  0  0  0  0  0  0
  152.6615  140.7965  160.4293 C   0  0  0  0  0  0  0  0  0  0  0  0
  152.4517  142.0743  160.9883 C   0  0  0  0  0  0  0  0  0  0  0  0
  152.8244  142.3161  162.2675 F   0  0  0  0  0  0  0  0  0  0  0  0
  151.8564  143.0997  160.2238 C   0  0  0  0  0  0  0  0  0  0  0  0
  151.6576  144.3232  160.7690 F   0  0  0  0  0  0  0  0  0  0  0  0
  151.4674  142.8542  158.8930 C   0  0  0  0  0  0  0  0  0  0  0  0
  151.6800  141.5783  158.3388 C   0  0  0  0  0  0  0  0  0  0  0  0
  148.9977  143.0624  156.9058 H   0  0  0  0  0  0  0  0  0  0  0  0
  149.0639  140.3899  155.9972 H   0  0  0  0  0  0  0  0  0  0  0  0
  149.0183  142.9844  154.3512 H   0  0  0  0  0  0  0  0  0  0  0  0
  149.0361  141.3392  153.7346 H   0  0  0  0  0  0  0  0  0  0  0  0
  147.3647  143.3641  153.1969 H   0  0  0  0  0  0  0  0  0  0  0  0
  146.0734  142.1824  152.9732 H   0  0  0  0  0  0  0  0  0  0  0  0
  145.4968  145.3769  153.2510 H   0  0  0  0  0  0  0  0  0  0  0  0
  143.8789  146.3810  154.9871 H   0  0  0  0  0  0  0  0  0  0  0  0
  143.4899  144.7505  157.0471 H   0  0  0  0  0  0  0  0  0  0  0  0
  151.2816  141.2217  155.0396 H   0  0  0  0  0  0  0  0  0  0  0  0
  151.0698  142.7062  155.9379 H   0  0  0  0  0  0  0  0  0  0  0  0
  151.7836  139.0580  156.3573 H   0  0  0  0  0  0  0  0  0  0  0  0
  153.1169  140.0190  161.0243 H   0  0  0  0  0  0  0  0  0  0  0  0
  151.0088  143.6364  158.3068 H   0  0  0  0  0  0  0  0  0  0  0  0
  1  2  1  0  0  0  0
  1 23  1  0  0  0  0
  2  3  1  0  0  0  0
  2 11  1  0  0  0  0
  2 24  1  0  0  0  0
  3  4  1  0  0  0  0
  3 25  1  0  0  0  0
  3 26  1  0  0  0  0
  4  5  1  0  0  0  0
  5  6  1  0  0  0  0
  5 27  1  0  0  0  0
  5 28  1  0  0  0  0
  6 10  1  0  0  0  0
  6  7  2  0  0  0  0
  7  8  1  0  0  0  0
  7 29  1  0  0  0  0
  8  9  2  0  0  0  0
  8 30  1  0  0  0  0
  9 10  1  0  0  0  0
  9 31  1  0  0  0  0
 11 12  1  0  0  0  0
 11 32  1  0  0  0  0
 11 33  1  0  0  0  0
 12 22  1  0  0  0  0
 12 13  1  0  0  0  0
 13 14  2  0  0  0  0
 13 34  1  0  0  0  0
 14 15  1  0  0  0  0
 15 22  2  0  0  0  0
 15 16  1  0  0  0  0
 16 17  2  0  0  0  0
 16 35  1  0  0  0  0
 17 18  1  0  0  0  0
 17 19  1  0  0  0  0
 19 20  1  0  0  0  0
 19 21  2  0  0  0  0
 21 22  1  0  0  0  0
 21 36  1  0  0  0  0
M  END
> <s_m_source_file>
AV-unprocessed.smi

> <i_m_source_file_index>
304

> <i_lp_mmshare_version>
43012

> <i_f3d_flags>
0

> <s_epik_input>
W2NIXTFjKEYpYyhGKVtjSF1jKGMxMiluKFtjSF1uMilbQ0gyXVtDQEhdKFtPSF0pW0NIMl1PW0NIMl1jM1tjSF1bY0hdW2NIXXMz

> <s_epik_cmdline>
J2VwaWtfcHl0aG9uJywgJy1waCcsICc3LjAnLCAnLXRuJywgJzgnLCAnLW1hJywgJzIwMCcsICctbWV0YWxfYmluZGluZycsICctaW1hZScsICc8aW5maWxlLm1hZT4nLCAnLW9tYWUnLCAnPG91dGZpbGUubWFlPic=

> <r_epik_Ionization_Penalty>
0.0152118

> <r_epik_Ionization_Penalty_Charging>
0

> <r_epik_Ionization_Penalty_Neutral>
0.0152118

> <r_epik_State_Penalty>
0.0119413

> <r_epik_Charging_Adjusted_Penalty>
0.0119413

> <i_epik_Tot_Q>
0

> <i_epik_Tot_abs_Q>
0

> <r_epik_Metal_State_Penalty>
1.20623e-05

> <b_epik_Metal_Only>
0

> <s_lp_Force_Field>
OPLS_2005

> <r_lp_Energy>
8.44111

> <b_lp_Chiralities_Consistent>
1

> <s_lp_Variant>
AV-unprocessed.smi:304-2

> <Gold.Version>
5.8.1

> <Gold.Id.Protein>
6NUR|6NUR_protein|mol2

> <Gold.PLP.Fitness>
53.7120

> <Gold.PLP.PLP>
-53.0144

> <Gold.PLP.part.hbond>
-0.9879

> <Gold.PLP.part.metal>
0.0000

> <Gold.PLP.part.buried>
-8.5576

> <Gold.PLP.part.nonpolar>
-43.1631

> <Gold.PLP.part.repulsive>
0.1387

> <Gold.PLP.ligand.clash>
0.0000

> <Gold.PLP.ligand.torsion>
1.2463

> <Gold.PLP.Chemscore.Hbond>
1.0000

> <Gold.PLP.Chemscore.CHOScore>
0.0000

> <Gold.PLP.Chemscore.Metal>
0.0000

> <Gold.Chemscore.Hbonds>
donor molecule, donor type, donor heavy atom, donor atom, acceptor molecule, acceptor atom, score
      L1  H     1    23       P1  8028  0.72

> <Gold.PLP.Chemscore.Internal.Correction>
0.1903

> <Gold.Rescore>
     Score         DG    S(hbond)    S(metal)    S(lipo)     H(rot)  DE(clash)    DE(int)     intcor
     14.97     -16.35       0.97        0.00     122.91       2.64       0.11       1.27       ----

> <Gold.Chemscore.Fitness>
14.9727

> <Gold.Chemscore.DG>
-16.3518

> <Gold.Chemscore.ZeroCoef>
-5.4800

> <Gold.Chemscore.Hbond>
0.9732

> <Gold.Chemscore.Metal>
0.0000

> <Gold.Chemscore.Lipo>
122.9098

> <Gold.Chemscore.Internal_Hbond>
0.0000

> <Gold.Chemscore.DEClash>
0.1100

> <Gold.Chemscore.DEInternal>
1.2691

> <Gold.Chemscore.Rot>
2.6403

> <Gold.Chemscore.Internal.Correction>
   9.000000E+99

> <Gold.Chemscore.Hbonds>
donor molecule, donor type, donor heavy atom, donor atom, acceptor molecule, acceptor atom, score
      L1  H     1    23       P1  8028  0.63

> <Gold.Chemscore.Hbond.Weighted>
-3.2505

> <Gold.Chemscore.Metal.Weighted>
-0.0000

> <Gold.Chemscore.Lipo.Weighted>
-14.3804

> <Gold.Chemscore.Internal_Hbond.Weighted>
0.0000

> <Gold.Chemscore.DEClash.Weighted>
0.1100

> <Gold.Chemscore.DEInternal.Weighted>
1.2691

> <Gold.Chemscore.Rot.Weighted>
6.7592

> <Gold.Chemscore.Internal.Correction.Weighted>
   9.000000E+99

> <Gold.Protein.RotatedTorsions>
[ 6907 6896 6895 6894 ] final  139.82 input  -60.11 | X-H torsion
[ 7974 7965 7964 7962 ] final   56.36 input  175.53 | X-H torsion
[ 8008 7997 7996 7995 ] final  -53.88 input   59.86 | X-H torsion
[ 10167 10162 10161 10158 ] final  142.94 input  -65.29 | X-H torsion
[ 10718 10713 10712 10709 ] final  172.02 input   66.30 | X-H torsion
[ 10763 10752 10751 10750 ] final  -72.95 input  -60.55 | X-H torsion
[ 11005 11000 10999 10996 ] final  162.19 input  -57.11 | X-H torsion

> <Gold.Protein.ActiveResidues>
 VAL166  LYS551  ARG553  GLY616  TRP617  ASP618  TYR619  PRO620  LYS621  CYS622 
 ASP623  PHE694  ASN695  SER759  ASP760  ASP761  ALA762  ILE779  LEU786  VAL792 
 PHE793  MET794  SER795  GLU796  ALA797  LYS798  CYS799  TRP800  GLU811  SER814 

> <Gold.Protein.RotatedAtoms>
  152.2504  133.5210  159.5321 H   0  0  0  0  0  0  0  0  0  0  0  0  # atno 6907 bound_to 6896
  150.7092  134.0967  159.3960 H   0  0  0  0  0  0  0  0  0  0  0  0  # atno 6908 bound_to 6896
  151.8887  135.0425  160.0546 H   0  0  0  0  0  0  0  0  0  0  0  0  # atno 6909 bound_to 6896
  145.9406  139.3885  143.0366 H   0  0  0  0  0  0  0  0  0  0  0  0  # atno 7974 bound_to 7965
  154.4146  140.1189  156.5225 H   0  0  0  0  0  0  0  0  0  0  0  0  # atno 8008 bound_to 7997
  155.6688  140.3496  155.4791 H   0  0  0  0  0  0  0  0  0  0  0  0  # atno 8009 bound_to 7997
  155.9650  140.1130  157.0852 H   0  0  0  0  0  0  0  0  0  0  0  0  # atno 8010 bound_to 7997
  139.4982  144.6074  151.6348 H   0  0  0  0  0  0  0  0  0  0  0  0  # atno 10167 bound_to 10162
  156.9851  131.0131  151.2871 H   0  0  0  0  0  0  0  0  0  0  0  0  # atno 10718 bound_to 10713
  154.4528  135.5913  153.6203 H   0  0  0  0  0  0  0  0  0  0  0  0  # atno 10763 bound_to 10752
  152.9815  135.6025  154.3583 H   0  0  0  0  0  0  0  0  0  0  0  0  # atno 10764 bound_to 10752
  154.3446  135.2841  155.2383 H   0  0  0  0  0  0  0  0  0  0  0  0  # atno 10765 bound_to 10752
  140.2233  134.8180  157.3242 H   0  0  0  0  0  0  0  0  0  0  0  0  # atno 11005 bound_to 11000
  145.8305  140.9633  143.0851 LP  0  0  0  0  0  0  0  0  0  0  0  0  # atno 17320 bound_to 7965
  144.6778  140.0156  143.7484 LP  0  0  0  0  0  0  0  0  0  0  0  0  # atno 17321 bound_to 7965
  140.5739  144.0062  150.6231 LP  0  0  0  0  0  0  0  0  0  0  0  0  # atno 17342 bound_to 10162
  140.3188  143.3150  152.0805 LP  0  0  0  0  0  0  0  0  0  0  0  0  # atno 17343 bound_to 10162
  157.5499  130.8175  149.8131 LP  0  0  0  0  0  0  0  0  0  0  0  0  # atno 17370 bound_to 10713
  156.0229  130.3789  150.1908 LP  0  0  0  0  0  0  0  0  0  0  0  0  # atno 17371 bound_to 10713
  140.1827  134.4469  155.7762 LP  0  0  0  0  0  0  0  0  0  0  0  0  # atno 17394 bound_to 11000
  141.2222  133.6991  156.7895 LP  0  0  0  0  0  0  0  0  0  0  0  0  # atno 17395 bound_to 11000

$$$$
