AV-unprocessed.smi:1723|AV-procd|sdf|6946|dock8
  -GOLD-   22720 8153D 1   1.00000     0.00000
 Structure written by MMmdl.
 38 38  0  0  0  0  0  0  0  0  1 V2000
  149.3117  133.3053  154.1252 C   0  0  0  0  0  0  0  0  0  0  0  0
  150.0010  134.3412  155.0200 C   0  0  0  0  0  0  0  0  0  0  0  0
  149.2650  135.6884  155.0364 C   0  0  0  0  0  0  0  0  0  0  0  0
  149.6978  136.5825  156.2037 C   0  0  0  0  0  0  0  0  0  0  0  0
  149.2857  137.9167  155.9296 O   0  0  0  0  0  0  0  0  0  0  0  0
  150.0714  138.6164  154.9678 C   0  0  1  0  0  0  0  0  0  0  0  0
  149.1041  139.3414  154.0207 C   0  0  0  0  0  0  0  0  0  0  0  0
  151.0125  139.6082  155.6706 C   0  0  0  0  0  0  0  0  0  0  0  0
  151.8431  140.2292  155.0075 O   0  0  0  0  0  0  0  0  0  0  0  0
  150.8464  139.7203  157.0033 N   0  0  0  0  0  0  0  0  0  0  0  0
  151.4917  140.5821  157.9050 C   0  0  0  0  0  0  0  0  0  0  0  0
  151.3805  141.9359  157.8914 C   0  0  0  0  0  0  0  0  0  0  0  0
  152.0596  142.7754  158.8639 C   0  0  0  0  0  0  0  0  0  0  0  0
  151.8787  144.2855  158.8728 C   0  0  0  0  0  0  0  0  0  0  0  0
  152.1354  144.7983  160.0768 F   0  0  0  0  0  0  0  0  0  0  0  0
  152.7106  144.8463  157.9966 F   0  0  0  0  0  0  0  0  0  0  0  0
  150.6331  144.6185  158.5334 F   0  0  0  0  0  0  0  0  0  0  0  0
  152.7854  142.1395  159.8024 C   0  0  0  0  0  0  0  0  0  0  0  0
  152.9050  140.7479  159.8229 N   0  0  0  0  0  0  0  0  0  0  0  0
  152.3025  139.9201  158.9400 C   0  0  0  0  0  0  0  0  0  0  0  0
  152.4489  138.7017  159.0304 O   0  0  0  0  0  0  0  0  0  0  0  0
  153.4759  140.3466  160.5529 H   0  0  0  0  0  0  0  0  0  0  0  0
  149.8567  132.3611  154.1325 H   0  0  0  0  0  0  0  0  0  0  0  0
  149.2580  133.6506  153.0924 H   0  0  0  0  0  0  0  0  0  0  0  0
  148.2955  133.1054  154.4659 H   0  0  0  0  0  0  0  0  0  0  0  0
  150.0683  133.9489  156.0353 H   0  0  0  0  0  0  0  0  0  0  0  0
  151.0257  134.4876  154.6770 H   0  0  0  0  0  0  0  0  0  0  0  0
  149.4399  136.2118  154.0956 H   0  0  0  0  0  0  0  0  0  0  0  0
  148.1898  135.5148  155.0980 H   0  0  0  0  0  0  0  0  0  0  0  0
  149.2513  136.2147  157.1282 H   0  0  0  0  0  0  0  0  0  0  0  0
  150.7817  136.5461  156.3227 H   0  0  0  0  0  0  0  0  0  0  0  0
  150.6522  137.9000  154.3831 H   0  0  0  0  0  0  0  0  0  0  0  0
  149.6435  139.9120  153.2639 H   0  0  0  0  0  0  0  0  0  0  0  0
  148.4533  140.0306  154.5605 H   0  0  0  0  0  0  0  0  0  0  0  0
  148.4657  138.6269  153.5006 H   0  0  0  0  0  0  0  0  0  0  0  0
  150.1906  139.0801  157.4279 H   0  0  0  0  0  0  0  0  0  0  0  0
  150.7627  142.4324  157.1608 H   0  0  0  0  0  0  0  0  0  0  0  0
  153.3168  142.6360  160.6009 H   0  0  0  0  0  0  0  0  0  0  0  0
  1  2  1  0  0  0  0
  1 23  1  0  0  0  0
  1 24  1  0  0  0  0
  1 25  1  0  0  0  0
  2  3  1  0  0  0  0
  2 26  1  0  0  0  0
  2 27  1  0  0  0  0
  3  4  1  0  0  0  0
  3 28  1  0  0  0  0
  3 29  1  0  0  0  0
  4  5  1  0  0  0  0
  4 30  1  0  0  0  0
  4 31  1  0  0  0  0
  5  6  1  0  0  0  0
  6  7  1  0  0  0  0
  6  8  1  0  0  0  0
  6 32  1  0  0  0  0
  7 33  1  0  0  0  0
  7 34  1  0  0  0  0
  7 35  1  0  0  0  0
  8  9  2  0  0  0  0
  8 10  1  0  0  0  0
 10 11  1  0  0  0  0
 10 36  1  0  0  0  0
 11 20  1  0  0  0  0
 11 12  2  0  0  0  0
 12 13  1  0  0  0  0
 12 37  1  0  0  0  0
 13 14  1  0  0  0  0
 13 18  2  0  0  0  0
 14 15  1  0  0  0  0
 14 16  1  0  0  0  0
 14 17  1  0  0  0  0
 18 19  1  0  0  0  0
 18 38  1  0  0  0  0
 19 22  1  0  0  0  0
 19 20  1  0  0  0  0
 20 21  2  0  0  0  0
M  END
> <s_m_source_file>
AV-unprocessed.smi

> <i_m_source_file_index>
1723

> <i_lp_mmshare_version>
43012

> <i_f3d_flags>
0

> <s_epik_input>
W0NIM11bQ0gyXVtDSDJdW0NIMl1PW0NASF0oW0NIM10pQyg9TylbTkhdYzFbY0hdYyhDKEYpKEYpRilbY0hdW25IXWMxPU8=

> <s_epik_cmdline>
J2VwaWtfcHl0aG9uJywgJy1waCcsICc3LjAnLCAnLXRuJywgJzgnLCAnLW1hJywgJzIwMCcsICctbWV0YWxfYmluZGluZycsICctaW1hZScsICc8aW5maWxlLm1hZT4nLCAnLW9tYWUnLCAnPG91dGZpbGUubWFlPic=

> <r_lp_tautomer_probability>
0.999

> <r_epik_Ionization_Penalty>
0.00763408

> <r_epik_Ionization_Penalty_Charging>
0.00763398

> <r_epik_Ionization_Penalty_Neutral>
9.29819e-08

> <r_epik_State_Penalty>
0.00571302

> <r_epik_Charging_Adjusted_Penalty>
0.013347

> <i_epik_Tot_Q>
0

> <i_epik_Tot_abs_Q>
0

> <r_epik_Metal_State_Penalty>
0.392814

> <b_epik_Metal_Only>
0

> <s_lp_Force_Field>
OPLS_2005

> <r_lp_Energy>
18.7704

> <b_lp_Chiralities_Consistent>
1

> <s_lp_Variant>
AV-unprocessed.smi:1723-2

> <Gold.Version>
5.8.1

> <Gold.Id.Protein>
6NUR|6NUR_protein|mol2

> <Gold.PLP.Fitness>
41.4156

> <Gold.PLP.PLP>
-43.5622

> <Gold.PLP.part.hbond>
-1.0000

> <Gold.PLP.part.metal>
0.0000

> <Gold.PLP.part.buried>
-4.9611

> <Gold.PLP.part.nonpolar>
-37.4028

> <Gold.PLP.part.repulsive>
0.2203

> <Gold.PLP.ligand.clash>
0.0000

> <Gold.PLP.ligand.torsion>
2.4240

> <Gold.PLP.Chemscore.Hbond>
0.8480

> <Gold.PLP.Chemscore.CHOScore>
0.0000

> <Gold.PLP.Chemscore.Metal>
0.0000

> <Gold.Chemscore.Hbonds>
donor molecule, donor type, donor heavy atom, donor atom, acceptor molecule, acceptor atom, score
      P1  H  7989  7998       L1     9  0.85

> <Gold.PLP.Chemscore.Internal.Correction>
0.1573

> <Gold.Rescore>
     Score         DG    S(hbond)    S(metal)    S(lipo)     H(rot)  DE(clash)    DE(int)     intcor
     10.17     -12.29       0.94        0.00      74.92       1.99       0.02       2.10       ----

> <Gold.Chemscore.Fitness>
10.1694

> <Gold.Chemscore.DG>
-12.2881

> <Gold.Chemscore.ZeroCoef>
-5.4800

> <Gold.Chemscore.Hbond>
0.9427

> <Gold.Chemscore.Metal>
0.0000

> <Gold.Chemscore.Lipo>
74.9207

> <Gold.Chemscore.Internal_Hbond>
0.0000

> <Gold.Chemscore.DEClash>
0.0169

> <Gold.Chemscore.DEInternal>
2.1018

> <Gold.Chemscore.Rot>
1.9946

> <Gold.Chemscore.Internal.Correction>
   9.000000E+99

> <Gold.Chemscore.Hbonds>
donor molecule, donor type, donor heavy atom, donor atom, acceptor molecule, acceptor atom, score
      P1  H  7989  7998       L1     9  0.84

> <Gold.Chemscore.Hbond.Weighted>
-3.1486

> <Gold.Chemscore.Metal.Weighted>
-0.0000

> <Gold.Chemscore.Lipo.Weighted>
-8.7657

> <Gold.Chemscore.Internal_Hbond.Weighted>
0.0000

> <Gold.Chemscore.DEClash.Weighted>
0.0169

> <Gold.Chemscore.DEInternal.Weighted>
2.1018

> <Gold.Chemscore.Rot.Weighted>
5.1062

> <Gold.Chemscore.Internal.Correction.Weighted>
   9.000000E+99

> <Gold.Protein.RotatedTorsions>
[ 6907 6896 6895 6894 ] final  -83.89 input  -60.11 | X-H torsion
[ 7974 7965 7964 7962 ] final  -10.25 input  175.53 | X-H torsion
[ 8008 7997 7996 7995 ] final    8.17 input   59.86 | X-H torsion
[ 10167 10162 10161 10158 ] final   12.14 input  -65.29 | X-H torsion
[ 10718 10713 10712 10709 ] final  -56.78 input   66.30 | X-H torsion
[ 10763 10752 10751 10750 ] final  158.99 input  -60.55 | X-H torsion
[ 11005 11000 10999 10996 ] final  173.26 input  -57.11 | X-H torsion

> <Gold.Protein.ActiveResidues>
 VAL166  LYS551  ARG553  GLY616  TRP617  ASP618  TYR619  PRO620  LYS621  CYS622 
 ASP623  PHE694  ASN695  SER759  ASP760  ASP761  ALA762  ILE779  LEU786  VAL792 
 PHE793  MET794  SER795  GLU796  ALA797  LYS798  CYS799  TRP800  GLU811  SER814 

> <Gold.Protein.RotatedAtoms>
  150.6881  134.3443  159.4881 H   0  0  0  0  0  0  0  0  0  0  0  0  # atno 6907 bound_to 6896
  152.1292  134.9145  160.0569 H   0  0  0  0  0  0  0  0  0  0  0  0  # atno 6908 bound_to 6896
  152.0321  133.3907  159.4338 H   0  0  0  0  0  0  0  0  0  0  0  0  # atno 6909 bound_to 6896
  146.2226  140.2736  142.8358 H   0  0  0  0  0  0  0  0  0  0  0  0  # atno 7974 bound_to 7965
  154.7634  140.2788  155.6196 H   0  0  0  0  0  0  0  0  0  0  0  0  # atno 8008 bound_to 7997
  156.2920  140.2655  156.2345 H   0  0  0  0  0  0  0  0  0  0  0  0  # atno 8009 bound_to 7997
  154.9990  140.0373  157.2341 H   0  0  0  0  0  0  0  0  0  0  0  0  # atno 8010 bound_to 7997
  140.6087  143.8454  150.7041 H   0  0  0  0  0  0  0  0  0  0  0  0  # atno 10167 bound_to 10162
  156.1262  130.4162  150.0351 H   0  0  0  0  0  0  0  0  0  0  0  0  # atno 10718 bound_to 10713
  154.2247  135.2780  155.2912 H   0  0  0  0  0  0  0  0  0  0  0  0  # atno 10763 bound_to 10752
  154.5673  135.5629  153.7065 H   0  0  0  0  0  0  0  0  0  0  0  0  # atno 10764 bound_to 10752
  153.0033  135.6312  154.2388 H   0  0  0  0  0  0  0  0  0  0  0  0  # atno 10765 bound_to 10752
  140.3386  134.7296  157.4186 H   0  0  0  0  0  0  0  0  0  0  0  0  # atno 11005 bound_to 11000
  144.9249  140.7910  143.5725 LP  0  0  0  0  0  0  0  0  0  0  0  0  # atno 17320 bound_to 7965
  145.2675  139.1967  143.4859 LP  0  0  0  0  0  0  0  0  0  0  0  0  # atno 17321 bound_to 7965
  140.2017  143.3954  152.1786 LP  0  0  0  0  0  0  0  0  0  0  0  0  # atno 17342 bound_to 10162
  139.5344  144.7194  151.4943 LP  0  0  0  0  0  0  0  0  0  0  0  0  # atno 17343 bound_to 10162
  156.8276  130.9381  151.3638 LP  0  0  0  0  0  0  0  0  0  0  0  0  # atno 17370 bound_to 10713
  157.6443  130.8831  149.9508 LP  0  0  0  0  0  0  0  0  0  0  0  0  # atno 17371 bound_to 10713
  140.0800  134.5744  155.8551 LP  0  0  0  0  0  0  0  0  0  0  0  0  # atno 17394 bound_to 11000
  141.2044  133.6639  156.6122 LP  0  0  0  0  0  0  0  0  0  0  0  0  # atno 17395 bound_to 11000

$$$$
