#       Name:                AV-unprocessed.smi:236
#       Creating user name   scv26
#       Creation time:       Thu Mar 26 20:39:03 2020


#       File generated by GOLD software.
#

@<TRIPOS>MOLECULE
AV-unprocessed.smi:236
    70    74     1
SMALL
NO_CHARGES


@<TRIPOS>ATOM
      1 ****        -7.2334  -2.2326   0.8050 C.3            1 S1                 0.0000
      2 ****        -6.4572  -1.7656   2.0453 C.3            1 S1                 0.0000
      3 ****        -6.8899  -0.4704   2.4542 O.3            1 S1                 0.0000
      4 ****        -5.7924   0.2746   2.9747 C.3            1 S1                 0.0000
      5 ****        -4.6277  -0.7075   3.0534 C.3            1 S1                 0.0000
      6 ****        -4.9260  -1.6661   1.9068 C.3            1 S1                 0.0000
      7 ****        -4.3250  -2.9170   2.1856 O.3            1 S1                 0.0000
      8 ****        -4.4462  -1.1594   0.5193 C.3            1 S1                 0.0000
      9 ****        -3.0307  -0.8283   0.4729 N.pl3          1 S1                 0.0000
     10 ****        -1.9795  -1.7068   0.3384 C.2            1 S1                 0.0000
     11 ****        -0.7948  -1.1595   0.3308 N.2            1 S1                 0.0000
     12 ****        -1.0478   0.2014   0.4566 C.ar           1 S1                 0.0000
     13 ****        -0.2324   1.3671   0.5221 C.ar           1 S1                 0.0000
     14 ****         1.1162   1.3742   0.4733 N.3            1 S1                 0.0000
     15 ****         1.7373   0.9790   1.7292 C.3            1 S1                 0.0000
     16 ****         3.2576   1.1914   1.6471 C.3            1 S1                 0.0000
     17 ****         3.7754   0.4901   0.5203 O.3            1 S1                 0.0000
     18 ****         3.2263   0.9549  -0.7117 C.3            1 S1                 0.0000
     19 ****         3.9033   0.1902  -1.8555 C.3            1 S1                 0.0000
     20 ****         5.2345   0.6568  -1.9994 O.3            1 S1                 0.0000
     21 ****         5.9450  -0.0279  -3.0162 C.3            1 S1                 0.0000
     22 ****         7.3503   0.5289  -3.0995 C.3            1 S1                 0.0000
     23 ****         7.6814   1.6590  -4.0479 C.3            1 S1                 0.0000
     24 ****         8.1982   0.2703  -4.3244 C.3            1 S1                 0.0000
     25 ****         1.7046   0.7143  -0.6857 C.3            1 S1                 0.0000
     26 ****        -0.8467   2.5662   0.6700 N.ar           1 S1                 0.0000
     27 ****        -2.1800   2.6301   0.7366 C.ar           1 S1                 0.0000
     28 ****        -3.0675   1.6346   0.6838 N.ar           1 S1                 0.0000
     29 ****        -2.4503   0.4260   0.5453 C.ar           1 S1                 0.0000
     30 ****        -6.8836  -3.2083   0.4674 H              1 S1                 0.0000
     31 ****        -7.1330  -1.5313  -0.0233 H              1 S1                 0.0000
     32 ****        -8.2968  -2.3215   1.0281 H              1 S1                 0.0000
     33 ****        -6.6923  -2.4366   2.8739 H              1 S1                 0.0000
     34 ****        -5.5639   1.0881   2.2856 H              1 S1                 0.0000
     35 ****        -6.0312   0.7110   3.9445 H              1 S1                 0.0000
     36 ****        -3.6531  -0.2231   3.0063 H              1 S1                 0.0000
     37 ****        -4.6772  -1.2355   4.0075 H              1 S1                 0.0000
     38 ****        -4.6254  -3.5431   1.5448 H              1 S1                 0.0000
     39 ****        -4.6404  -1.9090  -0.2489 H              1 S1                 0.0000
     40 ****        -5.0099  -0.2732   0.2253 H              1 S1                 0.0000
     41 ****        -2.1196  -2.7746   0.2527 H              1 S1                 0.0000
     42 ****         1.3222   1.5615   2.5528 H              1 S1                 0.0000
     43 ****         1.5168  -0.0701   1.9317 H              1 S1                 0.0000
     44 ****         3.4992   2.2528   1.5703 H              1 S1                 0.0000
     45 ****         3.7397   0.8186   2.5507 H              1 S1                 0.0000
     46 ****         3.4239   2.0223  -0.8275 H              1 S1                 0.0000
     47 ****         3.8842  -0.8834  -1.6605 H              1 S1                 0.0000
     48 ****         3.3643   0.3647  -2.7881 H              1 S1                 0.0000
     49 ****         6.0006  -1.0927  -2.7860 H              1 S1                 0.0000
     50 ****         5.4439   0.0828  -3.9793 H              1 S1                 0.0000
     51 ****         7.8825   0.5232  -2.1499 H              1 S1                 0.0000
     52 ****         6.8841   2.0351  -4.6859 H              1 S1                 0.0000
     53 ****         8.3980   2.4043  -3.7089 H              1 S1                 0.0000
     54 ****         9.2599   0.0878  -4.1706 H              1 S1                 0.0000
     55 ****         7.7458  -0.2775  -5.1490 H              1 S1                 0.0000
     56 ****         1.5070  -0.3569  -0.6485 H              1 S1                 0.0000
     57 ****         1.2463   1.0979  -1.5984 H              1 S1                 0.0000
     58 ****        -2.5951   3.6207   0.8503 H              1 S1                 0.0000
     59 ****        -7.5903  -0.5644   3.1618 LP             1 S1                 0.0000
     60 ****        -7.2736   0.0131   1.6675 LP             1 S1                 0.0000
     61 ****        -4.5865  -3.2202   3.1020 LP             1 S1                 0.0000
     62 ****        -3.3299  -2.8323   2.1339 LP             1 S1                 0.0000
     63 ****         0.0920  -1.6150   0.2525 LP             1 S1                 0.0000
     64 ****         1.3398   2.3391   0.3360 LP             1 S1                 0.0000
     65 ****         3.5608  -0.4815   0.6209 LP             1 S1                 0.0000
     66 ****         4.7677   0.6114   0.4953 LP             1 S1                 0.0000
     67 ****         5.7144   0.5286  -1.1314 LP             1 S1                 0.0000
     68 ****         5.2099   1.6304  -2.2260 LP             1 S1                 0.0000
     69 ****        -0.3024   3.4029   0.7293 LP             1 S1                 0.0000
     70 ****        -4.0582   1.7588   0.7388 LP             1 S1                 0.0000
@<TRIPOS>BOND
    1    1    2 1     
    2    1   30 1     
    3    1   31 1     
    4    1   32 1     
    5    2    6 1     
    6    2    3 1     
    7    2   33 1     
    8    3    4 1     
    9    4    5 1     
   10    4   34 1     
   11    4   35 1     
   12    5    6 1     
   13    5   36 1     
   14    5   37 1     
   15    6    7 1     
   16    6    8 1     
   17    7   38 1     
   18    8    9 1     
   19    8   39 1     
   20    8   40 1     
   21    9   29 1     
   22    9   10 1     
   23   10   11 2     
   24   10   41 1     
   25   11   12 1     
   26   12   29 ar    
   27   12   13 ar    
   28   13   14 1     
   29   13   26 ar    
   30   14   25 1     
   31   14   15 1     
   32   15   16 1     
   33   15   42 1     
   34   15   43 1     
   35   16   17 1     
   36   16   44 1     
   37   16   45 1     
   38   17   18 1     
   39   18   19 1     
   40   18   25 1     
   41   18   46 1     
   42   19   20 1     
   43   19   47 1     
   44   19   48 1     
   45   20   21 1     
   46   21   22 1     
   47   21   49 1     
   48   21   50 1     
   49   22   24 1     
   50   22   23 1     
   51   22   51 1     
   52   23   24 1     
   53   23   52 1     
   54   23   53 1     
   55   24   54 1     
   56   24   55 1     
   57   25   56 1     
   58   25   57 1     
   59   26   27 ar    
   60   27   28 ar    
   61   27   58 1     
   62   28   29 ar    
   63    3   59 1     
   64    3   60 1     
   65    7   61 1     
   66    7   62 1     
   67   11   63 1     
   68   14   64 1     
   69   17   65 1     
   70   17   66 1     
   71   20   67 1     
   72   20   68 1     
   73   26   69 1     
   74   28   70 1     
@<TRIPOS>SUBSTRUCTURE
      1 S1             1
@<TRIPOS>SET
LONE_PAIRS      STATIC     ATOMS    <user>   **** ""
12 59 60 61 62 63 64 65 66 67 68 69 70
DONOR_HYDROGENS      STATIC     ATOMS    <user>   **** ""
1 38
ATOM$BLUE        STATIC     ATOMS    COLORGROUP SYSTEM
12 59 60 61 62 63 64 65 66 67 68 69 70
ATOM$RED        STATIC     ATOMS    COLORGROUP SYSTEM
1 38
