AV-unprocessed.smi:927|AV-procd|sdf|4188|dock7
  -GOLD-   22720 2 93D 1   1.00000     0.00000
 Structure written by MMmdl.
 21 21  0  0  0  0  0  0  0  0  2 V2000
  148.3265  134.1791  153.5801 N   0  3  0  0  0  0  0  0  0  0  0  0
  147.5272  133.3537  152.6572 C   0  0  0  0  0  0  0  0  0  0  0  0
  146.1220  133.9414  152.4348 C   0  0  1  0  0  0  0  0  0  0  0  0
  146.2385  135.3374  152.2385 O   0  0  0  0  0  0  0  0  0  0  0  0
  145.4213  133.2656  151.2665 C   0  0  0  0  0  0  0  0  0  0  0  0
  144.0161  133.1322  151.2351 C   0  0  0  0  0  0  0  0  0  0  0  0
  143.4234  132.5008  150.1233 C   0  0  0  0  0  0  0  0  0  0  0  0
  144.1323  132.0176  149.0808 N   0  0  0  0  0  0  0  0  0  0  0  0
  145.4754  132.1499  149.1144 C   0  0  0  0  0  0  0  0  0  0  0  0
  146.1662  132.7643  150.1783 C   0  0  0  0  0  0  0  0  0  0  0  0
  149.0571  133.6162  153.9913 H   0  0  0  0  0  0  0  0  0  0  0  0
  147.7311  134.5460  154.3087 H   0  0  0  0  0  0  0  0  0  0  0  0
  148.0615  133.2584  151.7109 H   0  0  0  0  0  0  0  0  0  0  0  0
  147.4505  132.3522  153.0821 H   0  0  0  0  0  0  0  0  0  0  0  0
  145.5208  133.7885  153.3322 H   0  0  0  0  0  0  0  0  0  0  0  0
  147.1492  135.5441  152.0890 H   0  0  0  0  0  0  0  0  0  0  0  0
  143.4017  133.5042  152.0420 H   0  0  0  0  0  0  0  0  0  0  0  0
  142.3512  132.3826  150.0696 H   0  0  0  0  0  0  0  0  0  0  0  0
  146.0167  131.7554  148.2672 H   0  0  0  0  0  0  0  0  0  0  0  0
  147.2430  132.8451  150.1537 H   0  0  0  0  0  0  0  0  0  0  0  0
  148.7391  134.9450  153.0664 H   0  0  0  0  0  0  0  0  0  0  0  0
  1  2  1  0  0  0  0
  1 11  1  0  0  0  0
  1 12  1  0  0  0  0
  1 21  1  0  0  0  0
  2  3  1  0  0  0  0
  2 13  1  0  0  0  0
  2 14  1  0  0  0  0
  3  4  1  0  0  0  0
  3  5  1  0  0  0  0
  3 15  1  0  0  0  0
  4 16  1  0  0  0  0
  5 10  1  0  0  0  0
  5  6  2  0  0  0  0
  6  7  1  0  0  0  0
  6 17  1  0  0  0  0
  7  8  2  0  0  0  0
  7 18  1  0  0  0  0
  8  9  1  0  0  0  0
  9 10  2  0  0  0  0
  9 19  1  0  0  0  0
 10 20  1  0  0  0  0
M  CHG  1   1   1
M  END
> <s_m_source_file>
AV-unprocessed.smi

> <i_m_source_file_index>
927

> <i_lp_mmshare_version>
43012

> <i_f3d_flags>
0

> <s_epik_input>
W05IMl1bQ0gyXVtDQEhdKFtPSF0pYzFbY0hdW2NIXW5bY0hdW2NIXTE=

> <s_epik_cmdline>
J2VwaWtfcHl0aG9uJywgJy1waCcsICc3LjAnLCAnLXRuJywgJzgnLCAnLW1hJywgJzIwMCcsICctbWV0YWxfYmluZGluZycsICctaW1hZScsICc8aW5maWxlLm1hZT4nLCAnLW9tYWUnLCAnPG91dGZpbGUubWFlPic=

> <r_epik_Ionization_Penalty>
0.0159363

> <r_epik_Ionization_Penalty_Charging>
0.0140431

> <r_epik_Ionization_Penalty_Neutral>
0.00189321

> <r_epik_State_Penalty>
0.0109628

> <r_epik_Charging_Adjusted_Penalty>
0.0250059

> <i_epik_Tot_Q>
1

> <i_epik_Tot_abs_Q>
1

> <r_epik_Metal_State_Penalty>
0.0113463

> <b_epik_Metal_Only>
0

> <s_lp_Force_Field>
OPLS_2005

> <r_lp_Energy>
4.52461

> <b_lp_Chiralities_Consistent>
1

> <s_lp_Variant>
AV-unprocessed.smi:927-2

> <Gold.Version>
5.8.1

> <Gold.Id.Protein>
6NUR|6NUR_protein|mol2

> <Gold.PLP.Fitness>
35.7706

> <Gold.PLP.PLP>
-21.8940

> <Gold.PLP.part.hbond>
-3.0000

> <Gold.PLP.part.metal>
0.0000

> <Gold.PLP.part.buried>
-2.1115

> <Gold.PLP.part.nonpolar>
-16.6717

> <Gold.PLP.part.repulsive>
0.2106

> <Gold.PLP.ligand.clash>
0.0000

> <Gold.PLP.ligand.torsion>
0.8460

> <Gold.PLP.Chemscore.Hbond>
3.5577

> <Gold.PLP.Chemscore.CHOScore>
1.6297

> <Gold.PLP.Chemscore.Metal>
0.0000

> <Gold.Chemscore.Hbonds>
donor molecule, donor type, donor heavy atom, donor atom, acceptor molecule, acceptor atom, score
      L1  H     1    21       P1  7948  2.00
      L1  H     4    16       P1  7948  1.00
      P1  H 10785 10796       L1     8  0.50
      L1  C     7    18       P1 10186  0.76
      L1  C     7    18       P1 10952  0.87

> <Gold.PLP.Chemscore.Internal.Correction>
0.0065

> <Gold.Rescore>
     Score         DG    S(hbond)    S(metal)    S(lipo)     H(rot)  DE(clash)    DE(int)     intcor
     14.17     -14.90       2.39        0.00      53.99       1.90       0.08       0.65       ----

> <Gold.Chemscore.Fitness>
14.1709

> <Gold.Chemscore.DG>
-14.9043

> <Gold.Chemscore.ZeroCoef>
-5.4800

> <Gold.Chemscore.Hbond>
2.3851

> <Gold.Chemscore.Metal>
0.0000

> <Gold.Chemscore.Lipo>
53.9940

> <Gold.Chemscore.Internal_Hbond>
0.0000

> <Gold.Chemscore.DEClash>
0.0791

> <Gold.Chemscore.DEInternal>
0.6542

> <Gold.Chemscore.Rot>
1.8981

> <Gold.Chemscore.Internal.Correction>
   9.000000E+99

> <Gold.Chemscore.Hbonds>
donor molecule, donor type, donor heavy atom, donor atom, acceptor molecule, acceptor atom, score
      L1  H     1    21       P1  7948  0.35
      L1  H     4    16       P1  7948  1.00
      P1  H 10785 10796       L1     8  0.19

> <Gold.Chemscore.Hbond.Weighted>
-7.9661

> <Gold.Chemscore.Metal.Weighted>
-0.0000

> <Gold.Chemscore.Lipo.Weighted>
-6.3173

> <Gold.Chemscore.Internal_Hbond.Weighted>
0.0000

> <Gold.Chemscore.DEClash.Weighted>
0.0791

> <Gold.Chemscore.DEInternal.Weighted>
0.6542

> <Gold.Chemscore.Rot.Weighted>
4.8592

> <Gold.Chemscore.Internal.Correction.Weighted>
   9.000000E+99

> <Gold.Protein.RotatedTorsions>
[ 6907 6896 6895 6894 ] final  -84.67 input  -60.11 | X-H torsion
[ 7974 7965 7964 7962 ] final  -72.59 input  175.53 | X-H torsion
[ 8008 7997 7996 7995 ] final  138.14 input   59.86 | X-H torsion
[ 10167 10162 10161 10158 ] final -134.14 input  -65.29 | X-H torsion
[ 10718 10713 10712 10709 ] final   56.41 input   66.30 | X-H torsion
[ 10763 10752 10751 10750 ] final   72.09 input  -60.55 | X-H torsion
[ 11005 11000 10999 10996 ] final  -48.22 input  -57.11 | X-H torsion

> <Gold.Protein.ActiveResidues>
 VAL166  LYS551  ARG553  GLY616  TRP617  ASP618  TYR619  PRO620  LYS621  CYS622 
 ASP623  PHE694  ASN695  SER759  ASP760  ASP761  ALA762  ILE779  LEU786  VAL792 
 PHE793  MET794  SER795  GLU796  ALA797  LYS798  CYS799  TRP800  GLU811  SER814 

> <Gold.Protein.RotatedAtoms>
  150.6875  134.3323  159.4831 H   0  0  0  0  0  0  0  0  0  0  0  0  # atno 6907 bound_to 6896
  152.1186  134.9219  160.0573 H   0  0  0  0  0  0  0  0  0  0  0  0  # atno 6908 bound_to 6896
  152.0434  133.3953  159.4383 H   0  0  0  0  0  0  0  0  0  0  0  0  # atno 6909 bound_to 6896
  145.6632  140.9246  143.0922 H   0  0  0  0  0  0  0  0  0  0  0  0  # atno 7974 bound_to 7965
  156.2999  140.2401  156.4024 H   0  0  0  0  0  0  0  0  0  0  0  0  # atno 8008 bound_to 7997
  154.8515  140.0424  157.1627 H   0  0  0  0  0  0  0  0  0  0  0  0  # atno 8009 bound_to 7997
  154.8994  140.2974  155.5330 H   0  0  0  0  0  0  0  0  0  0  0  0  # atno 8010 bound_to 7997
  139.8910  143.6722  152.2612 H   0  0  0  0  0  0  0  0  0  0  0  0  # atno 10167 bound_to 10162
  157.5428  130.8709  149.8847 H   0  0  0  0  0  0  0  0  0  0  0  0  # atno 10718 bound_to 10713
  153.0438  135.5113  154.7692 H   0  0  0  0  0  0  0  0  0  0  0  0  # atno 10763 bound_to 10752
  154.6608  135.2938  154.9871 H   0  0  0  0  0  0  0  0  0  0  0  0  # atno 10764 bound_to 10752
  154.0723  135.6676  153.4878 H   0  0  0  0  0  0  0  0  0  0  0  0  # atno 10765 bound_to 10752
  141.0687  133.6685  156.3409 H   0  0  0  0  0  0  0  0  0  0  0  0  # atno 11005 bound_to 11000
  144.7082  139.8476  143.7423 LP  0  0  0  0  0  0  0  0  0  0  0  0  # atno 17320 bound_to 7965
  146.1108  139.4112  143.0289 LP  0  0  0  0  0  0  0  0  0  0  0  0  # atno 17321 bound_to 7965
  139.7109  144.7620  151.1113 LP  0  0  0  0  0  0  0  0  0  0  0  0  # atno 17342 bound_to 10162
  140.7726  143.5332  150.9399 LP  0  0  0  0  0  0  0  0  0  0  0  0  # atno 17343 bound_to 10162
  156.0511  130.3717  150.1200 LP  0  0  0  0  0  0  0  0  0  0  0  0  # atno 17370 bound_to 10713
  156.9379  130.9735  151.3521 LP  0  0  0  0  0  0  0  0  0  0  0  0  # atno 17371 bound_to 10713
  140.5718  134.5832  157.5459 LP  0  0  0  0  0  0  0  0  0  0  0  0  # atno 17394 bound_to 11000
  139.9502  134.7630  156.0466 LP  0  0  0  0  0  0  0  0  0  0  0  0  # atno 17395 bound_to 11000

$$$$
