AV-unprocessed.smi:2152|AV-procd|sdf|8765|dock4
  -GOLD-   2272011543D 1   1.00000     0.00000
 Structure written by MMmdl.
 41 42  0  0  0  0  0  0  0  0  1 V2000
  153.7378  140.8637  159.4964 C   0  0  0  0  0  0  0  0  0  0  0  0
  152.7887  141.9519  160.0305 C   0  0  1  0  0  0  0  0  0  0  0  0
  153.2249  142.4044  161.4389 C   0  0  0  0  0  0  0  0  0  0  0  0
  152.2900  143.4808  162.0110 C   0  0  0  0  0  0  0  0  0  0  0  0
  152.1953  144.6872  161.0672 C   0  0  0  0  0  0  0  0  0  0  0  0
  151.7465  144.2532  159.6645 C   0  0  0  0  0  0  0  0  0  0  0  0
  152.6750  143.1712  159.0788 C   0  0  2  0  0  0  0  0  0  0  0  0
  152.1597  142.7651  157.7723 N   0  0  0  0  0  0  0  0  0  0  0  0
  151.0171  142.0979  157.5481 C   0  0  0  0  0  0  0  0  0  0  0  0
  150.2649  141.7157  158.4454 O   0  0  0  0  0  0  0  0  0  0  0  0
  150.6838  141.8118  156.0781 C   0  0  0  0  0  0  0  0  0  0  0  0
  150.9009  140.4071  155.7097 N   0  0  0  0  0  0  0  0  0  0  0  0
  152.1898  139.9233  155.5789 C   0  0  0  0  0  0  0  0  0  0  0  0
  152.4759  138.6415  155.2626 C   0  0  0  0  0  0  0  0  0  0  0  0
  151.4116  137.6725  155.0315 C   0  0  0  0  0  0  0  0  0  0  0  0
  151.6256  136.4896  154.7638 O   0  0  0  0  0  0  0  0  0  0  0  0
  150.1029  138.1969  155.1536 N   0  0  0  0  0  0  0  0  0  0  0  0
  148.9881  137.2928  154.9596 C   0  0  0  0  0  0  0  0  0  0  0  0
  149.8101  139.5344  155.5043 C   0  0  0  0  0  0  0  0  0  0  0  0
  148.6519  139.9377  155.6379 O   0  0  0  0  0  0  0  0  0  0  0  0
  154.7401  141.2601  159.3310 H   0  0  0  0  0  0  0  0  0  0  0  0
  153.3849  140.4473  158.5529 H   0  0  0  0  0  0  0  0  0  0  0  0
  153.8203  140.0355  160.2005 H   0  0  0  0  0  0  0  0  0  0  0  0
  151.7987  141.5023  160.1229 H   0  0  0  0  0  0  0  0  0  0  0  0
  153.2477  141.5490  162.1150 H   0  0  0  0  0  0  0  0  0  0  0  0
  154.2436  142.7930  161.4008 H   0  0  0  0  0  0  0  0  0  0  0  0
  151.2968  143.0583  162.1681 H   0  0  0  0  0  0  0  0  0  0  0  0
  152.6481  143.8020  162.9896 H   0  0  0  0  0  0  0  0  0  0  0  0
  151.4981  145.4219  161.4706 H   0  0  0  0  0  0  0  0  0  0  0  0
  153.1657  145.1818  161.0049 H   0  0  0  0  0  0  0  0  0  0  0  0
  150.7239  143.8760  159.7149 H   0  0  0  0  0  0  0  0  0  0  0  0
  151.7225  145.1213  159.0046 H   0  0  0  0  0  0  0  0  0  0  0  0
  153.6676  143.6127  158.9700 H   0  0  0  0  0  0  0  0  0  0  0  0
  152.7106  143.0323  156.9694 H   0  0  0  0  0  0  0  0  0  0  0  0
  149.6510  142.0955  155.8663 H   0  0  0  0  0  0  0  0  0  0  0  0
  151.3017  142.4618  155.4572 H   0  0  0  0  0  0  0  0  0  0  0  0
  153.0140  140.6017  155.7450 H   0  0  0  0  0  0  0  0  0  0  0  0
  153.5064  138.3279  155.1832 H   0  0  0  0  0  0  0  0  0  0  0  0
  148.1486  137.8405  154.5286 H   0  0  0  0  0  0  0  0  0  0  0  0
  148.7382  136.8844  155.9396 H   0  0  0  0  0  0  0  0  0  0  0  0
  149.2689  136.5055  154.2587 H   0  0  0  0  0  0  0  0  0  0  0  0
  1  2  1  0  0  0  0
  1 21  1  0  0  0  0
  1 22  1  0  0  0  0
  1 23  1  0  0  0  0
  2  7  1  0  0  0  0
  2  3  1  0  0  0  0
  2 24  1  0  0  0  0
  3  4  1  0  0  0  0
  3 25  1  0  0  0  0
  3 26  1  0  0  0  0
  4  5  1  0  0  0  0
  4 27  1  0  0  0  0
  4 28  1  0  0  0  0
  5  6  1  0  0  0  0
  5 29  1  0  0  0  0
  5 30  1  0  0  0  0
  6  7  1  0  0  0  0
  6 31  1  0  0  0  0
  6 32  1  0  0  0  0
  7  8  1  0  0  0  0
  7 33  1  0  0  0  0
  8  9  1  0  0  0  0
  8 34  1  0  0  0  0
  9 10  2  0  0  0  0
  9 11  1  0  0  0  0
 11 12  1  0  0  0  0
 11 35  1  0  0  0  0
 11 36  1  0  0  0  0
 12 19  1  0  0  0  0
 12 13  1  0  0  0  0
 13 14  2  0  0  0  0
 13 37  1  0  0  0  0
 14 15  1  0  0  0  0
 14 38  1  0  0  0  0
 15 16  2  0  0  0  0
 15 17  1  0  0  0  0
 17 18  1  0  0  0  0
 17 19  1  0  0  0  0
 18 39  1  0  0  0  0
 18 40  1  0  0  0  0
 18 41  1  0  0  0  0
 19 20  2  0  0  0  0
M  END
> <s_m_source_file>
AV-unprocessed.smi

> <i_m_source_file_index>
2152

> <i_lp_mmshare_version>
43012

> <i_f3d_flags>
0

> <s_epik_input>
W0NIM11bQ0BASF0xW0NIMl1bQ0gyXVtDSDJdW0NIMl1bQ0BIXTFbTkhdQyg9TylbQ0gyXW4yW2NIXVtjSF1jKD1PKW4oW0NIM10pYzI9Tw==

> <s_epik_cmdline>
J2VwaWtfcHl0aG9uJywgJy1waCcsICc3LjAnLCAnLXRuJywgJzgnLCAnLW1hJywgJzIwMCcsICctbWV0YWxfYmluZGluZycsICctaW1hZScsICc8aW5maWxlLm1hZT4nLCAnLW9tYWUnLCAnPG91dGZpbGUubWFlPic=

> <r_lp_tautomer_probability>
1

> <r_epik_Ionization_Penalty>
3.20555e-08

> <r_epik_Ionization_Penalty_Charging>
1.30086e-08

> <r_epik_Ionization_Penalty_Neutral>
1.90469e-08

> <r_epik_State_Penalty>
-0

> <r_epik_Charging_Adjusted_Penalty>
1.30086e-08

> <i_epik_Tot_Q>
0

> <i_epik_Tot_abs_Q>
0

> <r_epik_Metal_State_Penalty>
-0

> <b_epik_Metal_Only>
0

> <s_lp_Force_Field>
OPLS_2005

> <r_lp_Energy>
17.8687

> <b_lp_Chiralities_Consistent>
1

> <s_lp_Variant>
AV-unprocessed.smi:2152-4

> <Gold.Version>
5.8.1

> <Gold.Id.Protein>
6NUR|6NUR_protein|mol2

> <Gold.PLP.Fitness>
45.0508

> <Gold.PLP.PLP>
-42.7782

> <Gold.PLP.part.hbond>
-1.0000

> <Gold.PLP.part.metal>
0.0000

> <Gold.PLP.part.buried>
-1.0646

> <Gold.PLP.part.nonpolar>
-40.3087

> <Gold.PLP.part.repulsive>
0.2528

> <Gold.PLP.ligand.clash>
0.0000

> <Gold.PLP.ligand.torsion>
0.3669

> <Gold.PLP.Chemscore.Hbond>
1.0000

> <Gold.PLP.Chemscore.CHOScore>
0.0000

> <Gold.PLP.Chemscore.Metal>
0.0000

> <Gold.Chemscore.Hbonds>
donor molecule, donor type, donor heavy atom, donor atom, acceptor molecule, acceptor atom, score
      P1  H 10752 10763       L1    16  1.00

> <Gold.PLP.Chemscore.Internal.Correction>
0.0064

> <Gold.Rescore>
     Score         DG    S(hbond)    S(metal)    S(lipo)     H(rot)  DE(clash)    DE(int)     intcor
     15.31     -17.31       1.00        0.00     105.96       1.52       1.06       0.94       ----

> <Gold.Chemscore.Fitness>
15.3113

> <Gold.Chemscore.DG>
-17.3099

> <Gold.Chemscore.ZeroCoef>
-5.4800

> <Gold.Chemscore.Hbond>
0.9983

> <Gold.Chemscore.Metal>
0.0000

> <Gold.Chemscore.Lipo>
105.9620

> <Gold.Chemscore.Internal_Hbond>
0.0000

> <Gold.Chemscore.DEClash>
1.0614

> <Gold.Chemscore.DEInternal>
0.9372

> <Gold.Chemscore.Rot>
1.5242

> <Gold.Chemscore.Internal.Correction>
   9.000000E+99

> <Gold.Chemscore.Hbonds>
donor molecule, donor type, donor heavy atom, donor atom, acceptor molecule, acceptor atom, score
      P1  H 10752 10763       L1    16  0.99

> <Gold.Chemscore.Hbond.Weighted>
-3.3342

> <Gold.Chemscore.Metal.Weighted>
-0.0000

> <Gold.Chemscore.Lipo.Weighted>
-12.3975

> <Gold.Chemscore.Internal_Hbond.Weighted>
0.0000

> <Gold.Chemscore.DEClash.Weighted>
1.0614

> <Gold.Chemscore.DEInternal.Weighted>
0.9372

> <Gold.Chemscore.Rot.Weighted>
3.9019

> <Gold.Chemscore.Internal.Correction.Weighted>
   9.000000E+99

> <Gold.Protein.RotatedTorsions>
[ 6907 6896 6895 6894 ] final -140.37 input  -60.11 | X-H torsion
[ 7974 7965 7964 7962 ] final  -15.78 input  175.53 | X-H torsion
[ 8008 7997 7996 7995 ] final  -51.92 input   59.86 | X-H torsion
[ 10167 10162 10161 10158 ] final  -53.42 input  -65.29 | X-H torsion
[ 10718 10713 10712 10709 ] final   41.15 input   66.30 | X-H torsion
[ 10763 10752 10751 10750 ] final   42.26 input  -60.55 | X-H torsion
[ 11005 11000 10999 10996 ] final  156.53 input  -57.11 | X-H torsion

> <Gold.Protein.ActiveResidues>
 VAL166  LYS551  ARG553  GLY616  TRP617  ASP618  TYR619  PRO620  LYS621  CYS622 
 ASP623  PHE694  ASN695  SER759  ASP760  ASP761  ALA762  ILE779  LEU786  VAL792 
 PHE793  MET794  SER795  GLU796  ALA797  LYS798  CYS799  TRP800  GLU811  SER814 

> <Gold.Protein.RotatedAtoms>
  151.0598  133.5554  159.2635 H   0  0  0  0  0  0  0  0  0  0  0  0  # atno 6907 bound_to 6896
  151.2533  135.0629  159.9080 H   0  0  0  0  0  0  0  0  0  0  0  0  # atno 6908 bound_to 6896
  152.5396  134.0355  159.8098 H   0  0  0  0  0  0  0  0  0  0  0  0  # atno 6909 bound_to 6896
  146.2017  140.3542  142.8421 H   0  0  0  0  0  0  0  0  0  0  0  0  # atno 7974 bound_to 7965
  154.4094  140.1236  156.4907 H   0  0  0  0  0  0  0  0  0  0  0  0  # atno 8008 bound_to 7997
  155.6993  140.3495  155.4906 H   0  0  0  0  0  0  0  0  0  0  0  0  # atno 8009 bound_to 7997
  155.9400  140.1085  157.1053 H   0  0  0  0  0  0  0  0  0  0  0  0  # atno 8010 bound_to 7997
  140.6486  143.2551  151.4789 H   0  0  0  0  0  0  0  0  0  0  0  0  # atno 10167 bound_to 10162
  157.3903  130.7803  149.7264 H   0  0  0  0  0  0  0  0  0  0  0  0  # atno 10718 bound_to 10713
  152.9887  135.6137  154.2920 H   0  0  0  0  0  0  0  0  0  0  0  0  # atno 10763 bound_to 10752
  154.2645  135.2781  155.2766 H   0  0  0  0  0  0  0  0  0  0  0  0  # atno 10764 bound_to 10752
  154.5177  135.5823  153.6712 H   0  0  0  0  0  0  0  0  0  0  0  0  # atno 10765 bound_to 10752
  140.1683  134.8561  157.2660 H   0  0  0  0  0  0  0  0  0  0  0  0  # atno 11005 bound_to 11000
  144.8698  140.7257  143.6054 LP  0  0  0  0  0  0  0  0  0  0  0  0  # atno 17320 bound_to 7965
  145.3461  139.1719  143.4459 LP  0  0  0  0  0  0  0  0  0  0  0  0  # atno 17321 bound_to 7965
  139.5698  144.1955  152.1820 LP  0  0  0  0  0  0  0  0  0  0  0  0  # atno 17342 bound_to 10162
  140.1248  144.5341  150.6840 LP  0  0  0  0  0  0  0  0  0  0  0  0  # atno 17343 bound_to 10162
  155.9797  130.4038  150.3574 LP  0  0  0  0  0  0  0  0  0  0  0  0  # atno 17370 bound_to 10713
  157.1689  131.0364  151.2805 LP  0  0  0  0  0  0  0  0  0  0  0  0  # atno 17371 bound_to 10713
  140.2407  134.3799  155.7482 LP  0  0  0  0  0  0  0  0  0  0  0  0  # atno 17394 bound_to 11000
  141.2215  133.7263  156.8784 LP  0  0  0  0  0  0  0  0  0  0  0  0  # atno 17395 bound_to 11000

$$$$
