AV-unprocessed.smi:3235|AV-procd|sdf|12360|dock10
  -GOLD-   2272018223D 1   1.00000     0.00000
 Structure written by MMmdl.
 41 42  0  0  0  0  0  0  0  0  2 V2000
  150.5720  135.9695  154.6038 C   0  0  0  0  0  0  0  0  0  0  0  0
  150.6109  137.4705  154.5930 C   0  0  0  0  0  0  0  0  0  0  0  0
  151.7286  138.3121  154.3288 C   0  0  0  0  0  0  0  0  0  0  0  0
  151.4306  139.5994  154.3987 N   0  0  0  0  0  0  0  0  0  0  0  0
  150.1179  139.6252  154.7112 N   0  0  0  0  0  0  0  0  0  0  0  0
  149.4429  140.8982  154.8731 C   0  0  0  0  0  0  0  0  0  0  0  0
  149.2687  141.2635  156.3543 C   0  0  0  0  0  0  0  0  0  0  0  0
  150.1490  142.3853  156.7337 N   0  3  0  0  0  0  0  0  0  0  0  0
  149.9842  142.8261  158.1324 C   0  0  0  0  0  0  0  0  0  0  0  0
  151.1550  143.7123  158.5758 C   0  0  0  0  0  0  0  0  0  0  0  0
  152.4769  142.9310  158.6648 C   0  0  0  0  0  0  0  0  0  0  0  0
  152.8508  142.6510  160.0487 N   0  0  0  0  0  0  0  0  0  0  0  0
  152.2437  143.3865  161.1453 C   0  0  0  0  0  0  0  0  0  0  0  0
  153.0109  142.9398  162.3983 C   0  0  0  0  0  0  0  0  0  0  0  0
  153.7993  141.6929  161.9825 C   0  0  0  0  0  0  0  0  0  0  0  0
  153.6941  141.6995  160.4670 C   0  0  0  0  0  0  0  0  0  0  0  0
  154.3164  140.9168  159.7505 O   0  0  0  0  0  0  0  0  0  0  0  0
  149.5962  138.3543  154.8303 C   0  0  0  0  0  0  0  0  0  0  0  0
  151.4562  135.5474  155.0819 H   0  0  0  0  0  0  0  0  0  0  0  0
  150.5269  135.5618  153.5939 H   0  0  0  0  0  0  0  0  0  0  0  0
  149.7043  135.5897  155.1435 H   0  0  0  0  0  0  0  0  0  0  0  0
  152.7426  138.0263  154.0905 H   0  0  0  0  0  0  0  0  0  0  0  0
  150.0203  141.6646  154.3535 H   0  0  0  0  0  0  0  0  0  0  0  0
  148.4722  140.8418  154.3785 H   0  0  0  0  0  0  0  0  0  0  0  0
  148.2311  141.5375  156.5512 H   0  0  0  0  0  0  0  0  0  0  0  0
  149.4996  140.4027  156.9837 H   0  0  0  0  0  0  0  0  0  0  0  0
  151.1083  142.0989  156.5992 H   0  0  0  0  0  0  0  0  0  0  0  0
  149.0452  143.3725  158.2288 H   0  0  0  0  0  0  0  0  0  0  0  0
  149.9158  141.9493  158.7778 H   0  0  0  0  0  0  0  0  0  0  0  0
  151.2629  144.5411  157.8747 H   0  0  0  0  0  0  0  0  0  0  0  0
  150.9300  144.1557  159.5467 H   0  0  0  0  0  0  0  0  0  0  0  0
  152.3897  141.9909  158.1183 H   0  0  0  0  0  0  0  0  0  0  0  0
  153.2798  143.4919  158.1838 H   0  0  0  0  0  0  0  0  0  0  0  0
  152.3154  144.4637  160.9895 H   0  0  0  0  0  0  0  0  0  0  0  0
  151.1882  143.1200  161.2180 H   0  0  0  0  0  0  0  0  0  0  0  0
  153.6990  143.7243  162.7161 H   0  0  0  0  0  0  0  0  0  0  0  0
  152.3379  142.7374  163.2322 H   0  0  0  0  0  0  0  0  0  0  0  0
  154.8384  141.7336  162.3107 H   0  0  0  0  0  0  0  0  0  0  0  0
  153.3422  140.7839  162.3741 H   0  0  0  0  0  0  0  0  0  0  0  0
  148.5579  138.1841  155.0739 H   0  0  0  0  0  0  0  0  0  0  0  0
  149.9561  143.1671  156.1243 H   0  0  0  0  0  0  0  0  0  0  0  0
  1  2  1  0  0  0  0
  1 19  1  0  0  0  0
  1 20  1  0  0  0  0
  1 21  1  0  0  0  0
  2 18  2  0  0  0  0
  2  3  1  0  0  0  0
  3  4  2  0  0  0  0
  3 22  1  0  0  0  0
  4  5  1  0  0  0  0
  5  6  1  0  0  0  0
  5 18  1  0  0  0  0
  6  7  1  0  0  0  0
  6 23  1  0  0  0  0
  6 24  1  0  0  0  0
  7  8  1  0  0  0  0
  7 25  1  0  0  0  0
  7 26  1  0  0  0  0
  8  9  1  0  0  0  0
  8 27  1  0  0  0  0
  8 41  1  0  0  0  0
  9 10  1  0  0  0  0
  9 28  1  0  0  0  0
  9 29  1  0  0  0  0
 10 11  1  0  0  0  0
 10 30  1  0  0  0  0
 10 31  1  0  0  0  0
 11 12  1  0  0  0  0
 11 32  1  0  0  0  0
 11 33  1  0  0  0  0
 12 16  1  0  0  0  0
 12 13  1  0  0  0  0
 13 14  1  0  0  0  0
 13 34  1  0  0  0  0
 13 35  1  0  0  0  0
 14 15  1  0  0  0  0
 14 36  1  0  0  0  0
 14 37  1  0  0  0  0
 15 16  1  0  0  0  0
 15 38  1  0  0  0  0
 15 39  1  0  0  0  0
 16 17  2  0  0  0  0
 18 40  1  0  0  0  0
M  CHG  1   8   1
M  END
> <s_m_source_file>
AV-unprocessed.smi

> <i_m_source_file_index>
3235

> <i_lp_mmshare_version>
43012

> <i_f3d_flags>
0

> <s_epik_input>
W0NIM11jMVtjSF1ubihbY0hdMSlbQ0gyXVtDSDJdW05IXVtDSDJdW0NIMl1bQ0gyXU4yW0NIMl1bQ0gyXVtDSDJdQzI9Tw==

> <s_epik_cmdline>
J2VwaWtfcHl0aG9uJywgJy1waCcsICc3LjAnLCAnLXRuJywgJzgnLCAnLW1hJywgJzIwMCcsICctbWV0YWxfYmluZGluZycsICctaW1hZScsICc8aW5maWxlLm1hZT4nLCAnLW9tYWUnLCAnPG91dGZpbGUubWFlPic=

> <r_lp_tautomer_probability>
1

> <r_epik_Ionization_Penalty>
0.00490609

> <r_epik_Ionization_Penalty_Charging>
0.00490019

> <r_epik_Ionization_Penalty_Neutral>
5.89696e-06

> <r_epik_State_Penalty>
-0

> <r_epik_Charging_Adjusted_Penalty>
0.00490019

> <i_epik_Tot_Q>
1

> <i_epik_Tot_abs_Q>
1

> <r_epik_Metal_State_Penalty>
-0

> <b_epik_Metal_Only>
0

> <s_lp_Force_Field>
OPLS_2005

> <r_lp_Energy>
17.6896

> <b_lp_Chiralities_Consistent>
1

> <s_lp_Variant>
AV-unprocessed.smi:3235-1

> <Gold.Version>
5.8.1

> <Gold.Id.Protein>
6NUR|6NUR_protein|mol2

> <Gold.PLP.Fitness>
52.5039

> <Gold.PLP.PLP>
-45.8780

> <Gold.PLP.part.hbond>
-2.0000

> <Gold.PLP.part.metal>
0.0000

> <Gold.PLP.part.buried>
-3.9401

> <Gold.PLP.part.nonpolar>
-39.9608

> <Gold.PLP.part.repulsive>
0.1292

> <Gold.PLP.ligand.clash>
0.0000

> <Gold.PLP.ligand.torsion>
1.2603

> <Gold.PLP.Chemscore.Hbond>
3.0000

> <Gold.PLP.Chemscore.CHOScore>
0.0000

> <Gold.PLP.Chemscore.Metal>
0.0000

> <Gold.Chemscore.Hbonds>
donor molecule, donor type, donor heavy atom, donor atom, acceptor molecule, acceptor atom, score
      L1  H     8    41       P1  8028  2.00
      P1  H  7989  7998       L1     4  1.00

> <Gold.PLP.Chemscore.Internal.Correction>
0.1465

> <Gold.Rescore>
     Score         DG    S(hbond)    S(metal)    S(lipo)     H(rot)  DE(clash)    DE(int)     intcor
     16.91     -17.85       1.96        0.00      97.00       2.16       0.05       0.89       ----

> <Gold.Chemscore.Fitness>
16.9128

> <Gold.Chemscore.DG>
-17.8489

> <Gold.Chemscore.ZeroCoef>
-5.4800

> <Gold.Chemscore.Hbond>
1.9609

> <Gold.Chemscore.Metal>
0.0000

> <Gold.Chemscore.Lipo>
96.9967

> <Gold.Chemscore.Internal_Hbond>
0.0000

> <Gold.Chemscore.DEClash>
0.0456

> <Gold.Chemscore.DEInternal>
0.8905

> <Gold.Chemscore.Rot>
2.1598

> <Gold.Chemscore.Internal.Correction>
   9.000000E+99

> <Gold.Chemscore.Hbonds>
donor molecule, donor type, donor heavy atom, donor atom, acceptor molecule, acceptor atom, score
      L1  H     8    41       P1  8028  0.95
      P1  H  7989  7998       L1     4  0.48

> <Gold.Chemscore.Hbond.Weighted>
-6.5494

> <Gold.Chemscore.Metal.Weighted>
-0.0000

> <Gold.Chemscore.Lipo.Weighted>
-11.3486

> <Gold.Chemscore.Internal_Hbond.Weighted>
0.0000

> <Gold.Chemscore.DEClash.Weighted>
0.0456

> <Gold.Chemscore.DEInternal.Weighted>
0.8905

> <Gold.Chemscore.Rot.Weighted>
5.5291

> <Gold.Chemscore.Internal.Correction.Weighted>
   9.000000E+99

> <Gold.Protein.RotatedTorsions>
[ 6907 6896 6895 6894 ] final -141.63 input  -60.11 | X-H torsion
[ 7974 7965 7964 7962 ] final   30.65 input  175.53 | X-H torsion
[ 8008 7997 7996 7995 ] final   41.96 input   59.86 | X-H torsion
[ 10167 10162 10161 10158 ] final  123.50 input  -65.29 | X-H torsion
[ 10718 10713 10712 10709 ] final   25.17 input   66.30 | X-H torsion
[ 10763 10752 10751 10750 ] final  173.75 input  -60.55 | X-H torsion
[ 11005 11000 10999 10996 ] final  -98.72 input  -57.11 | X-H torsion

> <Gold.Protein.ActiveResidues>
 VAL166  LYS551  ARG553  GLY616  TRP617  ASP618  TYR619  PRO620  LYS621  CYS622 
 ASP623  PHE694  ASN695  SER759  ASP760  ASP761  ALA762  ILE779  LEU786  VAL792 
 PHE793  MET794  SER795  GLU796  ALA797  LYS798  CYS799  TRP800  GLU811  SER814 

> <Gold.Protein.RotatedAtoms>
  151.0764  133.5425  159.2623 H   0  0  0  0  0  0  0  0  0  0  0  0  # atno 6907 bound_to 6896
  151.2345  135.0566  159.9010 H   0  0  0  0  0  0  0  0  0  0  0  0  # atno 6908 bound_to 6896
  152.5418  134.0548  159.8179 H   0  0  0  0  0  0  0  0  0  0  0  0  # atno 6909 bound_to 6896
  146.1599  139.6761  142.9041 H   0  0  0  0  0  0  0  0  0  0  0  0  # atno 7974 bound_to 7965
  155.2783  140.3370  155.4260 H   0  0  0  0  0  0  0  0  0  0  0  0  # atno 8008 bound_to 7997
  156.2101  140.1766  156.7754 H   0  0  0  0  0  0  0  0  0  0  0  0  # atno 8009 bound_to 7997
  154.5675  140.0676  156.8898 H   0  0  0  0  0  0  0  0  0  0  0  0  # atno 8010 bound_to 7997
  139.5796  144.6980  151.3563 H   0  0  0  0  0  0  0  0  0  0  0  0  # atno 10167 bound_to 10162
  157.1897  130.6840  149.6145 H   0  0  0  0  0  0  0  0  0  0  0  0  # atno 10718 bound_to 10713
  154.4445  135.2763  155.1825 H   0  0  0  0  0  0  0  0  0  0  0  0  # atno 10763 bound_to 10752
  154.3677  135.6115  153.5727 H   0  0  0  0  0  0  0  0  0  0  0  0  # atno 10764 bound_to 10752
  152.9843  135.5850  154.4778 H   0  0  0  0  0  0  0  0  0  0  0  0  # atno 10765 bound_to 10752
  141.1334  133.8267  157.0877 H   0  0  0  0  0  0  0  0  0  0  0  0  # atno 11005 bound_to 11000
  145.4615  141.0433  143.2749 LP  0  0  0  0  0  0  0  0  0  0  0  0  # atno 17320 bound_to 7965
  144.8013  139.6136  143.7070 LP  0  0  0  0  0  0  0  0  0  0  0  0  # atno 17321 bound_to 7965
  140.7075  143.7475  150.7508 LP  0  0  0  0  0  0  0  0  0  0  0  0  # atno 17342 bound_to 10162
  140.1004  143.4793  152.2428 LP  0  0  0  0  0  0  0  0  0  0  0  0  # atno 17343 bound_to 10162
  155.9713  130.4619  150.6125 LP  0  0  0  0  0  0  0  0  0  0  0  0  # atno 17370 bound_to 10713
  157.3872  131.0790  151.1425 LP  0  0  0  0  0  0  0  0  0  0  0  0  # atno 17371 bound_to 10713
  140.0412  134.9853  157.0964 LP  0  0  0  0  0  0  0  0  0  0  0  0  # atno 17394 bound_to 11000
  140.4133  134.1958  155.7163 LP  0  0  0  0  0  0  0  0  0  0  0  0  # atno 17395 bound_to 11000

$$$$
