AV-unprocessed.smi:2886|AV-procd|sdf|11087|dock3
  -GOLD-   2272015563D 1   1.00000     0.00000
 Structure written by MMmdl.
 28 30  0  0  0  0  0  0  0  0  1 V2000
  151.8537  136.5555  156.2058 O   0  0  0  0  0  0  0  0  0  0  0  0
  151.8707  137.7849  156.2159 C   0  0  0  0  0  0  0  0  0  0  0  0
  151.5984  138.5044  155.1019 N   0  0  0  0  0  0  0  0  0  0  0  0
  151.5956  139.8736  154.9925 N   0  0  0  0  0  0  0  0  0  0  0  0
  151.8697  140.5735  156.0399 C   0  0  0  0  0  0  0  0  0  0  0  0
  152.1756  139.9742  157.3348 C   0  0  0  0  0  0  0  0  0  0  0  0
  152.4717  140.7287  158.4633 N   0  0  0  0  0  0  0  0  0  0  0  0
  152.5398  142.1767  158.6033 C   0  0  2  0  0  0  0  0  0  0  0  0
  153.0477  142.6090  159.9811 C   0  0  0  0  0  0  0  0  0  0  0  0
  151.9052  143.5100  160.4673 C   0  0  1  0  0  0  0  0  0  0  0  0
  151.8160  144.8190  159.6704 C   0  0  0  0  0  0  0  0  0  0  0  0
  151.2436  144.3361  158.3377 C   0  0  0  0  0  0  0  0  0  0  0  0
  151.1446  142.8219  158.5670 C   0  0  2  0  0  0  0  0  0  0  0  0
  150.7933  142.8069  159.9415 O   0  0  0  0  0  0  0  0  0  0  0  0
  152.1763  138.6132  157.3907 C   0  0  0  0  0  0  0  0  0  0  0  0
  152.5365  137.7946  158.8740 Cl  0  0  0  0  0  0  0  0  0  0  0  0
  151.3756  138.0199  154.2444 H   0  0  0  0  0  0  0  0  0  0  0  0
  151.8895  141.6618  155.9960 H   0  0  0  0  0  0  0  0  0  0  0  0
  152.5319  140.2245  159.3368 H   0  0  0  0  0  0  0  0  0  0  0  0
  153.1483  142.6013  157.8055 H   0  0  0  0  0  0  0  0  0  0  0  0
  153.1670  141.7556  160.6505 H   0  0  0  0  0  0  0  0  0  0  0  0
  154.0015  143.1351  159.9309 H   0  0  0  0  0  0  0  0  0  0  0  0
  151.8797  143.6467  161.5486 H   0  0  0  0  0  0  0  0  0  0  0  0
  151.1316  145.5208  160.1482 H   0  0  0  0  0  0  0  0  0  0  0  0
  152.7863  145.3053  159.5643 H   0  0  0  0  0  0  0  0  0  0  0  0
  150.2556  144.7661  158.1689 H   0  0  0  0  0  0  0  0  0  0  0  0
  151.8757  144.5899  157.4863 H   0  0  0  0  0  0  0  0  0  0  0  0
  150.4315  142.3256  157.9078 H   0  0  0  0  0  0  0  0  0  0  0  0
  1  2  2  0  0  0  0
  2 15  1  0  0  0  0
  2  3  1  0  0  0  0
  3 17  1  0  0  0  0
  3  4  1  0  0  0  0
  4  5  2  0  0  0  0
  5  6  1  0  0  0  0
  5 18  1  0  0  0  0
  6  7  1  0  0  0  0
  6 15  2  0  0  0  0
  7  8  1  0  0  0  0
  7 19  1  0  0  0  0
  8 13  1  0  0  0  0
  8  9  1  0  0  0  0
  8 20  1  0  0  0  0
  9 10  1  0  0  0  0
  9 21  1  0  0  0  0
  9 22  1  0  0  0  0
 10 14  1  0  0  0  0
 10 11  1  0  0  0  0
 10 23  1  0  0  0  0
 11 12  1  0  0  0  0
 11 24  1  0  0  0  0
 11 25  1  0  0  0  0
 12 13  1  0  0  0  0
 12 26  1  0  0  0  0
 12 27  1  0  0  0  0
 13 14  1  0  0  0  0
 13 28  1  0  0  0  0
 15 16  1  0  0  0  0
M  END
> <s_m_source_file>
AV-unprocessed.smi

> <i_m_source_file_index>
2886

> <i_lp_mmshare_version>
43012

> <i_f3d_flags>
0

> <s_epik_input>
Tz1jMVtuSF1uW2NIXWMoYzFDbClbTkhdW0NASF0oW0NIMl1bQ0BASF0yMylbQ0BASF0oTzMpW0NIMl1bQ0gyXTI=

> <s_epik_cmdline>
J2VwaWtfcHl0aG9uJywgJy1waCcsICc3LjAnLCAnLXRuJywgJzgnLCAnLW1hJywgJzIwMCcsICctbWV0YWxfYmluZGluZycsICctaW1hZScsICc8aW5maWxlLm1hZT4nLCAnLW9tYWUnLCAnPG91dGZpbGUubWFlPic=

> <r_lp_tautomer_probability>
0.986175

> <r_epik_Ionization_Penalty>
0.000975594

> <r_epik_Ionization_Penalty_Charging>
0.000940184

> <r_epik_Ionization_Penalty_Neutral>
3.54099e-05

> <r_epik_State_Penalty>
0.00620319

> <r_epik_Charging_Adjusted_Penalty>
0.00714337

> <i_epik_Tot_Q>
0

> <i_epik_Tot_abs_Q>
0

> <r_epik_Metal_State_Penalty>
0.287699

> <b_epik_Metal_Only>
0

> <s_lp_Force_Field>
OPLS_2005

> <r_lp_Energy>
54.6963

> <b_lp_Chiralities_Consistent>
1

> <s_lp_Variant>
AV-unprocessed.smi:2886-1

> <Gold.Version>
5.8.1

> <Gold.Id.Protein>
6NUR|6NUR_protein|mol2

> <Gold.PLP.Fitness>
35.0115

> <Gold.PLP.PLP>
-29.1944

> <Gold.PLP.part.hbond>
-3.0000

> <Gold.PLP.part.metal>
0.0000

> <Gold.PLP.part.buried>
-5.2125

> <Gold.PLP.part.nonpolar>
-20.8602

> <Gold.PLP.part.repulsive>
0.3134

> <Gold.PLP.ligand.clash>
0.0000

> <Gold.PLP.ligand.torsion>
0.0882

> <Gold.PLP.Chemscore.Hbond>
1.9913

> <Gold.PLP.Chemscore.CHOScore>
0.0000

> <Gold.PLP.Chemscore.Metal>
0.0000

> <Gold.Chemscore.Hbonds>
donor molecule, donor type, donor heavy atom, donor atom, acceptor molecule, acceptor atom, score
      P1  H  7989  7998       L1     4  1.00
      P1  H 10752 10763       L1     1  0.99

> <Gold.PLP.Chemscore.Internal.Correction>
0.0196

> <Gold.Rescore>
     Score         DG    S(hbond)    S(metal)    S(lipo)     H(rot)  DE(clash)    DE(int)     intcor
     19.12     -19.43       1.91        0.00      86.48       1.00       0.21       0.11       ----

> <Gold.Chemscore.Fitness>
19.1175

> <Gold.Chemscore.DG>
-19.4301

> <Gold.Chemscore.ZeroCoef>
-5.4800

> <Gold.Chemscore.Hbond>
1.9137

> <Gold.Chemscore.Metal>
0.0000

> <Gold.Chemscore.Lipo>
86.4823

> <Gold.Chemscore.Internal_Hbond>
0.0000

> <Gold.Chemscore.DEClash>
0.2052

> <Gold.Chemscore.DEInternal>
0.1074

> <Gold.Chemscore.Rot>
1.0000

> <Gold.Chemscore.Internal.Correction>
   9.000000E+99

> <Gold.Chemscore.Hbonds>
donor molecule, donor type, donor heavy atom, donor atom, acceptor molecule, acceptor atom, score
      P1  H  7989  7998       L1     4  0.81
      P1  H 10752 10763       L1     1  0.91

> <Gold.Chemscore.Hbond.Weighted>
-6.3917

> <Gold.Chemscore.Metal.Weighted>
-0.0000

> <Gold.Chemscore.Lipo.Weighted>
-10.1184

> <Gold.Chemscore.Internal_Hbond.Weighted>
0.0000

> <Gold.Chemscore.DEClash.Weighted>
0.2052

> <Gold.Chemscore.DEInternal.Weighted>
0.1074

> <Gold.Chemscore.Rot.Weighted>
2.5600

> <Gold.Chemscore.Internal.Correction.Weighted>
   9.000000E+99

> <Gold.Protein.RotatedTorsions>
[ 6907 6896 6895 6894 ] final  175.09 input  -60.11 | X-H torsion
[ 7974 7965 7964 7962 ] final  156.35 input  175.53 | X-H torsion
[ 8008 7997 7996 7995 ] final  172.88 input   59.86 | X-H torsion
[ 10167 10162 10161 10158 ] final   36.47 input  -65.29 | X-H torsion
[ 10718 10713 10712 10709 ] final  -34.44 input   66.30 | X-H torsion
[ 10763 10752 10751 10750 ] final   86.21 input  -60.55 | X-H torsion
[ 11005 11000 10999 10996 ] final    3.88 input  -57.11 | X-H torsion

> <Gold.Protein.ActiveResidues>
 VAL166  LYS551  ARG553  GLY616  TRP617  ASP618  TYR619  PRO620  LYS621  CYS622 
 ASP623  PHE694  ASN695  SER759  ASP760  ASP761  ALA762  ILE779  LEU786  VAL792 
 PHE793  MET794  SER795  GLU796  ALA797  LYS798  CYS799  TRP800  GLU811  SER814 

> <Gold.Protein.RotatedAtoms>
  151.7418  133.3322  159.3367 H   0  0  0  0  0  0  0  0  0  0  0  0  # atno 6907 bound_to 6896
  150.7570  134.6271  159.6176 H   0  0  0  0  0  0  0  0  0  0  0  0  # atno 6908 bound_to 6896
  152.3525  134.6987  160.0283 H   0  0  0  0  0  0  0  0  0  0  0  0  # atno 6909 bound_to 6896
  144.7968  139.7192  143.6198 H   0  0  0  0  0  0  0  0  0  0  0  0  # atno 7974 bound_to 7965
  156.1131  140.1474  156.9310 H   0  0  0  0  0  0  0  0  0  0  0  0  # atno 8008 bound_to 7997
  154.4781  140.0888  156.7354 H   0  0  0  0  0  0  0  0  0  0  0  0  # atno 8009 bound_to 7997
  155.4561  140.3436  155.4309 H   0  0  0  0  0  0  0  0  0  0  0  0  # atno 8010 bound_to 7997
  140.4124  144.1574  150.6140 H   0  0  0  0  0  0  0  0  0  0  0  0  # atno 10167 bound_to 10162
  156.3506  130.4308  149.7708 H   0  0  0  0  0  0  0  0  0  0  0  0  # atno 10718 bound_to 10713
  153.1549  135.4589  154.9689 H   0  0  0  0  0  0  0  0  0  0  0  0  # atno 10763 bound_to 10752
  154.7853  135.3202  154.7902 H   0  0  0  0  0  0  0  0  0  0  0  0  # atno 10764 bound_to 10752
  153.8401  135.6931  153.4858 H   0  0  0  0  0  0  0  0  0  0  0  0  # atno 10765 bound_to 10752
  140.5882  133.9949  155.8077 H   0  0  0  0  0  0  0  0  0  0  0  0  # atno 11005 bound_to 11000
  146.2238  139.5685  142.9600 LP  0  0  0  0  0  0  0  0  0  0  0  0  # atno 17320 bound_to 7965
  145.5653  141.0400  143.2204 LP  0  0  0  0  0  0  0  0  0  0  0  0  # atno 17321 bound_to 7965
  140.4623  143.2444  151.9203 LP  0  0  0  0  0  0  0  0  0  0  0  0  # atno 17342 bound_to 10162
  139.4782  144.5454  151.8465 LP  0  0  0  0  0  0  0  0  0  0  0  0  # atno 17343 bound_to 10162
  156.4910  130.8085  151.3094 LP  0  0  0  0  0  0  0  0  0  0  0  0  # atno 17370 bound_to 10713
  157.7460  130.9975  150.2819 LP  0  0  0  0  0  0  0  0  0  0  0  0  # atno 17371 bound_to 10713
  141.0952  133.9855  157.3172 LP  0  0  0  0  0  0  0  0  0  0  0  0  # atno 17394 bound_to 11000
  139.9286  135.0201  156.8322 LP  0  0  0  0  0  0  0  0  0  0  0  0  # atno 17395 bound_to 11000

$$$$
