AV-unprocessed.smi:42|AV-procd|sdf|388|dock1
  -GOLD-   2262016243D 1   1.00000     0.00000
 Structure written by MMmdl.
 27 28  0  0  0  0  0  0  0  0  2 V2000
  153.0474  142.8086  160.4482 C   0  0  0  0  0  0  0  0  0  0  0  0
  152.4938  143.3906  159.1432 C   0  0  0  0  0  0  0  0  0  0  0  0
  151.1142  142.9094  158.8419 C   0  0  0  0  0  0  0  0  0  0  0  0
  149.9997  143.1594  159.5327 N   0  0  0  0  0  0  0  0  0  0  0  0
  148.9807  142.5587  158.8299 N   0  0  0  0  0  0  0  0  0  0  0  0
  149.5559  141.9855  157.7666 C   0  0  0  0  0  0  0  0  0  0  0  0
  148.8970  141.2605  156.6324 C   0  0  2  0  0  0  0  0  0  0  0  0
  149.8328  140.8767  155.4825 C   0  0  0  0  0  0  0  0  0  0  0  0
  149.0160  141.1316  154.2052 C   0  0  1  0  0  0  0  0  0  0  0  0
  148.7709  139.9293  153.5056 O   0  0  0  0  0  0  0  0  0  0  0  0
  147.6961  141.7692  154.6714 C   0  0  0  0  0  0  0  0  0  0  0  0
  147.9293  142.2078  156.0559 N   0  3  0  0  0  0  0  0  0  0  0  0
  150.8961  142.1980  157.7053 O   0  0  0  0  0  0  0  0  0  0  0  0
  148.3601  140.3852  157.0014 H   0  0  0  0  0  0  0  0  0  0  0  0
  149.5567  141.8164  153.5505 H   0  0  0  0  0  0  0  0  0  0  0  0
  154.0558  143.1756  160.6401 H   0  0  0  0  0  0  0  0  0  0  0  0
  153.0912  141.7199  160.4063 H   0  0  0  0  0  0  0  0  0  0  0  0
  152.4242  143.0867  161.2986 H   0  0  0  0  0  0  0  0  0  0  0  0
  152.4817  144.4797  159.1956 H   0  0  0  0  0  0  0  0  0  0  0  0
  153.1474  143.1245  158.3117 H   0  0  0  0  0  0  0  0  0  0  0  0
  150.7046  141.5330  155.4726 H   0  0  0  0  0  0  0  0  0  0  0  0
  150.2017  139.8546  155.5783 H   0  0  0  0  0  0  0  0  0  0  0  0
  149.1324  140.0056  152.6353 H   0  0  0  0  0  0  0  0  0  0  0  0
  147.3806  142.5977  154.0367 H   0  0  0  0  0  0  0  0  0  0  0  0
  146.8909  141.0326  154.6856 H   0  0  0  0  0  0  0  0  0  0  0  0
  147.0736  142.2436  156.5913 H   0  0  0  0  0  0  0  0  0  0  0  0
  148.3607  143.1213  156.0355 H   0  0  0  0  0  0  0  0  0  0  0  0
  1  2  1  0  0  0  0
  1 16  1  0  0  0  0
  1 17  1  0  0  0  0
  1 18  1  0  0  0  0
  2  3  1  0  0  0  0
  2 19  1  0  0  0  0
  2 20  1  0  0  0  0
  3 13  1  0  0  0  0
  3  4  2  0  0  0  0
  4  5  1  0  0  0  0
  5  6  2  0  0  0  0
  6  7  1  0  0  0  0
  6 13  1  0  0  0  0
  7 14  1  0  0  0  0
  7 12  1  0  0  0  0
  7  8  1  0  0  0  0
  8  9  1  0  0  0  0
  8 21  1  0  0  0  0
  8 22  1  0  0  0  0
  9 15  1  0  0  0  0
  9 10  1  0  0  0  0
  9 11  1  0  0  0  0
 10 23  1  0  0  0  0
 11 12  1  0  0  0  0
 11 24  1  0  0  0  0
 11 25  1  0  0  0  0
 12 26  1  0  0  0  0
 12 27  1  0  0  0  0
M  CHG  1  12   1
M  END
> <s_m_source_file>
AV-unprocessed.smi

> <i_m_source_file_index>
42

> <i_lp_mmshare_version>
43012

> <i_f3d_flags>
0

> <s_epik_input>
W0NIM11bQ0gyXWMxbm5jKG8xKVtDQEhdMltDSDJdW0NAQEhdKFtPSF0pW0NIMl1bTkhdMg==

> <s_epik_cmdline>
J2VwaWtfcHl0aG9uJywgJy1waCcsICc3LjAnLCAnLXRuJywgJzgnLCAnLW1hJywgJzIwMCcsICctbWV0YWxfYmluZGluZycsICctaW1hZScsICc8aW5maWxlLm1hZT4nLCAnLW9tYWUnLCAnPG91dGZpbGUubWFlPic=

> <r_lp_tautomer_probability>
1

> <r_epik_Ionization_Penalty>
0.00247063

> <r_epik_Ionization_Penalty_Charging>
0.0024706

> <r_epik_Ionization_Penalty_Neutral>
3.27814e-08

> <r_epik_State_Penalty>
0.00171198

> <r_epik_Charging_Adjusted_Penalty>
0.00418258

> <i_epik_Tot_Q>
1

> <i_epik_Tot_abs_Q>
1

> <r_epik_Metal_State_Penalty>
-0

> <b_epik_Metal_Only>
0

> <s_lp_Force_Field>
OPLS_2005

> <r_lp_Energy>
19.0872

> <b_lp_Chiralities_Consistent>
1

> <s_lp_Variant>
AV-unprocessed.smi:42-2

> <Gold.Version>
5.8.1

> <Gold.Id.Protein>
6NUR|6NUR_protein|mol2

> <Gold.PLP.Fitness>
34.6626

> <Gold.PLP.PLP>
-25.7185

> <Gold.PLP.part.hbond>
-3.6968

> <Gold.PLP.part.metal>
0.0000

> <Gold.PLP.part.buried>
-3.7554

> <Gold.PLP.part.nonpolar>
-19.0676

> <Gold.PLP.part.repulsive>
0.3175

> <Gold.PLP.ligand.clash>
0.0000

> <Gold.PLP.ligand.torsion>
0.0546

> <Gold.PLP.Chemscore.Hbond>
3.0000

> <Gold.PLP.Chemscore.CHOScore>
0.0000

> <Gold.PLP.Chemscore.Metal>
0.0000

> <Gold.Chemscore.Hbonds>
donor molecule, donor type, donor heavy atom, donor atom, acceptor molecule, acceptor atom, score
      L1  H    10    23       P1  7957  1.00
      L1  H    12    27       P1  8028  2.00

> <Gold.PLP.Chemscore.Internal.Correction>
0.0532

> <Gold.Rescore>
     Score         DG    S(hbond)    S(metal)    S(lipo)     H(rot)  DE(clash)    DE(int)     intcor
     13.15     -13.19       1.95        0.00      50.74       1.86       0.02       0.03       ----

> <Gold.Chemscore.Fitness>
13.1452

> <Gold.Chemscore.DG>
-13.1934

> <Gold.Chemscore.ZeroCoef>
-5.4800

> <Gold.Chemscore.Hbond>
1.9550

> <Gold.Chemscore.Metal>
0.0000

> <Gold.Chemscore.Lipo>
50.7419

> <Gold.Chemscore.Internal_Hbond>
0.0000

> <Gold.Chemscore.DEClash>
0.0203

> <Gold.Chemscore.DEInternal>
0.0279

> <Gold.Chemscore.Rot>
1.8567

> <Gold.Chemscore.Internal.Correction>
   9.000000E+99

> <Gold.Chemscore.Hbonds>
donor molecule, donor type, donor heavy atom, donor atom, acceptor molecule, acceptor atom, score
      L1  H    10    23       P1  7957  0.95
      L1  H    12    27       P1  8028  0.88

> <Gold.Chemscore.Hbond.Weighted>
-6.5297

> <Gold.Chemscore.Metal.Weighted>
-0.0000

> <Gold.Chemscore.Lipo.Weighted>
-5.9368

> <Gold.Chemscore.Internal_Hbond.Weighted>
0.0000

> <Gold.Chemscore.DEClash.Weighted>
0.0203

> <Gold.Chemscore.DEInternal.Weighted>
0.0279

> <Gold.Chemscore.Rot.Weighted>
4.7531

> <Gold.Chemscore.Internal.Correction.Weighted>
   9.000000E+99

> <Gold.Protein.RotatedTorsions>
[ 6907 6896 6895 6894 ] final  153.14 input  -60.11 | X-H torsion
[ 7974 7965 7964 7962 ] final  147.13 input  175.53 | X-H torsion
[ 8008 7997 7996 7995 ] final -147.72 input   59.86 | X-H torsion
[ 10167 10162 10161 10158 ] final  -67.46 input  -65.29 | X-H torsion
[ 10718 10713 10712 10709 ] final   46.39 input   66.30 | X-H torsion
[ 10763 10752 10751 10750 ] final -105.79 input  -60.55 | X-H torsion
[ 11005 11000 10999 10996 ] final  -61.86 input  -57.11 | X-H torsion

> <Gold.Protein.ActiveResidues>
 VAL166  LYS551  ARG553  GLY616  TRP617  ASP618  TYR619  PRO620  LYS621  CYS622 
 ASP623  PHE694  ASN695  SER759  ASP760  ASP761  ALA762  ILE779  LEU786  VAL792 
 PHE793  MET794  SER795  GLU796  ALA797  LYS798  CYS799  TRP800  GLU811  SER814 

> <Gold.Protein.RotatedAtoms>
  152.0768  133.4133  159.4483 H   0  0  0  0  0  0  0  0  0  0  0  0  # atno 6907 bound_to 6896
  150.6862  134.3028  159.4722 H   0  0  0  0  0  0  0  0  0  0  0  0  # atno 6908 bound_to 6896
  152.0865  134.9435  160.0623 H   0  0  0  0  0  0  0  0  0  0  0  0  # atno 6909 bound_to 6896
  144.8616  139.5990  143.5928 H   0  0  0  0  0  0  0  0  0  0  0  0  # atno 7974 bound_to 7965
  155.5801  140.0642  157.2785 H   0  0  0  0  0  0  0  0  0  0  0  0  # atno 8008 bound_to 7997
  154.4335  140.1853  156.1014 H   0  0  0  0  0  0  0  0  0  0  0  0  # atno 8009 bound_to 7997
  156.0311  140.3306  155.7144 H   0  0  0  0  0  0  0  0  0  0  0  0  # atno 8010 bound_to 7997
  140.5581  143.2312  151.6781 H   0  0  0  0  0  0  0  0  0  0  0  0  # atno 10167 bound_to 10162
  157.4476  130.8118  149.7756 H   0  0  0  0  0  0  0  0  0  0  0  0  # atno 10718 bound_to 10713
  154.7970  135.4736  154.0183 H   0  0  0  0  0  0  0  0  0  0  0  0  # atno 10763 bound_to 10752
  153.1719  135.6826  153.8603 H   0  0  0  0  0  0  0  0  0  0  0  0  # atno 10764 bound_to 10752
  153.8183  135.3207  155.3385 H   0  0  0  0  0  0  0  0  0  0  0  0  # atno 10765 bound_to 10752
  141.1339  133.6634  156.5439 H   0  0  0  0  0  0  0  0  0  0  0  0  # atno 11005 bound_to 11000
  146.2865  139.7017  142.9192 LP  0  0  0  0  0  0  0  0  0  0  0  0  # atno 17320 bound_to 7965
  145.4301  141.0414  143.2915 LP  0  0  0  0  0  0  0  0  0  0  0  0  # atno 17321 bound_to 7965
  139.5057  144.3707  152.0473 LP  0  0  0  0  0  0  0  0  0  0  0  0  # atno 17342 bound_to 10162
  140.2830  144.3838  150.6112 LP  0  0  0  0  0  0  0  0  0  0  0  0  # atno 17343 bound_to 10162
  155.9973  130.3900  150.2743 LP  0  0  0  0  0  0  0  0  0  0  0  0  # atno 17370 bound_to 10713
  157.0913  131.0170  151.3120 LP  0  0  0  0  0  0  0  0  0  0  0  0  # atno 17371 bound_to 10713
  140.4118  134.7266  157.4840 LP  0  0  0  0  0  0  0  0  0  0  0  0  # atno 17394 bound_to 11000
  140.0422  134.6251  155.8966 LP  0  0  0  0  0  0  0  0  0  0  0  0  # atno 17395 bound_to 11000

$$$$
