AV-unprocessed.smi:1206|AV-procd|sdf|5047|dock2
  -GOLD-   22720 4 73D 1   1.00000     0.00000
 Structure written by MMmdl.
 41 42  0  0  0  0  0  0  0  0  2 V2000
  144.9224  137.6830  154.5086 C   0  0  0  0  0  0  0  0  0  0  0  0
  145.2164  139.1261  154.3145 N   0  3  0  0  0  0  0  0  0  0  0  0
  144.6764  139.9134  155.4544 C   0  0  0  0  0  0  0  0  0  0  0  0
  146.6238  139.4812  153.8905 C   0  0  0  0  0  0  0  0  0  0  0  0
  146.7895  139.1069  152.3812 C   0  0  0  0  0  0  0  0  0  0  0  0
  146.8871  137.6665  152.1418 N   0  0  0  0  0  0  0  0  0  0  0  0
  145.8800  136.8562  151.7870 C   0  0  0  0  0  0  0  0  0  0  0  0
  144.7209  137.2415  151.6403 O   0  0  0  0  0  0  0  0  0  0  0  0
  146.3044  135.5921  151.6323 N   0  0  0  0  0  0  0  0  0  0  0  0
  145.5384  134.4532  151.2781 C   0  0  0  0  0  0  0  0  0  0  0  0
  146.1935  133.3317  150.9568 N   0  0  0  0  0  0  0  0  0  0  0  0
  145.3253  132.2969  150.6314 N   0  0  0  0  0  0  0  0  0  0  0  0
  144.0477  132.6795  150.7192 C   0  0  0  0  0  0  0  0  0  0  0  0
  143.7771  134.3422  151.2109 S   0  0  0  0  0  0  0  0  0  0  0  0
  146.8942  141.0036  154.0925 C   0  0  0  0  0  0  0  0  0  0  0  0
  148.3537  141.4250  153.8287 C   0  0  0  0  0  0  0  0  0  0  0  0
  149.3476  140.6003  154.6571 C   0  0  0  0  0  0  0  0  0  0  0  0
  149.1413  139.0962  154.4368 C   0  0  0  0  0  0  0  0  0  0  0  0
  147.6849  138.6971  154.7335 C   0  0  0  0  0  0  0  0  0  0  0  0
  145.5977  137.2330  155.2369 H   0  0  0  0  0  0  0  0  0  0  0  0
  144.9887  137.1291  153.5724 H   0  0  0  0  0  0  0  0  0  0  0  0
  143.9030  137.5418  154.8693 H   0  0  0  0  0  0  0  0  0  0  0  0
  145.1183  139.5991  156.4005 H   0  0  0  0  0  0  0  0  0  0  0  0
  143.5987  139.7663  155.5319 H   0  0  0  0  0  0  0  0  0  0  0  0
  144.8375  140.9838  155.3420 H   0  0  0  0  0  0  0  0  0  0  0  0
  145.9915  139.5342  151.7743 H   0  0  0  0  0  0  0  0  0  0  0  0
  147.6951  139.5432  151.9651 H   0  0  0  0  0  0  0  0  0  0  0  0
  147.8064  137.2589  152.2354 H   0  0  0  0  0  0  0  0  0  0  0  0
  147.2870  135.4202  151.7881 H   0  0  0  0  0  0  0  0  0  0  0  0
  143.2589  131.9771  150.4930 H   0  0  0  0  0  0  0  0  0  0  0  0
  146.2527  141.6002  153.4436 H   0  0  0  0  0  0  0  0  0  0  0  0
  146.6375  141.2875  155.1137 H   0  0  0  0  0  0  0  0  0  0  0  0
  148.5899  141.3290  152.7692 H   0  0  0  0  0  0  0  0  0  0  0  0
  148.4749  142.4828  154.0640 H   0  0  0  0  0  0  0  0  0  0  0  0
  150.3700  140.8792  154.4004 H   0  0  0  0  0  0  0  0  0  0  0  0
  149.2204  140.8347  155.7148 H   0  0  0  0  0  0  0  0  0  0  0  0
  149.4233  138.8193  153.4213 H   0  0  0  0  0  0  0  0  0  0  0  0
  149.8113  138.5394  155.0926 H   0  0  0  0  0  0  0  0  0  0  0  0
  147.5474  138.8890  155.7974 H   0  0  0  0  0  0  0  0  0  0  0  0
  147.5660  137.6206  154.6063 H   0  0  0  0  0  0  0  0  0  0  0  0
  144.6456  139.3933  153.5251 H   0  0  0  0  0  0  0  0  0  0  0  0
  1  2  1  0  0  0  0
  1 20  1  0  0  0  0
  1 21  1  0  0  0  0
  1 22  1  0  0  0  0
  2  3  1  0  0  0  0
  2  4  1  0  0  0  0
  2 41  1  0  0  0  0
  3 23  1  0  0  0  0
  3 24  1  0  0  0  0
  3 25  1  0  0  0  0
  4 19  1  0  0  0  0
  4  5  1  0  0  0  0
  4 15  1  0  0  0  0
  5  6  1  0  0  0  0
  5 26  1  0  0  0  0
  5 27  1  0  0  0  0
  6  7  1  0  0  0  0
  6 28  1  0  0  0  0
  7  8  2  0  0  0  0
  7  9  1  0  0  0  0
  9 10  1  0  0  0  0
  9 29  1  0  0  0  0
 10 14  1  0  0  0  0
 10 11  2  0  0  0  0
 11 12  1  0  0  0  0
 12 13  2  0  0  0  0
 13 14  1  0  0  0  0
 13 30  1  0  0  0  0
 15 16  1  0  0  0  0
 15 31  1  0  0  0  0
 15 32  1  0  0  0  0
 16 17  1  0  0  0  0
 16 33  1  0  0  0  0
 16 34  1  0  0  0  0
 17 18  1  0  0  0  0
 17 35  1  0  0  0  0
 17 36  1  0  0  0  0
 18 19  1  0  0  0  0
 18 37  1  0  0  0  0
 18 38  1  0  0  0  0
 19 39  1  0  0  0  0
 19 40  1  0  0  0  0
M  CHG  1   2   1
M  END
> <s_m_source_file>
AV-unprocessed.smi

> <i_m_source_file_index>
1206

> <i_lp_mmshare_version>
43012

> <i_f3d_flags>
0

> <s_epik_input>
W0NIMl0xW0NIMl1bQ0gyXVtDSDJdW0NIMl1DMShOKFtDSDNdKVtDSDNdKVtDSDJdW05IXUMoPU8pW05IXWMybm5bY0hdczI=

> <s_epik_cmdline>
J2VwaWtfcHl0aG9uJywgJy1waCcsICc3LjAnLCAnLXRuJywgJzgnLCAnLW1hJywgJzIwMCcsICctbWV0YWxfYmluZGluZycsICctaW1hZScsICc8aW5maWxlLm1hZT4nLCAnLW9tYWUnLCAnPG91dGZpbGUubWFlPic=

> <r_lp_tautomer_probability>
1

> <r_epik_Ionization_Penalty>
0.00322257

> <r_epik_Ionization_Penalty_Charging>
0.00246239

> <r_epik_Ionization_Penalty_Neutral>
0.000760187

> <r_epik_State_Penalty>
-0

> <r_epik_Charging_Adjusted_Penalty>
0.00246239

> <i_epik_Tot_Q>
1

> <i_epik_Tot_abs_Q>
1

> <r_epik_Metal_State_Penalty>
0.262153

> <b_epik_Metal_Only>
0

> <s_lp_Force_Field>
OPLS_2005

> <r_lp_Energy>
30.8997

> <b_lp_Chiralities_Consistent>
1

> <s_lp_Variant>
AV-unprocessed.smi:1206-1

> <Gold.Version>
5.8.1

> <Gold.Id.Protein>
6NUR|6NUR_protein|mol2

> <Gold.PLP.Fitness>
35.7194

> <Gold.PLP.PLP>
-25.6678

> <Gold.PLP.part.hbond>
-2.9915

> <Gold.PLP.part.metal>
0.0000

> <Gold.PLP.part.buried>
-3.6714

> <Gold.PLP.part.nonpolar>
-22.5283

> <Gold.PLP.part.repulsive>
3.9205

> <Gold.PLP.ligand.clash>
0.0000

> <Gold.PLP.ligand.torsion>
0.9438

> <Gold.PLP.Chemscore.Hbond>
3.9440

> <Gold.PLP.Chemscore.CHOScore>
0.0000

> <Gold.PLP.Chemscore.Metal>
0.0000

> <Gold.Chemscore.Hbonds>
donor molecule, donor type, donor heavy atom, donor atom, acceptor molecule, acceptor atom, score
      L1  H     2    41       P1 10175  2.00
      L1  H     6    28       P1  7948  1.00
      L1  H     9    29       P1  7948  0.88

> <Gold.PLP.Chemscore.Internal.Correction>
0.1071

> <Gold.Rescore>
     Score         DG    S(hbond)    S(metal)    S(lipo)     H(rot)  DE(clash)    DE(int)     intcor
     14.36     -18.04       2.88        0.00      61.50       1.66       1.97       1.71       ----

> <Gold.Chemscore.Fitness>
14.3579

> <Gold.Chemscore.DG>
-18.0387

> <Gold.Chemscore.ZeroCoef>
-5.4800

> <Gold.Chemscore.Hbond>
2.8795

> <Gold.Chemscore.Metal>
0.0000

> <Gold.Chemscore.Lipo>
61.5050

> <Gold.Chemscore.Internal_Hbond>
0.0000

> <Gold.Chemscore.DEClash>
1.9703

> <Gold.Chemscore.DEInternal>
1.7105

> <Gold.Chemscore.Rot>
1.6621

> <Gold.Chemscore.Internal.Correction>
   9.000000E+99

> <Gold.Chemscore.Hbonds>
donor molecule, donor type, donor heavy atom, donor atom, acceptor molecule, acceptor atom, score
      L1  H     2    41       P1 10175  0.99
      L1  H     6    28       P1  7948  0.94
      L1  H     9    29       P1  7948  0.86

> <Gold.Chemscore.Hbond.Weighted>
-9.6175

> <Gold.Chemscore.Metal.Weighted>
-0.0000

> <Gold.Chemscore.Lipo.Weighted>
-7.1961

> <Gold.Chemscore.Internal_Hbond.Weighted>
0.0000

> <Gold.Chemscore.DEClash.Weighted>
1.9703

> <Gold.Chemscore.DEInternal.Weighted>
1.7105

> <Gold.Chemscore.Rot.Weighted>
4.2549

> <Gold.Chemscore.Internal.Correction.Weighted>
   9.000000E+99

> <Gold.Protein.RotatedTorsions>
[ 6907 6896 6895 6894 ] final -141.31 input  -60.11 | X-H torsion
[ 7974 7965 7964 7962 ] final  159.74 input  175.53 | X-H torsion
[ 8008 7997 7996 7995 ] final -126.05 input   59.86 | X-H torsion
[ 10167 10162 10161 10158 ] final  -28.01 input  -65.29 | X-H torsion
[ 10718 10713 10712 10709 ] final  136.12 input   66.30 | X-H torsion
[ 10763 10752 10751 10750 ] final  164.75 input  -60.55 | X-H torsion
[ 11005 11000 10999 10996 ] final -149.79 input  -57.11 | X-H torsion

> <Gold.Protein.ActiveResidues>
 VAL166  LYS551  ARG553  GLY616  TRP617  ASP618  TYR619  PRO620  LYS621  CYS622 
 ASP623  PHE694  ASN695  SER759  ASP760  ASP761  ALA762  ILE779  LEU786  VAL792 
 PHE793  MET794  SER795  GLU796  ALA797  LYS798  CYS799  TRP800  GLU811  SER814 

> <Gold.Protein.RotatedAtoms>
  151.0721  133.5458  159.2626 H   0  0  0  0  0  0  0  0  0  0  0  0  # atno 6907 bound_to 6896
  151.2393  135.0582  159.9028 H   0  0  0  0  0  0  0  0  0  0  0  0  # atno 6908 bound_to 6896
  152.5413  134.0498  159.8159 H   0  0  0  0  0  0  0  0  0  0  0  0  # atno 6909 bound_to 6896
  144.7774  139.7660  143.6273 H   0  0  0  0  0  0  0  0  0  0  0  0  # atno 7974 bound_to 7965
  155.2233  140.0422  157.2951 H   0  0  0  0  0  0  0  0  0  0  0  0  # atno 8008 bound_to 7997
  154.5936  140.2433  155.7858 H   0  0  0  0  0  0  0  0  0  0  0  0  # atno 8009 bound_to 7997
  156.2275  140.2949  156.0113 H   0  0  0  0  0  0  0  0  0  0  0  0  # atno 8010 bound_to 7997
  140.7273  143.4045  151.1208 H   0  0  0  0  0  0  0  0  0  0  0  0  # atno 10167 bound_to 10162
  157.4500  131.1065  151.0045 H   0  0  0  0  0  0  0  0  0  0  0  0  # atno 10718 bound_to 10713
  154.3136  135.2757  155.2554 H   0  0  0  0  0  0  0  0  0  0  0  0  # atno 10763 bound_to 10752
  154.4938  135.5826  153.6482 H   0  0  0  0  0  0  0  0  0  0  0  0  # atno 10764 bound_to 10752
  152.9885  135.6141  154.3316 H   0  0  0  0  0  0  0  0  0  0  0  0  # atno 10765 bound_to 10752
  140.7471  134.3449  157.5134 H   0  0  0  0  0  0  0  0  0  0  0  0  # atno 11005 bound_to 11000
  146.1961  139.5229  142.9773 LP  0  0  0  0  0  0  0  0  0  0  0  0  # atno 17320 bound_to 7965
  145.6148  141.0333  143.1947 LP  0  0  0  0  0  0  0  0  0  0  0  0  # atno 17321 bound_to 7965
  139.7670  143.8550  152.3112 LP  0  0  0  0  0  0  0  0  0  0  0  0  # atno 17342 bound_to 10162
  139.8456  144.7189  150.9277 LP  0  0  0  0  0  0  0  0  0  0  0  0  # atno 17343 bound_to 10162
  157.0878  130.5930  149.5433 LP  0  0  0  0  0  0  0  0  0  0  0  0  # atno 17370 bound_to 10713
  155.9983  130.5056  150.7566 LP  0  0  0  0  0  0  0  0  0  0  0  0  # atno 17371 bound_to 10713
  139.8795  134.9118  156.3045 LP  0  0  0  0  0  0  0  0  0  0  0  0  # atno 17394 bound_to 11000
  140.9785  133.7282  156.0637 LP  0  0  0  0  0  0  0  0  0  0  0  0  # atno 17395 bound_to 11000

$$$$
