AV-unprocessed.smi:55|AV-procd|sdf|574|dock5
  -GOLD-   2262016473D 1   1.00000     0.00000
 Structure written by MMmdl.
 30 31  0  0  0  0  0  0  0  0  2 V2000
  150.9392  143.0136  158.9174 C   0  0  0  0  0  0  0  0  0  0  0  0
  151.1938  141.9076  157.9084 C   0  0  0  0  0  0  0  0  0  0  0  0
  150.4588  141.7759  156.7816 C   0  0  0  0  0  0  0  0  0  0  0  0
  150.6941  140.7643  155.8672 N   0  0  0  0  0  0  0  0  0  0  0  0
  149.8393  140.6302  154.6301 C   0  0  1  0  0  0  0  0  0  0  0  0
  149.0601  139.3214  154.6418 C   0  0  0  0  0  0  0  0  0  0  0  0
  147.8097  139.6870  153.8506 C   0  0  1  0  0  0  0  0  0  0  0  0
  146.6601  139.1694  154.4950 O   0  0  0  0  0  0  0  0  0  0  0  0
  147.8427  141.2314  153.7363 C   0  0  1  0  0  0  0  0  0  0  0  0
  146.5397  141.9698  154.0968 C   0  0  0  0  0  0  0  0  0  0  0  0
  146.7590  143.3645  154.1117 O   0  0  0  0  0  0  0  0  0  0  0  0
  148.8796  141.6335  154.6233 O   0  0  0  0  0  0  0  0  0  0  0  0
  151.7116  139.8089  156.1213 C   0  0  0  0  0  0  0  0  0  0  0  0
  151.8658  138.8954  155.3102 O   0  0  0  0  0  0  0  0  0  0  0  0
  152.4645  139.9391  157.2508 N   0  5  0  0  0  0  0  0  0  0  0  0
  152.2676  140.9381  158.1589 C   0  0  0  0  0  0  0  0  0  0  0  0
  152.9569  141.0451  159.1731 O   0  0  0  0  0  0  0  0  0  0  0  0
  150.4889  140.7535  153.7614 H   0  0  0  0  0  0  0  0  0  0  0  0
  147.8593  139.2513  152.8520 H   0  0  0  0  0  0  0  0  0  0  0  0
  148.1471  141.4866  152.7193 H   0  0  0  0  0  0  0  0  0  0  0  0
  150.1134  143.6533  158.6052 H   0  0  0  0  0  0  0  0  0  0  0  0
  151.8260  143.6377  159.0303 H   0  0  0  0  0  0  0  0  0  0  0  0
  150.6889  142.5900  159.8905 H   0  0  0  0  0  0  0  0  0  0  0  0
  149.6604  142.4793  156.5972 H   0  0  0  0  0  0  0  0  0  0  0  0
  149.6451  138.5142  154.2003 H   0  0  0  0  0  0  0  0  0  0  0  0
  148.8145  139.0610  155.6731 H   0  0  0  0  0  0  0  0  0  0  0  0
  146.9326  138.5030  155.1068 H   0  0  0  0  0  0  0  0  0  0  0  0
  145.7716  141.7813  153.3464 H   0  0  0  0  0  0  0  0  0  0  0  0
  146.1491  141.6355  155.0587 H   0  0  0  0  0  0  0  0  0  0  0  0
  147.5664  143.5366  154.5718 H   0  0  0  0  0  0  0  0  0  0  0  0
  1  2  1  0  0  0  0
  1 21  1  0  0  0  0
  1 22  1  0  0  0  0
  1 23  1  0  0  0  0
  2 16  1  0  0  0  0
  2  3  2  0  0  0  0
  3  4  1  0  0  0  0
  3 24  1  0  0  0  0
  4  5  1  0  0  0  0
  4 13  1  0  0  0  0
  5 18  1  0  0  0  0
  5 12  1  0  0  0  0
  5  6  1  0  0  0  0
  6  7  1  0  0  0  0
  6 25  1  0  0  0  0
  6 26  1  0  0  0  0
  7 19  1  0  0  0  0
  7  8  1  0  0  0  0
  7  9  1  0  0  0  0
  8 27  1  0  0  0  0
  9 20  1  0  0  0  0
  9 10  1  0  0  0  0
  9 12  1  0  0  0  0
 10 11  1  0  0  0  0
 10 28  1  0  0  0  0
 10 29  1  0  0  0  0
 11 30  1  0  0  0  0
 13 14  2  0  0  0  0
 13 15  1  0  0  0  0
 15 16  1  0  0  0  0
 16 17  2  0  0  0  0
M  CHG  1  15  -1
M  END
> <s_m_source_file>
AV-unprocessed.smi

> <i_m_source_file_index>
55

> <i_lp_mmshare_version>
43012

> <i_f3d_flags>
0

> <s_epik_input>
Tz1jMVtuSF1jKD1PKW4oW2NIXWMxW0NIM10pW0NAQEhdMltDSDJdW0NAQEhdKFtPSF0pW0NAQEhdKE8yKVtDSDJdW09IXQ==

> <s_epik_cmdline>
J2VwaWtfcHl0aG9uJywgJy1waCcsICc3LjAnLCAnLXRuJywgJzgnLCAnLW1hJywgJzIwMCcsICctbWV0YWxfYmluZGluZycsICctaW1hZScsICc8aW5maWxlLm1hZT4nLCAnLW9tYWUnLCAnPG91dGZpbGUubWFlPic=

> <r_lp_tautomer_probability>
0.999537

> <r_epik_Ionization_Penalty>
3.66603

> <r_epik_Ionization_Penalty_Charging>
1.09773e-07

> <r_epik_Ionization_Penalty_Neutral>
3.66603

> <r_epik_State_Penalty>
3.66562

> <r_epik_Charging_Adjusted_Penalty>
3.66562

> <i_epik_Tot_Q>
-1

> <i_epik_Tot_abs_Q>
1

> <r_epik_Metal_State_Penalty>
0.234536

> <b_epik_Metal_Only>
1

> <s_epik_Chemistry_Notes>
This compound contains an acetal/aminal-like group ( X-CH(R)-Y where X, Y are N, S, or O) that may be acid/base labile, releasing an aldehyde.

> <s_lp_Force_Field>
OPLS_2005

> <r_lp_Energy>
40.7451

> <b_lp_Chiralities_Consistent>
1

> <s_lp_Variant>
AV-unprocessed.smi:55-14

> <Gold.Version>
5.8.1

> <Gold.Id.Protein>
6NUR|6NUR_protein|mol2

> <Gold.PLP.Fitness>
40.0988

> <Gold.PLP.PLP>
-28.1701

> <Gold.PLP.part.hbond>
-3.3261

> <Gold.PLP.part.metal>
0.0000

> <Gold.PLP.part.buried>
-1.8033

> <Gold.PLP.part.nonpolar>
-24.0691

> <Gold.PLP.part.repulsive>
0.1764

> <Gold.PLP.ligand.clash>
0.0000

> <Gold.PLP.ligand.torsion>
0.0346

> <Gold.PLP.Chemscore.Hbond>
2.9913

> <Gold.PLP.Chemscore.CHOScore>
1.0000

> <Gold.PLP.Chemscore.Metal>
0.0000

> <Gold.Chemscore.Hbonds>
donor molecule, donor type, donor heavy atom, donor atom, acceptor molecule, acceptor atom, score
      L1  H    11    30       P1  8028  1.00
      P1  H  7997  8008       L1    15  1.98
      L1  C     3    24       P1  8028  0.95

> <Gold.PLP.Chemscore.Internal.Correction>
0.0242

> <Gold.Rescore>
     Score         DG    S(hbond)    S(metal)    S(lipo)     H(rot)  DE(clash)    DE(int)     intcor
      5.94      -7.10       0.93        0.00      46.09       2.69       0.85       0.31       ----

> <Gold.Chemscore.Fitness>
5.9433

> <Gold.Chemscore.DG>
-7.1027

> <Gold.Chemscore.ZeroCoef>
-5.4800

> <Gold.Chemscore.Hbond>
0.9310

> <Gold.Chemscore.Metal>
0.0000

> <Gold.Chemscore.Lipo>
46.0873

> <Gold.Chemscore.Internal_Hbond>
0.0000

> <Gold.Chemscore.DEClash>
0.8488

> <Gold.Chemscore.DEInternal>
0.3105

> <Gold.Chemscore.Rot>
2.6871

> <Gold.Chemscore.Internal.Correction>
   9.000000E+99

> <Gold.Chemscore.Hbonds>
donor molecule, donor type, donor heavy atom, donor atom, acceptor molecule, acceptor atom, score
      L1  H    11    30       P1  8028  0.23
      P1  H  7997  8008       L1    15  0.21

> <Gold.Chemscore.Hbond.Weighted>
-3.1095

> <Gold.Chemscore.Metal.Weighted>
-0.0000

> <Gold.Chemscore.Lipo.Weighted>
-5.3922

> <Gold.Chemscore.Internal_Hbond.Weighted>
0.0000

> <Gold.Chemscore.DEClash.Weighted>
0.8488

> <Gold.Chemscore.DEInternal.Weighted>
0.3105

> <Gold.Chemscore.Rot.Weighted>
6.8791

> <Gold.Chemscore.Internal.Correction.Weighted>
   9.000000E+99

> <Gold.Protein.RotatedTorsions>
[ 6907 6896 6895 6894 ] final   75.44 input  -60.11 | X-H torsion
[ 7974 7965 7964 7962 ] final   87.18 input  175.53 | X-H torsion
[ 8008 7997 7996 7995 ] final  -50.67 input   59.86 | X-H torsion
[ 10167 10162 10161 10158 ] final  -59.03 input  -65.29 | X-H torsion
[ 10718 10713 10712 10709 ] final   21.96 input   66.30 | X-H torsion
[ 10763 10752 10751 10750 ] final   29.25 input  -60.55 | X-H torsion
[ 11005 11000 10999 10996 ] final  167.67 input  -57.11 | X-H torsion

> <Gold.Protein.ActiveResidues>
 VAL166  LYS551  ARG553  GLY616  TRP617  ASP618  TYR619  PRO620  LYS621  CYS622 
 ASP623  PHE694  ASN695  SER759  ASP760  ASP761  ALA762  ILE779  LEU786  VAL792 
 PHE793  MET794  SER795  GLU796  ALA797  LYS798  CYS799  TRP800  GLU811  SER814 

> <Gold.Protein.RotatedAtoms>
  152.5026  134.4120  159.9451 H   0  0  0  0  0  0  0  0  0  0  0  0  # atno 6907 bound_to 6896
  151.4089  133.3727  159.2749 H   0  0  0  0  0  0  0  0  0  0  0  0  # atno 6908 bound_to 6896
  150.9306  134.8743  159.7608 H   0  0  0  0  0  0  0  0  0  0  0  0  # atno 6909 bound_to 6896
  145.5624  139.2305  143.2452 H   0  0  0  0  0  0  0  0  0  0  0  0  # atno 7974 bound_to 7965
  154.4067  140.1266  156.4704 H   0  0  0  0  0  0  0  0  0  0  0  0  # atno 8008 bound_to 7997
  155.7185  140.3493  155.4985 H   0  0  0  0  0  0  0  0  0  0  0  0  # atno 8009 bound_to 7997
  155.9236  140.1057  157.1178 H   0  0  0  0  0  0  0  0  0  0  0  0  # atno 8010 bound_to 7997
  140.6161  143.2403  151.5594 H   0  0  0  0  0  0  0  0  0  0  0  0  # atno 10167 bound_to 10162
  157.1456  130.6652  149.5995 H   0  0  0  0  0  0  0  0  0  0  0  0  # atno 10718 bound_to 10713
  153.0441  135.6493  154.0863 H   0  0  0  0  0  0  0  0  0  0  0  0  # atno 10763 bound_to 10752
  154.0564  135.2891  155.3333 H   0  0  0  0  0  0  0  0  0  0  0  0  # atno 10764 bound_to 10752
  154.6687  135.5364  153.8175 H   0  0  0  0  0  0  0  0  0  0  0  0  # atno 10765 bound_to 10752
  140.2792  134.7764  157.3743 H   0  0  0  0  0  0  0  0  0  0  0  0  # atno 11005 bound_to 11000
  146.1842  140.6449  142.9175 LP  0  0  0  0  0  0  0  0  0  0  0  0  # atno 17320 bound_to 7965
  144.7477  140.5110  143.6824 LP  0  0  0  0  0  0  0  0  0  0  0  0  # atno 17321 bound_to 7965
  139.5399  144.2675  152.1330 LP  0  0  0  0  0  0  0  0  0  0  0  0  # atno 17342 bound_to 10162
  140.1885  144.4775  150.6491 LP  0  0  0  0  0  0  0  0  0  0  0  0  # atno 17343 bound_to 10162
  155.9780  130.4762  150.6628 LP  0  0  0  0  0  0  0  0  0  0  0  0  # atno 17370 bound_to 10713
  157.4267  131.0844  151.1078 LP  0  0  0  0  0  0  0  0  0  0  0  0  # atno 17371 bound_to 10713
  140.1299  134.5108  155.8114 LP  0  0  0  0  0  0  0  0  0  0  0  0  # atno 17394 bound_to 11000
  141.2165  133.6786  156.7021 LP  0  0  0  0  0  0  0  0  0  0  0  0  # atno 17395 bound_to 11000

$$$$
