AV-unprocessed.smi:2402|AV-procd|sdf|9508|dock9
  -GOLD-   2272013133D 1   1.00000     0.00000
 Structure written by MMmdl.
 38 39  0  0  0  0  0  0  0  0  1 V2000
  151.9657  145.8404  160.4945 C   0  0  0  0  0  0  0  0  0  0  0  0
  152.0704  144.5114  159.7762 C   0  0  0  0  0  0  0  0  0  0  0  0
  153.0111  143.5439  160.1783 C   0  0  0  0  0  0  0  0  0  0  0  0
  153.0584  142.3279  159.4685 C   0  0  0  0  0  0  0  0  0  0  0  0
  154.0492  141.2452  159.8416 C   0  0  0  0  0  0  0  0  0  0  0  0
  152.2442  142.0500  158.4277 N   0  0  0  0  0  0  0  0  0  0  0  0
  151.3329  142.9736  158.0331 C   0  0  0  0  0  0  0  0  0  0  0  0
  150.4316  142.7798  156.9525 N   0  0  0  0  0  0  0  0  0  0  0  0
  150.4354  141.7988  156.0328 C   0  0  0  0  0  0  0  0  0  0  0  0
  151.2472  140.8742  155.9790 O   0  0  0  0  0  0  0  0  0  0  0  0
  149.4249  141.9437  155.1633 N   0  0  0  0  0  0  0  0  0  0  0  0
  149.1402  141.0326  154.0601 C   0  0  1  0  0  0  0  0  0  0  0  0
  149.3113  139.6026  154.4942 C   0  0  0  0  0  0  0  0  0  0  0  0
  148.2366  138.8579  154.2439 C   0  0  0  0  0  0  0  0  0  0  0  0
  147.1228  139.6380  153.5962 C   0  0  1  0  0  0  0  0  0  0  0  0
  145.7861  139.4691  154.3368 C   0  0  0  0  0  0  0  0  0  0  0  0
  145.0805  138.3598  153.8220 O   0  0  0  0  0  0  0  0  0  0  0  0
  147.6626  141.0921  153.5919 C   0  0  0  0  0  0  0  0  0  0  0  0
  151.2222  144.2204  158.6888 C   0  0  0  0  0  0  0  0  0  0  0  0
  149.8210  141.2202  153.2282 H   0  0  0  0  0  0  0  0  0  0  0  0
  147.0267  139.2733  152.5726 H   0  0  0  0  0  0  0  0  0  0  0  0
  152.7541  145.9520  161.2396 H   0  0  0  0  0  0  0  0  0  0  0  0
  151.0035  145.9205  161.0006 H   0  0  0  0  0  0  0  0  0  0  0  0
  152.0505  146.6625  159.7835 H   0  0  0  0  0  0  0  0  0  0  0  0
  153.6789  143.7290  161.0070 H   0  0  0  0  0  0  0  0  0  0  0  0
  154.6277  141.5242  160.7225 H   0  0  0  0  0  0  0  0  0  0  0  0
  154.7439  141.0695  159.0197 H   0  0  0  0  0  0  0  0  0  0  0  0
  153.5289  140.3118  160.0578 H   0  0  0  0  0  0  0  0  0  0  0  0
  149.6934  143.4635  156.8761 H   0  0  0  0  0  0  0  0  0  0  0  0
  148.8051  142.7325  155.2755 H   0  0  0  0  0  0  0  0  0  0  0  0
  150.2262  139.2419  154.9413 H   0  0  0  0  0  0  0  0  0  0  0  0
  148.1496  137.8031  154.4588 H   0  0  0  0  0  0  0  0  0  0  0  0
  145.9589  139.3035  155.4008 H   0  0  0  0  0  0  0  0  0  0  0  0
  145.1714  140.3652  154.2443 H   0  0  0  0  0  0  0  0  0  0  0  0
  144.3721  138.6770  153.2829 H   0  0  0  0  0  0  0  0  0  0  0  0
  147.0723  141.7164  154.2647 H   0  0  0  0  0  0  0  0  0  0  0  0
  147.5814  141.5402  152.6011 H   0  0  0  0  0  0  0  0  0  0  0  0
  150.4929  144.9485  158.3638 H   0  0  0  0  0  0  0  0  0  0  0  0
  1  2  1  0  0  0  0
  1 22  1  0  0  0  0
  1 23  1  0  0  0  0
  1 24  1  0  0  0  0
  2 19  1  0  0  0  0
  2  3  2  0  0  0  0
  3  4  1  0  0  0  0
  3 25  1  0  0  0  0
  4  5  1  0  0  0  0
  4  6  2  0  0  0  0
  5 26  1  0  0  0  0
  5 27  1  0  0  0  0
  5 28  1  0  0  0  0
  6  7  1  0  0  0  0
  7  8  1  0  0  0  0
  7 19  2  0  0  0  0
  8  9  1  0  0  0  0
  8 29  1  0  0  0  0
  9 10  2  0  0  0  0
  9 11  1  0  0  0  0
 11 12  1  0  0  0  0
 11 30  1  0  0  0  0
 12 20  1  0  0  0  0
 12 18  1  0  0  0  0
 12 13  1  0  0  0  0
 13 14  2  0  0  0  0
 13 31  1  0  0  0  0
 14 15  1  0  0  0  0
 14 32  1  0  0  0  0
 15 21  1  0  0  0  0
 15 16  1  0  0  0  0
 15 18  1  0  0  0  0
 16 17  1  0  0  0  0
 16 33  1  0  0  0  0
 16 34  1  0  0  0  0
 17 35  1  0  0  0  0
 18 36  1  0  0  0  0
 18 37  1  0  0  0  0
 19 38  1  0  0  0  0
M  END
> <s_m_source_file>
AV-unprocessed.smi

> <i_m_source_file_index>
2402

> <i_lp_mmshare_version>
43012

> <i_f3d_flags>
0

> <s_epik_input>
W0NIM11jMVtjSF1jKFtDSDNdKW5jKFtjSF0xKVtOSF1DKD1PKVtOSF1bQ0BASF0yW0NIXT1bQ0hdW0NAQEhdKFtDSDJdMilbQ0gyXVtPSF0=

> <s_epik_cmdline>
J2VwaWtfcHl0aG9uJywgJy1waCcsICc3LjAnLCAnLXRuJywgJzgnLCAnLW1hJywgJzIwMCcsICctbWV0YWxfYmluZGluZycsICctaW1hZScsICc8aW5maWxlLm1hZT4nLCAnLW9tYWUnLCAnPG91dGZpbGUubWFlPic=

> <r_lp_tautomer_probability>
1

> <r_epik_Ionization_Penalty>
0.000257495

> <r_epik_Ionization_Penalty_Charging>
0

> <r_epik_Ionization_Penalty_Neutral>
0.000257495

> <r_epik_State_Penalty>
-0

> <r_epik_Charging_Adjusted_Penalty>
0

> <i_epik_Tot_Q>
0

> <i_epik_Tot_abs_Q>
0

> <r_epik_Metal_State_Penalty>
-0

> <b_epik_Metal_Only>
0

> <s_lp_Force_Field>
OPLS_2005

> <r_lp_Energy>
18.3393

> <b_lp_Chiralities_Consistent>
1

> <s_lp_Variant>
AV-unprocessed.smi:2402-4

> <Gold.Version>
5.8.1

> <Gold.Id.Protein>
6NUR|6NUR_protein|mol2

> <Gold.PLP.Fitness>
45.9626

> <Gold.PLP.PLP>
-39.0456

> <Gold.PLP.part.hbond>
-3.0000

> <Gold.PLP.part.metal>
0.0000

> <Gold.PLP.part.buried>
-1.0427

> <Gold.PLP.part.nonpolar>
-34.7635

> <Gold.PLP.part.repulsive>
0.2476

> <Gold.PLP.ligand.clash>
0.0000

> <Gold.PLP.ligand.torsion>
0.6524

> <Gold.PLP.Chemscore.Hbond>
2.7360

> <Gold.PLP.Chemscore.CHOScore>
0.0000

> <Gold.PLP.Chemscore.Metal>
0.0000

> <Gold.Chemscore.Hbonds>
donor molecule, donor type, donor heavy atom, donor atom, acceptor molecule, acceptor atom, score
      L1  H     8    29       P1  8028  0.86
      L1  H    11    30       P1  8028  0.82
      L1  H    17    35       P1 10175  0.73

> <Gold.PLP.Chemscore.Internal.Correction>
0.0137

> <Gold.Rescore>
     Score         DG    S(hbond)    S(metal)    S(lipo)     H(rot)  DE(clash)    DE(int)     intcor
     17.79     -22.40       2.69        0.00     106.77       1.78       1.30       3.32       ----

> <Gold.Chemscore.Fitness>
17.7857

> <Gold.Chemscore.DG>
-22.4010

> <Gold.Chemscore.ZeroCoef>
-5.4800

> <Gold.Chemscore.Hbond>
2.6936

> <Gold.Chemscore.Metal>
0.0000

> <Gold.Chemscore.Lipo>
106.7750

> <Gold.Chemscore.Internal_Hbond>
0.0000

> <Gold.Chemscore.DEClash>
1.2966

> <Gold.Chemscore.DEInternal>
3.3187

> <Gold.Chemscore.Rot>
1.7844

> <Gold.Chemscore.Internal.Correction>
   9.000000E+99

> <Gold.Chemscore.Hbonds>
donor molecule, donor type, donor heavy atom, donor atom, acceptor molecule, acceptor atom, score
      L1  H     8    29       P1  8028  0.84
      L1  H    11    30       P1  8028  0.75
      L1  H    17    35       P1 10175  0.69

> <Gold.Chemscore.Hbond.Weighted>
-8.9965

> <Gold.Chemscore.Metal.Weighted>
-0.0000

> <Gold.Chemscore.Lipo.Weighted>
-12.4927

> <Gold.Chemscore.Internal_Hbond.Weighted>
0.0000

> <Gold.Chemscore.DEClash.Weighted>
1.2966

> <Gold.Chemscore.DEInternal.Weighted>
3.3187

> <Gold.Chemscore.Rot.Weighted>
4.5681

> <Gold.Chemscore.Internal.Correction.Weighted>
   9.000000E+99

> <Gold.Protein.RotatedTorsions>
[ 6907 6896 6895 6894 ] final  -14.89 input  -60.11 | X-H torsion
[ 7974 7965 7964 7962 ] final   87.00 input  175.53 | X-H torsion
[ 8008 7997 7996 7995 ] final   83.38 input   59.86 | X-H torsion
[ 10167 10162 10161 10158 ] final   82.30 input  -65.29 | X-H torsion
[ 10718 10713 10712 10709 ] final    6.14 input   66.30 | X-H torsion
[ 10763 10752 10751 10750 ] final  -10.32 input  -60.55 | X-H torsion
[ 11005 11000 10999 10996 ] final -175.45 input  -57.11 | X-H torsion

> <Gold.Protein.ActiveResidues>
 VAL166  LYS551  ARG553  GLY616  TRP617  ASP618  TYR619  PRO620  LYS621  CYS622 
 ASP623  PHE694  ASN695  SER759  ASP760  ASP761  ALA762  ILE779  LEU786  VAL792 
 PHE793  MET794  SER795  GLU796  ALA797  LYS798  CYS799  TRP800  GLU811  SER814 

> <Gold.Protein.RotatedAtoms>
  151.3324  135.0845  159.9342 H   0  0  0  0  0  0  0  0  0  0  0  0  # atno 6907 bound_to 6896
  152.5231  133.9529  159.7691 H   0  0  0  0  0  0  0  0  0  0  0  0  # atno 6908 bound_to 6896
  150.9870  133.6134  159.2744 H   0  0  0  0  0  0  0  0  0  0  0  0  # atno 6909 bound_to 6896
  145.5648  139.2307  143.2439 H   0  0  0  0  0  0  0  0  0  0  0  0  # atno 7974 bound_to 7965
  155.9232  140.3420  155.6189 H   0  0  0  0  0  0  0  0  0  0  0  0  # atno 8008 bound_to 7997
  155.7248  140.0788  157.2333 H   0  0  0  0  0  0  0  0  0  0  0  0  # atno 8009 bound_to 7997
  154.4073  140.1599  156.2430 H   0  0  0  0  0  0  0  0  0  0  0  0  # atno 8010 bound_to 7997
  139.9302  144.6157  150.8352 H   0  0  0  0  0  0  0  0  0  0  0  0  # atno 10167 bound_to 10162
  156.9177  130.5779  149.5647 H   0  0  0  0  0  0  0  0  0  0  0  0  # atno 10718 bound_to 10713
  153.4675  135.7016  153.6013 H   0  0  0  0  0  0  0  0  0  0  0  0  # atno 10763 bound_to 10752
  153.4281  135.3809  155.2153 H   0  0  0  0  0  0  0  0  0  0  0  0  # atno 10764 bound_to 10752
  154.8726  135.3944  154.4109 H   0  0  0  0  0  0  0  0  0  0  0  0  # atno 10765 bound_to 10752
  140.4631  134.6236  157.4851 H   0  0  0  0  0  0  0  0  0  0  0  0  # atno 11005 bound_to 11000
  146.1826  140.6474  142.9182 LP  0  0  0  0  0  0  0  0  0  0  0  0  # atno 17320 bound_to 7965
  144.7465  140.5082  143.6832 LP  0  0  0  0  0  0  0  0  0  0  0  0  # atno 17321 bound_to 7965
  140.7639  143.3235  151.2567 LP  0  0  0  0  0  0  0  0  0  0  0  0  # atno 17342 bound_to 10162
  139.6788  143.9890  152.2797 LP  0  0  0  0  0  0  0  0  0  0  0  0  # atno 17343 bound_to 10162
  156.0506  130.5575  150.8979 LP  0  0  0  0  0  0  0  0  0  0  0  0  # atno 17370 bound_to 10713
  157.5927  131.0944  150.9092 LP  0  0  0  0  0  0  0  0  0  0  0  0  # atno 17371 bound_to 10713
  139.9932  134.6952  155.9653 LP  0  0  0  0  0  0  0  0  0  0  0  0  # atno 17394 bound_to 11000
  141.1612  133.6539  156.4325 LP  0  0  0  0  0  0  0  0  0  0  0  0  # atno 17395 bound_to 11000

$$$$
