AV-unprocessed.smi:2541|AV-procd|sdf|9990|dock7
  -GOLD-   2272014 43D 1   1.00000     0.00000
 Structure written by MMmdl.
 38 39  0  0  0  0  0  0  0  0  1 V2000
  150.4249  140.1175  154.7607 O   0  0  0  0  0  0  0  0  0  0  0  0
  149.6438  141.0656  154.8402 C   0  0  0  0  0  0  0  0  0  0  0  0
  148.3847  141.0955  153.9722 C   0  0  0  0  0  0  0  0  0  0  0  0
  147.2716  141.8103  154.6920 C   0  0  0  0  0  0  0  0  0  0  0  0
  146.5182  142.9371  154.2587 C   0  0  0  0  0  0  0  0  0  0  0  0
  145.6609  143.1661  155.2960 C   0  0  0  0  0  0  0  0  0  0  0  0
  145.8596  142.2597  156.2857 O   0  0  0  0  0  0  0  0  0  0  0  0
  146.8878  141.3966  155.8905 N   0  0  0  0  0  0  0  0  0  0  0  0
  149.8323  142.1114  155.6608 N   0  0  0  0  0  0  0  0  0  0  0  0
  150.9913  142.3087  156.5243 C   0  0  0  0  0  0  0  0  0  0  0  0
  150.7790  143.4819  157.5054 C   0  0  1  0  0  0  0  0  0  0  0  0
  149.4343  143.4650  157.9469 O   0  0  0  0  0  0  0  0  0  0  0  0
  151.7292  143.4328  158.7280 C   0  0  0  0  0  0  0  0  0  0  0  0
  151.9261  142.0132  159.3118 C   0  0  0  0  0  0  0  0  0  0  0  0
  152.9009  142.0173  160.5006 C   0  0  0  0  0  0  0  0  0  0  0  0
  152.4473  142.9981  161.5922 C   0  0  0  0  0  0  0  0  0  0  0  0
  152.2699  144.4129  161.0214 C   0  0  0  0  0  0  0  0  0  0  0  0
  151.2909  144.4161  159.8361 C   0  0  0  0  0  0  0  0  0  0  0  0
  148.6055  141.5968  153.0292 H   0  0  0  0  0  0  0  0  0  0  0  0
  148.0988  140.0732  153.7196 H   0  0  0  0  0  0  0  0  0  0  0  0
  146.5988  143.4914  153.3356 H   0  0  0  0  0  0  0  0  0  0  0  0
  144.8876  143.8991  155.4720 H   0  0  0  0  0  0  0  0  0  0  0  0
  149.1402  142.8469  155.6567 H   0  0  0  0  0  0  0  0  0  0  0  0
  151.1894  141.3812  157.0622 H   0  0  0  0  0  0  0  0  0  0  0  0
  151.8673  142.4922  155.8998 H   0  0  0  0  0  0  0  0  0  0  0  0
  150.9505  144.4238  156.9824 H   0  0  0  0  0  0  0  0  0  0  0  0
  148.8844  143.7732  157.2430 H   0  0  0  0  0  0  0  0  0  0  0  0
  152.7050  143.7741  158.3787 H   0  0  0  0  0  0  0  0  0  0  0  0
  150.9686  141.6049  159.6373 H   0  0  0  0  0  0  0  0  0  0  0  0
  152.3055  141.3363  158.5466 H   0  0  0  0  0  0  0  0  0  0  0  0
  152.9839  141.0125  160.9156 H   0  0  0  0  0  0  0  0  0  0  0  0
  153.8982  142.2913  160.1545 H   0  0  0  0  0  0  0  0  0  0  0  0
  151.5057  142.6560  162.0238 H   0  0  0  0  0  0  0  0  0  0  0  0
  153.1739  143.0126  162.4049 H   0  0  0  0  0  0  0  0  0  0  0  0
  151.9114  145.0856  161.8009 H   0  0  0  0  0  0  0  0  0  0  0  0
  153.2368  144.8013  160.6989 H   0  0  0  0  0  0  0  0  0  0  0  0
  151.2168  145.4259  159.4311 H   0  0  0  0  0  0  0  0  0  0  0  0
  150.2948  144.1551  160.1953 H   0  0  0  0  0  0  0  0  0  0  0  0
  1  2  2  0  0  0  0
  2  3  1  0  0  0  0
  2  9  1  0  0  0  0
  3  4  1  0  0  0  0
  3 19  1  0  0  0  0
  3 20  1  0  0  0  0
  4  8  2  0  0  0  0
  4  5  1  0  0  0  0
  5  6  2  0  0  0  0
  5 21  1  0  0  0  0
  6  7  1  0  0  0  0
  6 22  1  0  0  0  0
  7  8  1  0  0  0  0
  9 10  1  0  0  0  0
  9 23  1  0  0  0  0
 10 11  1  0  0  0  0
 10 24  1  0  0  0  0
 10 25  1  0  0  0  0
 11 12  1  0  0  0  0
 11 13  1  0  0  0  0
 11 26  1  0  0  0  0
 12 27  1  0  0  0  0
 13 18  1  0  0  0  0
 13 14  1  0  0  0  0
 13 28  1  0  0  0  0
 14 15  1  0  0  0  0
 14 29  1  0  0  0  0
 14 30  1  0  0  0  0
 15 16  1  0  0  0  0
 15 31  1  0  0  0  0
 15 32  1  0  0  0  0
 16 17  1  0  0  0  0
 16 33  1  0  0  0  0
 16 34  1  0  0  0  0
 17 18  1  0  0  0  0
 17 35  1  0  0  0  0
 17 36  1  0  0  0  0
 18 37  1  0  0  0  0
 18 38  1  0  0  0  0
M  END
> <s_m_source_file>
AV-unprocessed.smi

> <i_m_source_file_index>
2541

> <i_lp_mmshare_version>
43012

> <i_f3d_flags>
0

> <s_epik_input>
bjFvW2NIXVtjSF1jMVtDSDJdQyg9TylbTkhdW0NIMl1bQ0BIXShbT0hdKVtDSF0yW0NIMl1bQ0gyXVtDSDJdW0NIMl1bQ0gyXTI=

> <s_epik_cmdline>
J2VwaWtfcHl0aG9uJywgJy1waCcsICc3LjAnLCAnLXRuJywgJzgnLCAnLW1hJywgJzIwMCcsICctbWV0YWxfYmluZGluZycsICctaW1hZScsICc8aW5maWxlLm1hZT4nLCAnLW9tYWUnLCAnPG91dGZpbGUubWFlPic=

> <r_lp_tautomer_probability>
1

> <r_epik_Ionization_Penalty>
2.3322e-07

> <r_epik_Ionization_Penalty_Charging>
0

> <r_epik_Ionization_Penalty_Neutral>
2.3322e-07

> <r_epik_State_Penalty>
-0

> <r_epik_Charging_Adjusted_Penalty>
0

> <i_epik_Tot_Q>
0

> <i_epik_Tot_abs_Q>
0

> <r_epik_Metal_State_Penalty>
-0

> <b_epik_Metal_Only>
0

> <s_lp_Force_Field>
OPLS_2005

> <r_lp_Energy>
13.2063

> <b_lp_Chiralities_Consistent>
1

> <s_lp_Variant>
AV-unprocessed.smi:2541-2

> <Gold.Version>
5.8.1

> <Gold.Id.Protein>
6NUR|6NUR_protein|mol2

> <Gold.PLP.Fitness>
47.3788

> <Gold.PLP.PLP>
-41.2931

> <Gold.PLP.part.hbond>
-4.0000

> <Gold.PLP.part.metal>
0.0000

> <Gold.PLP.part.buried>
-1.1018

> <Gold.PLP.part.nonpolar>
-35.8880

> <Gold.PLP.part.repulsive>
0.4147

> <Gold.PLP.ligand.clash>
0.0000

> <Gold.PLP.ligand.torsion>
0.8988

> <Gold.PLP.Chemscore.Hbond>
2.6144

> <Gold.PLP.Chemscore.CHOScore>
0.0000

> <Gold.PLP.Chemscore.Metal>
0.0000

> <Gold.Chemscore.Hbonds>
donor molecule, donor type, donor heavy atom, donor atom, acceptor molecule, acceptor atom, score
      L1  H     9    23       P1  8028  0.90
      L1  H    12    27       P1  8028  0.75
      P1  H  7989  7998       L1     1  0.90

> <Gold.PLP.Chemscore.Internal.Correction>
0.0400

> <Gold.Rescore>
     Score         DG    S(hbond)    S(metal)    S(lipo)     H(rot)  DE(clash)    DE(int)     intcor
     16.18     -17.79       1.82        0.00     106.19       2.42       0.80       0.80       ----

> <Gold.Chemscore.Fitness>
16.1835

> <Gold.Chemscore.DG>
-17.7864

> <Gold.Chemscore.ZeroCoef>
-5.4800

> <Gold.Chemscore.Hbond>
1.8173

> <Gold.Chemscore.Metal>
0.0000

> <Gold.Chemscore.Lipo>
106.1934

> <Gold.Chemscore.Internal_Hbond>
0.0000

> <Gold.Chemscore.DEClash>
0.8026

> <Gold.Chemscore.DEInternal>
0.8003

> <Gold.Chemscore.Rot>
2.4172

> <Gold.Chemscore.Internal.Correction>
   9.000000E+99

> <Gold.Chemscore.Hbonds>
donor molecule, donor type, donor heavy atom, donor atom, acceptor molecule, acceptor atom, score
      L1  H     9    23       P1  8028  0.88
      L1  H    12    27       P1  8028  0.13
      P1  H  7989  7998       L1     1  0.18

> <Gold.Chemscore.Hbond.Weighted>
-6.0698

> <Gold.Chemscore.Metal.Weighted>
-0.0000

> <Gold.Chemscore.Lipo.Weighted>
-12.4246

> <Gold.Chemscore.Internal_Hbond.Weighted>
0.0000

> <Gold.Chemscore.DEClash.Weighted>
0.8026

> <Gold.Chemscore.DEInternal.Weighted>
0.8003

> <Gold.Chemscore.Rot.Weighted>
6.1880

> <Gold.Chemscore.Internal.Correction.Weighted>
   9.000000E+99

> <Gold.Protein.RotatedTorsions>
[ 6907 6896 6895 6894 ] final  -38.48 input  -60.11 | X-H torsion
[ 7974 7965 7964 7962 ] final  101.46 input  175.53 | X-H torsion
[ 8008 7997 7996 7995 ] final   44.36 input   59.86 | X-H torsion
[ 10167 10162 10161 10158 ] final -114.02 input  -65.29 | X-H torsion
[ 10718 10713 10712 10709 ] final -163.82 input   66.30 | X-H torsion
[ 10763 10752 10751 10750 ] final  -17.23 input  -60.55 | X-H torsion
[ 11005 11000 10999 10996 ] final   86.52 input  -57.11 | X-H torsion

> <Gold.Protein.ActiveResidues>
 VAL166  LYS551  ARG553  GLY616  TRP617  ASP618  TYR619  PRO620  LYS621  CYS622 
 ASP623  PHE694  ASN695  SER759  ASP760  ASP761  ALA762  ILE779  LEU786  VAL792 
 PHE793  MET794  SER795  GLU796  ALA797  LYS798  CYS799  TRP800  GLU811  SER814 

> <Gold.Protein.RotatedAtoms>
  151.0019  134.9329  159.7958 H   0  0  0  0  0  0  0  0  0  0  0  0  # atno 6907 bound_to 6896
  152.5280  134.3142  159.9135 H   0  0  0  0  0  0  0  0  0  0  0  0  # atno 6908 bound_to 6896
  151.3148  133.4023  159.2684 H   0  0  0  0  0  0  0  0  0  0  0  0  # atno 6909 bound_to 6896
  145.3720  139.2396  143.3450 H   0  0  0  0  0  0  0  0  0  0  0  0  # atno 7974 bound_to 7965
  155.3181  140.3395  155.4242 H   0  0  0  0  0  0  0  0  0  0  0  0  # atno 8008 bound_to 7997
  156.1923  140.1702  156.8106 H   0  0  0  0  0  0  0  0  0  0  0  0  # atno 8009 bound_to 7997
  154.5456  140.0716  156.8567 H   0  0  0  0  0  0  0  0  0  0  0  0  # atno 8010 bound_to 7997
  140.1055  143.4574  152.1785 H   0  0  0  0  0  0  0  0  0  0  0  0  # atno 10167 bound_to 10162
  156.6301  130.8926  151.2976 H   0  0  0  0  0  0  0  0  0  0  0  0  # atno 10718 bound_to 10713
  153.5707  135.7007  153.5506 H   0  0  0  0  0  0  0  0  0  0  0  0  # atno 10763 bound_to 10752
  153.3347  135.4037  155.1524 H   0  0  0  0  0  0  0  0  0  0  0  0  # atno 10764 bound_to 10752
  154.8633  135.3727  154.5229 H   0  0  0  0  0  0  0  0  0  0  0  0  # atno 10765 bound_to 10752
  139.8942  134.8361  156.2732 H   0  0  0  0  0  0  0  0  0  0  0  0  # atno 11005 bound_to 11000
  146.2881  140.4373  142.8750 LP  0  0  0  0  0  0  0  0  0  0  0  0  # atno 17320 bound_to 7965
  144.8569  140.7083  143.6132 LP  0  0  0  0  0  0  0  0  0  0  0  0  # atno 17321 bound_to 7965
  139.5647  144.7428  151.4055 LP  0  0  0  0  0  0  0  0  0  0  0  0  # atno 17342 bound_to 10162
  140.6954  143.7761  150.7319 LP  0  0  0  0  0  0  0  0  0  0  0  0  # atno 17343 bound_to 10162
  157.7202  130.9549  150.1410 LP  0  0  0  0  0  0  0  0  0  0  0  0  # atno 17370 bound_to 10713
  156.2241  130.3676  149.8521 LP  0  0  0  0  0  0  0  0  0  0  0  0  # atno 17371 bound_to 10713
  141.0087  133.7108  156.1076 LP  0  0  0  0  0  0  0  0  0  0  0  0  # atno 17394 bound_to 11000
  140.7398  134.4163  157.5556 LP  0  0  0  0  0  0  0  0  0  0  0  0  # atno 17395 bound_to 11000

$$$$
