AV-unprocessed.smi:1620|AV-procd|sdf|6491|dock10
  -GOLD-   22720 7153D 1   1.00000     0.00000
 Structure written by MMmdl.
 40 40  0  0  0  0  0  0  0  0  1 V2000
  145.5223  133.4111  162.5202 C   0  0  0  0  0  0  0  0  0  0  0  0
  146.7168  133.6273  161.5736 C   0  0  0  0  0  0  0  0  0  0  0  0
  147.7539  132.5099  161.7949 C   0  0  0  0  0  0  0  0  0  0  0  0
  147.3273  135.0523  161.7119 C   0  0  2  0  0  0  0  0  0  0  0  0
  147.6922  135.4511  163.1581 C   0  0  0  0  0  0  0  0  0  0  0  0
  146.4712  136.0925  161.0848 N   0  0  0  0  0  0  0  0  0  0  0  0
  145.1888  136.3512  161.7538 C   0  0  0  0  0  0  0  0  0  0  0  0
  146.8261  136.8875  160.0402 C   0  0  0  0  0  0  0  0  0  0  0  0
  146.1969  137.9034  159.7388 O   0  0  0  0  0  0  0  0  0  0  0  0
  147.8610  136.4259  159.3116 N   0  0  0  0  0  0  0  0  0  0  0  0
  148.4569  137.0200  158.1706 C   0  0  0  0  0  0  0  0  0  0  0  0
  148.0853  138.2774  157.6281 C   0  0  0  0  0  0  0  0  0  0  0  0
  148.8129  138.5736  156.5619 N   0  0  0  0  0  0  0  0  0  0  0  0
  149.6518  137.5186  156.4044 N   0  0  0  0  0  0  0  0  0  0  0  0
  150.6018  137.5116  155.3066 C   0  0  0  0  0  0  0  0  0  0  0  0
  150.3684  138.6959  154.3672 C   0  0  0  0  0  0  0  0  0  0  0  0
  149.7610  138.4414  153.2052 N   0  0  0  0  0  0  0  0  0  0  0  0
  150.7315  139.8257  154.6872 O   0  0  0  0  0  0  0  0  0  0  0  0
  149.4593  136.5501  157.3701 C   0  0  0  0  0  0  0  0  0  0  0  0
  145.8097  133.5573  163.5619 H   0  0  0  0  0  0  0  0  0  0  0  0
  145.1259  132.3996  162.4261 H   0  0  0  0  0  0  0  0  0  0  0  0
  144.7011  134.0921  162.2987 H   0  0  0  0  0  0  0  0  0  0  0  0
  146.3379  133.5124  160.5578 H   0  0  0  0  0  0  0  0  0  0  0  0
  148.1999  132.5745  162.7878 H   0  0  0  0  0  0  0  0  0  0  0  0
  148.5596  132.5521  161.0622 H   0  0  0  0  0  0  0  0  0  0  0  0
  147.2946  131.5253  161.7027 H   0  0  0  0  0  0  0  0  0  0  0  0
  148.2936  135.0128  161.2093 H   0  0  0  0  0  0  0  0  0  0  0  0
  148.5057  134.8393  163.5469 H   0  0  0  0  0  0  0  0  0  0  0  0
  146.8494  135.3433  163.8407 H   0  0  0  0  0  0  0  0  0  0  0  0
  148.0285  136.4874  163.2045 H   0  0  0  0  0  0  0  0  0  0  0  0
  144.3850  136.4904  161.0289 H   0  0  0  0  0  0  0  0  0  0  0  0
  145.2548  137.2524  162.3647 H   0  0  0  0  0  0  0  0  0  0  0  0
  144.8809  135.5317  162.4019 H   0  0  0  0  0  0  0  0  0  0  0  0
  148.2698  135.5545  159.6166 H   0  0  0  0  0  0  0  0  0  0  0  0
  147.3292  138.9710  157.9652 H   0  0  0  0  0  0  0  0  0  0  0  0
  151.6192  137.5340  155.7010 H   0  0  0  0  0  0  0  0  0  0  0  0
  150.4930  136.5759  154.7565 H   0  0  0  0  0  0  0  0  0  0  0  0
  149.5784  139.1941  152.5573 H   0  0  0  0  0  0  0  0  0  0  0  0
  149.4787  137.4979  152.9825 H   0  0  0  0  0  0  0  0  0  0  0  0
  150.0409  135.6404  157.3913 H   0  0  0  0  0  0  0  0  0  0  0  0
  1  2  1  0  0  0  0
  1 20  1  0  0  0  0
  1 21  1  0  0  0  0
  1 22  1  0  0  0  0
  2  3  1  0  0  0  0
  2  4  1  0  0  0  0
  2 23  1  0  0  0  0
  3 24  1  0  0  0  0
  3 25  1  0  0  0  0
  3 26  1  0  0  0  0
  4  5  1  0  0  0  0
  4  6  1  0  0  0  0
  4 27  1  0  0  0  0
  5 28  1  0  0  0  0
  5 29  1  0  0  0  0
  5 30  1  0  0  0  0
  6  7  1  0  0  0  0
  6  8  1  0  0  0  0
  7 31  1  0  0  0  0
  7 32  1  0  0  0  0
  7 33  1  0  0  0  0
  8  9  2  0  0  0  0
  8 10  1  0  0  0  0
 10 11  1  0  0  0  0
 10 34  1  0  0  0  0
 11 19  2  0  0  0  0
 11 12  1  0  0  0  0
 12 13  2  0  0  0  0
 12 35  1  0  0  0  0
 13 14  1  0  0  0  0
 14 15  1  0  0  0  0
 14 19  1  0  0  0  0
 15 16  1  0  0  0  0
 15 36  1  0  0  0  0
 15 37  1  0  0  0  0
 16 17  1  0  0  0  0
 16 18  2  0  0  0  0
 17 38  1  0  0  0  0
 17 39  1  0  0  0  0
 19 40  1  0  0  0  0
M  END
> <s_m_source_file>
AV-unprocessed.smi

> <i_m_source_file_index>
1620

> <i_lp_mmshare_version>
43012

> <i_f3d_flags>
0

> <s_epik_input>
W0NIM11bQ0hdKFtDSDNdKVtDQEhdKFtDSDNdKU4oW0NIM10pQyg9TylbTkhdYzFbY0hdbm4oW2NIXTEpW0NIMl1DKD1PKVtOSDJd

> <s_epik_cmdline>
J2VwaWtfcHl0aG9uJywgJy1waCcsICc3LjAnLCAnLXRuJywgJzgnLCAnLW1hJywgJzIwMCcsICctbWV0YWxfYmluZGluZycsICctaW1hZScsICc8aW5maWxlLm1hZT4nLCAnLW9tYWUnLCAnPG91dGZpbGUubWFlPic=

> <r_lp_tautomer_probability>
1

> <r_epik_Ionization_Penalty>
4.85642e-05

> <r_epik_Ionization_Penalty_Charging>
0

> <r_epik_Ionization_Penalty_Neutral>
4.85642e-05

> <r_epik_State_Penalty>
-0

> <r_epik_Charging_Adjusted_Penalty>
0

> <i_epik_Tot_Q>
0

> <i_epik_Tot_abs_Q>
0

> <r_epik_Metal_State_Penalty>
-0

> <b_epik_Metal_Only>
0

> <s_lp_Force_Field>
OPLS_2005

> <r_lp_Energy>
32.3257

> <b_lp_Chiralities_Consistent>
1

> <s_lp_Variant>
AV-unprocessed.smi:1620-1

> <Gold.Version>
5.8.1

> <Gold.Id.Protein>
6NUR|6NUR_protein|mol2

> <Gold.PLP.Fitness>
38.6109

> <Gold.PLP.PLP>
-27.8750

> <Gold.PLP.part.hbond>
-3.9773

> <Gold.PLP.part.metal>
0.0000

> <Gold.PLP.part.buried>
-4.3835

> <Gold.PLP.part.nonpolar>
-18.6750

> <Gold.PLP.part.repulsive>
0.2980

> <Gold.PLP.ligand.clash>
0.0000

> <Gold.PLP.ligand.torsion>
0.5957

> <Gold.PLP.Chemscore.Hbond>
3.8960

> <Gold.PLP.Chemscore.CHOScore>
0.0000

> <Gold.PLP.Chemscore.Metal>
0.0000

> <Gold.Chemscore.Hbonds>
donor molecule, donor type, donor heavy atom, donor atom, acceptor molecule, acceptor atom, score
      L1  H    17    38       P1  7957  1.00
      L1  H    17    39       P1  7948  1.00
      P1  H  6934  6947       L1     9  0.67
      P1  H  7989  7998       L1    18  1.00

> <Gold.PLP.Chemscore.Internal.Correction>
0.2392

> <Gold.Rescore>
     Score         DG    S(hbond)    S(metal)    S(lipo)     H(rot)  DE(clash)    DE(int)     intcor
     15.70     -18.87       3.74        0.00      53.67       2.10       0.07       3.10       ----

> <Gold.Chemscore.Fitness>
15.7047

> <Gold.Chemscore.DG>
-18.8736

> <Gold.Chemscore.ZeroCoef>
-5.4800

> <Gold.Chemscore.Hbond>
3.7427

> <Gold.Chemscore.Metal>
0.0000

> <Gold.Chemscore.Lipo>
53.6674

> <Gold.Chemscore.Internal_Hbond>
0.0000

> <Gold.Chemscore.DEClash>
0.0727

> <Gold.Chemscore.DEInternal>
3.0961

> <Gold.Chemscore.Rot>
2.1039

> <Gold.Chemscore.Internal.Correction>
   9.000000E+99

> <Gold.Chemscore.Hbonds>
donor molecule, donor type, donor heavy atom, donor atom, acceptor molecule, acceptor atom, score
      L1  H    17    38       P1  7957  0.95
      L1  H    17    39       P1  7948  0.82
      P1  H  6934  6947       L1     9  0.08
      P1  H  7989  7998       L1    18  0.98

> <Gold.Chemscore.Hbond.Weighted>
-12.5005

> <Gold.Chemscore.Metal.Weighted>
-0.0000

> <Gold.Chemscore.Lipo.Weighted>
-6.2791

> <Gold.Chemscore.Internal_Hbond.Weighted>
0.0000

> <Gold.Chemscore.DEClash.Weighted>
0.0727

> <Gold.Chemscore.DEInternal.Weighted>
3.0961

> <Gold.Chemscore.Rot.Weighted>
5.3860

> <Gold.Chemscore.Internal.Correction.Weighted>
   9.000000E+99

> <Gold.Protein.RotatedTorsions>
[ 6907 6896 6895 6894 ] final  144.33 input  -60.11 | X-H torsion
[ 7974 7965 7964 7962 ] final  -89.14 input  175.53 | X-H torsion
[ 8008 7997 7996 7995 ] final  158.84 input   59.86 | X-H torsion
[ 10167 10162 10161 10158 ] final   93.78 input  -65.29 | X-H torsion
[ 10718 10713 10712 10709 ] final  155.32 input   66.30 | X-H torsion
[ 10763 10752 10751 10750 ] final   40.87 input  -60.55 | X-H torsion
[ 11005 11000 10999 10996 ] final  -21.24 input  -57.11 | X-H torsion

> <Gold.Protein.ActiveResidues>
 VAL166  LYS551  ARG553  GLY616  TRP617  ASP618  TYR619  PRO620  LYS621  CYS622 
 ASP623  PHE694  ASN695  SER759  ASP760  ASP761  ALA762  ILE779  LEU786  VAL792 
 PHE793  MET794  SER795  GLU796  ALA797  LYS798  CYS799  TRP800  GLU811  SER814 

> <Gold.Protein.RotatedAtoms>
  152.1950  133.4800  159.5027 H   0  0  0  0  0  0  0  0  0  0  0  0  # atno 6907 bound_to 6896
  150.6958  134.1664  159.4204 H   0  0  0  0  0  0  0  0  0  0  0  0  # atno 6908 bound_to 6896
  151.9579  135.0137  160.0596 H   0  0  0  0  0  0  0  0  0  0  0  0  # atno 6909 bound_to 6896
  145.4437  140.9559  143.2061 H   0  0  0  0  0  0  0  0  0  0  0  0  # atno 7974 bound_to 7965
  156.2277  140.1847  156.7322 H   0  0  0  0  0  0  0  0  0  0  0  0  # atno 8008 bound_to 7997
  154.5969  140.0642  156.9343 H   0  0  0  0  0  0  0  0  0  0  0  0  # atno 8009 bound_to 7997
  155.2241  140.3309  155.4314 H   0  0  0  0  0  0  0  0  0  0  0  0  # atno 8010 bound_to 7997
  139.8147  144.6758  150.9595 H   0  0  0  0  0  0  0  0  0  0  0  0  # atno 10167 bound_to 10162
  157.2199  131.0716  151.1918 H   0  0  0  0  0  0  0  0  0  0  0  0  # atno 10718 bound_to 10713
  152.9924  135.6178  154.2695 H   0  0  0  0  0  0  0  0  0  0  0  0  # atno 10763 bound_to 10752
  154.2429  135.2788  155.2848 H   0  0  0  0  0  0  0  0  0  0  0  0  # atno 10764 bound_to 10752
  154.5354  135.5776  153.6852 H   0  0  0  0  0  0  0  0  0  0  0  0  # atno 10765 bound_to 10752
  140.8542  133.7835  156.0000 H   0  0  0  0  0  0  0  0  0  0  0  0  # atno 11005 bound_to 11000
  144.8105  139.5971  143.7031 LP  0  0  0  0  0  0  0  0  0  0  0  0  # atno 17320 bound_to 7965
  146.2542  139.6266  142.9406 LP  0  0  0  0  0  0  0  0  0  0  0  0  # atno 17321 bound_to 7965
  140.7816  143.4151  151.0931 LP  0  0  0  0  0  0  0  0  0  0  0  0  # atno 17342 bound_to 10162
  139.7815  143.8349  152.3138 LP  0  0  0  0  0  0  0  0  0  0  0  0  # atno 17343 bound_to 10162
  157.3586  130.7119  149.6487 LP  0  0  0  0  0  0  0  0  0  0  0  0  # atno 17370 bound_to 10713
  155.9683  130.4232  150.4551 LP  0  0  0  0  0  0  0  0  0  0  0  0  # atno 17371 bound_to 10713
  140.8756  134.2673  157.5169 LP  0  0  0  0  0  0  0  0  0  0  0  0  # atno 17394 bound_to 11000
  139.8705  134.9589  156.4316 LP  0  0  0  0  0  0  0  0  0  0  0  0  # atno 17395 bound_to 11000

$$$$
