AV-unprocessed.smi:290|AV-procd|sdf|2233|dock7
  -GOLD-   2262022 93D 1   1.00000     0.00000
 Structure written by MMmdl.
 59 62  0  0  0  0  0  0  0  0  2 V2000
  146.8490  141.7858  156.2556 C   0  0  0  0  0  0  0  0  0  0  0  0
  148.1857  141.0310  156.3426 C   0  0  2  0  0  0  0  0  0  0  0  0
  148.8684  141.4468  157.5213 O   0  0  0  0  0  0  0  0  0  0  0  0
  150.2613  141.3063  157.3103 C   0  0  0  0  0  0  0  0  0  0  0  0
  150.4216  141.7961  155.8788 C   0  0  0  0  0  0  0  0  0  0  0  0
  149.1852  141.2413  155.1685 C   0  0  2  0  0  0  0  0  0  0  0  0
  148.7338  142.2227  154.2510 O   0  0  0  0  0  0  0  0  0  0  0  0
  149.4462  139.9599  154.3259 C   0  0  0  0  0  0  0  0  0  0  0  0
  148.2936  139.0879  154.1358 N   0  0  0  0  0  0  0  0  0  0  0  0
  147.4983  138.9966  153.0140 C   0  0  0  0  0  0  0  0  0  0  0  0
  146.5226  138.1328  153.0879 N   0  0  0  0  0  0  0  0  0  0  0  0
  146.6699  137.5670  154.3480 C   0  0  0  0  0  0  0  0  0  0  0  0
  145.9672  136.5658  155.0757 C   0  0  0  0  0  0  0  0  0  0  0  0
  144.8843  135.9000  154.6189 N   0  0  0  0  0  0  0  0  0  0  0  0
  143.7628  136.7418  154.2288 C   0  0  0  0  0  0  0  0  0  0  0  0
  143.3817  136.3167  152.8157 C   0  0  0  0  0  0  0  0  0  0  0  0
  143.8798  134.8691  152.7014 C   0  0  1  0  0  0  0  0  0  0  0  0
  144.0738  134.4853  151.2691 N   0  3  1  0  0  0  0  0  0  0  0  0
  145.1172  135.2504  150.5452 C   0  0  0  0  0  0  0  0  0  0  0  0
  144.2529  133.0188  151.0877 C   0  0  0  0  0  0  0  0  0  0  0  0
  144.1552  132.6067  149.6098 C   0  0  0  0  0  0  0  0  0  0  0  0
  142.8711  132.0856  149.3367 O   0  0  0  0  0  0  0  0  0  0  0  0
  145.1585  134.9151  153.5739 C   0  0  2  0  0  0  0  0  0  0  0  0
  145.5523  133.5765  154.2324 C   0  0  0  0  0  0  0  0  0  0  0  0
  146.4145  136.2439  156.3132 N   0  0  0  0  0  0  0  0  0  0  0  0
  147.4876  136.8619  156.8151 C   0  0  0  0  0  0  0  0  0  0  0  0
  148.2406  137.8123  156.2569 N   0  0  0  0  0  0  0  0  0  0  0  0
  147.7876  138.1431  155.0134 C   0  0  0  0  0  0  0  0  0  0  0  0
  143.1559  134.1978  153.1677 H   0  0  0  0  0  0  0  0  0  0  0  0
  145.9901  135.2706  152.9635 H   0  0  0  0  0  0  0  0  0  0  0  0
  146.2882  141.4935  155.3675 H   0  0  0  0  0  0  0  0  0  0  0  0
  147.0007  142.8651  156.2219 H   0  0  0  0  0  0  0  0  0  0  0  0
  146.2267  141.5694  157.1239 H   0  0  0  0  0  0  0  0  0  0  0  0
  147.9625  139.9733  156.4633 H   0  0  0  0  0  0  0  0  0  0  0  0
  150.8377  141.8948  158.0239 H   0  0  0  0  0  0  0  0  0  0  0  0
  150.5505  140.2598  157.4136 H   0  0  0  0  0  0  0  0  0  0  0  0
  150.3976  142.8873  155.8912 H   0  0  0  0  0  0  0  0  0  0  0  0
  151.3669  141.5061  155.4240 H   0  0  0  0  0  0  0  0  0  0  0  0
  148.9873  143.0743  154.5729 H   0  0  0  0  0  0  0  0  0  0  0  0
  149.8273  140.2357  153.3414 H   0  0  0  0  0  0  0  0  0  0  0  0
  150.2322  139.3646  154.7935 H   0  0  0  0  0  0  0  0  0  0  0  0
  147.6628  139.5953  152.1297 H   0  0  0  0  0  0  0  0  0  0  0  0
  142.9401  136.5427  154.9164 H   0  0  0  0  0  0  0  0  0  0  0  0
  143.9802  137.8098  154.2807 H   0  0  0  0  0  0  0  0  0  0  0  0
  142.3125  136.4286  152.6360 H   0  0  0  0  0  0  0  0  0  0  0  0
  143.9075  136.9501  152.0991 H   0  0  0  0  0  0  0  0  0  0  0  0
  146.0861  135.1515  151.0360 H   0  0  0  0  0  0  0  0  0  0  0  0
  144.8565  136.3059  150.4756 H   0  0  0  0  0  0  0  0  0  0  0  0
  145.2290  134.8955  149.5212 H   0  0  0  0  0  0  0  0  0  0  0  0
  145.2179  132.7190  151.4992 H   0  0  0  0  0  0  0  0  0  0  0  0
  143.5113  132.4520  151.6502 H   0  0  0  0  0  0  0  0  0  0  0  0
  144.3605  133.4408  148.9393 H   0  0  0  0  0  0  0  0  0  0  0  0
  144.8920  131.8340  149.3887 H   0  0  0  0  0  0  0  0  0  0  0  0
  142.2419  132.7903  149.3761 H   0  0  0  0  0  0  0  0  0  0  0  0
  145.7966  132.7999  153.5122 H   0  0  0  0  0  0  0  0  0  0  0  0
  144.7465  133.1976  154.8619 H   0  0  0  0  0  0  0  0  0  0  0  0
  146.4306  133.6989  154.8668 H   0  0  0  0  0  0  0  0  0  0  0  0
  147.7849  136.5516  157.8061 H   0  0  0  0  0  0  0  0  0  0  0  0
  143.2004  134.7125  150.8144 H   0  0  0  0  0  0  0  0  0  0  0  0
  1  2  1  0  0  0  0
  1 31  1  0  0  0  0
  1 32  1  0  0  0  0
  1 33  1  0  0  0  0
  2  6  1  0  0  0  0
  2  3  1  0  0  0  0
  2 34  1  0  0  0  0
  3  4  1  0  0  0  0
  4  5  1  0  0  0  0
  4 35  1  0  0  0  0
  4 36  1  0  0  0  0
  5  6  1  0  0  0  0
  5 37  1  0  0  0  0
  5 38  1  0  0  0  0
  6  7  1  0  0  0  0
  6  8  1  0  0  0  0
  7 39  1  0  0  0  0
  8  9  1  0  0  0  0
  8 40  1  0  0  0  0
  8 41  1  0  0  0  0
  9 28  1  0  0  0  0
  9 10  1  0  0  0  0
 10 11  2  0  0  0  0
 10 42  1  0  0  0  0
 11 12  1  0  0  0  0
 12 28  2  0  0  0  0
 12 13  1  0  0  0  0
 13 14  1  0  0  0  0
 13 25  2  0  0  0  0
 14 23  1  0  0  0  0
 14 15  1  0  0  0  0
 15 16  1  0  0  0  0
 15 43  1  0  0  0  0
 15 44  1  0  0  0  0
 16 17  1  0  0  0  0
 16 45  1  0  0  0  0
 16 46  1  0  0  0  0
 17 29  1  0  0  0  0
 17 18  1  0  0  0  0
 17 23  1  0  0  0  0
 18 19  1  0  0  0  0
 18 20  1  0  0  0  0
 18 59  1  0  0  0  0
 19 47  1  0  0  0  0
 19 48  1  0  0  0  0
 19 49  1  0  0  0  0
 20 21  1  0  0  0  0
 20 50  1  0  0  0  0
 20 51  1  0  0  0  0
 21 22  1  0  0  0  0
 21 52  1  0  0  0  0
 21 53  1  0  0  0  0
 22 54  1  0  0  0  0
 23 30  1  0  0  0  0
 23 24  1  0  0  0  0
 24 55  1  0  0  0  0
 24 56  1  0  0  0  0
 24 57  1  0  0  0  0
 25 26  1  0  0  0  0
 26 27  2  0  0  0  0
 26 58  1  0  0  0  0
 27 28  1  0  0  0  0
M  CHG  1  18   1
M  END
> <s_m_source_file>
AV-unprocessed.smi

> <i_m_source_file_index>
290

> <i_lp_mmshare_version>
43012

> <i_f3d_flags>
0

> <s_epik_input>
W0NIMl0xW0NIMl1PW0NAQEhdKFtDSDNdKVtDQEBdMShbT0hdKVtDSDJdbihbY0hdbjIpYyhjMjMpbltjSF1uYzNONFtDSDJdW0NIMl1bQ0BIXShbQ0BIXTRbQ0gzXSlOKFtDSDNdKVtDSDJdW0NIMl1bT0hd

> <s_epik_cmdline>
J2VwaWtfcHl0aG9uJywgJy1waCcsICc3LjAnLCAnLXRuJywgJzgnLCAnLW1hJywgJzIwMCcsICctbWV0YWxfYmluZGluZycsICctaW1hZScsICc8aW5maWxlLm1hZT4nLCAnLW9tYWUnLCAnPG91dGZpbGUubWFlPic=

> <r_lp_tautomer_probability>
1

> <r_epik_Ionization_Penalty>
0.0036983

> <r_epik_Ionization_Penalty_Charging>
0.0032725

> <r_epik_Ionization_Penalty_Neutral>
0.000425798

> <r_epik_State_Penalty>
-0

> <r_epik_Charging_Adjusted_Penalty>
0.0032725

> <i_epik_Tot_Q>
1

> <i_epik_Tot_abs_Q>
1

> <r_epik_Metal_State_Penalty>
-0

> <b_epik_Metal_Only>
0

> <s_lp_Force_Field>
OPLS_2005

> <r_lp_Energy>
66.0364

> <b_lp_Chiralities_Consistent>
1

> <s_lp_Variant>
AV-unprocessed.smi:290-19

> <Gold.Version>
5.8.1

> <Gold.Id.Protein>
6NUR|6NUR_protein|mol2

> <Gold.PLP.Fitness>
45.0551

> <Gold.PLP.PLP>
-35.4571

> <Gold.PLP.part.hbond>
-4.9489

> <Gold.PLP.part.metal>
0.0000

> <Gold.PLP.part.buried>
-5.2399

> <Gold.PLP.part.nonpolar>
-25.8759

> <Gold.PLP.part.repulsive>
0.3502

> <Gold.PLP.ligand.clash>
0.0000

> <Gold.PLP.ligand.torsion>
1.3258

> <Gold.PLP.Chemscore.Hbond>
3.0236

> <Gold.PLP.Chemscore.CHOScore>
0.9593

> <Gold.PLP.Chemscore.Metal>
0.0000

> <Gold.Chemscore.Hbonds>
donor molecule, donor type, donor heavy atom, donor atom, acceptor molecule, acceptor atom, score
      L1  H     7    39       P1  8028  1.00
      L1  H    22    54       P1 10186  0.98
      P1  H  8011  8017       L1     7  0.11
      P1  H 10785 10796       L1    22  0.93
      L1  C    10    42       P1  7957  0.96

> <Gold.PLP.Chemscore.Internal.Correction>
0.3009

> <Gold.Rescore>
     Score         DG    S(hbond)    S(metal)    S(lipo)     H(rot)  DE(clash)    DE(int)     intcor
     11.06     -12.91       2.52        0.00      71.69       3.67       0.59       1.26       ----

> <Gold.Chemscore.Fitness>
11.0598

> <Gold.Chemscore.DG>
-12.9135

> <Gold.Chemscore.ZeroCoef>
-5.4800

> <Gold.Chemscore.Hbond>
2.5240

> <Gold.Chemscore.Metal>
0.0000

> <Gold.Chemscore.Lipo>
71.6893

> <Gold.Chemscore.Internal_Hbond>
0.0000

> <Gold.Chemscore.DEClash>
0.5924

> <Gold.Chemscore.DEInternal>
1.2613

> <Gold.Chemscore.Rot>
3.6658

> <Gold.Chemscore.Internal.Correction>
   9.000000E+99

> <Gold.Chemscore.Hbonds>
donor molecule, donor type, donor heavy atom, donor atom, acceptor molecule, acceptor atom, score
      L1  H     7    39       P1  8028  0.98
      L1  H    22    54       P1 10186  0.91
      P1  H  8011  8017       L1     7  0.01
      P1  H 10785 10796       L1    22  0.44

> <Gold.Chemscore.Hbond.Weighted>
-8.4303

> <Gold.Chemscore.Metal.Weighted>
-0.0000

> <Gold.Chemscore.Lipo.Weighted>
-8.3876

> <Gold.Chemscore.Internal_Hbond.Weighted>
0.0000

> <Gold.Chemscore.DEClash.Weighted>
0.5924

> <Gold.Chemscore.DEInternal.Weighted>
1.2613

> <Gold.Chemscore.Rot.Weighted>
9.3844

> <Gold.Chemscore.Internal.Correction.Weighted>
   9.000000E+99

> <Gold.Protein.RotatedTorsions>
[ 6907 6896 6895 6894 ] final   36.77 input  -60.11 | X-H torsion
[ 7974 7965 7964 7962 ] final  169.55 input  175.53 | X-H torsion
[ 8008 7997 7996 7995 ] final  -10.80 input   59.86 | X-H torsion
[ 10167 10162 10161 10158 ] final   78.72 input  -65.29 | X-H torsion
[ 10718 10713 10712 10709 ] final  -45.94 input   66.30 | X-H torsion
[ 10763 10752 10751 10750 ] final  -49.73 input  -60.55 | X-H torsion
[ 11005 11000 10999 10996 ] final   16.48 input  -57.11 | X-H torsion

> <Gold.Protein.ActiveResidues>
 VAL166  LYS551  ARG553  GLY616  TRP617  ASP618  TYR619  PRO620  LYS621  CYS622 
 ASP623  PHE694  ASN695  SER759  ASP760  ASP761  ALA762  ILE779  LEU786  VAL792 
 PHE793  MET794  SER795  GLU796  ALA797  LYS798  CYS799  TRP800  GLU811  SER814 

> <Gold.Protein.RotatedAtoms>
  152.1342  134.9111  160.0556 H   0  0  0  0  0  0  0  0  0  0  0  0  # atno 6907 bound_to 6896
  152.0204  133.3891  159.4264 H   0  0  0  0  0  0  0  0  0  0  0  0  # atno 6908 bound_to 6896
  150.6859  134.3554  159.4971 H   0  0  0  0  0  0  0  0  0  0  0  0  # atno 6909 bound_to 6896
  144.7351  139.9071  143.6413 H   0  0  0  0  0  0  0  0  0  0  0  0  # atno 7974 bound_to 7965
  154.5522  140.2319  155.8467 H   0  0  0  0  0  0  0  0  0  0  0  0  # atno 8008 bound_to 7997
  156.1956  140.3066  155.9382 H   0  0  0  0  0  0  0  0  0  0  0  0  # atno 8009 bound_to 7997
  155.3049  140.0433  157.3022 H   0  0  0  0  0  0  0  0  0  0  0  0  # atno 8010 bound_to 7997
  139.9679  144.5915  150.8012 H   0  0  0  0  0  0  0  0  0  0  0  0  # atno 10167 bound_to 10162
  156.2232  130.4167  149.8966 H   0  0  0  0  0  0  0  0  0  0  0  0  # atno 10718 bound_to 10713
  154.0989  135.6566  153.4865 H   0  0  0  0  0  0  0  0  0  0  0  0  # atno 10763 bound_to 10752
  153.0295  135.5220  154.7306 H   0  0  0  0  0  0  0  0  0  0  0  0  # atno 10764 bound_to 10752
  154.6452  135.2993  155.0024 H   0  0  0  0  0  0  0  0  0  0  0  0  # atno 10765 bound_to 10752
  140.4466  134.1267  155.7697 H   0  0  0  0  0  0  0  0  0  0  0  0  # atno 11005 bound_to 11000
  146.1029  139.4026  143.0336 LP  0  0  0  0  0  0  0  0  0  0  0  0  # atno 17320 bound_to 7965
  145.7553  140.9956  143.1229 LP  0  0  0  0  0  0  0  0  0  0  0  0  # atno 17321 bound_to 7965
  140.7531  143.3003  151.3097 LP  0  0  0  0  0  0  0  0  0  0  0  0  # atno 17342 bound_to 10162
  139.6503  144.0374  152.2621 LP  0  0  0  0  0  0  0  0  0  0  0  0  # atno 17343 bound_to 10162
  156.6605  130.8780  151.3546 LP  0  0  0  0  0  0  0  0  0  0  0  0  # atno 17370 bound_to 10713
  157.7098  130.9427  150.1050 LP  0  0  0  0  0  0  0  0  0  0  0  0  # atno 17371 bound_to 10713
  141.1682  133.8661  157.1650 LP  0  0  0  0  0  0  0  0  0  0  0  0  # atno 17394 bound_to 11000
  140.0034  135.0018  157.0240 LP  0  0  0  0  0  0  0  0  0  0  0  0  # atno 17395 bound_to 11000

$$$$
