#       Name:                AV-unprocessed.smi:2722
#       Creating user name   scv26
#       Creation time:       Fri Mar 27 14:54:55 2020


#       File generated by GOLD software.
#

@<TRIPOS>MOLECULE
AV-unprocessed.smi:2722
    35    35     1
SMALL
NO_CHARGES


@<TRIPOS>ATOM
      1 ****        -2.5571   0.6477   1.5608 C.3            1 S1                 0.0000
      2 ****        -1.4024  -0.3654   1.7320 C.3            1 S1                 0.0000
      3 ****        -1.4841  -0.8235   3.0701 O.3            1 S1                 0.0000
      4 ****         0.0024   0.2972   1.5750 C.3            1 S1                 0.0000
      5 ****         0.4477   0.5449   0.1881 N.am           1 S1                 0.0000
      6 ****         1.2440  -0.4464  -0.4221 C.2            1 S1                 0.0000
      7 ****         1.7277  -0.3357  -1.6737 C.2            1 S1                 0.0000
      8 ****         2.5343  -1.4527  -2.3171 C.3            1 S1                 0.0000
      9 ****         2.4572  -1.4002  -3.6472 F              1 S1                 0.0000
     10 ****         3.8164  -1.3422  -1.9714 F              1 S1                 0.0000
     11 ****         2.1000  -2.6490  -1.9190 F              1 S1                 0.0000
     12 ****         1.3663   0.8651  -2.4001 C.2            1 S1                 0.0000
     13 ****         0.6206   1.8302  -1.8282 C.2            1 S1                 0.0000
     14 ****         0.1377   1.7129  -0.4502 C.2            1 S1                 0.0000
     15 ****        -0.5002   2.6145   0.0938 O.2            1 S1                 0.0000
     16 ****        -1.5806  -1.5734   0.7806 C.2            1 S1                 0.0000
     17 ****        -2.3579  -1.4555  -0.1934 O.co2          1 S1                 0.0000
     18 ****        -0.9049  -2.5979   1.0271 O.co2          1 S1                -1.0000
     19 ****        -2.6024   1.0518   0.5495 H              1 S1                 0.0000
     20 ****        -2.4462   1.4919   2.2421 H              1 S1                 0.0000
     21 ****        -3.5248   0.1883   1.7682 H              1 S1                 0.0000
     22 ****        -1.3803  -0.0824   3.6459 H              1 S1                 0.0000
     23 ****         0.0386   1.2226   2.1525 H              1 S1                 0.0000
     24 ****         0.7475  -0.3370   2.0597 H              1 S1                 0.0000
     25 ****         1.4299  -1.3147   0.1935 H              1 S1                 0.0000
     26 ****         1.7005   0.9965  -3.4185 H              1 S1                 0.0000
     27 ****         0.3714   2.7131  -2.3982 H              1 S1                 0.0000
     28 ****        -0.7592  -1.4901   3.2437 LP             1 S1                 0.0000
     29 ****        -2.3745  -1.2509   3.2269 LP             1 S1                 0.0000
     30 ****        -0.8121   2.5070   1.0378 LP             1 S1                 0.0000
     31 ****        -0.7065   3.4543  -0.4084 LP             1 S1                 0.0000
     32 ****        -2.4704  -2.2119  -0.8378 LP             1 S1                 0.0000
     33 ****        -2.8665  -0.6049  -0.3271 LP             1 S1                 0.0000
     34 ****        -0.9666  -3.3943   0.4254 LP             1 S1                 0.0000
     35 ****        -0.3035  -2.6200   1.8257 LP             1 S1                 0.0000
@<TRIPOS>BOND
    1    1    2 1     
    2    1   19 1     
    3    1   20 1     
    4    1   21 1     
    5    2    3 1     
    6    2    4 1     
    7    2   16 1     
    8    3   22 1     
    9    4    5 1     
   10    4   23 1     
   11    4   24 1     
   12    5   14 am    
   13    5    6 1     
   14    6    7 2     
   15    6   25 1     
   16    7    8 1     
   17    7   12 1     
   18    8    9 1     
   19    8   10 1     
   20    8   11 1     
   21   12   13 2     
   22   12   26 1     
   23   13   14 1     
   24   13   27 1     
   25   14   15 2     
   26   16   17 ar    
   27   16   18 ar    
   28    3   28 1     
   29    3   29 1     
   30   15   30 1     
   31   15   31 1     
   32   17   32 1     
   33   17   33 1     
   34   18   34 1     
   35   18   35 1     
@<TRIPOS>SUBSTRUCTURE
      1 S1             1
@<TRIPOS>SET
LONE_PAIRS      STATIC     ATOMS    <user>   **** ""
8 28 29 30 31 32 33 34 35
DONOR_HYDROGENS      STATIC     ATOMS    <user>   **** ""
1 22
ATOM$BLUE        STATIC     ATOMS    COLORGROUP SYSTEM
8 28 29 30 31 32 33 34 35
ATOM$RED        STATIC     ATOMS    COLORGROUP SYSTEM
1 22
