AV-unprocessed.smi:1033|AV-procd|sdf|4505|dock3
  -GOLD-   22720 2503D 1   1.00000     0.00000
 Structure written by MMmdl.
 57 59  0  0  0  0  0  0  0  0  3 V2000
  151.8867  143.8158  160.1520 C   0  0  0  0  0  0  0  0  0  0  0  0
  151.7752  142.8038  159.0244 C   0  0  0  0  0  0  0  0  0  0  0  0
  150.9169  143.0946  157.9397 C   0  0  0  0  0  0  0  0  0  0  0  0
  150.8379  142.1507  156.9227 C   0  0  0  0  0  0  0  0  0  0  0  0
  150.0979  142.1403  155.7382 N   0  3  0  0  0  0  0  0  0  0  0  0
  150.3524  140.9911  155.0531 C   0  0  0  0  0  0  0  0  0  0  0  0
  151.2403  140.2654  155.7860 N   0  0  0  0  0  0  0  0  0  0  0  0
  151.8475  138.9569  155.5101 C   0  0  0  0  0  0  0  0  0  0  0  0
  150.8785  137.9849  154.8040 C   0  0  1  0  0  0  0  0  0  0  0  0
  151.5758  136.9440  154.1487 O   0  0  0  0  0  0  0  0  0  0  0  0
  149.7774  137.4046  155.7182 C   0  0  0  0  0  0  0  0  0  0  0  0
  149.0380  138.3599  156.5558 N   0  0  0  0  0  0  0  0  0  0  0  0
  147.6381  137.9782  156.7400 C   0  0  0  0  0  0  0  0  0  0  0  0
  147.4562  136.7529  157.6603 C   0  0  0  0  0  0  0  0  0  0  0  0
  148.0849  136.9968  158.9845 N   0  3  0  0  0  0  0  0  0  0  0  0
  147.8825  135.8639  159.9228 C   0  0  0  0  0  0  0  0  0  0  0  0
  146.8626  136.1790  161.0357 C   0  0  1  0  0  0  0  0  0  0  0  0
  146.9362  135.2006  162.2174 C   0  0  0  0  0  0  0  0  0  0  0  0
  147.1250  137.4778  161.5232 O   0  0  0  0  0  0  0  0  0  0  0  0
  149.5100  137.3925  158.8252 C   0  0  0  0  0  0  0  0  0  0  0  0
  149.6240  138.6020  157.8765 C   0  0  0  0  0  0  0  0  0  0  0  0
  151.5750  140.9513  156.9582 C   0  0  0  0  0  0  0  0  0  0  0  0
  152.4258  140.6490  158.0183 C   0  0  0  0  0  0  0  0  0  0  0  0
  152.5202  141.5964  159.0627 C   0  0  0  0  0  0  0  0  0  0  0  0
  153.4409  141.2950  160.2330 C   0  0  0  0  0  0  0  0  0  0  0  0
  151.2328  144.6725  159.9854 H   0  0  0  0  0  0  0  0  0  0  0  0
  152.9085  144.1873  160.2322 H   0  0  0  0  0  0  0  0  0  0  0  0
  151.6060  143.3641  161.1037 H   0  0  0  0  0  0  0  0  0  0  0  0
  150.3476  144.0120  157.9029 H   0  0  0  0  0  0  0  0  0  0  0  0
  149.9255  140.7065  154.1020 H   0  0  0  0  0  0  0  0  0  0  0  0
  152.7302  139.1365  154.8957 H   0  0  0  0  0  0  0  0  0  0  0  0
  152.2059  138.5368  156.4506 H   0  0  0  0  0  0  0  0  0  0  0  0
  150.3695  138.5295  154.0085 H   0  0  0  0  0  0  0  0  0  0  0  0
  151.2530  136.8792  153.2630 H   0  0  0  0  0  0  0  0  0  0  0  0
  149.0555  136.9223  155.0577 H   0  0  0  0  0  0  0  0  0  0  0  0
  150.1937  136.5972  156.3200 H   0  0  0  0  0  0  0  0  0  0  0  0
  147.0933  138.8226  157.1650 H   0  0  0  0  0  0  0  0  0  0  0  0
  147.1747  137.7862  155.7715 H   0  0  0  0  0  0  0  0  0  0  0  0
  146.3908  136.5616  157.7934 H   0  0  0  0  0  0  0  0  0  0  0  0
  147.8801  135.8562  157.2065 H   0  0  0  0  0  0  0  0  0  0  0  0
  147.5291  134.9935  159.3671 H   0  0  0  0  0  0  0  0  0  0  0  0
  148.8450  135.5807  160.3527 H   0  0  0  0  0  0  0  0  0  0  0  0
  145.8490  136.1912  160.6366 H   0  0  0  0  0  0  0  0  0  0  0  0
  146.7000  134.1835  161.9041 H   0  0  0  0  0  0  0  0  0  0  0  0
  146.2245  135.4742  162.9972 H   0  0  0  0  0  0  0  0  0  0  0  0
  147.9309  135.1884  162.6644 H   0  0  0  0  0  0  0  0  0  0  0  0
  146.6684  137.5940  162.3427 H   0  0  0  0  0  0  0  0  0  0  0  0
  149.9349  137.6655  159.7900 H   0  0  0  0  0  0  0  0  0  0  0  0
  150.0953  136.5503  158.4539 H   0  0  0  0  0  0  0  0  0  0  0  0
  150.6644  138.9091  157.7840 H   0  0  0  0  0  0  0  0  0  0  0  0
  149.1169  139.4522  158.3350 H   0  0  0  0  0  0  0  0  0  0  0  0
  152.9926  139.7300  158.0470 H   0  0  0  0  0  0  0  0  0  0  0  0
  153.9458  140.3367  160.1072 H   0  0  0  0  0  0  0  0  0  0  0  0
  152.8763  141.2541  161.1647 H   0  0  0  0  0  0  0  0  0  0  0  0
  154.2071  142.0650  160.3252 H   0  0  0  0  0  0  0  0  0  0  0  0
  147.6026  137.7909  159.3805 H   0  0  0  0  0  0  0  0  0  0  0  0
  149.4672  142.8638  155.4173 H   0  0  0  0  0  0  0  0  0  0  0  0
  1  2  1  0  0  0  0
  1 26  1  0  0  0  0
  1 27  1  0  0  0  0
  1 28  1  0  0  0  0
  2 24  1  0  0  0  0
  2  3  2  0  0  0  0
  3  4  1  0  0  0  0
  3 29  1  0  0  0  0
  4 22  2  0  0  0  0
  4  5  1  0  0  0  0
  5  6  2  0  0  0  0
  5 57  1  0  0  0  0
  6  7  1  0  0  0  0
  6 30  1  0  0  0  0
  7  8  1  0  0  0  0
  7 22  1  0  0  0  0
  8  9  1  0  0  0  0
  8 31  1  0  0  0  0
  8 32  1  0  0  0  0
  9 10  1  0  0  0  0
  9 11  1  0  0  0  0
  9 33  1  0  0  0  0
 10 34  1  0  0  0  0
 11 12  1  0  0  0  0
 11 35  1  0  0  0  0
 11 36  1  0  0  0  0
 12 21  1  0  0  0  0
 12 13  1  0  0  0  0
 13 14  1  0  0  0  0
 13 37  1  0  0  0  0
 13 38  1  0  0  0  0
 14 15  1  0  0  0  0
 14 39  1  0  0  0  0
 14 40  1  0  0  0  0
 15 16  1  0  0  0  0
 15 20  1  0  0  0  0
 15 56  1  0  0  0  0
 16 17  1  0  0  0  0
 16 41  1  0  0  0  0
 16 42  1  0  0  0  0
 17 18  1  0  0  0  0
 17 19  1  0  0  0  0
 17 43  1  0  0  0  0
 18 44  1  0  0  0  0
 18 45  1  0  0  0  0
 18 46  1  0  0  0  0
 19 47  1  0  0  0  0
 20 21  1  0  0  0  0
 20 48  1  0  0  0  0
 20 49  1  0  0  0  0
 21 50  1  0  0  0  0
 21 51  1  0  0  0  0
 22 23  1  0  0  0  0
 23 24  2  0  0  0  0
 23 52  1  0  0  0  0
 24 25  1  0  0  0  0
 25 53  1  0  0  0  0
 25 54  1  0  0  0  0
 25 55  1  0  0  0  0
M  CHG  1   5   1
M  CHG  1  15   1
M  END
> <s_m_source_file>
AV-unprocessed.smi

> <i_m_source_file_index>
1033

> <i_lp_mmshare_version>
43012

> <i_f3d_flags>
0

> <s_epik_input>
W0NIM11jKFtjSF0xKWMoW0NIM10pW2NIXWMoYzEyKW4oW2NIXW4yKVtDSDJdW0NASF0oW09IXSlbQ0gyXU4zW0NIMl1bQ0gyXU4oW0NIMl1bQ0gyXTMpW0NIMl1bQ0BIXShbQ0gzXSlbT0hd

> <s_epik_cmdline>
J2VwaWtfcHl0aG9uJywgJy1waCcsICc3LjAnLCAnLXRuJywgJzgnLCAnLW1hJywgJzIwMCcsICctbWV0YWxfYmluZGluZycsICctaW1hZScsICc8aW5maWxlLm1hZT4nLCAnLW9tYWUnLCAnPG91dGZpbGUubWFlPic=

> <r_epik_Ionization_Penalty>
1.28617

> <r_epik_Ionization_Penalty_Charging>
1.23646

> <r_epik_Ionization_Penalty_Neutral>
0.0497112

> <r_epik_State_Penalty>
1.79157

> <r_epik_Charging_Adjusted_Penalty>
3.02803

> <i_epik_Tot_Q>
2

> <i_epik_Tot_abs_Q>
2

> <r_epik_Metal_State_Penalty>
5.81739

> <b_epik_Metal_Only>
0

> <s_lp_Force_Field>
OPLS_2005

> <r_lp_Energy>
43.5011

> <b_lp_Chiralities_Consistent>
1

> <s_lp_Variant>
AV-unprocessed.smi:1033-16

> <Gold.Version>
5.8.1

> <Gold.Id.Protein>
6NUR|6NUR_protein|mol2

> <Gold.PLP.Fitness>
61.6015

> <Gold.PLP.PLP>
-47.9895

> <Gold.PLP.part.hbond>
-5.0000

> <Gold.PLP.part.metal>
0.0000

> <Gold.PLP.part.buried>
-5.1404

> <Gold.PLP.part.nonpolar>
-37.7681

> <Gold.PLP.part.repulsive>
0.2832

> <Gold.PLP.ligand.clash>
0.0000

> <Gold.PLP.ligand.torsion>
1.7642

> <Gold.PLP.Chemscore.Hbond>
5.6316

> <Gold.PLP.Chemscore.CHOScore>
0.0000

> <Gold.PLP.Chemscore.Metal>
0.0000

> <Gold.Chemscore.Hbonds>
donor molecule, donor type, donor heavy atom, donor atom, acceptor molecule, acceptor atom, score
      L1  H     5    57       P1  8028  1.82
      L1  H    10    34       P1  7949  1.00
      P1  H  6931  6943       L1    19  0.61
      P1  H  6934  6947       L1    19  0.94
      P1  H 10752 10765       L1    10  1.00

> <Gold.PLP.Chemscore.Internal.Correction>
0.2455

> <Gold.Rescore>
     Score         DG    S(hbond)    S(metal)    S(lipo)     H(rot)  DE(clash)    DE(int)     intcor
     18.02     -20.86       2.93        0.00     116.65       3.15       0.30       2.54       ----

> <Gold.Chemscore.Fitness>
18.0216

> <Gold.Chemscore.DG>
-20.8611

> <Gold.Chemscore.ZeroCoef>
-5.4800

> <Gold.Chemscore.Hbond>
2.9319

> <Gold.Chemscore.Metal>
0.0000

> <Gold.Chemscore.Lipo>
116.6520

> <Gold.Chemscore.Internal_Hbond>
0.0000

> <Gold.Chemscore.DEClash>
0.3000

> <Gold.Chemscore.DEInternal>
2.5395

> <Gold.Chemscore.Rot>
3.1483

> <Gold.Chemscore.Internal.Correction>
   9.000000E+99

> <Gold.Chemscore.Hbonds>
donor molecule, donor type, donor heavy atom, donor atom, acceptor molecule, acceptor atom, score
      L1  H     5    57       P1  8028  0.88
      L1  H    10    34       P1  7949  0.61
      P1  H  6931  6943       L1    19  0.23
      P1  H  6934  6947       L1    19  0.28
      P1  H 10752 10765       L1    10  0.30

> <Gold.Chemscore.Hbond.Weighted>
-9.7925

> <Gold.Chemscore.Metal.Weighted>
-0.0000

> <Gold.Chemscore.Lipo.Weighted>
-13.6483

> <Gold.Chemscore.Internal_Hbond.Weighted>
0.0000

> <Gold.Chemscore.DEClash.Weighted>
0.3000

> <Gold.Chemscore.DEInternal.Weighted>
2.5395

> <Gold.Chemscore.Rot.Weighted>
8.0597

> <Gold.Chemscore.Internal.Correction.Weighted>
   9.000000E+99

> <Gold.Protein.RotatedTorsions>
[ 6907 6896 6895 6894 ] final  119.80 input  -60.11 | X-H torsion
[ 7974 7965 7964 7962 ] final  135.57 input  175.53 | X-H torsion
[ 8008 7997 7996 7995 ] final  118.69 input   59.86 | X-H torsion
[ 10167 10162 10161 10158 ] final   17.97 input  -65.29 | X-H torsion
[ 10718 10713 10712 10709 ] final  177.91 input   66.30 | X-H torsion
[ 10763 10752 10751 10750 ] final  150.40 input  -60.55 | X-H torsion
[ 11005 11000 10999 10996 ] final  122.41 input  -57.11 | X-H torsion

> <Gold.Protein.ActiveResidues>
 VAL166  LYS551  ARG553  GLY616  TRP617  ASP618  TYR619  PRO620  LYS621  CYS622 
 ASP623  PHE694  ASN695  SER759  ASP760  ASP761  ALA762  ILE779  LEU786  VAL792 
 PHE793  MET794  SER795  GLU796  ALA797  LYS798  CYS799  TRP800  GLU811  SER814 

> <Gold.Protein.RotatedAtoms>
  152.4445  133.7511  159.6694 H   0  0  0  0  0  0  0  0  0  0  0  0  # atno 6907 bound_to 6896
  150.8342  133.8030  159.3092 H   0  0  0  0  0  0  0  0  0  0  0  0  # atno 6908 bound_to 6896
  151.5674  135.1066  160.0039 H   0  0  0  0  0  0  0  0  0  0  0  0  # atno 6909 bound_to 6896
  144.9650  139.4668  143.5461 H   0  0  0  0  0  0  0  0  0  0  0  0  # atno 7974 bound_to 7965
  156.2559  140.2869  156.0875 H   0  0  0  0  0  0  0  0  0  0  0  0  # atno 8008 bound_to 7997
  155.1499  140.0397  157.2836 H   0  0  0  0  0  0  0  0  0  0  0  0  # atno 8009 bound_to 7997
  154.6468  140.2535  155.7265 H   0  0  0  0  0  0  0  0  0  0  0  0  # atno 8010 bound_to 7997
  140.5687  143.9202  150.6696 H   0  0  0  0  0  0  0  0  0  0  0  0  # atno 10167 bound_to 10162
  156.8984  130.9870  151.3039 H   0  0  0  0  0  0  0  0  0  0  0  0  # atno 10718 bound_to 10713
  154.0869  135.2855  155.3279 H   0  0  0  0  0  0  0  0  0  0  0  0  # atno 10763 bound_to 10752
  154.6646  135.5322  153.8064 H   0  0  0  0  0  0  0  0  0  0  0  0  # atno 10764 bound_to 10752
  153.0428  135.6542  154.1041 H   0  0  0  0  0  0  0  0  0  0  0  0  # atno 10765 bound_to 10752
  139.9267  134.9641  156.8105 H   0  0  0  0  0  0  0  0  0  0  0  0  # atno 11005 bound_to 11000
  146.3365  139.8825  142.8822 LP  0  0  0  0  0  0  0  0  0  0  0  0  # atno 17320 bound_to 7965
  145.2643  141.0087  143.3808 LP  0  0  0  0  0  0  0  0  0  0  0  0  # atno 17321 bound_to 7965
  140.2671  143.3482  152.1271 LP  0  0  0  0  0  0  0  0  0  0  0  0  # atno 17342 bound_to 10162
  139.5106  144.6887  151.5818 LP  0  0  0  0  0  0  0  0  0  0  0  0  # atno 17343 bound_to 10162
  157.6041  130.8534  149.8848 LP  0  0  0  0  0  0  0  0  0  0  0  0  # atno 17370 bound_to 10713
  156.0594  130.3702  150.1016 LP  0  0  0  0  0  0  0  0  0  0  0  0  # atno 17371 bound_to 10713
  140.6316  133.9901  155.7664 LP  0  0  0  0  0  0  0  0  0  0  0  0  # atno 17394 bound_to 11000
  141.0829  134.0034  157.3357 LP  0  0  0  0  0  0  0  0  0  0  0  0  # atno 17395 bound_to 11000

$$$$
