AV-unprocessed.smi:2079|AV-procd|sdf|8482|dock10
  -GOLD-   2272011183D 1   1.00000     0.00000
 Structure written by MMmdl.
 41 42  0  0  0  0  0  0  0  0  3 V2000
  149.6251  141.0955  154.7208 C   0  0  0  0  0  0  0  0  0  0  0  0
  150.3589  139.7994  154.6594 C   0  0  0  0  0  0  0  0  0  0  0  0
  149.9640  138.5019  154.8225 C   0  0  0  0  0  0  0  0  0  0  0  0
  151.1684  137.7698  154.6364 C   0  0  0  0  0  0  0  0  0  0  0  0
  151.2940  136.4346  154.6865 N   0  5  0  0  0  0  0  0  0  0  0  0
  150.3208  135.6796  155.2454 C   0  0  0  0  0  0  0  0  0  0  0  0
  150.2974  135.2498  156.4010 O   0  0  0  0  0  0  0  0  0  0  0  0
  149.3082  135.4053  154.4127 N   0  0  0  0  0  0  0  0  0  0  0  0
  148.1366  134.6099  154.7524 C   0  0  0  0  0  0  0  0  0  0  0  0
  146.8558  135.3144  154.2709 C   0  0  0  0  0  0  0  0  0  0  0  0
  146.4976  134.9799  152.8618 N   0  3  1  0  0  0  0  0  0  0  0  0
  146.1653  133.5327  152.7112 C   0  0  0  0  0  0  0  0  0  0  0  0
  145.9200  133.1432  151.2470 C   0  0  0  0  0  0  0  0  0  0  0  0
  144.7985  133.9906  150.6482 C   0  0  0  0  0  0  0  0  0  0  0  0
  145.1492  135.4718  150.8039 C   0  0  0  0  0  0  0  0  0  0  0  0
  145.4268  135.8538  152.2758 C   0  0  2  0  0  0  0  0  0  0  0  0
  145.7642  137.3589  152.3316 C   0  0  0  0  0  0  0  0  0  0  0  0
  152.2001  138.5528  154.3683 N   0  0  0  0  0  0  0  0  0  0  0  0
  151.6906  139.8568  154.3880 O   0  0  0  0  0  0  0  0  0  0  0  0
  148.7516  141.0752  154.0688 H   0  0  0  0  0  0  0  0  0  0  0  0
  150.2612  141.9234  154.4068 H   0  0  0  0  0  0  0  0  0  0  0  0
  149.2851  141.2968  155.7366 H   0  0  0  0  0  0  0  0  0  0  0  0
  148.9730  138.1341  155.0421 H   0  0  0  0  0  0  0  0  0  0  0  0
  149.3635  135.7750  153.4749 H   0  0  0  0  0  0  0  0  0  0  0  0
  148.2232  133.6266  154.2874 H   0  0  0  0  0  0  0  0  0  0  0  0
  148.1326  134.4618  155.8318 H   0  0  0  0  0  0  0  0  0  0  0  0
  146.0169  135.0803  154.9281 H   0  0  0  0  0  0  0  0  0  0  0  0
  147.0412  136.3797  154.3813 H   0  0  0  0  0  0  0  0  0  0  0  0
  146.9718  132.9067  153.0874 H   0  0  0  0  0  0  0  0  0  0  0  0
  145.2835  133.2996  153.3102 H   0  0  0  0  0  0  0  0  0  0  0  0
  146.8361  133.2762  150.6699 H   0  0  0  0  0  0  0  0  0  0  0  0
  145.6621  132.0857  151.1810 H   0  0  0  0  0  0  0  0  0  0  0  0
  144.6571  133.7430  149.5957 H   0  0  0  0  0  0  0  0  0  0  0  0
  143.8557  133.7747  151.1525 H   0  0  0  0  0  0  0  0  0  0  0  0
  146.0231  135.7022  150.1923 H   0  0  0  0  0  0  0  0  0  0  0  0
  144.3315  136.0748  150.4074 H   0  0  0  0  0  0  0  0  0  0  0  0
  144.5118  135.6910  152.8480 H   0  0  0  0  0  0  0  0  0  0  0  0
  145.0520  137.9384  151.7434 H   0  0  0  0  0  0  0  0  0  0  0  0
  146.7583  137.5606  151.9315 H   0  0  0  0  0  0  0  0  0  0  0  0
  145.7110  137.7633  153.3415 H   0  0  0  0  0  0  0  0  0  0  0  0
  147.3282  135.1481  152.3123 H   0  0  0  0  0  0  0  0  0  0  0  0
  1  2  1  0  0  0  0
  1 20  1  0  0  0  0
  1 21  1  0  0  0  0
  1 22  1  0  0  0  0
  2 19  1  0  0  0  0
  2  3  2  0  0  0  0
  3  4  1  0  0  0  0
  3 23  1  0  0  0  0
  4  5  1  0  0  0  0
  4 18  2  0  0  0  0
  5  6  1  0  0  0  0
  6  7  2  0  0  0  0
  6  8  1  0  0  0  0
  8  9  1  0  0  0  0
  8 24  1  0  0  0  0
  9 10  1  0  0  0  0
  9 25  1  0  0  0  0
  9 26  1  0  0  0  0
 10 11  1  0  0  0  0
 10 27  1  0  0  0  0
 10 28  1  0  0  0  0
 11 16  1  0  0  0  0
 11 12  1  0  0  0  0
 11 41  1  0  0  0  0
 12 13  1  0  0  0  0
 12 29  1  0  0  0  0
 12 30  1  0  0  0  0
 13 14  1  0  0  0  0
 13 31  1  0  0  0  0
 13 32  1  0  0  0  0
 14 15  1  0  0  0  0
 14 33  1  0  0  0  0
 14 34  1  0  0  0  0
 15 16  1  0  0  0  0
 15 35  1  0  0  0  0
 15 36  1  0  0  0  0
 16 17  1  0  0  0  0
 16 37  1  0  0  0  0
 17 38  1  0  0  0  0
 17 39  1  0  0  0  0
 17 40  1  0  0  0  0
 18 19  1  0  0  0  0
M  CHG  1   5  -1
M  CHG  1  11   1
M  END
> <s_m_source_file>
AV-unprocessed.smi

> <i_m_source_file_index>
2079

> <i_lp_mmshare_version>
43012

> <i_f3d_flags>
0

> <s_epik_input>
W0NIM11jMVtjSF1jKG5vMSlbTkhdQyg9TylbTkhdW0NIMl1bQ0gyXU4yW0NIMl1bQ0gyXVtDSDJdW0NIMl1bQ0BIXTJbQ0gzXQ==

> <s_epik_cmdline>
J2VwaWtfcHl0aG9uJywgJy1waCcsICc3LjAnLCAnLXRuJywgJzgnLCAnLW1hJywgJzIwMCcsICctbWV0YWxfYmluZGluZycsICctaW1hZScsICc8aW5maWxlLm1hZT4nLCAnLW9tYWUnLCAnPG91dGZpbGUubWFlPic=

> <r_epik_Ionization_Penalty>
6.22371

> <r_epik_Ionization_Penalty_Charging>
6.22362

> <r_epik_Ionization_Penalty_Neutral>
9.40454e-05

> <r_epik_State_Penalty>
6.22363

> <r_epik_Charging_Adjusted_Penalty>
12.4472

> <i_epik_Tot_Q>
0

> <i_epik_Tot_abs_Q>
2

> <r_epik_Metal_State_Penalty>
2.16675

> <b_epik_Metal_Only>
1

> <s_lp_Force_Field>
OPLS_2005

> <r_lp_Energy>
8.88901

> <b_lp_Chiralities_Consistent>
1

> <s_lp_Variant>
AV-unprocessed.smi:2079-8

> <Gold.Version>
5.8.1

> <Gold.Id.Protein>
6NUR|6NUR_protein|mol2

> <Gold.PLP.Fitness>
47.3324

> <Gold.PLP.PLP>
-31.4309

> <Gold.PLP.part.hbond>
-3.8390

> <Gold.PLP.part.metal>
0.0000

> <Gold.PLP.part.buried>
-4.0922

> <Gold.PLP.part.nonpolar>
-23.6615

> <Gold.PLP.part.repulsive>
0.3264

> <Gold.PLP.ligand.clash>
0.0000

> <Gold.PLP.ligand.torsion>
1.0745

> <Gold.PLP.Chemscore.Hbond>
6.0000

> <Gold.PLP.Chemscore.CHOScore>
0.0000

> <Gold.PLP.Chemscore.Metal>
0.0000

> <Gold.Chemscore.Hbonds>
donor molecule, donor type, donor heavy atom, donor atom, acceptor molecule, acceptor atom, score
      L1  H     8    24       P1  7948  1.00
      L1  H    11    41       P1  7948  2.00
      P1  H  7989  7998       L1    19  0.47
      P1  H 10752 10763       L1     5  2.00

> <Gold.PLP.Chemscore.Internal.Correction>
0.0505

> <Gold.Rescore>
     Score         DG    S(hbond)    S(metal)    S(lipo)     H(rot)  DE(clash)    DE(int)     intcor
     18.65     -19.86       3.57        0.00      54.70       1.54       0.05       1.17       ----

> <Gold.Chemscore.Fitness>
18.6493

> <Gold.Chemscore.DG>
-19.8645

> <Gold.Chemscore.ZeroCoef>
-5.4800

> <Gold.Chemscore.Hbond>
3.5715

> <Gold.Chemscore.Metal>
0.0000

> <Gold.Chemscore.Lipo>
54.7042

> <Gold.Chemscore.Internal_Hbond>
0.0000

> <Gold.Chemscore.DEClash>
0.0493

> <Gold.Chemscore.DEInternal>
1.1659

> <Gold.Chemscore.Rot>
1.5409

> <Gold.Chemscore.Internal.Correction>
   9.000000E+99

> <Gold.Chemscore.Hbonds>
donor molecule, donor type, donor heavy atom, donor atom, acceptor molecule, acceptor atom, score
      L1  H     8    24       P1  7948  0.45
      L1  H    11    41       P1  7948  0.95
      P1  H  7989  7998       L1    19  0.09
      P1  H 10752 10763       L1     5  0.90

> <Gold.Chemscore.Hbond.Weighted>
-11.9287

> <Gold.Chemscore.Metal.Weighted>
-0.0000

> <Gold.Chemscore.Lipo.Weighted>
-6.4004

> <Gold.Chemscore.Internal_Hbond.Weighted>
0.0000

> <Gold.Chemscore.DEClash.Weighted>
0.0493

> <Gold.Chemscore.DEInternal.Weighted>
1.1659

> <Gold.Chemscore.Rot.Weighted>
3.9446

> <Gold.Chemscore.Internal.Correction.Weighted>
   9.000000E+99

> <Gold.Protein.RotatedTorsions>
[ 6907 6896 6895 6894 ] final  138.30 input  -60.11 | X-H torsion
[ 7974 7965 7964 7962 ] final -113.42 input  175.53 | X-H torsion
[ 8008 7997 7996 7995 ] final -137.51 input   59.86 | X-H torsion
[ 10167 10162 10161 10158 ] final  110.58 input  -65.29 | X-H torsion
[ 10718 10713 10712 10709 ] final   40.65 input   66.30 | X-H torsion
[ 10763 10752 10751 10750 ] final   55.21 input  -60.55 | X-H torsion
[ 11005 11000 10999 10996 ] final  -20.42 input  -57.11 | X-H torsion

> <Gold.Protein.ActiveResidues>
 VAL166  LYS551  ARG553  GLY616  TRP617  ASP618  TYR619  PRO620  LYS621  CYS622 
 ASP623  PHE694  ASN695  SER759  ASP760  ASP761  ALA762  ILE779  LEU786  VAL792 
 PHE793  MET794  SER795  GLU796  ALA797  LYS798  CYS799  TRP800  GLU811  SER814 

> <Gold.Protein.RotatedAtoms>
  152.2681  133.5358  159.5422 H   0  0  0  0  0  0  0  0  0  0  0  0  # atno 6907 bound_to 6896
  150.7149  134.0735  159.3882 H   0  0  0  0  0  0  0  0  0  0  0  0  # atno 6908 bound_to 6896
  151.8651  135.0510  160.0524 H   0  0  0  0  0  0  0  0  0  0  0  0  # atno 6909 bound_to 6896
  145.1323  140.8731  143.3751 H   0  0  0  0  0  0  0  0  0  0  0  0  # atno 7974 bound_to 7965
  155.4131  140.0513  157.3030 H   0  0  0  0  0  0  0  0  0  0  0  0  # atno 8008 bound_to 7997
  154.4937  140.2130  155.9452 H   0  0  0  0  0  0  0  0  0  0  0  0  # atno 8009 bound_to 7997
  156.1377  140.3160  155.8451 H   0  0  0  0  0  0  0  0  0  0  0  0  # atno 8010 bound_to 7997
  139.6677  144.7127  151.1746 H   0  0  0  0  0  0  0  0  0  0  0  0  # atno 10167 bound_to 10162
  157.3845  130.7772  149.7220 H   0  0  0  0  0  0  0  0  0  0  0  0  # atno 10718 bound_to 10713
  152.9814  135.5718  154.5030 H   0  0  0  0  0  0  0  0  0  0  0  0  # atno 10763 bound_to 10752
  154.4546  135.2779  155.1758 H   0  0  0  0  0  0  0  0  0  0  0  0  # atno 10764 bound_to 10752
  154.3371  135.6237  153.5632 H   0  0  0  0  0  0  0  0  0  0  0  0  # atno 10765 bound_to 10752
  140.8463  133.7889  155.9916 H   0  0  0  0  0  0  0  0  0  0  0  0  # atno 11005 bound_to 11000
  145.0622  139.3096  143.5874 LP  0  0  0  0  0  0  0  0  0  0  0  0  # atno 17320 bound_to 7965
  146.3513  140.0068  142.8671 LP  0  0  0  0  0  0  0  0  0  0  0  0  # atno 17321 bound_to 7965
  140.7606  143.5893  150.8812 LP  0  0  0  0  0  0  0  0  0  0  0  0  # atno 17342 bound_to 10162
  139.9556  143.6222  152.3017 LP  0  0  0  0  0  0  0  0  0  0  0  0  # atno 17343 bound_to 10162
  155.9783  130.4052  150.3654 LP  0  0  0  0  0  0  0  0  0  0  0  0  # atno 17370 bound_to 10713
  157.1762  131.0381  151.2771 LP  0  0  0  0  0  0  0  0  0  0  0  0  # atno 17371 bound_to 10713
  140.8840  134.2577  157.5129 LP  0  0  0  0  0  0  0  0  0  0  0  0  # atno 17394 bound_to 11000
  139.8703  134.9629  156.4444 LP  0  0  0  0  0  0  0  0  0  0  0  0  # atno 17395 bound_to 11000

$$$$
