#       Name:                AV-unprocessed.smi:467
#       Creating user name   scv26
#       Creation time:       Thu Mar 26 23:05:36 2020


#       File generated by GOLD software.
#

@<TRIPOS>MOLECULE
AV-unprocessed.smi:467
    50    52     1
SMALL
NO_CHARGES


@<TRIPOS>ATOM
      1 ****        -4.2107   3.1856   1.6268 C.3            1 S1                 0.0000
      2 ****        -3.4888   2.1103   0.8338 C.ar           1 S1                 0.0000
      3 ****        -3.2115   2.3354  -0.5333 C.ar           1 S1                 0.0000
      4 ****        -2.5446   1.3607  -1.3071 C.ar           1 S1                 0.0000
      5 ****        -2.1733   1.3712  -2.6407 N.2            1 S1                 0.0000
      6 ****        -1.5917   0.1823  -2.7669 C.2            1 S1                 0.0000
      7 ****        -1.5353  -0.5962  -1.6692 N.pl3          1 S1                 0.0000
      8 ****        -0.9471  -1.9194  -1.5695 C.3            1 S1                 0.0000
      9 ****         0.5884  -1.8752  -1.4466 C.3            1 S1                 0.0000
     10 ****         1.0475  -3.2117  -1.4087 O.3            1 S1                 0.0000
     11 ****         1.0793  -1.1349  -0.1816 C.3            1 S1                 0.0000
     12 ****         2.5559  -0.9836  -0.1371 N.4            1 S1                 1.0000
     13 ****         3.0702   0.0865  -1.0280 C.3            1 S1                 0.0000
     14 ****         4.6050   0.1565  -0.9537 C.3            1 S1                 0.0000
     15 ****         5.0103   0.3663   0.3931 O.3            1 S1                 0.0000
     16 ****         4.5982  -0.6956   1.2442 C.3            1 S1                 0.0000
     17 ****         3.0631  -0.7924   1.2425 C.3            1 S1                 0.0000
     18 ****        -2.1604   0.1439  -0.6710 C.ar           1 S1                 0.0000
     19 ****        -2.4286  -0.0908   0.6891 C.ar           1 S1                 0.0000
     20 ****        -3.0936   0.8948   1.4483 C.ar           1 S1                 0.0000
     21 ****        -3.3772   0.6320   2.9166 C.3            1 S1                 0.0000
     22 ****        -4.5291   4.0075   0.9848 H              1 S1                 0.0000
     23 ****        -3.5557   3.5945   2.3961 H              1 S1                 0.0000
     24 ****        -5.0994   2.7778   2.1091 H              1 S1                 0.0000
     25 ****        -3.5101   3.2623  -1.0007 H              1 S1                 0.0000
     26 ****        -1.1779  -0.1408  -3.7113 H              1 S1                 0.0000
     27 ****        -1.3857  -2.4345  -0.7138 H              1 S1                 0.0000
     28 ****        -1.2390  -2.4859  -2.4552 H              1 S1                 0.0000
     29 ****         0.9885  -1.4075  -2.3457 H              1 S1                 0.0000
     30 ****         1.9872  -3.2171  -1.5035 H              1 S1                 0.0000
     31 ****         0.6310  -0.1437  -0.1062 H              1 S1                 0.0000
     32 ****         0.7373  -1.6868   0.6956 H              1 S1                 0.0000
     33 ****         2.7685  -0.0934  -2.0592 H              1 S1                 0.0000
     34 ****         2.6415   1.0461  -0.7339 H              1 S1                 0.0000
     35 ****         5.0563  -0.7568  -1.3446 H              1 S1                 0.0000
     36 ****         4.9733   0.9806  -1.5650 H              1 S1                 0.0000
     37 ****         5.0492  -1.6349   0.9198 H              1 S1                 0.0000
     38 ****         4.9611  -0.5004   2.2533 H              1 S1                 0.0000
     39 ****         2.6306   0.1141   1.6694 H              1 S1                 0.0000
     40 ****         2.7491  -1.6260   1.8720 H              1 S1                 0.0000
     41 ****        -2.1251  -1.0214   1.1452 H              1 S1                 0.0000
     42 ****        -2.9318  -0.3073   3.2456 H              1 S1                 0.0000
     43 ****        -4.4516   0.5735   3.0915 H              1 S1                 0.0000
     44 ****        -2.9678   1.4302   3.5362 H              1 S1                 0.0000
     45 ****         2.9461  -1.8568  -0.4613 H              1 S1                 0.0000
     46 ****        -2.3073   2.0850  -3.3281 LP             1 S1                 0.0000
     47 ****         0.6322  -3.7301  -2.1562 LP             1 S1                 0.0000
     48 ****         0.7963  -3.6277  -0.5347 LP             1 S1                 0.0000
     49 ****         4.6064   1.2197   0.7227 LP             1 S1                 0.0000
     50 ****         6.0074   0.4360   0.4232 LP             1 S1                 0.0000
@<TRIPOS>BOND
    1    1    2 1     
    2    1   22 1     
    3    1   23 1     
    4    1   24 1     
    5    2   20 ar    
    6    2    3 ar    
    7    3    4 ar    
    8    3   25 1     
    9    4   18 ar    
   10    4    5 1     
   11    5    6 2     
   12    6    7 1     
   13    6   26 1     
   14    7    8 1     
   15    7   18 1     
   16    8    9 1     
   17    8   27 1     
   18    8   28 1     
   19    9   10 1     
   20    9   11 1     
   21    9   29 1     
   22   10   30 1     
   23   11   12 1     
   24   11   31 1     
   25   11   32 1     
   26   12   17 1     
   27   12   13 1     
   28   12   45 1     
   29   13   14 1     
   30   13   33 1     
   31   13   34 1     
   32   14   15 1     
   33   14   35 1     
   34   14   36 1     
   35   15   16 1     
   36   16   17 1     
   37   16   37 1     
   38   16   38 1     
   39   17   39 1     
   40   17   40 1     
   41   18   19 ar    
   42   19   20 ar    
   43   19   41 1     
   44   20   21 1     
   45   21   42 1     
   46   21   43 1     
   47   21   44 1     
   48    5   46 1     
   49   10   47 1     
   50   10   48 1     
   51   15   49 1     
   52   15   50 1     
@<TRIPOS>SUBSTRUCTURE
      1 S1             1
@<TRIPOS>SET
LONE_PAIRS      STATIC     ATOMS    <user>   **** ""
5 46 47 48 49 50
DONOR_HYDROGENS      STATIC     ATOMS    <user>   **** ""
2 30 45
ATOM$BLUE        STATIC     ATOMS    COLORGROUP SYSTEM
5 46 47 48 49 50
ATOM$RED        STATIC     ATOMS    COLORGROUP SYSTEM
2 30 45
