AV-unprocessed.smi:99|AV-procd|sdf|878|dock10
  -GOLD-   2262017353D 1   1.00000     0.00000
 Structure written by MMmdl.
 53 56  0  0  0  0  0  0  0  0  1 V2000
  154.1168  141.3263  161.2330 O   0  0  0  0  0  0  0  0  0  0  0  0
  153.3788  141.1349  160.2642 C   0  0  0  0  0  0  0  0  0  0  0  0
  153.1448  139.9183  159.7347 O   0  0  0  0  0  0  0  0  0  0  0  0
  154.1078  138.8869  159.8727 C   0  0  0  0  0  0  0  0  0  0  0  0
  153.6149  137.6383  159.1347 C   0  0  1  0  0  0  0  0  0  0  0  0
  152.3067  137.2868  159.5812 O   0  0  0  0  0  0  0  0  0  0  0  0
  151.5792  136.6914  158.5434 C   0  0  1  0  0  0  0  0  0  0  0  0
  150.2908  137.4569  158.3364 N   0  0  0  0  0  0  0  0  0  0  0  0
  150.2837  138.7774  157.9044 C   0  0  0  0  0  0  0  0  0  0  0  0
  149.1448  139.4788  157.6930 C   0  0  0  0  0  0  0  0  0  0  0  0
  147.8418  138.8585  157.9090 C   0  0  0  0  0  0  0  0  0  0  0  0
  146.7571  139.4135  157.7478 O   0  0  0  0  0  0  0  0  0  0  0  0
  147.8960  137.5261  158.3279 N   0  0  0  0  0  0  0  0  0  0  0  0
  149.0627  136.7917  158.5451 C   0  0  0  0  0  0  0  0  0  0  0  0
  148.9934  135.6141  158.8949 O   0  0  0  0  0  0  0  0  0  0  0  0
  152.4377  136.7534  157.2715 C   0  0  2  0  0  0  0  0  0  0  0  0
  153.0834  135.5120  157.0543 O   0  0  0  0  0  0  0  0  0  0  0  0
  153.4152  137.8599  157.6404 C   0  0  2  0  0  0  0  0  0  0  0  0
  154.6177  137.8256  156.8803 O   0  0  0  0  0  0  0  0  0  0  0  0
  154.6026  138.1050  155.5589 C   0  0  0  0  0  0  0  0  0  0  0  0
  153.6045  138.5061  154.9574 O   0  0  0  0  0  0  0  0  0  0  0  0
  155.9191  137.8684  154.9002 C   0  0  0  0  0  0  0  0  0  0  0  0
  156.9131  137.1313  155.5852 C   0  0  0  0  0  0  0  0  0  0  0  0
  158.1677  136.8941  154.9907 C   0  0  0  0  0  0  0  0  0  0  0  0
  158.4436  137.3912  153.7038 C   0  0  0  0  0  0  0  0  0  0  0  0
  157.4628  138.1253  153.0116 C   0  0  0  0  0  0  0  0  0  0  0  0
  156.2073  138.3634  153.6044 C   0  0  0  0  0  0  0  0  0  0  0  0
  152.6518  142.2267  159.5538 C   0  0  0  0  0  0  0  0  0  0  0  0
  151.8793  141.9160  158.4103 C   0  0  0  0  0  0  0  0  0  0  0  0
  151.1781  142.9252  157.7220 C   0  0  0  0  0  0  0  0  0  0  0  0
  151.2410  144.2578  158.1689 C   0  0  0  0  0  0  0  0  0  0  0  0
  152.0065  144.5803  159.3045 C   0  0  0  0  0  0  0  0  0  0  0  0
  152.7085  143.5724  159.9941 C   0  0  0  0  0  0  0  0  0  0  0  0
  147.0170  137.0535  158.4808 H   0  0  0  0  0  0  0  0  0  0  0  0
  155.0740  139.2074  159.4808 H   0  0  0  0  0  0  0  0  0  0  0  0
  154.2393  138.6632  160.9323 H   0  0  0  0  0  0  0  0  0  0  0  0
  154.2881  136.7950  159.2986 H   0  0  0  0  0  0  0  0  0  0  0  0
  151.2901  135.6822  158.8442 H   0  0  0  0  0  0  0  0  0  0  0  0
  151.2177  139.2862  157.7179 H   0  0  0  0  0  0  0  0  0  0  0  0
  149.1978  140.5051  157.3593 H   0  0  0  0  0  0  0  0  0  0  0  0
  151.8397  137.0004  156.3933 H   0  0  0  0  0  0  0  0  0  0  0  0
  153.7374  135.3924  157.7260 H   0  0  0  0  0  0  0  0  0  0  0  0
  152.9211  138.8246  157.5105 H   0  0  0  0  0  0  0  0  0  0  0  0
  156.7250  136.7404  156.5748 H   0  0  0  0  0  0  0  0  0  0  0  0
  158.9191  136.3303  155.5238 H   0  0  0  0  0  0  0  0  0  0  0  0
  159.4060  137.2097  153.2485 H   0  0  0  0  0  0  0  0  0  0  0  0
  157.6735  138.5073  152.0236 H   0  0  0  0  0  0  0  0  0  0  0  0
  155.4773  138.9306  153.0454 H   0  0  0  0  0  0  0  0  0  0  0  0
  151.8154  140.8999  158.0485 H   0  0  0  0  0  0  0  0  0  0  0  0
  150.5906  142.6758  156.8508 H   0  0  0  0  0  0  0  0  0  0  0  0
  150.7023  145.0313  157.6417 H   0  0  0  0  0  0  0  0  0  0  0  0
  152.0552  145.6028  159.6490 H   0  0  0  0  0  0  0  0  0  0  0  0
  153.2850  143.8544  160.8629 H   0  0  0  0  0  0  0  0  0  0  0  0
  1  2  2  0  0  0  0
  2  3  1  0  0  0  0
  2 28  1  0  0  0  0
  3  4  1  0  0  0  0
  4  5  1  0  0  0  0
  4 35  1  0  0  0  0
  4 36  1  0  0  0  0
  5 18  1  0  0  0  0
  5  6  1  0  0  0  0
  5 37  1  0  0  0  0
  6  7  1  0  0  0  0
  7  8  1  0  0  0  0
  7 16  1  0  0  0  0
  7 38  1  0  0  0  0
  8 14  1  0  0  0  0
  8  9  1  0  0  0  0
  9 10  2  0  0  0  0
  9 39  1  0  0  0  0
 10 11  1  0  0  0  0
 10 40  1  0  0  0  0
 11 12  2  0  0  0  0
 11 13  1  0  0  0  0
 13 34  1  0  0  0  0
 13 14  1  0  0  0  0
 14 15  2  0  0  0  0
 16 17  1  0  0  0  0
 16 18  1  0  0  0  0
 16 41  1  0  0  0  0
 17 42  1  0  0  0  0
 18 19  1  0  0  0  0
 18 43  1  0  0  0  0
 19 20  1  0  0  0  0
 20 21  2  0  0  0  0
 20 22  1  0  0  0  0
 22 27  1  0  0  0  0
 22 23  2  0  0  0  0
 23 24  1  0  0  0  0
 23 44  1  0  0  0  0
 24 25  2  0  0  0  0
 24 45  1  0  0  0  0
 25 26  1  0  0  0  0
 25 46  1  0  0  0  0
 26 27  2  0  0  0  0
 26 47  1  0  0  0  0
 27 48  1  0  0  0  0
 28 33  1  0  0  0  0
 28 29  2  0  0  0  0
 29 30  1  0  0  0  0
 29 49  1  0  0  0  0
 30 31  2  0  0  0  0
 30 50  1  0  0  0  0
 31 32  1  0  0  0  0
 31 51  1  0  0  0  0
 32 33  2  0  0  0  0
 32 52  1  0  0  0  0
 33 53  1  0  0  0  0
M  END
> <s_m_source_file>
AV-unprocessed.smi

> <i_m_source_file_index>
99

> <i_lp_mmshare_version>
43012

> <i_f3d_flags>
0

> <s_epik_input>
W2NIXTFbY0hdW2NIXVtjSF1bY0hdYzFDKD1PKU9bQ0gyXVtDQEBIXTJPW0NAQEhdKG4zW2NIXVtjSF1jKD1PKVtuSF1jMz1PKVtDQEBIXShbT0hdKVtDQEhdMk9DKD1PKWM0W2NIXVtjSF1bY0hdW2NIXVtjSF00

> <s_epik_cmdline>
J2VwaWtfcHl0aG9uJywgJy1waCcsICc3LjAnLCAnLXRuJywgJzgnLCAnLW1hJywgJzIwMCcsICctbWV0YWxfYmluZGluZycsICctaW1hZScsICc8aW5maWxlLm1hZT4nLCAnLW9tYWUnLCAnPG91dGZpbGUubWFlPic=

> <r_lp_tautomer_probability>
1

> <r_epik_Ionization_Penalty>
0.00454555

> <r_epik_Ionization_Penalty_Charging>
0.0045191

> <r_epik_Ionization_Penalty_Neutral>
2.64449e-05

> <r_epik_State_Penalty>
-0

> <r_epik_Charging_Adjusted_Penalty>
0.0045191

> <i_epik_Tot_Q>
0

> <i_epik_Tot_abs_Q>
0

> <r_epik_Metal_State_Penalty>
1.27877

> <b_epik_Metal_Only>
0

> <s_epik_Chemistry_Notes>
This compound has an ester and may undergo hydrolysis at high or low pH. This compound contains an acetal/aminal-like group ( X-CH(R)-Y where X, Y are N, S, or O) that may be acid/base labile, releasing an aldehyde.

> <s_lp_Force_Field>
OPLS_2005

> <r_lp_Energy>
38.7636

> <b_lp_Chiralities_Consistent>
1

> <s_lp_Variant>
AV-unprocessed.smi:99-14

> <Gold.Version>
5.8.1

> <Gold.Id.Protein>
6NUR|6NUR_protein|mol2

> <Gold.PLP.Fitness>
53.5023

> <Gold.PLP.PLP>
-48.3831

> <Gold.PLP.part.hbond>
-5.1946

> <Gold.PLP.part.metal>
0.0000

> <Gold.PLP.part.buried>
1.7269

> <Gold.PLP.part.nonpolar>
-46.1629

> <Gold.PLP.part.repulsive>
0.1282

> <Gold.PLP.ligand.clash>
0.0000

> <Gold.PLP.ligand.torsion>
0.5704

> <Gold.PLP.Chemscore.Hbond>
2.0000

> <Gold.PLP.Chemscore.CHOScore>
0.0000

> <Gold.PLP.Chemscore.Metal>
0.0000

> <Gold.Chemscore.Hbonds>
donor molecule, donor type, donor heavy atom, donor atom, acceptor molecule, acceptor atom, score
      P1  H  6896  6909       L1    15  0.88
      P1  H 10752 10764       L1    17  1.00

> <Gold.PLP.Chemscore.Internal.Correction>
0.2601

> <Gold.Rescore>
     Score         DG    S(hbond)    S(metal)    S(lipo)     H(rot)  DE(clash)    DE(int)     intcor
     16.29     -20.14       1.56        0.00     150.44       3.19       3.37       0.49       ----

> <Gold.Chemscore.Fitness>
16.2874

> <Gold.Chemscore.DG>
-20.1402

> <Gold.Chemscore.ZeroCoef>
-5.4800

> <Gold.Chemscore.Hbond>
1.5644

> <Gold.Chemscore.Metal>
0.0000

> <Gold.Chemscore.Lipo>
150.4449

> <Gold.Chemscore.Internal_Hbond>
0.0000

> <Gold.Chemscore.DEClash>
3.3662

> <Gold.Chemscore.DEInternal>
0.4866

> <Gold.Chemscore.Rot>
3.1903

> <Gold.Chemscore.Internal.Correction>
   9.000000E+99

> <Gold.Chemscore.Hbonds>
donor molecule, donor type, donor heavy atom, donor atom, acceptor molecule, acceptor atom, score
      P1  H  6896  6909       L1    15  0.85
      P1  H 10752 10764       L1    17  0.65

> <Gold.Chemscore.Hbond.Weighted>
-5.2252

> <Gold.Chemscore.Metal.Weighted>
-0.0000

> <Gold.Chemscore.Lipo.Weighted>
-17.6020

> <Gold.Chemscore.Internal_Hbond.Weighted>
0.0000

> <Gold.Chemscore.DEClash.Weighted>
3.3662

> <Gold.Chemscore.DEInternal.Weighted>
0.4866

> <Gold.Chemscore.Rot.Weighted>
8.1671

> <Gold.Chemscore.Internal.Correction.Weighted>
   9.000000E+99

> <Gold.Protein.RotatedTorsions>
[ 6907 6896 6895 6894 ] final   48.25 input  -60.11 | X-H torsion
[ 7974 7965 7964 7962 ] final   40.39 input  175.53 | X-H torsion
[ 8008 7997 7996 7995 ] final -101.56 input   59.86 | X-H torsion
[ 10167 10162 10161 10158 ] final  -35.80 input  -65.29 | X-H torsion
[ 10718 10713 10712 10709 ] final   66.74 input   66.30 | X-H torsion
[ 10763 10752 10751 10750 ] final   -7.02 input  -60.55 | X-H torsion
[ 11005 11000 10999 10996 ] final  145.02 input  -57.11 | X-H torsion

> <Gold.Protein.ActiveResidues>
 VAL166  LYS551  ARG553  GLY616  TRP617  ASP618  TYR619  PRO620  LYS621  CYS622 
 ASP623  PHE694  ASN695  SER759  ASP760  ASP761  ALA762  ILE779  LEU786  VAL792 
 PHE793  MET794  SER795  GLU796  ALA797  LYS798  CYS799  TRP800  GLU811  SER814 

> <Gold.Protein.RotatedAtoms>
  152.2773  134.7867  160.0402 H   0  0  0  0  0  0  0  0  0  0  0  0  # atno 6907 bound_to 6896
  151.8459  133.3426  159.3666 H   0  0  0  0  0  0  0  0  0  0  0  0  # atno 6908 bound_to 6896
  150.7175  134.5274  159.5728 H   0  0  0  0  0  0  0  0  0  0  0  0  # atno 6909 bound_to 6896
  146.0909  139.5539  142.9476 H   0  0  0  0  0  0  0  0  0  0  0  0  # atno 7974 bound_to 7965
  154.8442  140.0433  157.1562 H   0  0  0  0  0  0  0  0  0  0  0  0  # atno 8008 bound_to 7997
  154.9013  140.3000  155.5296 H   0  0  0  0  0  0  0  0  0  0  0  0  # atno 8009 bound_to 7997
  156.2993  140.2375  156.4041 H   0  0  0  0  0  0  0  0  0  0  0  0  # atno 8010 bound_to 7997
  140.7157  143.3452  151.2271 H   0  0  0  0  0  0  0  0  0  0  0  0  # atno 10167 bound_to 10162
  157.6187  130.9284  150.0149 H   0  0  0  0  0  0  0  0  0  0  0  0  # atno 10718 bound_to 10713
  153.4205  135.7010  153.6298 H   0  0  0  0  0  0  0  0  0  0  0  0  # atno 10763 bound_to 10752
  153.4754  135.3705  155.2414 H   0  0  0  0  0  0  0  0  0  0  0  0  # atno 10764 bound_to 10752
  154.8722  135.4053  154.3572 H   0  0  0  0  0  0  0  0  0  0  0  0  # atno 10765 bound_to 10752
  140.0678  134.9168  157.1294 H   0  0  0  0  0  0  0  0  0  0  0  0  # atno 11005 bound_to 11000
  145.6041  141.0350  143.2002 LP  0  0  0  0  0  0  0  0  0  0  0  0  # atno 17320 bound_to 7965
  144.7359  139.7586  143.7329 LP  0  0  0  0  0  0  0  0  0  0  0  0  # atno 17321 bound_to 7965
  139.6970  143.9597  152.2887 LP  0  0  0  0  0  0  0  0  0  0  0  0  # atno 17342 bound_to 10162
  139.9277  144.6760  150.8395 LP  0  0  0  0  0  0  0  0  0  0  0  0  # atno 17343 bound_to 10162
  156.1322  130.3643  149.9713 LP  0  0  0  0  0  0  0  0  0  0  0  0  # atno 17370 bound_to 10713
  156.7772  130.9208  151.3645 LP  0  0  0  0  0  0  0  0  0  0  0  0  # atno 17371 bound_to 10713
  140.3672  134.2430  155.7181 LP  0  0  0  0  0  0  0  0  0  0  0  0  # atno 17394 bound_to 11000
  141.2000  133.7998  157.0510 LP  0  0  0  0  0  0  0  0  0  0  0  0  # atno 17395 bound_to 11000

$$$$
