AV-unprocessed.smi:3068|AV-procd|sdf|11707|dock10
  -GOLD-   2272017113D 1   1.00000     0.00000
 Structure written by MMmdl.
 39 41  0  0  0  0  0  0  0  0  1 V2000
  145.9428  141.6374  159.1494 N   0  0  0  0  0  0  0  0  0  0  0  0
  146.3508  141.4235  158.0877 C   0  0  0  0  0  0  0  0  0  0  0  0
  146.8648  141.1545  156.7507 C   0  0  0  0  0  0  0  0  0  0  0  0
  145.9940  141.3005  155.7251 N   0  0  0  0  0  0  0  0  0  0  0  0
  146.4567  141.0537  154.4811 C   0  0  0  0  0  0  0  0  0  0  0  0
  147.7898  140.6607  154.2548 C   0  0  0  0  0  0  0  0  0  0  0  0
  148.6654  140.5141  155.2715 N   0  0  0  0  0  0  0  0  0  0  0  0
  148.2134  140.7567  156.5276 C   0  0  0  0  0  0  0  0  0  0  0  0
  149.1151  140.6111  157.5984 N   0  0  0  0  0  0  0  0  0  0  0  0
  150.3395  139.8295  157.4704 C   0  0  0  0  0  0  0  0  0  0  0  0
  151.5586  140.6998  157.0959 C   0  0  1  0  0  0  0  0  0  0  0  0
  151.3652  142.1845  157.4579 C   0  0  0  0  0  0  0  0  0  0  0  0
  151.4301  142.4296  158.8937 N   0  0  0  0  0  0  0  0  0  0  0  0
  151.2615  143.8514  159.1922 C   0  0  0  0  0  0  0  0  0  0  0  0
  151.2928  144.1427  160.7004 C   0  0  0  0  0  0  0  0  0  0  0  0
  152.6011  143.6249  161.3140 C   0  0  0  0  0  0  0  0  0  0  0  0
  152.7992  142.1441  160.9561 C   0  0  0  0  0  0  0  0  0  0  0  0
  152.6952  141.9226  159.4323 C   0  0  1  0  0  0  0  0  0  0  0  0
  152.8800  140.4302  159.0935 C   0  0  0  0  0  0  0  0  0  0  0  0
  152.7667  140.2186  157.6883 O   0  0  0  0  0  0  0  0  0  0  0  0
  145.7612  141.1707  153.6633 H   0  0  0  0  0  0  0  0  0  0  0  0
  148.1545  140.4641  153.2575 H   0  0  0  0  0  0  0  0  0  0  0  0
  148.8187  140.8769  158.5267 H   0  0  0  0  0  0  0  0  0  0  0  0
  150.5313  139.2981  158.4030 H   0  0  0  0  0  0  0  0  0  0  0  0
  150.1746  139.0536  156.7238 H   0  0  0  0  0  0  0  0  0  0  0  0
  151.6961  140.6452  156.0157 H   0  0  0  0  0  0  0  0  0  0  0  0
  152.1382  142.7695  156.9569 H   0  0  0  0  0  0  0  0  0  0  0  0
  150.4115  142.5362  157.0628 H   0  0  0  0  0  0  0  0  0  0  0  0
  152.0429  144.4290  158.6959 H   0  0  0  0  0  0  0  0  0  0  0  0
  150.3131  144.2013  158.7830 H   0  0  0  0  0  0  0  0  0  0  0  0
  151.1905  145.2132  160.8796 H   0  0  0  0  0  0  0  0  0  0  0  0
  150.4418  143.6614  161.1842 H   0  0  0  0  0  0  0  0  0  0  0  0
  153.4405  144.2088  160.9341 H   0  0  0  0  0  0  0  0  0  0  0  0
  152.5915  143.7565  162.3963 H   0  0  0  0  0  0  0  0  0  0  0  0
  153.7683  141.8035  161.3218 H   0  0  0  0  0  0  0  0  0  0  0  0
  152.0457  141.5441  161.4684 H   0  0  0  0  0  0  0  0  0  0  0  0
  153.5142  142.4690  158.9610 H   0  0  0  0  0  0  0  0  0  0  0  0
  153.8655  140.0905  159.4128 H   0  0  0  0  0  0  0  0  0  0  0  0
  152.1537  139.8159  159.6261 H   0  0  0  0  0  0  0  0  0  0  0  0
  1  2  3  0  0  0  0
  2  3  1  0  0  0  0
  3  8  1  0  0  0  0
  3  4  2  0  0  0  0
  4  5  1  0  0  0  0
  5  6  2  0  0  0  0
  5 21  1  0  0  0  0
  6  7  1  0  0  0  0
  6 22  1  0  0  0  0
  7  8  2  0  0  0  0
  8  9  1  0  0  0  0
  9 10  1  0  0  0  0
  9 23  1  0  0  0  0
 10 11  1  0  0  0  0
 10 24  1  0  0  0  0
 10 25  1  0  0  0  0
 11 20  1  0  0  0  0
 11 12  1  0  0  0  0
 11 26  1  0  0  0  0
 12 13  1  0  0  0  0
 12 27  1  0  0  0  0
 12 28  1  0  0  0  0
 13 18  1  0  0  0  0
 13 14  1  0  0  0  0
 14 15  1  0  0  0  0
 14 29  1  0  0  0  0
 14 30  1  0  0  0  0
 15 16  1  0  0  0  0
 15 31  1  0  0  0  0
 15 32  1  0  0  0  0
 16 17  1  0  0  0  0
 16 33  1  0  0  0  0
 16 34  1  0  0  0  0
 17 18  1  0  0  0  0
 17 35  1  0  0  0  0
 17 36  1  0  0  0  0
 18 19  1  0  0  0  0
 18 37  1  0  0  0  0
 19 20  1  0  0  0  0
 19 38  1  0  0  0  0
 19 39  1  0  0  0  0
M  END
> <s_m_source_file>
AV-unprocessed.smi

> <i_m_source_file_index>
3068

> <i_lp_mmshare_version>
43012

> <i_f3d_flags>
0

> <s_epik_input>
TiNDYzFuW2NIXVtjSF1uYzFbTkhdW0NIMl1bQ0BIXShbQ0gyXTIpT1tDSDJdW0NAQEhdKE4yMylbQ0gyXVtDSDJdW0NIMl1bQ0gyXTM=

> <s_epik_cmdline>
J2VwaWtfcHl0aG9uJywgJy1waCcsICc3LjAnLCAnLXRuJywgJzgnLCAnLW1hJywgJzIwMCcsICctbWV0YWxfYmluZGluZycsICctaW1hZScsICc8aW5maWxlLm1hZT4nLCAnLW9tYWUnLCAnPG91dGZpbGUubWFlPic=

> <r_epik_Ionization_Penalty>
1.22359

> <r_epik_Ionization_Penalty_Charging>
0

> <r_epik_Ionization_Penalty_Neutral>
1.22359

> <r_epik_State_Penalty>
1.29103

> <r_epik_Charging_Adjusted_Penalty>
1.29103

> <i_epik_Tot_Q>
0

> <i_epik_Tot_abs_Q>
0

> <r_epik_Metal_State_Penalty>
1.29103

> <b_epik_Metal_Only>
0

> <s_lp_Force_Field>
OPLS_2005

> <r_lp_Energy>
49.2936

> <b_lp_Chiralities_Consistent>
1

> <s_lp_Variant>
AV-unprocessed.smi:3068-10

> <Gold.Version>
5.8.1

> <Gold.Id.Protein>
6NUR|6NUR_protein|mol2

> <Gold.PLP.Fitness>
40.7200

> <Gold.PLP.PLP>
-30.6468

> <Gold.PLP.part.hbond>
-2.0000

> <Gold.PLP.part.metal>
0.0000

> <Gold.PLP.part.buried>
-5.1728

> <Gold.PLP.part.nonpolar>
-23.9073

> <Gold.PLP.part.repulsive>
0.2934

> <Gold.PLP.ligand.clash>
0.0277

> <Gold.PLP.ligand.torsion>
0.7501

> <Gold.PLP.Chemscore.Hbond>
1.8664

> <Gold.PLP.Chemscore.CHOScore>
1.9991

> <Gold.PLP.Chemscore.Metal>
0.0000

> <Gold.Chemscore.Hbonds>
donor molecule, donor type, donor heavy atom, donor atom, acceptor molecule, acceptor atom, score
      P1  H  6934  6946       L1     1  0.93
      P1  H  7997  8009       L1    20  0.99
      L1  C     5    21       P1 10175  1.00
      L1  C     6    22       P1  7957  0.87

> <Gold.PLP.Chemscore.Internal.Correction>
0.0047

> <Gold.Rescore>
     Score         DG    S(hbond)    S(metal)    S(lipo)     H(rot)  DE(clash)    DE(int)     intcor
     17.72     -18.54       1.67        0.00      92.52       1.30       0.01       0.81       ----

> <Gold.Chemscore.Fitness>
17.7218

> <Gold.Chemscore.DG>
-18.5425

> <Gold.Chemscore.ZeroCoef>
-5.4800

> <Gold.Chemscore.Hbond>
1.6679

> <Gold.Chemscore.Metal>
0.0000

> <Gold.Chemscore.Lipo>
92.5166

> <Gold.Chemscore.Internal_Hbond>
0.0000

> <Gold.Chemscore.DEClash>
0.0059

> <Gold.Chemscore.DEInternal>
0.8147

> <Gold.Chemscore.Rot>
1.3019

> <Gold.Chemscore.Internal.Correction>
   9.000000E+99

> <Gold.Chemscore.Hbonds>
donor molecule, donor type, donor heavy atom, donor atom, acceptor molecule, acceptor atom, score
      P1  H  6934  6946       L1     1  0.83
      P1  H  7997  8009       L1    20  0.80

> <Gold.Chemscore.Hbond.Weighted>
-5.5708

> <Gold.Chemscore.Metal.Weighted>
-0.0000

> <Gold.Chemscore.Lipo.Weighted>
-10.8244

> <Gold.Chemscore.Internal_Hbond.Weighted>
0.0000

> <Gold.Chemscore.DEClash.Weighted>
0.0059

> <Gold.Chemscore.DEInternal.Weighted>
0.8147

> <Gold.Chemscore.Rot.Weighted>
3.3327

> <Gold.Chemscore.Internal.Correction.Weighted>
   9.000000E+99

> <Gold.Protein.RotatedTorsions>
[ 6907 6896 6895 6894 ] final  -83.38 input  -60.11 | X-H torsion
[ 7974 7965 7964 7962 ] final   16.10 input  175.53 | X-H torsion
[ 8008 7997 7996 7995 ] final  170.07 input   59.86 | X-H torsion
[ 10167 10162 10161 10158 ] final  112.26 input  -65.29 | X-H torsion
[ 10718 10713 10712 10709 ] final  173.86 input   66.30 | X-H torsion
[ 10763 10752 10751 10750 ] final -151.13 input  -60.55 | X-H torsion
[ 11005 11000 10999 10996 ] final -170.02 input  -57.11 | X-H torsion

> <Gold.Protein.ActiveResidues>
 VAL166  LYS551  ARG553  GLY616  TRP617  ASP618  TYR619  PRO620  LYS621  CYS622 
 ASP623  PHE694  ASN695  SER759  ASP760  ASP761  ALA762  ILE779  LEU786  VAL792 
 PHE793  MET794  SER795  GLU796  ALA797  LYS798  CYS799  TRP800  GLU811  SER814 

> <Gold.Protein.RotatedAtoms>
  150.6886  134.3521  159.4913 H   0  0  0  0  0  0  0  0  0  0  0  0  # atno 6907 bound_to 6896
  152.1361  134.9095  160.0565 H   0  0  0  0  0  0  0  0  0  0  0  0  # atno 6908 bound_to 6896
  152.0247  133.3878  159.4309 H   0  0  0  0  0  0  0  0  0  0  0  0  # atno 6909 bound_to 6896
  146.2259  139.8797  142.8573 H   0  0  0  0  0  0  0  0  0  0  0  0  # atno 7974 bound_to 7965
  156.1399  140.1547  156.8936 H   0  0  0  0  0  0  0  0  0  0  0  0  # atno 8008 bound_to 7997
  154.4979  140.0833  156.7774 H   0  0  0  0  0  0  0  0  0  0  0  0  # atno 8009 bound_to 7997
  155.4097  140.3418  155.4265 H   0  0  0  0  0  0  0  0  0  0  0  0  # atno 8010 bound_to 7997
  139.6549  144.7129  151.1976 H   0  0  0  0  0  0  0  0  0  0  0  0  # atno 10167 bound_to 10162
  156.9581  131.0052  151.2934 H   0  0  0  0  0  0  0  0  0  0  0  0  # atno 10718 bound_to 10713
  154.8076  135.3267  154.7389 H   0  0  0  0  0  0  0  0  0  0  0  0  # atno 10763 bound_to 10752
  153.8045  135.6901  153.4855 H   0  0  0  0  0  0  0  0  0  0  0  0  # atno 10764 bound_to 10752
  153.1833  135.4578  155.0001 H   0  0  0  0  0  0  0  0  0  0  0  0  # atno 10765 bound_to 10752
  140.5242  134.5680  157.5056 H   0  0  0  0  0  0  0  0  0  0  0  0  # atno 11005 bound_to 11000
  145.2525  141.0049  143.3873 LP  0  0  0  0  0  0  0  0  0  0  0  0  # atno 17320 bound_to 7965
  144.9363  139.4240  143.6471 LP  0  0  0  0  0  0  0  0  0  0  0  0  # atno 17321 bound_to 7965
  140.7555  143.6088  150.8626 LP  0  0  0  0  0  0  0  0  0  0  0  0  # atno 17342 bound_to 10162
  139.9740  143.6025  152.2964 LP  0  0  0  0  0  0  0  0  0  0  0  0  # atno 17343 bound_to 10162
  157.5677  130.8289  149.8349 LP  0  0  0  0  0  0  0  0  0  0  0  0  # atno 17370 bound_to 10713
  156.0334  130.3758  150.1626 LP  0  0  0  0  0  0  0  0  0  0  0  0  # atno 17371 bound_to 10713
  139.9589  134.7486  156.0280 LP  0  0  0  0  0  0  0  0  0  0  0  0  # atno 17394 bound_to 11000
  141.1317  133.6585  156.3484 LP  0  0  0  0  0  0  0  0  0  0  0  0  # atno 17395 bound_to 11000

$$$$
