AV-unprocessed.smi:38|AV-procd|sdf|341|dock9
  -GOLD-   2262016183D 1   1.00000     0.00000
 Structure written by MMmdl.
 28 29  0  0  0  0  0  0  0  0  1 V2000
  149.5021  139.2667  155.1424 O   0  0  0  0  0  0  0  0  0  0  0  0
  150.1309  140.0864  155.8089 C   0  0  0  0  0  0  0  0  0  0  0  0
  151.2649  139.6892  156.5238 N   0  0  0  0  0  0  0  0  0  0  0  0
  152.0601  140.5221  157.3132 C   0  0  0  0  0  0  0  0  0  0  0  0
  153.0483  140.0632  157.8845 O   0  0  0  0  0  0  0  0  0  0  0  0
  151.6788  141.8794  157.4042 N   0  0  0  0  0  0  0  0  0  0  0  0
  152.4975  142.8306  158.2466 C   0  0  1  0  0  0  0  0  0  0  0  0
  152.0390  144.2750  158.0410 C   0  0  0  0  0  0  0  0  0  0  0  0
  152.1525  144.8257  159.4470 C   0  0  1  0  0  0  0  0  0  0  0  0
  151.2908  145.9311  159.6271 O   0  0  0  0  0  0  0  0  0  0  0  0
  151.7414  143.6190  160.2948 C   0  0  2  0  0  0  0  0  0  0  0  0
  152.2853  143.6657  161.7308 C   0  0  0  0  0  0  0  0  0  0  0  0
  151.9540  142.4756  162.4134 O   0  0  0  0  0  0  0  0  0  0  0  0
  152.3163  142.5146  159.5959 O   0  0  0  0  0  0  0  0  0  0  0  0
  150.5652  142.3209  156.7020 C   0  0  0  0  0  0  0  0  0  0  0  0
  149.8045  141.5036  155.9360 C   0  0  0  0  0  0  0  0  0  0  0  0
  148.7416  142.0040  155.2834 F   0  0  0  0  0  0  0  0  0  0  0  0
  151.5329  138.7179  156.4609 H   0  0  0  0  0  0  0  0  0  0  0  0
  153.5516  142.6727  158.0134 H   0  0  0  0  0  0  0  0  0  0  0  0
  153.1846  145.1118  159.6555 H   0  0  0  0  0  0  0  0  0  0  0  0
  150.6539  143.5240  160.2892 H   0  0  0  0  0  0  0  0  0  0  0  0
  152.6622  144.7902  157.3096 H   0  0  0  0  0  0  0  0  0  0  0  0
  151.0019  144.2892  157.7003 H   0  0  0  0  0  0  0  0  0  0  0  0
  150.9794  145.9288  160.5194 H   0  0  0  0  0  0  0  0  0  0  0  0
  153.3642  143.8240  161.7422 H   0  0  0  0  0  0  0  0  0  0  0  0
  151.8300  144.4922  162.2772 H   0  0  0  0  0  0  0  0  0  0  0  0
  152.7534  142.0588  162.6965 H   0  0  0  0  0  0  0  0  0  0  0  0
  150.2841  143.3617  156.7560 H   0  0  0  0  0  0  0  0  0  0  0  0
  1  2  2  0  0  0  0
  2 16  1  0  0  0  0
  2  3  1  0  0  0  0
  3 18  1  0  0  0  0
  3  4  1  0  0  0  0
  4  5  2  0  0  0  0
  4  6  1  0  0  0  0
  6  7  1  0  0  0  0
  6 15  1  0  0  0  0
  7 19  1  0  0  0  0
  7 14  1  0  0  0  0
  7  8  1  0  0  0  0
  8  9  1  0  0  0  0
  8 22  1  0  0  0  0
  8 23  1  0  0  0  0
  9 20  1  0  0  0  0
  9 10  1  0  0  0  0
  9 11  1  0  0  0  0
 10 24  1  0  0  0  0
 11 21  1  0  0  0  0
 11 12  1  0  0  0  0
 11 14  1  0  0  0  0
 12 13  1  0  0  0  0
 12 25  1  0  0  0  0
 12 26  1  0  0  0  0
 13 27  1  0  0  0  0
 15 16  2  0  0  0  0
 15 28  1  0  0  0  0
 16 17  1  0  0  0  0
M  END
> <s_m_source_file>
AV-unprocessed.smi

> <i_m_source_file_index>
38

> <i_lp_mmshare_version>
43012

> <i_f3d_flags>
0

> <s_epik_input>
Tz1jMVtuSF1jKD1PKW4oW2NIXWMxRilbQ0BIXTJbQ0gyXVtDQEhdKFtPSF0pW0NASF0oTzIpW0NIMl1bT0hd

> <s_epik_cmdline>
J2VwaWtfcHl0aG9uJywgJy1waCcsICc3LjAnLCAnLXRuJywgJzgnLCAnLW1hJywgJzIwMCcsICctbWV0YWxfYmluZGluZycsICctaW1hZScsICc8aW5maWxlLm1hZT4nLCAnLW9tYWUnLCAnPG91dGZpbGUubWFlPic=

> <r_lp_tautomer_probability>
0.999537

> <r_epik_Ionization_Penalty>
0.0357432

> <r_epik_Ionization_Penalty_Charging>
0.0357431

> <r_epik_Ionization_Penalty_Neutral>
1.19946e-07

> <r_epik_State_Penalty>
0.0298169

> <r_epik_Charging_Adjusted_Penalty>
0.06556

> <i_epik_Tot_Q>
0

> <i_epik_Tot_abs_Q>
0

> <r_epik_Metal_State_Penalty>
2.348

> <b_epik_Metal_Only>
0

> <s_epik_Chemistry_Notes>
This compound contains an acetal/aminal-like group ( X-CH(R)-Y where X, Y are N, S, or O) that may be acid/base labile, releasing an aldehyde.

> <s_lp_Force_Field>
OPLS_2005

> <r_lp_Energy>
27.15

> <b_lp_Chiralities_Consistent>
1

> <s_lp_Variant>
AV-unprocessed.smi:38-7

> <Gold.Version>
5.8.1

> <Gold.Id.Protein>
6NUR|6NUR_protein|mol2

> <Gold.PLP.Fitness>
41.5637

> <Gold.PLP.PLP>
-32.8880

> <Gold.PLP.part.hbond>
-4.8119

> <Gold.PLP.part.metal>
0.0000

> <Gold.PLP.part.buried>
-2.9235

> <Gold.PLP.part.nonpolar>
-25.0239

> <Gold.PLP.part.repulsive>
0.1378

> <Gold.PLP.ligand.clash>
0.0000

> <Gold.PLP.ligand.torsion>
0.1539

> <Gold.PLP.Chemscore.Hbond>
1.9913

> <Gold.PLP.Chemscore.CHOScore>
1.0000

> <Gold.PLP.Chemscore.Metal>
0.0000

> <Gold.Chemscore.Hbonds>
donor molecule, donor type, donor heavy atom, donor atom, acceptor molecule, acceptor atom, score
      P1  H  6933  6945       L1    13  0.98
      P1  H  7997  8008       L1     5  1.00
      L1  C    15    28       P1  8028  1.00

> <Gold.PLP.Chemscore.Internal.Correction>
0.0097

> <Gold.Rescore>
     Score         DG    S(hbond)    S(metal)    S(lipo)     H(rot)  DE(clash)    DE(int)     intcor
      9.08     -11.99       1.92        0.00      64.58       2.91       2.55       0.37       ----

> <Gold.Chemscore.Fitness>
9.0750

> <Gold.Chemscore.DG>
-11.9945

> <Gold.Chemscore.ZeroCoef>
-5.4800

> <Gold.Chemscore.Hbond>
1.9217

> <Gold.Chemscore.Metal>
0.0000

> <Gold.Chemscore.Lipo>
64.5816

> <Gold.Chemscore.Internal_Hbond>
0.0000

> <Gold.Chemscore.DEClash>
2.5457

> <Gold.Chemscore.DEInternal>
0.3738

> <Gold.Chemscore.Rot>
2.9141

> <Gold.Chemscore.Internal.Correction>
   9.000000E+99

> <Gold.Chemscore.Hbonds>
donor molecule, donor type, donor heavy atom, donor atom, acceptor molecule, acceptor atom, score
      P1  H  6933  6945       L1    13  0.87
      P1  H  7997  8008       L1     5  0.88

> <Gold.Chemscore.Hbond.Weighted>
-6.4186

> <Gold.Chemscore.Metal.Weighted>
-0.0000

> <Gold.Chemscore.Lipo.Weighted>
-7.5560

> <Gold.Chemscore.Internal_Hbond.Weighted>
0.0000

> <Gold.Chemscore.DEClash.Weighted>
2.5457

> <Gold.Chemscore.DEInternal.Weighted>
0.3738

> <Gold.Chemscore.Rot.Weighted>
7.4601

> <Gold.Chemscore.Internal.Correction.Weighted>
   9.000000E+99

> <Gold.Protein.RotatedTorsions>
[ 6907 6896 6895 6894 ] final   34.04 input  -60.11 | X-H torsion
[ 7974 7965 7964 7962 ] final   87.30 input  175.53 | X-H torsion
[ 8008 7997 7996 7995 ] final  -78.66 input   59.86 | X-H torsion
[ 10167 10162 10161 10158 ] final  119.13 input  -65.29 | X-H torsion
[ 10718 10713 10712 10709 ] final  -81.53 input   66.30 | X-H torsion
[ 10763 10752 10751 10750 ] final  133.23 input  -60.55 | X-H torsion
[ 11005 11000 10999 10996 ] final   -8.39 input  -57.11 | X-H torsion

> <Gold.Protein.ActiveResidues>
 VAL166  LYS551  ARG553  GLY616  TRP617  ASP618  TYR619  PRO620  LYS621  CYS622 
 ASP623  PHE694  ASN695  SER759  ASP760  ASP761  ALA762  ILE779  LEU786  VAL792 
 PHE793  MET794  SER795  GLU796  ALA797  LYS798  CYS799  TRP800  GLU811  SER814 

> <Gold.Protein.RotatedAtoms>
  152.0969  134.9368  160.0570 H   0  0  0  0  0  0  0  0  0  0  0  0  # atno 6907 bound_to 6896
  152.0598  133.4052  159.4421 H   0  0  0  0  0  0  0  0  0  0  0  0  # atno 6908 bound_to 6896
  150.6838  134.3133  159.4799 H   0  0  0  0  0  0  0  0  0  0  0  0  # atno 6909 bound_to 6896
  145.5608  139.2304  143.2460 H   0  0  0  0  0  0  0  0  0  0  0  0  # atno 7974 bound_to 7965
  154.5710  140.0691  156.8964 H   0  0  0  0  0  0  0  0  0  0  0  0  # atno 8008 bound_to 7997
  155.2634  140.3360  155.4253 H   0  0  0  0  0  0  0  0  0  0  0  0  # atno 8009 bound_to 7997
  156.2118  140.1762  156.7663 H   0  0  0  0  0  0  0  0  0  0  0  0  # atno 8010 bound_to 7997
  139.6066  144.7071  151.2940 H   0  0  0  0  0  0  0  0  0  0  0  0  # atno 10167 bound_to 10162
  156.0049  130.4606  150.3967 H   0  0  0  0  0  0  0  0  0  0  0  0  # atno 10718 bound_to 10713
  153.8037  135.3138  155.3393 H   0  0  0  0  0  0  0  0  0  0  0  0  # atno 10763 bound_to 10752
  154.8079  135.4686  154.0442 H   0  0  0  0  0  0  0  0  0  0  0  0  # atno 10764 bound_to 10752
  153.1798  135.6891  153.8581 H   0  0  0  0  0  0  0  0  0  0  0  0  # atno 10765 bound_to 10752
  140.7230  133.8812  155.8835 H   0  0  0  0  0  0  0  0  0  0  0  0  # atno 11005 bound_to 11000
  146.1852  140.6433  142.9171 LP  0  0  0  0  0  0  0  0  0  0  0  0  # atno 17320 bound_to 7965
  144.7484  140.5127  143.6819 LP  0  0  0  0  0  0  0  0  0  0  0  0  # atno 17321 bound_to 7965
  140.7289  143.6923  150.7912 LP  0  0  0  0  0  0  0  0  0  0  0  0  # atno 17342 bound_to 10162
  140.0509  143.5250  152.2674 LP  0  0  0  0  0  0  0  0  0  0  0  0  # atno 17343 bound_to 10162
  157.2038  131.0444  151.2636 LP  0  0  0  0  0  0  0  0  0  0  0  0  # atno 17370 bound_to 10713
  157.3951  130.7303  149.6726 LP  0  0  0  0  0  0  0  0  0  0  0  0  # atno 17371 bound_to 10713
  140.9987  134.1180  157.4338 LP  0  0  0  0  0  0  0  0  0  0  0  0  # atno 17394 bound_to 11000
  139.8843  135.0062  156.6363 LP  0  0  0  0  0  0  0  0  0  0  0  0  # atno 17395 bound_to 11000

$$$$
