AV-unprocessed.smi:160|AV-procd|sdf|1367|dock4
  -GOLD-   2262019 83D 1   1.00000     0.00000
 Structure written by MMmdl.
 28 29  0  0  0  0  0  0  0  0  2 V2000
  151.8301  137.3235  154.5912 N   0  5  0  0  0  0  0  0  0  0  0  0
  152.2174  138.5760  154.9185 C   0  0  0  0  0  0  0  0  0  0  0  0
  153.3751  138.9620  155.0774 O   0  0  0  0  0  0  0  0  0  0  0  0
  151.0820  139.5560  155.0946 C   0  0  0  0  0  0  0  0  0  0  0  0
  151.3106  140.8088  155.5934 N   0  0  0  0  0  0  0  0  0  0  0  0
  150.0695  141.2760  155.5687 C   0  0  0  0  0  0  0  0  0  0  0  0
  149.1659  140.4125  155.0956 N   0  0  0  0  0  0  0  0  0  0  0  0
  147.6808  140.5689  154.9411 C   0  0  2  0  0  0  0  0  0  0  0  0
  147.0792  139.4509  155.5170 O   0  0  0  0  0  0  0  0  0  0  0  0
  146.5691  138.5611  154.5215 C   0  0  2  0  0  0  0  0  0  0  0  0
  147.0827  137.1345  154.7795 C   0  0  0  0  0  0  0  0  0  0  0  0
  146.9343  136.3449  153.6184 O   0  0  0  0  0  0  0  0  0  0  0  0
  147.0162  139.1355  153.1665 C   0  0  1  0  0  0  0  0  0  0  0  0
  145.9983  138.9793  152.1978 O   0  0  0  0  0  0  0  0  0  0  0  0
  147.2338  140.6097  153.4710 C   0  0  2  0  0  0  0  0  0  0  0  0
  148.1819  141.1906  152.5937 O   0  0  0  0  0  0  0  0  0  0  0  0
  149.8156  139.2636  154.7850 N   0  0  0  0  0  0  0  0  0  0  0  0
  147.4473  141.4789  155.4947 H   0  0  0  0  0  0  0  0  0  0  0  0
  145.4796  138.5935  154.5853 H   0  0  0  0  0  0  0  0  0  0  0  0
  147.9382  138.6624  152.8252 H   0  0  0  0  0  0  0  0  0  0  0  0
  146.2914  141.1580  153.4267 H   0  0  0  0  0  0  0  0  0  0  0  0
  150.9276  136.9836  154.9444 H   0  0  0  0  0  0  0  0  0  0  0  0
  149.8138  142.2706  155.9031 H   0  0  0  0  0  0  0  0  0  0  0  0
  148.1454  137.1571  155.0228 H   0  0  0  0  0  0  0  0  0  0  0  0
  146.5692  136.6693  155.6208 H   0  0  0  0  0  0  0  0  0  0  0  0
  147.7119  136.4420  153.0905 H   0  0  0  0  0  0  0  0  0  0  0  0
  145.2507  139.4892  152.4705 H   0  0  0  0  0  0  0  0  0  0  0  0
  148.3619  140.5797  151.8961 H   0  0  0  0  0  0  0  0  0  0  0  0
  1  2  1  0  0  0  0
  1 22  1  0  0  0  0
  2  3  2  0  0  0  0
  2  4  1  0  0  0  0
  4 17  2  0  0  0  0
  4  5  1  0  0  0  0
  5  6  2  0  0  0  0
  6  7  1  0  0  0  0
  6 23  1  0  0  0  0
  7  8  1  0  0  0  0
  7 17  1  0  0  0  0
  8 18  1  0  0  0  0
  8 15  1  0  0  0  0
  8  9  1  0  0  0  0
  9 10  1  0  0  0  0
 10 19  1  0  0  0  0
 10 11  1  0  0  0  0
 10 13  1  0  0  0  0
 11 12  1  0  0  0  0
 11 24  1  0  0  0  0
 11 25  1  0  0  0  0
 12 26  1  0  0  0  0
 13 20  1  0  0  0  0
 13 14  1  0  0  0  0
 13 15  1  0  0  0  0
 14 27  1  0  0  0  0
 15 21  1  0  0  0  0
 15 16  1  0  0  0  0
 16 28  1  0  0  0  0
M  CHG  1   1  -1
M  END
> <s_m_source_file>
AV-unprocessed.smi

> <i_m_source_file_index>
160

> <i_lp_mmshare_version>
43012

> <i_f3d_flags>
0

> <s_epik_input>
W05IMl1DKD1PKWMxbltjSF1uKG4xKVtDQEBIXTJPW0NASF0oW0NIMl1bT0hdKVtDQEBIXShbT0hdKVtDQEhdMltPSF0=

> <s_epik_cmdline>
J2VwaWtfcHl0aG9uJywgJy1waCcsICc3LjAnLCAnLXRuJywgJzgnLCAnLW1hJywgJzIwMCcsICctbWV0YWxfYmluZGluZycsICctaW1hZScsICc8aW5maWxlLm1hZT4nLCAnLW9tYWUnLCAnPG91dGZpbGUubWFlPic=

> <r_lp_tautomer_probability>
1

> <r_epik_Ionization_Penalty>
6.6993

> <r_epik_Ionization_Penalty_Charging>
6.6993

> <r_epik_Ionization_Penalty_Neutral>
6.01698e-06

> <r_epik_State_Penalty>
6.69929

> <r_epik_Charging_Adjusted_Penalty>
13.3986

> <i_epik_Tot_Q>
-1

> <i_epik_Tot_abs_Q>
1

> <r_epik_Metal_State_Penalty>
2.62798

> <b_epik_Metal_Only>
1

> <s_epik_Chemistry_Notes>
This compound contains an acetal/aminal-like group ( X-CH(R)-Y where X, Y are N, S, or O) that may be acid/base labile, releasing an aldehyde.

> <s_lp_Force_Field>
OPLS_2005

> <r_lp_Energy>
43.4077

> <b_lp_Chiralities_Consistent>
1

> <s_lp_Variant>
AV-unprocessed.smi:160-25

> <Gold.Version>
5.8.1

> <Gold.Id.Protein>
6NUR|6NUR_protein|mol2

> <Gold.PLP.Fitness>
44.4213

> <Gold.PLP.PLP>
-23.4619

> <Gold.PLP.part.hbond>
-6.7037

> <Gold.PLP.part.metal>
0.0000

> <Gold.PLP.part.buried>
-1.5702

> <Gold.PLP.part.nonpolar>
-15.7202

> <Gold.PLP.part.repulsive>
0.1502

> <Gold.PLP.ligand.clash>
0.0000

> <Gold.PLP.ligand.torsion>
0.3547

> <Gold.PLP.Chemscore.Hbond>
6.5101

> <Gold.PLP.Chemscore.CHOScore>
0.7087

> <Gold.PLP.Chemscore.Metal>
0.0000

> <Gold.Chemscore.Hbonds>
donor molecule, donor type, donor heavy atom, donor atom, acceptor molecule, acceptor atom, score
      L1  H    12    26       P1  7948  1.00
      L1  H    14    27       P1 10175  1.00
      L1  H    16    28       P1  7957  0.75
      P1  H  7997  8010       L1     3  1.00
      P1  H  8011  8017       L1    16  0.73
      P1  H 10752 10765       L1     1  1.98
      L1  C     6    23       P1  8028  0.75

> <Gold.PLP.Chemscore.Internal.Correction>
0.0124

> <Gold.Rescore>
     Score         DG    S(hbond)    S(metal)    S(lipo)     H(rot)  DE(clash)    DE(int)     intcor
     11.29     -13.07       4.79        0.00      16.39       4.04       1.23       0.54       ----

> <Gold.Chemscore.Fitness>
11.2938

> <Gold.Chemscore.DG>
-13.0701

> <Gold.Chemscore.ZeroCoef>
-5.4800

> <Gold.Chemscore.Hbond>
4.7950

> <Gold.Chemscore.Metal>
0.0000

> <Gold.Chemscore.Lipo>
16.3923

> <Gold.Chemscore.Internal_Hbond>
0.0000

> <Gold.Chemscore.DEClash>
1.2341

> <Gold.Chemscore.DEInternal>
0.5421

> <Gold.Chemscore.Rot>
4.0403

> <Gold.Chemscore.Internal.Correction>
   9.000000E+99

> <Gold.Chemscore.Hbonds>
donor molecule, donor type, donor heavy atom, donor atom, acceptor molecule, acceptor atom, score
      L1  H    12    26       P1  7948  1.00
      L1  H    14    27       P1 10175  1.00
      L1  H    16    28       P1  7957  0.69
      P1  H  7997  8010       L1     3  0.96
      P1  H  8011  8017       L1    16  0.14
      P1  H 10752 10765       L1     1  0.40

> <Gold.Chemscore.Hbond.Weighted>
-16.0152

> <Gold.Chemscore.Metal.Weighted>
-0.0000

> <Gold.Chemscore.Lipo.Weighted>
-1.9179

> <Gold.Chemscore.Internal_Hbond.Weighted>
0.0000

> <Gold.Chemscore.DEClash.Weighted>
1.2341

> <Gold.Chemscore.DEInternal.Weighted>
0.5421

> <Gold.Chemscore.Rot.Weighted>
10.3431

> <Gold.Chemscore.Internal.Correction.Weighted>
   9.000000E+99

> <Gold.Protein.RotatedTorsions>
[ 6907 6896 6895 6894 ] final   19.87 input  -60.11 | X-H torsion
[ 7974 7965 7964 7962 ] final    4.38 input  175.53 | X-H torsion
[ 8008 7997 7996 7995 ] final   93.33 input   59.86 | X-H torsion
[ 10167 10162 10161 10158 ] final  -33.78 input  -65.29 | X-H torsion
[ 10718 10713 10712 10709 ] final -104.12 input   66.30 | X-H torsion
[ 10763 10752 10751 10750 ] final  168.18 input  -60.55 | X-H torsion
[ 11005 11000 10999 10996 ] final  -78.32 input  -57.11 | X-H torsion

> <Gold.Protein.ActiveResidues>
 VAL166  LYS551  ARG553  GLY616  TRP617  ASP618  TYR619  PRO620  LYS621  CYS622 
 ASP623  PHE694  ASN695  SER759  ASP760  ASP761  ALA762  ILE779  LEU786  VAL792 
 PHE793  MET794  SER795  GLU796  ALA797  LYS798  CYS799  TRP800  GLU811  SER814 

> <Gold.Protein.RotatedAtoms>
  151.8876  135.0429  160.0494 H   0  0  0  0  0  0  0  0  0  0  0  0  # atno 6907 bound_to 6896
  152.2462  133.5172  159.5307 H   0  0  0  0  0  0  0  0  0  0  0  0  # atno 6908 bound_to 6896
  150.7069  134.0939  159.3984 H   0  0  0  0  0  0  0  0  0  0  0  0  # atno 6909 bound_to 6896
  146.2444  140.0544  142.8373 H   0  0  0  0  0  0  0  0  0  0  0  0  # atno 7974 bound_to 7965
  156.0455  140.3314  155.7292 H   0  0  0  0  0  0  0  0  0  0  0  0  # atno 8008 bound_to 7997
  155.5680  140.0625  157.2831 H   0  0  0  0  0  0  0  0  0  0  0  0  # atno 8009 bound_to 7997
  154.4412  140.1866  156.0838 H   0  0  0  0  0  0  0  0  0  0  0  0  # atno 8010 bound_to 7997
  140.7198  143.3595  151.1991 H   0  0  0  0  0  0  0  0  0  0  0  0  # atno 10167 bound_to 10162
  156.0292  130.5500  150.7351 H   0  0  0  0  0  0  0  0  0  0  0  0  # atno 10718 bound_to 10713
  154.3648  135.2753  155.2300 H   0  0  0  0  0  0  0  0  0  0  0  0  # atno 10763 bound_to 10752
  154.4472  135.5939  153.6171 H   0  0  0  0  0  0  0  0  0  0  0  0  # atno 10764 bound_to 10752
  152.9841  135.6033  154.3872 H   0  0  0  0  0  0  0  0  0  0  0  0  # atno 10765 bound_to 10752
  141.1664  133.7058  156.7953 H   0  0  0  0  0  0  0  0  0  0  0  0  # atno 11005 bound_to 11000
  145.0956  140.9312  143.4743 LP  0  0  0  0  0  0  0  0  0  0  0  0  # atno 17320 bound_to 7965
  145.0726  139.3020  143.5824 LP  0  0  0  0  0  0  0  0  0  0  0  0  # atno 17321 bound_to 7965
  139.7144  143.9324  152.2961 LP  0  0  0  0  0  0  0  0  0  0  0  0  # atno 17342 bound_to 10162
  139.9060  144.6884  150.8613 LP  0  0  0  0  0  0  0  0  0  0  0  0  # atno 17343 bound_to 10162
  157.4934  131.0913  151.0400 LP  0  0  0  0  0  0  0  0  0  0  0  0  # atno 17370 bound_to 10713
  157.0801  130.5899  149.5419 LP  0  0  0  0  0  0  0  0  0  0  0  0  # atno 17371 bound_to 10713
  140.2295  134.8696  157.3462 LP  0  0  0  0  0  0  0  0  0  0  0  0  # atno 17394 bound_to 11000
  140.1905  134.4377  155.7718 LP  0  0  0  0  0  0  0  0  0  0  0  0  # atno 17395 bound_to 11000

$$$$
