AV-unprocessed.smi:965|AV-procd|sdf|4281|dock3
  -GOLD-   22720 2183D 1   1.00000     0.00000
 Structure written by MMmdl.
 29 30  0  0  0  0  0  0  0  0  2 V2000
  152.4117  142.7942  159.1881 C   0  0  0  0  0  0  0  0  0  0  0  0
  152.2226  141.2738  159.2161 C   0  0  0  0  0  0  0  0  0  0  0  0
  151.8688  140.7187  157.8774 C   0  0  0  0  0  0  0  0  0  0  0  0
  150.7853  140.9931  157.1551 N   0  0  0  0  0  0  0  0  0  0  0  0
  151.0306  140.2682  156.0281 C   0  0  0  0  0  0  0  0  0  0  0  0
  150.0950  140.2360  154.8592 C   0  0  2  0  0  0  0  0  0  0  0  0
  148.7768  140.9777  155.1516 C   0  0  0  0  0  0  0  0  0  0  0  0
  147.8452  140.9152  153.9314 C   0  0  0  0  0  0  0  0  0  0  0  0
  147.6289  139.4616  153.4777 C   0  0  0  0  0  0  0  0  0  0  0  0
  148.9231  138.8025  153.1955 N   0  3  0  0  0  0  0  0  0  0  0  0
  149.8383  138.8001  154.3586 C   0  0  0  0  0  0  0  0  0  0  0  0
  152.1731  139.5923  156.0129 N   0  0  0  0  0  0  0  0  0  0  0  0
  152.7502  139.9016  157.2529 O   0  0  0  0  0  0  0  0  0  0  0  0
  152.6712  143.1719  160.1772 H   0  0  0  0  0  0  0  0  0  0  0  0
  151.4989  143.2974  158.8679 H   0  0  0  0  0  0  0  0  0  0  0  0
  153.2099  143.0791  158.5021 H   0  0  0  0  0  0  0  0  0  0  0  0
  153.1359  140.7911  159.5655 H   0  0  0  0  0  0  0  0  0  0  0  0
  151.4374  141.0090  159.9251 H   0  0  0  0  0  0  0  0  0  0  0  0
  150.5833  140.7716  154.0425 H   0  0  0  0  0  0  0  0  0  0  0  0
  148.2781  140.5266  156.0108 H   0  0  0  0  0  0  0  0  0  0  0  0
  148.9765  142.0167  155.4170 H   0  0  0  0  0  0  0  0  0  0  0  0
  146.8875  141.3789  154.1701 H   0  0  0  0  0  0  0  0  0  0  0  0
  148.2741  141.4950  153.1130 H   0  0  0  0  0  0  0  0  0  0  0  0
  147.0984  138.8984  154.2468 H   0  0  0  0  0  0  0  0  0  0  0  0
  147.0122  139.4337  152.5791 H   0  0  0  0  0  0  0  0  0  0  0  0
  148.7510  137.8482  152.9124 H   0  0  0  0  0  0  0  0  0  0  0  0
  150.7756  138.3237  154.0696 H   0  0  0  0  0  0  0  0  0  0  0  0
  149.4012  138.1897  155.1501 H   0  0  0  0  0  0  0  0  0  0  0  0
  149.3724  139.2918  152.4345 H   0  0  0  0  0  0  0  0  0  0  0  0
  1  2  1  0  0  0  0
  1 14  1  0  0  0  0
  1 15  1  0  0  0  0
  1 16  1  0  0  0  0
  2  3  1  0  0  0  0
  2 17  1  0  0  0  0
  2 18  1  0  0  0  0
  3 13  1  0  0  0  0
  3  4  2  0  0  0  0
  4  5  1  0  0  0  0
  5  6  1  0  0  0  0
  5 12  2  0  0  0  0
  6 11  1  0  0  0  0
  6  7  1  0  0  0  0
  6 19  1  0  0  0  0
  7  8  1  0  0  0  0
  7 20  1  0  0  0  0
  7 21  1  0  0  0  0
  8  9  1  0  0  0  0
  8 22  1  0  0  0  0
  8 23  1  0  0  0  0
  9 10  1  0  0  0  0
  9 24  1  0  0  0  0
  9 25  1  0  0  0  0
 10 11  1  0  0  0  0
 10 26  1  0  0  0  0
 10 29  1  0  0  0  0
 11 27  1  0  0  0  0
 11 28  1  0  0  0  0
 12 13  1  0  0  0  0
M  CHG  1  10   1
M  END
> <s_m_source_file>
AV-unprocessed.smi

> <i_m_source_file_index>
965

> <i_lp_mmshare_version>
43012

> <i_f3d_flags>
0

> <s_epik_input>
W0NIM11bQ0gyXWMxbmMobm8xKVtDQEBIXTJbQ0gyXVtDSDJdW0NIMl1bTkhdW0NIMl0y

> <s_epik_cmdline>
J2VwaWtfcHl0aG9uJywgJy1waCcsICc3LjAnLCAnLXRuJywgJzgnLCAnLW1hJywgJzIwMCcsICctbWV0YWxfYmluZGluZycsICctaW1hZScsICc8aW5maWxlLm1hZT4nLCAnLW9tYWUnLCAnPG91dGZpbGUubWFlPic=

> <r_lp_tautomer_probability>
1

> <r_epik_Ionization_Penalty>
0.000532935

> <r_epik_Ionization_Penalty_Charging>
0.000532935

> <r_epik_Ionization_Penalty_Neutral>
3.47051e-13

> <r_epik_State_Penalty>
0.000332992

> <r_epik_Charging_Adjusted_Penalty>
0.000865928

> <i_epik_Tot_Q>
1

> <i_epik_Tot_abs_Q>
1

> <r_epik_Metal_State_Penalty>
-0

> <b_epik_Metal_Only>
0

> <s_lp_Force_Field>
OPLS_2005

> <r_lp_Energy>
5.54084

> <b_lp_Chiralities_Consistent>
1

> <s_lp_Variant>
AV-unprocessed.smi:965-1

> <Gold.Version>
5.8.1

> <Gold.Id.Protein>
6NUR|6NUR_protein|mol2

> <Gold.PLP.Fitness>
37.1516

> <Gold.PLP.PLP>
-25.5376

> <Gold.PLP.part.hbond>
-3.1919

> <Gold.PLP.part.metal>
0.0000

> <Gold.PLP.part.buried>
-1.4700

> <Gold.PLP.part.nonpolar>
-20.9822

> <Gold.PLP.part.repulsive>
0.1126

> <Gold.PLP.ligand.clash>
0.0000

> <Gold.PLP.ligand.torsion>
0.1949

> <Gold.PLP.Chemscore.Hbond>
3.9840

> <Gold.PLP.Chemscore.CHOScore>
0.0000

> <Gold.PLP.Chemscore.Metal>
0.0000

> <Gold.Chemscore.Hbonds>
donor molecule, donor type, donor heavy atom, donor atom, acceptor molecule, acceptor atom, score
      L1  H    10    26       P1  7948  2.00
      L1  H    10    29       P1  7957  0.89
      P1  H  7997  8008       L1    13  0.70

> <Gold.PLP.Chemscore.Internal.Correction>
0.0519

> <Gold.Rescore>
     Score         DG    S(hbond)    S(metal)    S(lipo)     H(rot)  DE(clash)    DE(int)     intcor
     17.67     -17.75       2.82        0.00      51.34       1.24       0.03       0.06       ----

> <Gold.Chemscore.Fitness>
17.6669

> <Gold.Chemscore.DG>
-17.7479

> <Gold.Chemscore.ZeroCoef>
-5.4800

> <Gold.Chemscore.Hbond>
2.8242

> <Gold.Chemscore.Metal>
0.0000

> <Gold.Chemscore.Lipo>
51.3442

> <Gold.Chemscore.Internal_Hbond>
0.0000

> <Gold.Chemscore.DEClash>
0.0254

> <Gold.Chemscore.DEInternal>
0.0556

> <Gold.Chemscore.Rot>
1.2392

> <Gold.Chemscore.Internal.Correction>
   9.000000E+99

> <Gold.Chemscore.Hbonds>
donor molecule, donor type, donor heavy atom, donor atom, acceptor molecule, acceptor atom, score
      L1  H    10    26       P1  7948  0.98
      L1  H    10    29       P1  7957  0.87
      P1  H  7997  8008       L1    13  0.07

> <Gold.Chemscore.Hbond.Weighted>
-9.4330

> <Gold.Chemscore.Metal.Weighted>
-0.0000

> <Gold.Chemscore.Lipo.Weighted>
-6.0073

> <Gold.Chemscore.Internal_Hbond.Weighted>
0.0000

> <Gold.Chemscore.DEClash.Weighted>
0.0254

> <Gold.Chemscore.DEInternal.Weighted>
0.0556

> <Gold.Chemscore.Rot.Weighted>
3.1723

> <Gold.Chemscore.Internal.Correction.Weighted>
   9.000000E+99

> <Gold.Protein.RotatedTorsions>
[ 6907 6896 6895 6894 ] final  149.29 input  -60.11 | X-H torsion
[ 7974 7965 7964 7962 ] final   77.29 input  175.53 | X-H torsion
[ 8008 7997 7996 7995 ] final  -57.43 input   59.86 | X-H torsion
[ 10167 10162 10161 10158 ] final   99.03 input  -65.29 | X-H torsion
[ 10718 10713 10712 10709 ] final -124.65 input   66.30 | X-H torsion
[ 10763 10752 10751 10750 ] final   58.90 input  -60.55 | X-H torsion
[ 11005 11000 10999 10996 ] final   59.19 input  -57.11 | X-H torsion

> <Gold.Protein.ActiveResidues>
 VAL166  LYS551  ARG553  GLY616  TRP617  ASP618  TYR619  PRO620  LYS621  CYS622 
 ASP623  PHE694  ASN695  SER759  ASP760  ASP761  ALA762  ILE779  LEU786  VAL792 
 PHE793  MET794  SER795  GLU796  ALA797  LYS798  CYS799  TRP800  GLU811  SER814 

> <Gold.Protein.RotatedAtoms>
  152.1299  133.4402  159.4715 H   0  0  0  0  0  0  0  0  0  0  0  0  # atno 6907 bound_to 6896
  150.6877  134.2433  159.4490 H   0  0  0  0  0  0  0  0  0  0  0  0  # atno 6908 bound_to 6896
  152.0316  134.9764  160.0623 H   0  0  0  0  0  0  0  0  0  0  0  0  # atno 6909 bound_to 6896
  145.6919  139.2555  143.1755 H   0  0  0  0  0  0  0  0  0  0  0  0  # atno 7974 bound_to 7965
  154.4268  140.1107  156.5797 H   0  0  0  0  0  0  0  0  0  0  0  0  # atno 8008 bound_to 7997
  155.6126  140.3494  155.4608 H   0  0  0  0  0  0  0  0  0  0  0  0  # atno 8009 bound_to 7997
  156.0087  140.1214  157.0465 H   0  0  0  0  0  0  0  0  0  0  0  0  # atno 8010 bound_to 7997
  139.7655  144.6940  151.0231 H   0  0  0  0  0  0  0  0  0  0  0  0  # atno 10167 bound_to 10162
  156.1607  130.6599  151.0045 H   0  0  0  0  0  0  0  0  0  0  0  0  # atno 10718 bound_to 10713
  152.9881  135.5590  154.5626 H   0  0  0  0  0  0  0  0  0  0  0  0  # atno 10763 bound_to 10752
  154.5042  135.2799  155.1398 H   0  0  0  0  0  0  0  0  0  0  0  0  # atno 10764 bound_to 10752
  154.2816  135.6343  153.5402 H   0  0  0  0  0  0  0  0  0  0  0  0  # atno 10765 bound_to 10752
  140.0322  134.5995  155.9492 H   0  0  0  0  0  0  0  0  0  0  0  0  # atno 11005 bound_to 11000
  146.0874  140.7694  142.9612 LP  0  0  0  0  0  0  0  0  0  0  0  0  # atno 17320 bound_to 7965
  144.6994  140.3584  143.7168 LP  0  0  0  0  0  0  0  0  0  0  0  0  # atno 17321 bound_to 7965
  140.7810  143.4648  151.0227 LP  0  0  0  0  0  0  0  0  0  0  0  0  # atno 17342 bound_to 10162
  139.8333  143.7661  152.3180 LP  0  0  0  0  0  0  0  0  0  0  0  0  # atno 17343 bound_to 10162
  157.6730  131.0857  150.7566 LP  0  0  0  0  0  0  0  0  0  0  0  0  # atno 17370 bound_to 10713
  156.7628  130.4804  149.5433 LP  0  0  0  0  0  0  0  0  0  0  0  0  # atno 17371 bound_to 10713
  141.1837  133.6551  156.5128 LP  0  0  0  0  0  0  0  0  0  0  0  0  # atno 17394 bound_to 11000
  140.4207  134.7190  157.4888 LP  0  0  0  0  0  0  0  0  0  0  0  0  # atno 17395 bound_to 11000

$$$$
