#       Name:                AV-unprocessed.smi:1605
#       Creating user name   scv26
#       Creation time:       Fri Mar 27 07:10:28 2020


#       File generated by GOLD software.
#

@<TRIPOS>MOLECULE
AV-unprocessed.smi:1605
    56    58     1
SMALL
NO_CHARGES


@<TRIPOS>ATOM
      1 ****        -3.6478   5.2791  -3.5096 C.3            1 S1                 0.0000
      2 ****        -3.2852   4.7088  -2.2618 O.3            1 S1                 0.0000
      3 ****        -2.9100   3.3395  -2.3283 C.3            1 S1                 0.0000
      4 ****        -2.9845   2.7704  -0.9039 C.3            1 S1                 0.0000
      5 ****        -2.4900   1.3155  -0.8567 C.3            1 S1                 0.0000
      6 ****        -1.1045   1.2047  -1.3819 N.4            1 S1                 1.0000
      7 ****        -0.5474  -0.1622  -1.2110 C.3            1 S1                 0.0000
      8 ****         0.9979  -0.1881  -1.1852 C.3            1 S1                 0.0000
      9 ****         1.4484   0.4859  -0.0258 O.3            1 S1                 0.0000
     10 ****         1.5846  -1.6177  -1.1964 C.3            1 S1                 0.0000
     11 ****         1.0984  -2.4619  -0.1163 N.pl3          1 S1                 0.0000
     12 ****         0.0574  -3.3161  -0.1592 C.2            1 S1                 0.0000
     13 ****        -0.2262  -3.9886   0.9518 N.2            1 S1                 0.0000
     14 ****         0.7548  -3.5292   1.8140 C.ar           1 S1                 0.0000
     15 ****         1.0150  -3.8540   3.1634 C.ar           1 S1                 0.0000
     16 ****         2.0892  -3.2549   3.8592 C.ar           1 S1                 0.0000
     17 ****         2.3324  -3.6328   5.3100 C.3            1 S1                 0.0000
     18 ****         2.9251  -2.3162   3.2028 C.ar           1 S1                 0.0000
     19 ****         4.0876  -1.6618   3.9281 C.3            1 S1                 0.0000
     20 ****         2.6776  -1.9786   1.8560 C.ar           1 S1                 0.0000
     21 ****         1.6034  -2.5782   1.1750 C.ar           1 S1                 0.0000
     22 ****        -1.0128   1.7120  -2.7773 C.3            1 S1                 0.0000
     23 ****        -1.4763   3.1758  -2.8669 C.3            1 S1                 0.0000
     24 ****        -3.9613   6.3118  -3.3571 H              1 S1                 0.0000
     25 ****        -4.4818   4.7419  -3.9626 H              1 S1                 0.0000
     26 ****        -2.8133   5.2881  -4.2105 H              1 S1                 0.0000
     27 ****        -3.6116   2.7901  -2.9591 H              1 S1                 0.0000
     28 ****        -2.3805   3.3806  -0.2308 H              1 S1                 0.0000
     29 ****        -4.0091   2.8256  -0.5345 H              1 S1                 0.0000
     30 ****        -2.5244   0.9633   0.1750 H              1 S1                 0.0000
     31 ****        -3.1539   0.6706  -1.4349 H              1 S1                 0.0000
     32 ****        -0.9182  -0.5874  -0.2772 H              1 S1                 0.0000
     33 ****        -0.9269  -0.8042  -2.0075 H              1 S1                 0.0000
     34 ****         1.4053   0.3361  -2.0486 H              1 S1                 0.0000
     35 ****         1.2400   1.4042  -0.1013 H              1 S1                 0.0000
     36 ****         1.3445  -2.1053  -2.1422 H              1 S1                 0.0000
     37 ****         2.6736  -1.5806  -1.1425 H              1 S1                 0.0000
     38 ****        -0.5321  -3.4441  -1.0554 H              1 S1                 0.0000
     39 ****         0.3802  -4.5715   3.6621 H              1 S1                 0.0000
     40 ****         3.3005  -4.1220   5.4187 H              1 S1                 0.0000
     41 ****         1.5673  -4.3175   5.6770 H              1 S1                 0.0000
     42 ****         2.3176  -2.7469   5.9453 H              1 S1                 0.0000
     43 ****         4.6557  -1.0108   3.2630 H              1 S1                 0.0000
     44 ****         4.7703  -2.4167   4.3191 H              1 S1                 0.0000
     45 ****         3.7256  -1.0570   4.7598 H              1 S1                 0.0000
     46 ****         3.3047  -1.2627   1.3455 H              1 S1                 0.0000
     47 ****         0.0110   1.6466  -3.1428 H              1 S1                 0.0000
     48 ****        -1.6201   1.0869  -3.4338 H              1 S1                 0.0000
     49 ****        -1.4139   3.5077  -3.9031 H              1 S1                 0.0000
     50 ****        -0.7949   3.8095  -2.2973 H              1 S1                 0.0000
     51 ****        -0.5407   1.8137  -0.8063 H              1 S1                 0.0000
     52 ****        -4.0662   4.7892  -1.6425 LP             1 S1                 0.0000
     53 ****        -2.5132   5.2270  -1.8937 LP             1 S1                 0.0000
     54 ****         2.4380   0.3734   0.0637 LP             1 S1                 0.0000
     55 ****         0.9954   0.1049   0.7803 LP             1 S1                 0.0000
     56 ****        -0.9557  -4.6515   1.1204 LP             1 S1                 0.0000
@<TRIPOS>BOND
    1    1    2 1     
    2    1   24 1     
    3    1   25 1     
    4    1   26 1     
    5    2    3 1     
    6    3   23 1     
    7    3    4 1     
    8    3   27 1     
    9    4    5 1     
   10    4   28 1     
   11    4   29 1     
   12    5    6 1     
   13    5   30 1     
   14    5   31 1     
   15    6    7 1     
   16    6   22 1     
   17    6   51 1     
   18    7    8 1     
   19    7   32 1     
   20    7   33 1     
   21    8    9 1     
   22    8   10 1     
   23    8   34 1     
   24    9   35 1     
   25   10   11 1     
   26   10   36 1     
   27   10   37 1     
   28   11   21 1     
   29   11   12 1     
   30   12   13 2     
   31   12   38 1     
   32   13   14 1     
   33   14   21 ar    
   34   14   15 ar    
   35   15   16 ar    
   36   15   39 1     
   37   16   17 1     
   38   16   18 ar    
   39   17   40 1     
   40   17   41 1     
   41   17   42 1     
   42   18   19 1     
   43   18   20 ar    
   44   19   43 1     
   45   19   44 1     
   46   19   45 1     
   47   20   21 ar    
   48   20   46 1     
   49   22   23 1     
   50   22   47 1     
   51   22   48 1     
   52   23   49 1     
   53   23   50 1     
   54    2   52 1     
   55    2   53 1     
   56    9   54 1     
   57    9   55 1     
   58   13   56 1     
@<TRIPOS>SUBSTRUCTURE
      1 S1             1
@<TRIPOS>SET
LONE_PAIRS      STATIC     ATOMS    <user>   **** ""
5 52 53 54 55 56
DONOR_HYDROGENS      STATIC     ATOMS    <user>   **** ""
2 51 35
ATOM$BLUE        STATIC     ATOMS    COLORGROUP SYSTEM
5 52 53 54 55 56
ATOM$RED        STATIC     ATOMS    COLORGROUP SYSTEM
2 51 35
