AV-unprocessed.smi:1088|AV-procd|sdf|4733|dock2
  -GOLD-   22720 3263D 1   1.00000     0.00000
 Structure written by MMmdl.
 47 48  0  0  0  0  0  0  0  0  1 V2000
  150.0073  139.4110  154.5773 C   0  0  0  0  0  0  0  0  0  0  0  0
  150.5823  140.6921  154.3920 O   0  0  0  0  0  0  0  0  0  0  0  0
  149.8979  141.7050  155.1115 C   0  0  0  0  0  0  0  0  0  0  0  0
  149.7545  141.3061  156.5888 C   0  0  0  0  0  0  0  0  0  0  0  0
  150.9720  141.4381  157.3929 N   0  0  0  0  0  0  0  0  0  0  0  0
  151.0317  142.6885  158.1314 C   0  0  0  0  0  0  0  0  0  0  0  0
  152.0841  142.4971  159.2246 C   0  0  0  0  0  0  0  0  0  0  0  0
  152.2075  140.9746  159.3549 C   0  0  0  0  0  0  0  0  0  0  0  0
  151.1134  140.4208  158.4310 C   0  0  2  0  0  0  0  0  0  0  0  0
  151.4549  139.0002  157.9339 C   0  0  0  0  0  0  0  0  0  0  0  0
  150.2498  138.2543  157.5889 N   0  0  0  0  0  0  0  0  0  0  0  0
  149.7134  137.2614  158.3131 C   0  0  0  0  0  0  0  0  0  0  0  0
  150.1567  136.8979  159.4030 O   0  0  0  0  0  0  0  0  0  0  0  0
  148.4762  136.5836  157.7104 C   0  0  0  0  0  0  0  0  0  0  0  0
  147.8602  135.6147  158.6255 N   0  0  0  0  0  0  0  0  0  0  0  0
  147.6799  134.3056  158.2180 C   0  0  0  0  0  0  0  0  0  0  0  0
  147.1040  133.3581  158.9897 C   0  0  0  0  0  0  0  0  0  0  0  0
  146.6302  133.6717  160.3322 C   0  0  0  0  0  0  0  0  0  0  0  0
  146.0787  132.8449  161.0595 O   0  0  0  0  0  0  0  0  0  0  0  0
  146.8429  135.0131  160.7313 N   0  0  0  0  0  0  0  0  0  0  0  0
  146.3850  135.4213  162.0434 C   0  0  0  0  0  0  0  0  0  0  0  0
  147.4313  136.0039  159.9133 C   0  0  0  0  0  0  0  0  0  0  0  0
  147.5647  137.1699  160.2938 O   0  0  0  0  0  0  0  0  0  0  0  0
  150.5638  138.6730  153.9996 H   0  0  0  0  0  0  0  0  0  0  0  0
  148.9703  139.3903  154.2399 H   0  0  0  0  0  0  0  0  0  0  0  0
  150.0414  139.1126  155.6257 H   0  0  0  0  0  0  0  0  0  0  0  0
  150.4687  142.6325  155.0454 H   0  0  0  0  0  0  0  0  0  0  0  0
  148.9166  141.8977  154.6748 H   0  0  0  0  0  0  0  0  0  0  0  0
  148.9314  141.8569  157.0460 H   0  0  0  0  0  0  0  0  0  0  0  0
  149.4544  140.2609  156.5885 H   0  0  0  0  0  0  0  0  0  0  0  0
  151.2736  143.5286  157.4801 H   0  0  0  0  0  0  0  0  0  0  0  0
  150.0655  142.8942  158.5957 H   0  0  0  0  0  0  0  0  0  0  0  0
  153.0391  142.9334  158.9299 H   0  0  0  0  0  0  0  0  0  0  0  0
  151.7728  142.9659  160.1585 H   0  0  0  0  0  0  0  0  0  0  0  0
  153.1956  140.6587  159.0160 H   0  0  0  0  0  0  0  0  0  0  0  0
  152.0839  140.6339  160.3833 H   0  0  0  0  0  0  0  0  0  0  0  0
  150.1928  140.3818  159.0172 H   0  0  0  0  0  0  0  0  0  0  0  0
  152.1672  139.0499  157.1084 H   0  0  0  0  0  0  0  0  0  0  0  0
  151.9466  138.4405  158.7303 H   0  0  0  0  0  0  0  0  0  0  0  0
  149.8113  138.4857  156.7094 H   0  0  0  0  0  0  0  0  0  0  0  0
  147.7579  137.3611  157.4473 H   0  0  0  0  0  0  0  0  0  0  0  0
  148.7369  136.0921  156.7711 H   0  0  0  0  0  0  0  0  0  0  0  0
  148.0095  134.0239  157.2286 H   0  0  0  0  0  0  0  0  0  0  0  0
  146.9879  132.3549  158.6066 H   0  0  0  0  0  0  0  0  0  0  0  0
  147.1033  136.1267  162.4646 H   0  0  0  0  0  0  0  0  0  0  0  0
  146.3294  134.5592  162.7089 H   0  0  0  0  0  0  0  0  0  0  0  0
  145.4051  135.8813  161.9075 H   0  0  0  0  0  0  0  0  0  0  0  0
  1  2  1  0  0  0  0
  1 24  1  0  0  0  0
  1 25  1  0  0  0  0
  1 26  1  0  0  0  0
  2  3  1  0  0  0  0
  3  4  1  0  0  0  0
  3 27  1  0  0  0  0
  3 28  1  0  0  0  0
  4  5  1  0  0  0  0
  4 29  1  0  0  0  0
  4 30  1  0  0  0  0
  5  9  1  0  0  0  0
  5  6  1  0  0  0  0
  6  7  1  0  0  0  0
  6 31  1  0  0  0  0
  6 32  1  0  0  0  0
  7  8  1  0  0  0  0
  7 33  1  0  0  0  0
  7 34  1  0  0  0  0
  8  9  1  0  0  0  0
  8 35  1  0  0  0  0
  8 36  1  0  0  0  0
  9 10  1  0  0  0  0
  9 37  1  0  0  0  0
 10 11  1  0  0  0  0
 10 38  1  0  0  0  0
 10 39  1  0  0  0  0
 11 12  1  0  0  0  0
 11 40  1  0  0  0  0
 12 13  2  0  0  0  0
 12 14  1  0  0  0  0
 14 15  1  0  0  0  0
 14 41  1  0  0  0  0
 14 42  1  0  0  0  0
 15 22  1  0  0  0  0
 15 16  1  0  0  0  0
 16 17  2  0  0  0  0
 16 43  1  0  0  0  0
 17 18  1  0  0  0  0
 17 44  1  0  0  0  0
 18 19  2  0  0  0  0
 18 20  1  0  0  0  0
 20 21  1  0  0  0  0
 20 22  1  0  0  0  0
 21 45  1  0  0  0  0
 21 46  1  0  0  0  0
 21 47  1  0  0  0  0
 22 23  2  0  0  0  0
M  END
> <s_m_source_file>
AV-unprocessed.smi

> <i_m_source_file_index>
1088

> <i_lp_mmshare_version>
43012

> <i_f3d_flags>
0

> <s_epik_input>
W0NIM11PW0NIMl1bQ0gyXU4xW0NIMl1bQ0gyXVtDSDJdW0NASF0xW0NIMl1bTkhdQyg9TylbQ0gyXW4yW2NIXVtjSF1jKD1PKW4oW0NIM10pYzI9Tw==

> <s_epik_cmdline>
J2VwaWtfcHl0aG9uJywgJy1waCcsICc3LjAnLCAnLXRuJywgJzgnLCAnLW1hJywgJzIwMCcsICctbWV0YWxfYmluZGluZycsICctaW1hZScsICc8aW5maWxlLm1hZT4nLCAnLW9tYWUnLCAnPG91dGZpbGUubWFlPic=

> <r_lp_tautomer_probability>
1

> <r_epik_Ionization_Penalty>
2.28131

> <r_epik_Ionization_Penalty_Charging>
1.22971e-08

> <r_epik_Ionization_Penalty_Neutral>
2.28131

> <r_epik_State_Penalty>
2.43063

> <r_epik_Charging_Adjusted_Penalty>
2.43063

> <i_epik_Tot_Q>
0

> <i_epik_Tot_abs_Q>
0

> <r_epik_Metal_State_Penalty>
2.43056

> <b_epik_Metal_Only>
0

> <s_lp_Force_Field>
OPLS_2005

> <r_lp_Energy>
54.0247

> <b_lp_Chiralities_Consistent>
1

> <s_lp_Variant>
AV-unprocessed.smi:1088-6

> <Gold.Version>
5.8.1

> <Gold.Id.Protein>
6NUR|6NUR_protein|mol2

> <Gold.PLP.Fitness>
48.1303

> <Gold.PLP.PLP>
-39.0916

> <Gold.PLP.part.hbond>
-4.1413

> <Gold.PLP.part.metal>
0.0000

> <Gold.PLP.part.buried>
-5.3752

> <Gold.PLP.part.nonpolar>
-30.5192

> <Gold.PLP.part.repulsive>
0.2182

> <Gold.PLP.ligand.clash>
0.0000

> <Gold.PLP.ligand.torsion>
0.9919

> <Gold.PLP.Chemscore.Hbond>
3.5840

> <Gold.PLP.Chemscore.CHOScore>
0.0000

> <Gold.PLP.Chemscore.Metal>
0.0000

> <Gold.Chemscore.Hbonds>
donor molecule, donor type, donor heavy atom, donor atom, acceptor molecule, acceptor atom, score
      P1  H  6896  6908       L1    13  0.81
      P1  H  6931  6943       L1    23  0.01
      P1  H  6934  6947       L1    23  0.98
      P1  H  7989  7998       L1     2  0.56

> <Gold.PLP.Chemscore.Internal.Correction>
0.2705

> <Gold.Rescore>
     Score         DG    S(hbond)    S(metal)    S(lipo)     H(rot)  DE(clash)    DE(int)     intcor
     18.38     -19.40       3.44        0.00      75.34       2.49       0.02       1.00       ----

> <Gold.Chemscore.Fitness>
18.3794

> <Gold.Chemscore.DG>
-19.4028

> <Gold.Chemscore.ZeroCoef>
-5.4800

> <Gold.Chemscore.Hbond>
3.4409

> <Gold.Chemscore.Metal>
0.0000

> <Gold.Chemscore.Lipo>
75.3366

> <Gold.Chemscore.Internal_Hbond>
0.0000

> <Gold.Chemscore.DEClash>
0.0243

> <Gold.Chemscore.DEInternal>
0.9990

> <Gold.Chemscore.Rot>
2.4938

> <Gold.Chemscore.Internal.Correction>
   9.000000E+99

> <Gold.Chemscore.Hbonds>
donor molecule, donor type, donor heavy atom, donor atom, acceptor molecule, acceptor atom, score
      P1  H  6896  6908       L1    13  0.80
      P1  H  6931  6943       L1    23  0.05
      P1  H  6934  6947       L1    23  0.90
      P1  H  7989  7998       L1     2  0.53

> <Gold.Chemscore.Hbond.Weighted>
-11.4924

> <Gold.Chemscore.Metal.Weighted>
-0.0000

> <Gold.Chemscore.Lipo.Weighted>
-8.8144

> <Gold.Chemscore.Internal_Hbond.Weighted>
0.0000

> <Gold.Chemscore.DEClash.Weighted>
0.0243

> <Gold.Chemscore.DEInternal.Weighted>
0.9990

> <Gold.Chemscore.Rot.Weighted>
6.3841

> <Gold.Chemscore.Internal.Correction.Weighted>
   9.000000E+99

> <Gold.Protein.RotatedTorsions>
[ 6907 6896 6895 6894 ] final -147.58 input  -60.11 | X-H torsion
[ 7974 7965 7964 7962 ] final  -80.23 input  175.53 | X-H torsion
[ 8008 7997 7996 7995 ] final    5.40 input   59.86 | X-H torsion
[ 10167 10162 10161 10158 ] final  156.43 input  -65.29 | X-H torsion
[ 10718 10713 10712 10709 ] final -170.41 input   66.30 | X-H torsion
[ 10763 10752 10751 10750 ] final   49.14 input  -60.55 | X-H torsion
[ 11005 11000 10999 10996 ] final  103.31 input  -57.11 | X-H torsion

> <Gold.Protein.ActiveResidues>
 VAL166  LYS551  ARG553  GLY616  TRP617  ASP618  TYR619  PRO620  LYS621  CYS622 
 ASP623  PHE694  ASN695  SER759  ASP760  ASP761  ALA762  ILE779  LEU786  VAL792 
 PHE793  MET794  SER795  GLU796  ALA797  LYS798  CYS799  TRP800  GLU811  SER814 

> <Gold.Protein.RotatedAtoms>
  151.1577  133.4865  159.2594 H   0  0  0  0  0  0  0  0  0  0  0  0  # atno 6907 bound_to 6896
  151.1487  135.0216  159.8668 H   0  0  0  0  0  0  0  0  0  0  0  0  # atno 6908 bound_to 6896
  152.5463  134.1463  159.8553 H   0  0  0  0  0  0  0  0  0  0  0  0  # atno 6909 bound_to 6896
  145.5627  140.9479  143.1438 H   0  0  0  0  0  0  0  0  0  0  0  0  # atno 7974 bound_to 7965
  154.7279  140.2724  155.6482 H   0  0  0  0  0  0  0  0  0  0  0  0  # atno 8008 bound_to 7997
  156.2842  140.2721  156.1895 H   0  0  0  0  0  0  0  0  0  0  0  0  # atno 8009 bound_to 7997
  155.0420  140.0371  157.2503 H   0  0  0  0  0  0  0  0  0  0  0  0  # atno 8010 bound_to 7997
  139.4821  144.5010  151.8169 H   0  0  0  0  0  0  0  0  0  0  0  0  # atno 10167 bound_to 10162
  156.7258  130.9287  151.3101 H   0  0  0  0  0  0  0  0  0  0  0  0  # atno 10718 bound_to 10713
  152.9788  135.5921  154.4041 H   0  0  0  0  0  0  0  0  0  0  0  0  # atno 10763 bound_to 10752
  154.3683  135.2767  155.2282 H   0  0  0  0  0  0  0  0  0  0  0  0  # atno 10764 bound_to 10752
  154.4249  135.6050  153.6087 H   0  0  0  0  0  0  0  0  0  0  0  0  # atno 10765 bound_to 10752
  139.8783  134.9258  156.5191 H   0  0  0  0  0  0  0  0  0  0  0  0  # atno 11005 bound_to 11000
  144.7475  139.7281  143.7286 LP  0  0  0  0  0  0  0  0  0  0  0  0  # atno 17320 bound_to 7965
  146.1839  139.5045  142.9848 LP  0  0  0  0  0  0  0  0  0  0  0  0  # atno 17321 bound_to 7965
  140.4503  144.1865  150.5897 LP  0  0  0  0  0  0  0  0  0  0  0  0  # atno 17342 bound_to 10162
  140.4592  143.2455  151.9243 LP  0  0  0  0  0  0  0  0  0  0  0  0  # atno 17343 bound_to 10162
  157.6879  130.9204  150.0436 LP  0  0  0  0  0  0  0  0  0  0  0  0  # atno 17370 bound_to 10713
  156.1563  130.3643  149.9364 LP  0  0  0  0  0  0  0  0  0  0  0  0  # atno 17371 bound_to 10713
  140.8464  133.8166  155.9125 LP  0  0  0  0  0  0  0  0  0  0  0  0  # atno 17394 bound_to 11000
  140.9187  134.2169  157.4940 LP  0  0  0  0  0  0  0  0  0  0  0  0  # atno 17395 bound_to 11000

$$$$
