AV-unprocessed.smi:99|AV-procd|sdf|871|dock5
  -GOLD-   2262017333D 1   1.00000     0.00000
 Structure written by MMmdl.
 53 56  0  0  0  0  0  0  0  0  1 V2000
  148.2897  137.1018  162.2279 O   0  0  0  0  0  0  0  0  0  0  0  0
  147.5804  136.4918  161.4248 C   0  0  0  0  0  0  0  0  0  0  0  0
  147.8315  136.4352  160.1021 O   0  0  0  0  0  0  0  0  0  0  0  0
  148.9362  137.1399  159.5605 C   0  0  0  0  0  0  0  0  0  0  0  0
  148.4270  138.2240  158.6056 C   0  0  2  0  0  0  0  0  0  0  0  0
  147.4457  137.6820  157.7367 O   0  0  0  0  0  0  0  0  0  0  0  0
  147.3840  138.4527  156.5790 C   0  0  2  0  0  0  0  0  0  0  0  0
  147.1188  137.5179  155.4189 N   0  0  0  0  0  0  0  0  0  0  0  0
  147.9216  136.4034  155.2176 C   0  0  0  0  0  0  0  0  0  0  0  0
  147.7271  135.5252  154.2057 C   0  0  0  0  0  0  0  0  0  0  0  0
  146.6335  135.7187  153.2589 C   0  0  0  0  0  0  0  0  0  0  0  0
  146.3754  134.9776  152.3128 O   0  0  0  0  0  0  0  0  0  0  0  0
  145.8535  136.8545  153.4974 N   0  0  0  0  0  0  0  0  0  0  0  0
  146.0462  137.7687  154.5348 C   0  0  0  0  0  0  0  0  0  0  0  0
  145.3018  138.7428  154.6398 O   0  0  0  0  0  0  0  0  0  0  0  0
  148.7126  139.2324  156.4507 C   0  0  2  0  0  0  0  0  0  0  0  0
  149.4287  138.9980  155.2513 O   0  0  0  0  0  0  0  0  0  0  0  0
  149.5079  138.7407  157.6554 C   0  0  1  0  0  0  0  0  0  0  0  0
  150.2065  139.8153  158.2724 O   0  0  0  0  0  0  0  0  0  0  0  0
  151.2916  140.3613  157.6825 C   0  0  0  0  0  0  0  0  0  0  0  0
  151.7999  139.9234  156.6487 O   0  0  0  0  0  0  0  0  0  0  0  0
  151.8084  141.5557  158.4103 C   0  0  0  0  0  0  0  0  0  0  0  0
  152.8118  141.3873  159.3929 C   0  0  0  0  0  0  0  0  0  0  0  0
  153.3243  142.4969  160.0926 C   0  0  0  0  0  0  0  0  0  0  0  0
  152.8405  143.7890  159.8173 C   0  0  0  0  0  0  0  0  0  0  0  0
  151.8424  143.9702  158.8420 C   0  0  0  0  0  0  0  0  0  0  0  0
  151.3277  142.8612  158.1421 C   0  0  0  0  0  0  0  0  0  0  0  0
  146.3534  135.7393  161.8163 C   0  0  0  0  0  0  0  0  0  0  0  0
  146.2723  134.3545  161.5395 C   0  0  0  0  0  0  0  0  0  0  0  0
  145.1263  133.6175  161.8961 C   0  0  0  0  0  0  0  0  0  0  0  0
  144.0468  134.2564  162.5335 C   0  0  0  0  0  0  0  0  0  0  0  0
  144.1148  135.6336  162.8139 C   0  0  0  0  0  0  0  0  0  0  0  0
  145.2602  136.3723  162.4581 C   0  0  0  0  0  0  0  0  0  0  0  0
  145.0880  137.0302  152.8630 H   0  0  0  0  0  0  0  0  0  0  0  0
  149.4969  137.5978  160.3765 H   0  0  0  0  0  0  0  0  0  0  0  0
  149.6098  136.4591  159.0380 H   0  0  0  0  0  0  0  0  0  0  0  0
  147.9847  139.0564  159.1567 H   0  0  0  0  0  0  0  0  0  0  0  0
  146.5243  139.1173  156.6757 H   0  0  0  0  0  0  0  0  0  0  0  0
  148.7475  136.2254  155.8917 H   0  0  0  0  0  0  0  0  0  0  0  0
  148.3847  134.6749  154.0954 H   0  0  0  0  0  0  0  0  0  0  0  0
  148.4848  140.2957  156.5383 H   0  0  0  0  0  0  0  0  0  0  0  0
  149.0843  138.2184  154.8424 H   0  0  0  0  0  0  0  0  0  0  0  0
  150.1639  137.9139  157.3763 H   0  0  0  0  0  0  0  0  0  0  0  0
  153.2001  140.4049  159.6212 H   0  0  0  0  0  0  0  0  0  0  0  0
  154.0904  142.3556  160.8407 H   0  0  0  0  0  0  0  0  0  0  0  0
  153.2349  144.6401  160.3529 H   0  0  0  0  0  0  0  0  0  0  0  0
  151.4714  144.9619  158.6291 H   0  0  0  0  0  0  0  0  0  0  0  0
  150.5643  143.0360  157.3981 H   0  0  0  0  0  0  0  0  0  0  0  0
  147.0884  133.8417  161.0507 H   0  0  0  0  0  0  0  0  0  0  0  0
  145.0758  132.5604  161.6801 H   0  0  0  0  0  0  0  0  0  0  0  0
  143.1679  133.6913  162.8067 H   0  0  0  0  0  0  0  0  0  0  0  0
  143.2865  136.1250  163.3027 H   0  0  0  0  0  0  0  0  0  0  0  0
  145.2791  137.4277  162.6872 H   0  0  0  0  0  0  0  0  0  0  0  0
  1  2  2  0  0  0  0
  2  3  1  0  0  0  0
  2 28  1  0  0  0  0
  3  4  1  0  0  0  0
  4  5  1  0  0  0  0
  4 35  1  0  0  0  0
  4 36  1  0  0  0  0
  5 18  1  0  0  0  0
  5  6  1  0  0  0  0
  5 37  1  0  0  0  0
  6  7  1  0  0  0  0
  7  8  1  0  0  0  0
  7 16  1  0  0  0  0
  7 38  1  0  0  0  0
  8 14  1  0  0  0  0
  8  9  1  0  0  0  0
  9 10  2  0  0  0  0
  9 39  1  0  0  0  0
 10 11  1  0  0  0  0
 10 40  1  0  0  0  0
 11 12  2  0  0  0  0
 11 13  1  0  0  0  0
 13 34  1  0  0  0  0
 13 14  1  0  0  0  0
 14 15  2  0  0  0  0
 16 17  1  0  0  0  0
 16 18  1  0  0  0  0
 16 41  1  0  0  0  0
 17 42  1  0  0  0  0
 18 19  1  0  0  0  0
 18 43  1  0  0  0  0
 19 20  1  0  0  0  0
 20 21  2  0  0  0  0
 20 22  1  0  0  0  0
 22 27  1  0  0  0  0
 22 23  2  0  0  0  0
 23 24  1  0  0  0  0
 23 44  1  0  0  0  0
 24 25  2  0  0  0  0
 24 45  1  0  0  0  0
 25 26  1  0  0  0  0
 25 46  1  0  0  0  0
 26 27  2  0  0  0  0
 26 47  1  0  0  0  0
 27 48  1  0  0  0  0
 28 33  1  0  0  0  0
 28 29  2  0  0  0  0
 29 30  1  0  0  0  0
 29 49  1  0  0  0  0
 30 31  2  0  0  0  0
 30 50  1  0  0  0  0
 31 32  1  0  0  0  0
 31 51  1  0  0  0  0
 32 33  2  0  0  0  0
 32 52  1  0  0  0  0
 33 53  1  0  0  0  0
M  END
> <s_m_source_file>
AV-unprocessed.smi

> <i_m_source_file_index>
99

> <i_lp_mmshare_version>
43012

> <i_f3d_flags>
0

> <s_epik_input>
W2NIXTFbY0hdW2NIXVtjSF1bY0hdYzFDKD1PKU9bQ0gyXVtDQEBIXTJPW0NAQEhdKG4zW2NIXVtjSF1jKD1PKVtuSF1jMz1PKVtDQEBIXShbT0hdKVtDQEhdMk9DKD1PKWM0W2NIXVtjSF1bY0hdW2NIXVtjSF00

> <s_epik_cmdline>
J2VwaWtfcHl0aG9uJywgJy1waCcsICc3LjAnLCAnLXRuJywgJzgnLCAnLW1hJywgJzIwMCcsICctbWV0YWxfYmluZGluZycsICctaW1hZScsICc8aW5maWxlLm1hZT4nLCAnLW9tYWUnLCAnPG91dGZpbGUubWFlPic=

> <r_lp_tautomer_probability>
1

> <r_epik_Ionization_Penalty>
0.00454555

> <r_epik_Ionization_Penalty_Charging>
0.0045191

> <r_epik_Ionization_Penalty_Neutral>
2.64449e-05

> <r_epik_State_Penalty>
-0

> <r_epik_Charging_Adjusted_Penalty>
0.0045191

> <i_epik_Tot_Q>
0

> <i_epik_Tot_abs_Q>
0

> <r_epik_Metal_State_Penalty>
1.27877

> <b_epik_Metal_Only>
0

> <s_epik_Chemistry_Notes>
This compound has an ester and may undergo hydrolysis at high or low pH. This compound contains an acetal/aminal-like group ( X-CH(R)-Y where X, Y are N, S, or O) that may be acid/base labile, releasing an aldehyde.

> <s_lp_Force_Field>
OPLS_2005

> <r_lp_Energy>
38.4241

> <b_lp_Chiralities_Consistent>
1

> <s_lp_Variant>
AV-unprocessed.smi:99-7

> <Gold.Version>
5.8.1

> <Gold.Id.Protein>
6NUR|6NUR_protein|mol2

> <Gold.PLP.Fitness>
52.7283

> <Gold.PLP.PLP>
-53.2609

> <Gold.PLP.part.hbond>
-2.8286

> <Gold.PLP.part.metal>
0.0000

> <Gold.PLP.part.buried>
-5.2589

> <Gold.PLP.part.nonpolar>
-45.4060

> <Gold.PLP.part.repulsive>
0.2733

> <Gold.PLP.ligand.clash>
0.0000

> <Gold.PLP.ligand.torsion>
3.2802

> <Gold.PLP.Chemscore.Hbond>
1.8545

> <Gold.PLP.Chemscore.CHOScore>
0.0000

> <Gold.PLP.Chemscore.Metal>
0.0000

> <Gold.Chemscore.Hbonds>
donor molecule, donor type, donor heavy atom, donor atom, acceptor molecule, acceptor atom, score
      P1  H  6931  6943       L1     1  0.67

> <Gold.PLP.Chemscore.Internal.Correction>
0.4644

> <Gold.Rescore>
     Score         DG    S(hbond)    S(metal)    S(lipo)     H(rot)  DE(clash)    DE(int)     intcor
     14.26     -18.65       1.73        0.00     132.86       3.19       0.30       4.08       ----

> <Gold.Chemscore.Fitness>
14.2615

> <Gold.Chemscore.DG>
-18.6474

> <Gold.Chemscore.ZeroCoef>
-5.4800

> <Gold.Chemscore.Hbond>
1.7334

> <Gold.Chemscore.Metal>
0.0000

> <Gold.Chemscore.Lipo>
132.8624

> <Gold.Chemscore.Internal_Hbond>
0.0000

> <Gold.Chemscore.DEClash>
0.3033

> <Gold.Chemscore.DEInternal>
4.0827

> <Gold.Chemscore.Rot>
3.1903

> <Gold.Chemscore.Internal.Correction>
   9.000000E+99

> <Gold.Chemscore.Hbonds>
donor molecule, donor type, donor heavy atom, donor atom, acceptor molecule, acceptor atom, score
      P1  H  6931  6943       L1     1  0.66

> <Gold.Chemscore.Hbond.Weighted>
-5.7896

> <Gold.Chemscore.Metal.Weighted>
-0.0000

> <Gold.Chemscore.Lipo.Weighted>
-15.5449

> <Gold.Chemscore.Internal_Hbond.Weighted>
0.0000

> <Gold.Chemscore.DEClash.Weighted>
0.3033

> <Gold.Chemscore.DEInternal.Weighted>
4.0827

> <Gold.Chemscore.Rot.Weighted>
8.1671

> <Gold.Chemscore.Internal.Correction.Weighted>
   9.000000E+99

> <Gold.Protein.RotatedTorsions>
[ 6907 6896 6895 6894 ] final   94.72 input  -60.11 | X-H torsion
[ 7974 7965 7964 7962 ] final  105.55 input  175.53 | X-H torsion
[ 8008 7997 7996 7995 ] final  169.97 input   59.86 | X-H torsion
[ 10167 10162 10161 10158 ] final  131.27 input  -65.29 | X-H torsion
[ 10718 10713 10712 10709 ] final  -57.43 input   66.30 | X-H torsion
[ 10763 10752 10751 10750 ] final  -95.77 input  -60.55 | X-H torsion
[ 11005 11000 10999 10996 ] final  172.76 input  -57.11 | X-H torsion

> <Gold.Protein.ActiveResidues>
 VAL166  LYS551  ARG553  GLY616  TRP617  ASP618  TYR619  PRO620  LYS621  CYS622 
 ASP623  PHE694  ASN695  SER759  ASP760  ASP761  ALA762  ILE779  LEU786  VAL792 
 PHE793  MET794  SER795  GLU796  ALA797  LYS798  CYS799  TRP800  GLU811  SER814 

> <Gold.Protein.RotatedAtoms>
  152.5448  134.1151  159.8374 H   0  0  0  0  0  0  0  0  0  0  0  0  # atno 6907 bound_to 6896
  151.1213  133.5095  159.2609 H   0  0  0  0  0  0  0  0  0  0  0  0  # atno 6908 bound_to 6896
  151.1776  135.0356  159.8833 H   0  0  0  0  0  0  0  0  0  0  0  0  # atno 6909 bound_to 6896
  145.3182  139.2520  143.3726 H   0  0  0  0  0  0  0  0  0  0  0  0  # atno 7974 bound_to 7965
  156.1408  140.1550  156.8923 H   0  0  0  0  0  0  0  0  0  0  0  0  # atno 8008 bound_to 7997
  154.4986  140.0831  156.7788 H   0  0  0  0  0  0  0  0  0  0  0  0  # atno 8009 bound_to 7997
  155.4081  140.3417  155.4264 H   0  0  0  0  0  0  0  0  0  0  0  0  # atno 8010 bound_to 7997
  139.5392  144.6713  151.4683 H   0  0  0  0  0  0  0  0  0  0  0  0  # atno 10167 bound_to 10162
  156.1211  130.4166  150.0440 H   0  0  0  0  0  0  0  0  0  0  0  0  # atno 10718 bound_to 10713
  154.7178  135.5108  153.8765 H   0  0  0  0  0  0  0  0  0  0  0  0  # atno 10763 bound_to 10752
  153.0836  135.6638  154.0004 H   0  0  0  0  0  0  0  0  0  0  0  0  # atno 10764 bound_to 10752
  153.9833  135.3027  155.3398 H   0  0  0  0  0  0  0  0  0  0  0  0  # atno 10765 bound_to 10752
  140.3332  134.7339  157.4149 H   0  0  0  0  0  0  0  0  0  0  0  0  # atno 11005 bound_to 11000
  146.3092  140.3733  142.8676 LP  0  0  0  0  0  0  0  0  0  0  0  0  # atno 17320 bound_to 7965
  144.8960  140.7584  143.5896 LP  0  0  0  0  0  0  0  0  0  0  0  0  # atno 17321 bound_to 7965
  140.6613  143.8492  150.6891 LP  0  0  0  0  0  0  0  0  0  0  0  0  # atno 17342 bound_to 10162
  140.1887  143.4054  152.1879 LP  0  0  0  0  0  0  0  0  0  0  0  0  # atno 17343 bound_to 10162
  156.8378  130.9415  151.3633 LP  0  0  0  0  0  0  0  0  0  0  0  0  # atno 17370 bound_to 10713
  157.6394  130.8793  149.9420 LP  0  0  0  0  0  0  0  0  0  0  0  0  # atno 17371 bound_to 10713
  140.0843  134.5688  155.8508 LP  0  0  0  0  0  0  0  0  0  0  0  0  # atno 17394 bound_to 11000
  141.2058  133.6650  156.6202 LP  0  0  0  0  0  0  0  0  0  0  0  0  # atno 17395 bound_to 11000

$$$$
