#       Name:                AV-unprocessed.smi:2755
#       Creating user name   scv26
#       Creation time:       Fri Mar 27 15:06:34 2020


#       File generated by GOLD software.
#

@<TRIPOS>MOLECULE
AV-unprocessed.smi:2755
    37    37     1
SMALL
NO_CHARGES


@<TRIPOS>ATOM
      1 ****        -3.1799   4.1666  -0.9735 C.3            1 S1                 0.0000
      2 ****        -2.6442   2.7753  -0.6183 C.3            1 S1                 0.0000
      3 ****        -1.1220   2.6674  -0.7879 C.3            1 S1                 0.0000
      4 ****        -0.5882   1.2714  -0.4368 C.3            1 S1                 0.0000
      5 ****         0.9296   1.1554  -0.6297 C.3            1 S1                 0.0000
      6 ****         1.3815  -0.1859  -0.2909 N.am           1 S1                 0.0000
      7 ****         2.6203  -0.6570  -0.5076 C.2            1 S1                 0.0000
      8 ****         3.5104   0.0252  -1.0138 O.2            1 S1                 0.0000
      9 ****         2.9299  -2.1091  -0.1047 C.3            1 S1                 0.0000
     10 ****         1.7855  -2.8636   0.4160 N.am           1 S1                 0.0000
     11 ****         1.6539  -2.9471   1.7816 N.2            1 S1                 0.0000
     12 ****         0.5950  -3.6360   2.0242 C.2            1 S1                 0.0000
     13 ****         0.0987  -3.9568   3.2709 N.pl3          1 S1                 0.0000
     14 ****        -0.3633  -4.2630   0.6649 S.3            1 S1                 0.0000
     15 ****         0.8321  -3.4892  -0.3950 C.2            1 S1                 0.0000
     16 ****         0.7734  -3.5238  -1.6228 O.2            1 S1                 0.0000
     17 ****        -4.2615   4.2107  -0.8442 H              1 S1                 0.0000
     18 ****        -2.9581   4.4211  -2.0103 H              1 S1                 0.0000
     19 ****        -2.7374   4.9334  -0.3372 H              1 S1                 0.0000
     20 ****        -2.9157   2.5385   0.4110 H              1 S1                 0.0000
     21 ****        -3.1362   2.0314  -1.2460 H              1 S1                 0.0000
     22 ****        -0.8544   2.9096  -1.8172 H              1 S1                 0.0000
     23 ****        -0.6324   3.4115  -0.1582 H              1 S1                 0.0000
     24 ****        -0.8423   1.0365   0.5977 H              1 S1                 0.0000
     25 ****        -1.0897   0.5259  -1.0556 H              1 S1                 0.0000
     26 ****         1.1925   1.3806  -1.6647 H              1 S1                 0.0000
     27 ****         1.4478   1.8785   0.0020 H              1 S1                 0.0000
     28 ****         0.7055  -0.8050   0.1328 H              1 S1                 0.0000
     29 ****         3.3373  -2.6285  -0.9735 H              1 S1                 0.0000
     30 ****         3.7295  -2.0959   0.6379 H              1 S1                 0.0000
     31 ****         0.5370  -3.6699   4.1343 H              1 S1                 0.0000
     32 ****        -0.7347  -4.5086   3.4149 H              1 S1                 0.0000
     33 ****         3.3247   0.9706  -1.2817 LP             1 S1                 0.0000
     34 ****         4.4196  -0.3657  -1.1573 LP             1 S1                 0.0000
     35 ****         2.2681  -2.5462   2.4613 LP             1 S1                 0.0000
     36 ****         1.4715  -3.0619  -2.1700 LP             1 S1                 0.0000
     37 ****         0.0276  -4.0138  -2.0741 LP             1 S1                 0.0000
@<TRIPOS>BOND
    1    1    2 1     
    2    1   17 1     
    3    1   18 1     
    4    1   19 1     
    5    2    3 1     
    6    2   20 1     
    7    2   21 1     
    8    3    4 1     
    9    3   22 1     
   10    3   23 1     
   11    4    5 1     
   12    4   24 1     
   13    4   25 1     
   14    5    6 1     
   15    5   26 1     
   16    5   27 1     
   17    6    7 am    
   18    6   28 1     
   19    7    8 2     
   20    7    9 1     
   21    9   10 1     
   22    9   29 1     
   23    9   30 1     
   24   10   15 am    
   25   10   11 1     
   26   11   12 2     
   27   12   13 1     
   28   12   14 1     
   29   13   31 1     
   30   13   32 1     
   31   14   15 1     
   32   15   16 2     
   33    8   33 1     
   34    8   34 1     
   35   11   35 1     
   36   16   36 1     
   37   16   37 1     
@<TRIPOS>SUBSTRUCTURE
      1 S1             1
@<TRIPOS>SET
LONE_PAIRS      STATIC     ATOMS    <user>   **** ""
5 33 34 35 36 37
DONOR_HYDROGENS      STATIC     ATOMS    <user>   **** ""
3 28 31 32
ATOM$BLUE        STATIC     ATOMS    COLORGROUP SYSTEM
5 33 34 35 36 37
ATOM$RED        STATIC     ATOMS    COLORGROUP SYSTEM
3 28 31 32
