AV-unprocessed.smi:1277|AV-procd|sdf|5346|dock4
  -GOLD-   22720 4483D 1   1.00000     0.00000
 Structure written by MMmdl.
 43 44  0  0  0  0  0  0  0  0  1 V2000
  145.6395  136.9151  150.3869 C   0  0  0  0  0  0  0  0  0  0  0  0
  146.4014  137.9630  150.9601 O   0  0  0  0  0  0  0  0  0  0  0  0
  146.1977  138.0796  152.3583 C   0  0  0  0  0  0  0  0  0  0  0  0
  147.0237  139.2547  152.8875 C   0  0  0  0  0  0  0  0  0  0  0  0
  148.1662  138.7408  153.5654 O   0  0  0  0  0  0  0  0  0  0  0  0
  148.8881  139.5908  154.3780 C   0  0  0  0  0  0  0  0  0  0  0  0
  149.9695  139.0642  155.1120 C   0  0  0  0  0  0  0  0  0  0  0  0
  150.7105  139.9238  155.9455 C   0  0  0  0  0  0  0  0  0  0  0  0
  150.3393  141.2869  156.0233 C   0  0  0  0  0  0  0  0  0  0  0  0
  151.0251  142.2531  156.8061 N   0  0  0  0  0  0  0  0  0  0  0  0
  151.5728  142.1005  158.0252 C   0  0  0  0  0  0  0  0  0  0  0  0
  151.4939  141.0734  158.7004 O   0  0  0  0  0  0  0  0  0  0  0  0
  152.2818  143.3448  158.5957 C   0  0  1  0  0  0  0  0  0  0  0  0
  151.3929  144.5852  158.4133 C   0  0  0  0  0  0  0  0  0  0  0  0
  151.7647  145.4998  159.5645 C   0  0  0  0  0  0  0  0  0  0  0  0
  152.1982  144.5573  160.6864 C   0  0  0  0  0  0  0  0  0  0  0  0
  152.5787  143.2973  160.0416 N   0  0  0  0  0  0  0  0  0  0  0  0
  153.1786  142.2755  160.7002 C   0  0  0  0  0  0  0  0  0  0  0  0
  153.3697  142.3924  162.2143 C   0  0  0  0  0  0  0  0  0  0  0  0
  153.5897  141.2617  160.1358 O   0  0  0  0  0  0  0  0  0  0  0  0
  149.2518  141.7181  155.2363 C   0  0  0  0  0  0  0  0  0  0  0  0
  148.5360  140.8992  154.4375 N   0  0  0  0  0  0  0  0  0  0  0  0
  153.2310  143.4974  158.0783 H   0  0  0  0  0  0  0  0  0  0  0  0
  145.8289  136.8689  149.3146 H   0  0  0  0  0  0  0  0  0  0  0  0
  144.5710  137.0787  150.5330 H   0  0  0  0  0  0  0  0  0  0  0  0
  145.9088  135.9501  150.8184 H   0  0  0  0  0  0  0  0  0  0  0  0
  145.1398  138.2437  152.5691 H   0  0  0  0  0  0  0  0  0  0  0  0
  146.4961  137.1577  152.8598 H   0  0  0  0  0  0  0  0  0  0  0  0
  147.3278  139.8938  152.0568 H   0  0  0  0  0  0  0  0  0  0  0  0
  146.4162  139.8516  153.5700 H   0  0  0  0  0  0  0  0  0  0  0  0
  150.2301  138.0189  155.0337 H   0  0  0  0  0  0  0  0  0  0  0  0
  151.5526  139.5283  156.4924 H   0  0  0  0  0  0  0  0  0  0  0  0
  151.0623  143.1834  156.4156 H   0  0  0  0  0  0  0  0  0  0  0  0
  151.5363  145.0616  157.4427 H   0  0  0  0  0  0  0  0  0  0  0  0
  150.3354  144.3283  158.4991 H   0  0  0  0  0  0  0  0  0  0  0  0
  152.6113  146.1205  159.2679 H   0  0  0  0  0  0  0  0  0  0  0  0
  150.9530  146.1656  159.8591 H   0  0  0  0  0  0  0  0  0  0  0  0
  153.0158  144.9926  161.2628 H   0  0  0  0  0  0  0  0  0  0  0  0
  151.3636  144.3725  161.3640 H   0  0  0  0  0  0  0  0  0  0  0  0
  152.4195  142.5850  162.7128 H   0  0  0  0  0  0  0  0  0  0  0  0
  154.0634  143.1979  162.4554 H   0  0  0  0  0  0  0  0  0  0  0  0
  153.7779  141.4671  162.6220 H   0  0  0  0  0  0  0  0  0  0  0  0
  148.9410  142.7526  155.2508 H   0  0  0  0  0  0  0  0  0  0  0  0
  1  2  1  0  0  0  0
  1 24  1  0  0  0  0
  1 25  1  0  0  0  0
  1 26  1  0  0  0  0
  2  3  1  0  0  0  0
  3  4  1  0  0  0  0
  3 27  1  0  0  0  0
  3 28  1  0  0  0  0
  4  5  1  0  0  0  0
  4 29  1  0  0  0  0
  4 30  1  0  0  0  0
  5  6  1  0  0  0  0
  6 22  1  0  0  0  0
  6  7  2  0  0  0  0
  7  8  1  0  0  0  0
  7 31  1  0  0  0  0
  8  9  2  0  0  0  0
  8 32  1  0  0  0  0
  9 10  1  0  0  0  0
  9 21  1  0  0  0  0
 10 11  1  0  0  0  0
 10 33  1  0  0  0  0
 11 12  2  0  0  0  0
 11 13  1  0  0  0  0
 13 23  1  0  0  0  0
 13 17  1  0  0  0  0
 13 14  1  0  0  0  0
 14 15  1  0  0  0  0
 14 34  1  0  0  0  0
 14 35  1  0  0  0  0
 15 16  1  0  0  0  0
 15 36  1  0  0  0  0
 15 37  1  0  0  0  0
 16 17  1  0  0  0  0
 16 38  1  0  0  0  0
 16 39  1  0  0  0  0
 17 18  1  0  0  0  0
 18 19  1  0  0  0  0
 18 20  2  0  0  0  0
 19 40  1  0  0  0  0
 19 41  1  0  0  0  0
 19 42  1  0  0  0  0
 21 22  2  0  0  0  0
 21 43  1  0  0  0  0
M  END
> <s_m_source_file>
AV-unprocessed.smi

> <i_m_source_file_index>
1277

> <i_lp_mmshare_version>
43012

> <i_f3d_flags>
0

> <s_epik_input>
W0NIM11PW0NIMl1bQ0gyXU9jMVtjSF1bY0hdYyhbY0hdbjEpW05IXUMoPU8pW0NAQEhdMltDSDJdW0NIMl1bQ0gyXU4yQyg9TylbQ0gzXQ==

> <s_epik_cmdline>
J2VwaWtfcHl0aG9uJywgJy1waCcsICc3LjAnLCAnLXRuJywgJzgnLCAnLW1hJywgJzIwMCcsICctbWV0YWxfYmluZGluZycsICctaW1hZScsICc8aW5maWxlLm1hZT4nLCAnLW9tYWUnLCAnPG91dGZpbGUubWFlPic=

> <r_lp_tautomer_probability>
1

> <r_epik_Ionization_Penalty>
1.62854e-05

> <r_epik_Ionization_Penalty_Charging>
0

> <r_epik_Ionization_Penalty_Neutral>
1.62854e-05

> <r_epik_State_Penalty>
-0

> <r_epik_Charging_Adjusted_Penalty>
0

> <i_epik_Tot_Q>
0

> <i_epik_Tot_abs_Q>
0

> <r_epik_Metal_State_Penalty>
-0

> <b_epik_Metal_Only>
0

> <s_lp_Force_Field>
OPLS_2005

> <r_lp_Energy>
20.2537

> <b_lp_Chiralities_Consistent>
1

> <s_lp_Variant>
AV-unprocessed.smi:1277-2

> <Gold.Version>
5.8.1

> <Gold.Id.Protein>
6NUR|6NUR_protein|mol2

> <Gold.PLP.Fitness>
51.5734

> <Gold.PLP.PLP>
-47.3555

> <Gold.PLP.part.hbond>
-1.0000

> <Gold.PLP.part.metal>
0.0000

> <Gold.PLP.part.buried>
-1.6213

> <Gold.PLP.part.nonpolar>
-48.7432

> <Gold.PLP.part.repulsive>
3.5188

> <Gold.PLP.ligand.clash>
0.0000

> <Gold.PLP.ligand.torsion>
0.9527

> <Gold.PLP.Chemscore.Hbond>
1.0000

> <Gold.PLP.Chemscore.CHOScore>
0.9989

> <Gold.PLP.Chemscore.Metal>
0.0000

> <Gold.Chemscore.Hbonds>
donor molecule, donor type, donor heavy atom, donor atom, acceptor molecule, acceptor atom, score
      P1  H  7954  7966       L1     2  0.93
      L1  C    21    43       P1  8028  0.93

> <Gold.PLP.Chemscore.Internal.Correction>
0.1266

> <Gold.Rescore>
     Score         DG    S(hbond)    S(metal)    S(lipo)     H(rot)  DE(clash)    DE(int)     intcor
      7.92     -15.29       0.72        0.00     104.45       1.89       1.87       5.49       ----

> <Gold.Chemscore.Fitness>
7.9232

> <Gold.Chemscore.DG>
-15.2875

> <Gold.Chemscore.ZeroCoef>
-5.4800

> <Gold.Chemscore.Hbond>
0.7249

> <Gold.Chemscore.Metal>
0.0000

> <Gold.Chemscore.Lipo>
104.4493

> <Gold.Chemscore.Internal_Hbond>
0.0000

> <Gold.Chemscore.DEClash>
1.8733

> <Gold.Chemscore.DEInternal>
5.4910

> <Gold.Chemscore.Rot>
1.8884

> <Gold.Chemscore.Internal.Correction>
   9.000000E+99

> <Gold.Chemscore.Hbonds>
donor molecule, donor type, donor heavy atom, donor atom, acceptor molecule, acceptor atom, score
      P1  H  7954  7966       L1     2  0.30

> <Gold.Chemscore.Hbond.Weighted>
-2.4211

> <Gold.Chemscore.Metal.Weighted>
-0.0000

> <Gold.Chemscore.Lipo.Weighted>
-12.2206

> <Gold.Chemscore.Internal_Hbond.Weighted>
0.0000

> <Gold.Chemscore.DEClash.Weighted>
1.8733

> <Gold.Chemscore.DEInternal.Weighted>
5.4910

> <Gold.Chemscore.Rot.Weighted>
4.8342

> <Gold.Chemscore.Internal.Correction.Weighted>
   9.000000E+99

> <Gold.Protein.RotatedTorsions>
[ 6907 6896 6895 6894 ] final   -0.63 input  -60.11 | X-H torsion
[ 7974 7965 7964 7962 ] final   -1.33 input  175.53 | X-H torsion
[ 8008 7997 7996 7995 ] final  -74.85 input   59.86 | X-H torsion
[ 10167 10162 10161 10158 ] final   53.13 input  -65.29 | X-H torsion
[ 10718 10713 10712 10709 ] final -150.66 input   66.30 | X-H torsion
[ 10763 10752 10751 10750 ] final  -95.74 input  -60.55 | X-H torsion
[ 11005 11000 10999 10996 ] final   73.57 input  -57.11 | X-H torsion

> <Gold.Protein.ActiveResidues>
 VAL166  LYS551  ARG553  GLY616  TRP617  ASP618  TYR619  PRO620  LYS621  CYS622 
 ASP623  PHE694  ASN695  SER759  ASP760  ASP761  ALA762  ILE779  LEU786  VAL792 
 PHE793  MET794  SER795  GLU796  ALA797  LYS798  CYS799  TRP800  GLU811  SER814 

> <Gold.Protein.RotatedAtoms>
  151.5592  135.1066  159.9968 H   0  0  0  0  0  0  0  0  0  0  0  0  # atno 6907 bound_to 6896
  152.4455  133.7524  159.6712 H   0  0  0  0  0  0  0  0  0  0  0  0  # atno 6908 bound_to 6896
  150.8369  133.7930  159.3100 H   0  0  0  0  0  0  0  0  0  0  0  0  # atno 6909 bound_to 6896
  146.2418  140.1404  142.8335 H   0  0  0  0  0  0  0  0  0  0  0  0  # atno 7974 bound_to 7965
  154.5366  140.0754  156.8438 H   0  0  0  0  0  0  0  0  0  0  0  0  # atno 8008 bound_to 7997
  155.3265  140.3399  155.4222 H   0  0  0  0  0  0  0  0  0  0  0  0  # atno 8009 bound_to 7997
  156.1834  140.1660  156.8217 H   0  0  0  0  0  0  0  0  0  0  0  0  # atno 8010 bound_to 7997
  140.2440  144.3552  150.6370 H   0  0  0  0  0  0  0  0  0  0  0  0  # atno 10167 bound_to 10162
  156.4490  130.8159  151.2389 H   0  0  0  0  0  0  0  0  0  0  0  0  # atno 10718 bound_to 10713
  154.7176  135.5109  153.8761 H   0  0  0  0  0  0  0  0  0  0  0  0  # atno 10763 bound_to 10752
  153.0834  135.6638  154.0008 H   0  0  0  0  0  0  0  0  0  0  0  0  # atno 10764 bound_to 10752
  153.9837  135.3026  155.3397 H   0  0  0  0  0  0  0  0  0  0  0  0  # atno 10765 bound_to 10752
  139.9434  134.7358  156.1042 H   0  0  0  0  0  0  0  0  0  0  0  0  # atno 11005 bound_to 11000
  145.0251  140.8825  143.5143 LP  0  0  0  0  0  0  0  0  0  0  0  0  # atno 17320 bound_to 7965
  145.1459  139.2544  143.5466 LP  0  0  0  0  0  0  0  0  0  0  0  0  # atno 17321 bound_to 7965
  140.6092  143.2169  151.6920 LP  0  0  0  0  0  0  0  0  0  0  0  0  # atno 17342 bound_to 10162
  139.5068  144.3669  152.0508 LP  0  0  0  0  0  0  0  0  0  0  0  0  # atno 17343 bound_to 10162
  157.7503  131.0144  150.3462 LP  0  0  0  0  0  0  0  0  0  0  0  0  # atno 17370 bound_to 10713
  156.3836  130.3885  149.7083 LP  0  0  0  0  0  0  0  0  0  0  0  0  # atno 17371 bound_to 10713
  141.1076  133.6654  156.2901 LP  0  0  0  0  0  0  0  0  0  0  0  0  # atno 17394 bound_to 11000
  140.5896  134.5664  157.5497 LP  0  0  0  0  0  0  0  0  0  0  0  0  # atno 17395 bound_to 11000

$$$$
