AV-unprocessed.smi:1891|AV-procd|sdf|7665|dock2
  -GOLD-   22720 9403D 1   1.00000     0.00000
 Structure written by MMmdl.
 36 38  0  0  0  0  0  0  0  0  1 V2000
  153.0135  139.3399  156.4221 O   0  0  0  0  0  0  0  0  0  0  0  0
  152.1677  139.2969  157.5505 C   0  0  0  0  0  0  0  0  0  0  0  0
  152.0851  140.6072  158.2741 C   0  0  0  0  0  0  0  0  0  0  0  0
  152.4767  140.7295  159.5432 N   0  0  0  0  0  0  0  0  0  0  0  0
  152.2632  142.0691  159.8013 C   0  0  0  0  0  0  0  0  0  0  0  0
  152.4878  142.8256  160.9737 C   0  0  0  0  0  0  0  0  0  0  0  0
  152.1977  144.2056  160.9992 C   0  0  0  0  0  0  0  0  0  0  0  0
  151.6816  144.8477  159.8550 C   0  0  0  0  0  0  0  0  0  0  0  0
  151.4490  144.1119  158.6772 C   0  0  0  0  0  0  0  0  0  0  0  0
  151.7371  142.7337  158.6579 C   0  0  0  0  0  0  0  0  0  0  0  0
  151.6235  141.7424  157.6878 N   0  0  0  0  0  0  0  0  0  0  0  0
  151.1255  141.9329  156.3305 C   0  0  0  0  0  0  0  0  0  0  0  0
  150.1701  140.8090  155.8789 C   0  0  2  0  0  0  0  0  0  0  0  0
  150.7327  140.0998  154.7921 O   0  0  0  0  0  0  0  0  0  0  0  0
  148.7877  141.3618  155.5599 C   0  0  0  0  0  0  0  0  0  0  0  0
  148.3440  141.4470  154.2210 C   0  0  0  0  0  0  0  0  0  0  0  0
  147.0699  141.9691  153.9249 C   0  0  0  0  0  0  0  0  0  0  0  0
  146.2321  142.4138  154.9649 C   0  0  0  0  0  0  0  0  0  0  0  0
  145.0082  142.9182  154.6802 F   0  0  0  0  0  0  0  0  0  0  0  0
  146.6695  142.3370  156.3009 C   0  0  0  0  0  0  0  0  0  0  0  0
  147.9438  141.8157  156.5994 C   0  0  0  0  0  0  0  0  0  0  0  0
  148.3525  141.7585  157.8899 F   0  0  0  0  0  0  0  0  0  0  0  0
  153.2433  138.4546  156.1856 H   0  0  0  0  0  0  0  0  0  0  0  0
  151.1701  139.0050  157.2203 H   0  0  0  0  0  0  0  0  0  0  0  0
  152.5056  138.5187  158.2346 H   0  0  0  0  0  0  0  0  0  0  0  0
  152.8856  142.3436  161.8545 H   0  0  0  0  0  0  0  0  0  0  0  0
  152.3739  144.7744  161.9003 H   0  0  0  0  0  0  0  0  0  0  0  0
  151.4640  145.9053  159.8822 H   0  0  0  0  0  0  0  0  0  0  0  0
  151.0542  144.6021  157.7997 H   0  0  0  0  0  0  0  0  0  0  0  0
  150.6073  142.8922  156.3002 H   0  0  0  0  0  0  0  0  0  0  0  0
  151.9599  142.0184  155.6356 H   0  0  0  0  0  0  0  0  0  0  0  0
  150.0694  140.0823  156.6848 H   0  0  0  0  0  0  0  0  0  0  0  0
  150.9168  139.2165  155.0730 H   0  0  0  0  0  0  0  0  0  0  0  0
  148.9811  141.1151  153.4142 H   0  0  0  0  0  0  0  0  0  0  0  0
  146.7367  142.0302  152.8993 H   0  0  0  0  0  0  0  0  0  0  0  0
  146.0276  142.6807  157.0986 H   0  0  0  0  0  0  0  0  0  0  0  0
  1  2  1  0  0  0  0
  1 23  1  0  0  0  0
  2  3  1  0  0  0  0
  2 24  1  0  0  0  0
  2 25  1  0  0  0  0
  3 11  1  0  0  0  0
  3  4  2  0  0  0  0
  4  5  1  0  0  0  0
  5 10  2  0  0  0  0
  5  6  1  0  0  0  0
  6  7  2  0  0  0  0
  6 26  1  0  0  0  0
  7  8  1  0  0  0  0
  7 27  1  0  0  0  0
  8  9  2  0  0  0  0
  8 28  1  0  0  0  0
  9 10  1  0  0  0  0
  9 29  1  0  0  0  0
 10 11  1  0  0  0  0
 11 12  1  0  0  0  0
 12 13  1  0  0  0  0
 12 30  1  0  0  0  0
 12 31  1  0  0  0  0
 13 14  1  0  0  0  0
 13 15  1  0  0  0  0
 13 32  1  0  0  0  0
 14 33  1  0  0  0  0
 15 21  1  0  0  0  0
 15 16  2  0  0  0  0
 16 17  1  0  0  0  0
 16 34  1  0  0  0  0
 17 18  2  0  0  0  0
 17 35  1  0  0  0  0
 18 19  1  0  0  0  0
 18 20  1  0  0  0  0
 20 21  2  0  0  0  0
 20 36  1  0  0  0  0
 21 22  1  0  0  0  0
M  END
> <s_m_source_file>
AV-unprocessed.smi

> <i_m_source_file_index>
1891

> <i_lp_mmshare_version>
43012

> <i_f3d_flags>
0

> <s_epik_input>
W2NIXTFbY0hdW2NIXVtjSF1jKGMxMiluKGMobjIpW0NIMl1bT0hdKVtDSDJdW0NASF0oW09IXSljM1tjSF1bY0hdYyhGKVtjSF1jM0Y=

> <s_epik_cmdline>
J2VwaWtfcHl0aG9uJywgJy1waCcsICc3LjAnLCAnLXRuJywgJzgnLCAnLW1hJywgJzIwMCcsICctbWV0YWxfYmluZGluZycsICctaW1hZScsICc8aW5maWxlLm1hZT4nLCAnLW9tYWUnLCAnPG91dGZpbGUubWFlPic=

> <r_epik_Ionization_Penalty>
0.0634724

> <r_epik_Ionization_Penalty_Charging>
0

> <r_epik_Ionization_Penalty_Neutral>
0.0634724

> <r_epik_State_Penalty>
0.0551572

> <r_epik_Charging_Adjusted_Penalty>
0.0551572

> <i_epik_Tot_Q>
0

> <i_epik_Tot_abs_Q>
0

> <r_epik_Metal_State_Penalty>
5.78034e-05

> <b_epik_Metal_Only>
0

> <s_lp_Force_Field>
OPLS_2005

> <r_lp_Energy>
12.6206

> <b_lp_Chiralities_Consistent>
1

> <s_lp_Variant>
AV-unprocessed.smi:1891-1

> <Gold.Version>
5.8.1

> <Gold.Id.Protein>
6NUR|6NUR_protein|mol2

> <Gold.PLP.Fitness>
52.5938

> <Gold.PLP.PLP>
-49.1134

> <Gold.PLP.part.hbond>
-2.0000

> <Gold.PLP.part.metal>
0.0000

> <Gold.PLP.part.buried>
-8.2388

> <Gold.PLP.part.nonpolar>
-39.0273

> <Gold.PLP.part.repulsive>
0.0000

> <Gold.PLP.ligand.clash>
0.0000

> <Gold.PLP.ligand.torsion>
1.2857

> <Gold.PLP.Chemscore.Hbond>
2.0000

> <Gold.PLP.Chemscore.CHOScore>
0.0000

> <Gold.PLP.Chemscore.Metal>
0.0000

> <Gold.Chemscore.Hbonds>
donor molecule, donor type, donor heavy atom, donor atom, acceptor molecule, acceptor atom, score
      P1  H  7989  7998       L1    14  1.00
      P1  H  7997  8009       L1     1  1.00

> <Gold.PLP.Chemscore.Internal.Correction>
0.0517

> <Gold.Rescore>
     Score         DG    S(hbond)    S(metal)    S(lipo)     H(rot)  DE(clash)    DE(int)     intcor
     15.91     -18.40       1.89        0.00     119.57       2.88       0.05       2.44       ----

> <Gold.Chemscore.Fitness>
15.9060

> <Gold.Chemscore.DG>
-18.4022

> <Gold.Chemscore.ZeroCoef>
-5.4800

> <Gold.Chemscore.Hbond>
1.8855

> <Gold.Chemscore.Metal>
0.0000

> <Gold.Chemscore.Lipo>
119.5657

> <Gold.Chemscore.Internal_Hbond>
0.0000

> <Gold.Chemscore.DEClash>
0.0529

> <Gold.Chemscore.DEInternal>
2.4433

> <Gold.Chemscore.Rot>
2.8767

> <Gold.Chemscore.Internal.Correction>
   9.000000E+99

> <Gold.Chemscore.Hbonds>
donor molecule, donor type, donor heavy atom, donor atom, acceptor molecule, acceptor atom, score
      P1  H  7989  7998       L1    14  0.98
      P1  H  7997  8009       L1     1  0.40

> <Gold.Chemscore.Hbond.Weighted>
-6.2974

> <Gold.Chemscore.Metal.Weighted>
-0.0000

> <Gold.Chemscore.Lipo.Weighted>
-13.9892

> <Gold.Chemscore.Internal_Hbond.Weighted>
0.0000

> <Gold.Chemscore.DEClash.Weighted>
0.0529

> <Gold.Chemscore.DEInternal.Weighted>
2.4433

> <Gold.Chemscore.Rot.Weighted>
7.3644

> <Gold.Chemscore.Internal.Correction.Weighted>
   9.000000E+99

> <Gold.Protein.RotatedTorsions>
[ 6907 6896 6895 6894 ] final  127.96 input  -60.11 | X-H torsion
[ 7974 7965 7964 7962 ] final   55.83 input  175.53 | X-H torsion
[ 8008 7997 7996 7995 ] final  174.02 input   59.86 | X-H torsion
[ 10167 10162 10161 10158 ] final  -13.77 input  -65.29 | X-H torsion
[ 10718 10713 10712 10709 ] final    5.87 input   66.30 | X-H torsion
[ 10763 10752 10751 10750 ] final  110.68 input  -60.55 | X-H torsion
[ 11005 11000 10999 10996 ] final   22.18 input  -57.11 | X-H torsion

> <Gold.Protein.ActiveResidues>
 VAL166  LYS551  ARG553  GLY616  TRP617  ASP618  TYR619  PRO620  LYS621  CYS622 
 ASP623  PHE694  ASN695  SER759  ASP760  ASP761  ALA762  ILE779  LEU786  VAL792 
 PHE793  MET794  SER795  GLU796  ALA797  LYS798  CYS799  TRP800  GLU811  SER814 

> <Gold.Protein.RotatedAtoms>
  152.3764  133.6487  159.6126 H   0  0  0  0  0  0  0  0  0  0  0  0  # atno 6907 bound_to 6896
  150.7707  133.9185  159.3400 H   0  0  0  0  0  0  0  0  0  0  0  0  # atno 6908 bound_to 6896
  151.6999  135.0933  160.0300 H   0  0  0  0  0  0  0  0  0  0  0  0  # atno 6909 bound_to 6896
  145.9462  139.3932  143.0333 H   0  0  0  0  0  0  0  0  0  0  0  0  # atno 7974 bound_to 7965
  156.1017  140.1445  156.9459 H   0  0  0  0  0  0  0  0  0  0  0  0  # atno 8008 bound_to 7997
  154.4707  140.0911  156.7181 H   0  0  0  0  0  0  0  0  0  0  0  0  # atno 8009 bound_to 7997
  155.4749  140.3443  155.4333 H   0  0  0  0  0  0  0  0  0  0  0  0  # atno 8010 bound_to 7997
  140.7188  143.5391  150.9430 H   0  0  0  0  0  0  0  0  0  0  0  0  # atno 10167 bound_to 10162
  156.9137  130.5765  149.5647 H   0  0  0  0  0  0  0  0  0  0  0  0  # atno 10718 bound_to 10713
  153.4524  135.3741  155.2291 H   0  0  0  0  0  0  0  0  0  0  0  0  # atno 10763 bound_to 10752
  154.8756  135.3889  154.4022 H   0  0  0  0  0  0  0  0  0  0  0  0  # atno 10764 bound_to 10752
  153.4584  135.7086  153.6130 H   0  0  0  0  0  0  0  0  0  0  0  0  # atno 10765 bound_to 10752
  140.3834  134.1896  155.7663 H   0  0  0  0  0  0  0  0  0  0  0  0  # atno 11005 bound_to 11000
  145.8232  140.9668  143.0887 LP  0  0  0  0  0  0  0  0  0  0  0  0  # atno 17320 bound_to 7965
  144.6787  140.0068  143.7484 LP  0  0  0  0  0  0  0  0  0  0  0  0  # atno 17321 bound_to 7965
  139.9113  143.6716  152.3114 LP  0  0  0  0  0  0  0  0  0  0  0  0  # atno 17342 bound_to 10162
  139.7100  144.7621  151.1127 LP  0  0  0  0  0  0  0  0  0  0  0  0  # atno 17343 bound_to 10162
  156.0523  130.5591  150.9017 LP  0  0  0  0  0  0  0  0  0  0  0  0  # atno 17370 bound_to 10713
  157.5951  131.0943  150.9054 LP  0  0  0  0  0  0  0  0  0  0  0  0  # atno 17371 bound_to 10713
  141.1916  133.8192  157.0874 LP  0  0  0  0  0  0  0  0  0  0  0  0  # atno 17394 bound_to 11000
  140.0461  134.9829  157.1052 LP  0  0  0  0  0  0  0  0  0  0  0  0  # atno 17395 bound_to 11000

$$$$
