AV-unprocessed.smi:1286|AV-procd|sdf|5375|dock4
  -GOLD-   22720 4523D 1   1.00000     0.00000
 Structure written by MMmdl.
 36 37  0  0  0  0  0  0  0  0  1 V2000
  152.8917  139.0046  154.8669 C   0  0  0  0  0  0  0  0  0  0  0  0
  151.5069  138.8282  155.5045 C   0  0  2  0  0  0  0  0  0  0  0  0
  150.4156  138.6171  154.4344 C   0  0  0  0  0  0  0  0  0  0  0  0
  149.4895  139.7328  154.3457 N   0  0  0  0  0  0  0  0  0  0  0  0
  148.1144  139.6972  154.2445 C   0  0  0  0  0  0  0  0  0  0  0  0
  147.6776  140.9894  154.1870 C   0  0  0  0  0  0  0  0  0  0  0  0
  148.8752  141.7541  154.2623 C   0  0  0  0  0  0  0  0  0  0  0  0
  149.9572  140.9995  154.3638 N   0  0  0  0  0  0  0  0  0  0  0  0
  151.1987  140.0040  156.3177 N   0  0  0  0  0  0  0  0  0  0  0  0
  151.8728  140.4060  157.4070 C   0  0  0  0  0  0  0  0  0  0  0  0
  152.8882  139.8479  157.8228 O   0  0  0  0  0  0  0  0  0  0  0  0
  151.2987  141.6198  158.1475 C   0  0  0  0  0  0  0  0  0  0  0  0
  152.3661  142.4901  158.8490 C   0  0  2  0  0  0  0  0  0  0  0  0
  152.9937  141.8307  160.0536 C   0  0  0  0  0  0  0  0  0  0  0  0
  152.9191  142.5809  161.1502 C   0  0  0  0  0  0  0  0  0  0  0  0
  152.2281  143.8929  160.9033 C   0  0  0  0  0  0  0  0  0  0  0  0
  151.7932  143.8120  159.4226 C   0  0  0  0  0  0  0  0  0  0  0  0
  153.1608  138.1336  154.2688 H   0  0  0  0  0  0  0  0  0  0  0  0
  153.6616  139.1303  155.6288 H   0  0  0  0  0  0  0  0  0  0  0  0
  152.9214  139.8780  154.2144 H   0  0  0  0  0  0  0  0  0  0  0  0
  151.5520  137.9350  156.1301 H   0  0  0  0  0  0  0  0  0  0  0  0
  150.8685  138.4628  153.4540 H   0  0  0  0  0  0  0  0  0  0  0  0
  149.8404  137.7169  154.6559 H   0  0  0  0  0  0  0  0  0  0  0  0
  147.5681  138.7660  154.2179 H   0  0  0  0  0  0  0  0  0  0  0  0
  146.6585  141.3355  154.1002 H   0  0  0  0  0  0  0  0  0  0  0  0
  148.9898  142.8279  154.2484 H   0  0  0  0  0  0  0  0  0  0  0  0
  150.3807  140.5331  156.0526 H   0  0  0  0  0  0  0  0  0  0  0  0
  150.7478  142.2258  157.4276 H   0  0  0  0  0  0  0  0  0  0  0  0
  150.5697  141.2765  158.8835 H   0  0  0  0  0  0  0  0  0  0  0  0
  153.1693  142.7220  158.1480 H   0  0  0  0  0  0  0  0  0  0  0  0
  153.4649  140.8607  159.9993 H   0  0  0  0  0  0  0  0  0  0  0  0
  153.3137  142.3099  162.1184 H   0  0  0  0  0  0  0  0  0  0  0  0
  151.3747  144.0088  161.5719 H   0  0  0  0  0  0  0  0  0  0  0  0
  152.9220  144.7164  161.0758 H   0  0  0  0  0  0  0  0  0  0  0  0
  152.1551  144.6726  158.8591 H   0  0  0  0  0  0  0  0  0  0  0  0
  150.7046  143.8278  159.3585 H   0  0  0  0  0  0  0  0  0  0  0  0
  1  2  1  0  0  0  0
  1 18  1  0  0  0  0
  1 19  1  0  0  0  0
  1 20  1  0  0  0  0
  2  3  1  0  0  0  0
  2  9  1  0  0  0  0
  2 21  1  0  0  0  0
  3  4  1  0  0  0  0
  3 22  1  0  0  0  0
  3 23  1  0  0  0  0
  4  8  1  0  0  0  0
  4  5  1  0  0  0  0
  5  6  2  0  0  0  0
  5 24  1  0  0  0  0
  6  7  1  0  0  0  0
  6 25  1  0  0  0  0
  7  8  2  0  0  0  0
  7 26  1  0  0  0  0
  9 10  1  0  0  0  0
  9 27  1  0  0  0  0
 10 11  2  0  0  0  0
 10 12  1  0  0  0  0
 12 13  1  0  0  0  0
 12 28  1  0  0  0  0
 12 29  1  0  0  0  0
 13 17  1  0  0  0  0
 13 14  1  0  0  0  0
 13 30  1  0  0  0  0
 14 15  2  0  0  0  0
 14 31  1  0  0  0  0
 15 16  1  0  0  0  0
 15 32  1  0  0  0  0
 16 17  1  0  0  0  0
 16 33  1  0  0  0  0
 16 34  1  0  0  0  0
 17 35  1  0  0  0  0
 17 36  1  0  0  0  0
M  END
> <s_m_source_file>
AV-unprocessed.smi

> <i_m_source_file_index>
1286

> <i_lp_mmshare_version>
43012

> <i_f3d_flags>
0

> <s_epik_input>
bjFbY0hdW2NIXVtjSF1uMVtDSDJdW0NAQEhdKFtDSDNdKVtOSF1DKD1PKVtDSDJdW0NAQEhdMltDSF09W0NIXVtDSDJdW0NIMl0y

> <s_epik_cmdline>
J2VwaWtfcHl0aG9uJywgJy1waCcsICc3LjAnLCAnLXRuJywgJzgnLCAnLW1hJywgJzIwMCcsICctbWV0YWxfYmluZGluZycsICctaW1hZScsICc8aW5maWxlLm1hZT4nLCAnLW9tYWUnLCAnPG91dGZpbGUubWFlPic=

> <r_lp_tautomer_probability>
1

> <r_epik_Ionization_Penalty>
0.000301761

> <r_epik_Ionization_Penalty_Charging>
0

> <r_epik_Ionization_Penalty_Neutral>
0.000301761

> <r_epik_State_Penalty>
-0

> <r_epik_Charging_Adjusted_Penalty>
0

> <i_epik_Tot_Q>
0

> <i_epik_Tot_abs_Q>
0

> <r_epik_Metal_State_Penalty>
-0

> <b_epik_Metal_Only>
0

> <s_lp_Force_Field>
OPLS_2005

> <r_lp_Energy>
16.2222

> <b_lp_Chiralities_Consistent>
1

> <s_lp_Variant>
AV-unprocessed.smi:1286-1

> <Gold.Version>
5.8.1

> <Gold.Id.Protein>
6NUR|6NUR_protein|mol2

> <Gold.PLP.Fitness>
45.7088

> <Gold.PLP.PLP>
-40.5799

> <Gold.PLP.part.hbond>
-2.0000

> <Gold.PLP.part.metal>
0.0000

> <Gold.PLP.part.buried>
-3.2046

> <Gold.PLP.part.nonpolar>
-35.7921

> <Gold.PLP.part.repulsive>
0.2402

> <Gold.PLP.ligand.clash>
0.0000

> <Gold.PLP.ligand.torsion>
1.3616

> <Gold.PLP.Chemscore.Hbond>
1.6080

> <Gold.PLP.Chemscore.CHOScore>
1.0000

> <Gold.PLP.Chemscore.Metal>
0.0000

> <Gold.Chemscore.Hbonds>
donor molecule, donor type, donor heavy atom, donor atom, acceptor molecule, acceptor atom, score
      P1  H  7989  7998       L1     8  0.58
      P1  H  7997  8009       L1    11  1.00
      L1  C     7    26       P1  8028  1.00

> <Gold.PLP.Chemscore.Internal.Correction>
0.0282

> <Gold.Rescore>
     Score         DG    S(hbond)    S(metal)    S(lipo)     H(rot)  DE(clash)    DE(int)     intcor
     18.14     -19.58       1.78        0.00     105.42       1.64       0.03       1.41       ----

> <Gold.Chemscore.Fitness>
18.1359

> <Gold.Chemscore.DG>
-19.5763

> <Gold.Chemscore.ZeroCoef>
-5.4800

> <Gold.Chemscore.Hbond>
1.7843

> <Gold.Chemscore.Metal>
0.0000

> <Gold.Chemscore.Lipo>
105.4167

> <Gold.Chemscore.Internal_Hbond>
0.0000

> <Gold.Chemscore.DEClash>
0.0319

> <Gold.Chemscore.DEInternal>
1.4085

> <Gold.Chemscore.Rot>
1.6394

> <Gold.Chemscore.Internal.Correction>
   9.000000E+99

> <Gold.Chemscore.Hbonds>
donor molecule, donor type, donor heavy atom, donor atom, acceptor molecule, acceptor atom, score
      P1  H  7989  7998       L1     8  0.29
      P1  H  7997  8009       L1    11  0.96

> <Gold.Chemscore.Hbond.Weighted>
-5.9595

> <Gold.Chemscore.Metal.Weighted>
-0.0000

> <Gold.Chemscore.Lipo.Weighted>
-12.3338

> <Gold.Chemscore.Internal_Hbond.Weighted>
0.0000

> <Gold.Chemscore.DEClash.Weighted>
0.0319

> <Gold.Chemscore.DEInternal.Weighted>
1.4085

> <Gold.Chemscore.Rot.Weighted>
4.1969

> <Gold.Chemscore.Internal.Correction.Weighted>
   9.000000E+99

> <Gold.Protein.RotatedTorsions>
[ 6907 6896 6895 6894 ] final   66.11 input  -60.11 | X-H torsion
[ 7974 7965 7964 7962 ] final  -90.17 input  175.53 | X-H torsion
[ 8008 7997 7996 7995 ] final  151.78 input   59.86 | X-H torsion
[ 10167 10162 10161 10158 ] final -154.73 input  -65.29 | X-H torsion
[ 10718 10713 10712 10709 ] final   41.52 input   66.30 | X-H torsion
[ 10763 10752 10751 10750 ] final   63.84 input  -60.55 | X-H torsion
[ 11005 11000 10999 10996 ] final    5.56 input  -57.11 | X-H torsion

> <Gold.Protein.ActiveResidues>
 VAL166  LYS551  ARG553  GLY616  TRP617  ASP618  TYR619  PRO620  LYS621  CYS622 
 ASP623  PHE694  ASN695  SER759  ASP760  ASP761  ALA762  ILE779  LEU786  VAL792 
 PHE793  MET794  SER795  GLU796  ALA797  LYS798  CYS799  TRP800  GLU811  SER814 

> <Gold.Protein.RotatedAtoms>
  152.4457  134.5499  159.9863 H   0  0  0  0  0  0  0  0  0  0  0  0  # atno 6907 bound_to 6896
  151.5585  133.3401  159.2974 H   0  0  0  0  0  0  0  0  0  0  0  0  # atno 6908 bound_to 6896
  150.8373  134.7683  159.6967 H   0  0  0  0  0  0  0  0  0  0  0  0  # atno 6909 bound_to 6896
  145.4300  140.9555  143.2133 H   0  0  0  0  0  0  0  0  0  0  0  0  # atno 7974 bound_to 7965
  156.2659  140.2038  156.6229 H   0  0  0  0  0  0  0  0  0  0  0  0  # atno 8008 bound_to 7997
  154.6743  140.0547  157.0223 H   0  0  0  0  0  0  0  0  0  0  0  0  # atno 8009 bound_to 7997
  155.1092  140.3214  155.4529 H   0  0  0  0  0  0  0  0  0  0  0  0  # atno 8010 bound_to 7997
  139.6989  143.9296  152.2420 H   0  0  0  0  0  0  0  0  0  0  0  0  # atno 10167 bound_to 10162
  157.3945  130.7825  149.7296 H   0  0  0  0  0  0  0  0  0  0  0  0  # atno 10718 bound_to 10713
  153.0033  135.5414  154.6416 H   0  0  0  0  0  0  0  0  0  0  0  0  # atno 10763 bound_to 10752
  154.5670  135.2838  155.0866 H   0  0  0  0  0  0  0  0  0  0  0  0  # atno 10764 bound_to 10752
  154.2047  135.6478  153.5150 H   0  0  0  0  0  0  0  0  0  0  0  0  # atno 10765 bound_to 10752
  140.5694  134.0117  155.8002 H   0  0  0  0  0  0  0  0  0  0  0  0  # atno 11005 bound_to 11000
  144.8189  139.5827  143.6996 LP  0  0  0  0  0  0  0  0  0  0  0  0  # atno 17320 bound_to 7965
  146.2612  139.6415  142.9361 LP  0  0  0  0  0  0  0  0  0  0  0  0  # atno 17321 bound_to 7965
  139.9133  144.6844  150.8539 LP  0  0  0  0  0  0  0  0  0  0  0  0  # atno 17342 bound_to 10162
  140.7704  143.3428  151.2173 LP  0  0  0  0  0  0  0  0  0  0  0  0  # atno 17343 bound_to 10162
  155.9807  130.4027  150.3515 LP  0  0  0  0  0  0  0  0  0  0  0  0  # atno 17370 bound_to 10713
  157.1635  131.0351  151.2829 LP  0  0  0  0  0  0  0  0  0  0  0  0  # atno 17371 bound_to 10713
  141.1066  133.9684  157.2986 LP  0  0  0  0  0  0  0  0  0  0  0  0  # atno 17394 bound_to 11000
  139.9369  135.0195  156.8585 LP  0  0  0  0  0  0  0  0  0  0  0  0  # atno 17395 bound_to 11000

$$$$
