AV-unprocessed.smi:3299|AV-procd|sdf|12649|dock1
  -GOLD-   2272018583D 1   1.00000     0.00000
 Structure written by MMmdl.
 34 35  0  0  0  0  0  0  0  0  1 V2000
  145.7271  131.9501  149.7728 C   0  0  0  0  0  0  0  0  0  0  0  0
  145.2368  133.2146  150.4052 C   0  0  0  0  0  0  0  0  0  0  0  0
  143.9283  133.5859  150.5997 C   0  0  0  0  0  0  0  0  0  0  0  0
  143.7980  135.1425  151.3729 S   0  0  0  0  0  0  0  0  0  0  0  0
  145.5605  135.2279  151.4003 C   0  0  0  0  0  0  0  0  0  0  0  0
  146.3633  136.2768  151.9125 N   0  0  0  0  0  0  0  0  0  0  0  0
  145.9576  137.3899  152.5444 C   0  0  0  0  0  0  0  0  0  0  0  0
  144.7873  137.6764  152.7953 O   0  0  0  0  0  0  0  0  0  0  0  0
  147.0030  138.1666  152.8710 N   0  0  0  0  0  0  0  0  0  0  0  0
  146.9623  139.4552  153.5660 C   0  0  1  0  0  0  0  0  0  0  0  0
  146.5546  139.3062  155.0496 C   0  0  0  0  0  0  0  0  0  0  0  0
  145.9417  140.5770  155.6614 C   0  0  0  0  0  0  0  0  0  0  0  0
  144.6317  140.7610  155.1697 O   0  0  0  0  0  0  0  0  0  0  0  0
  148.2281  140.2871  153.4202 C   0  0  0  0  0  0  0  0  0  0  0  0
  149.3555  140.1667  154.4175 C   0  0  0  0  0  0  0  0  0  0  0  0
  148.5262  141.4305  154.3599 C   0  0  0  0  0  0  0  0  0  0  0  0
  146.1578  134.1610  150.8664 N   0  0  0  0  0  0  0  0  0  0  0  0
  144.9126  131.2444  149.6084 H   0  0  0  0  0  0  0  0  0  0  0  0
  146.4681  131.4558  150.4015 H   0  0  0  0  0  0  0  0  0  0  0  0
  146.1913  132.1489  148.8067 H   0  0  0  0  0  0  0  0  0  0  0  0
  143.0350  133.0397  150.3353 H   0  0  0  0  0  0  0  0  0  0  0  0
  147.3574  136.1694  151.7756 H   0  0  0  0  0  0  0  0  0  0  0  0
  147.9215  137.8335  152.6167 H   0  0  0  0  0  0  0  0  0  0  0  0
  146.1636  140.0112  153.0731 H   0  0  0  0  0  0  0  0  0  0  0  0
  145.8575  138.4753  155.1649 H   0  0  0  0  0  0  0  0  0  0  0  0
  147.4384  139.0325  155.6276 H   0  0  0  0  0  0  0  0  0  0  0  0
  145.9051  140.5020  156.7485 H   0  0  0  0  0  0  0  0  0  0  0  0
  146.5333  141.4581  155.4122 H   0  0  0  0  0  0  0  0  0  0  0  0
  144.6367  140.6113  154.2366 H   0  0  0  0  0  0  0  0  0  0  0  0
  148.5411  140.4323  152.3880 H   0  0  0  0  0  0  0  0  0  0  0  0
  149.2099  139.5098  155.2728 H   0  0  0  0  0  0  0  0  0  0  0  0
  150.3722  140.2132  154.0327 H   0  0  0  0  0  0  0  0  0  0  0  0
  148.9898  142.3189  153.9362 H   0  0  0  0  0  0  0  0  0  0  0  0
  147.8304  141.6120  155.1767 H   0  0  0  0  0  0  0  0  0  0  0  0
  1  2  1  0  0  0  0
  1 18  1  0  0  0  0
  1 19  1  0  0  0  0
  1 20  1  0  0  0  0
  2 17  1  0  0  0  0
  2  3  2  0  0  0  0
  3  4  1  0  0  0  0
  3 21  1  0  0  0  0
  4  5  1  0  0  0  0
  5  6  1  0  0  0  0
  5 17  2  0  0  0  0
  6  7  1  0  0  0  0
  6 22  1  0  0  0  0
  7  8  2  0  0  0  0
  7  9  1  0  0  0  0
  9 10  1  0  0  0  0
  9 23  1  0  0  0  0
 10 11  1  0  0  0  0
 10 14  1  0  0  0  0
 10 24  1  0  0  0  0
 11 12  1  0  0  0  0
 11 25  1  0  0  0  0
 11 26  1  0  0  0  0
 12 13  1  0  0  0  0
 12 27  1  0  0  0  0
 12 28  1  0  0  0  0
 13 29  1  0  0  0  0
 14 16  1  0  0  0  0
 14 15  1  0  0  0  0
 14 30  1  0  0  0  0
 15 16  1  0  0  0  0
 15 31  1  0  0  0  0
 15 32  1  0  0  0  0
 16 33  1  0  0  0  0
 16 34  1  0  0  0  0
M  END
> <s_m_source_file>
AV-unprocessed.smi

> <i_m_source_file_index>
3299

> <i_lp_mmshare_version>
43012

> <i_f3d_flags>
0

> <s_epik_input>
W0NIM11jMVtjSF1zYyhuMSlbTkhdQyg9TylbTkhdW0NASF0oW0NIMl1bQ0gyXVtPSF0pW0NIXTJbQ0gyXVtDSDJdMg==

> <s_epik_cmdline>
J2VwaWtfcHl0aG9uJywgJy1waCcsICc3LjAnLCAnLXRuJywgJzgnLCAnLW1hJywgJzIwMCcsICctbWV0YWxfYmluZGluZycsICctaW1hZScsICc8aW5maWxlLm1hZT4nLCAnLW9tYWUnLCAnPG91dGZpbGUubWFlPic=

> <r_lp_tautomer_probability>
0.999

> <r_epik_Ionization_Penalty>
0.000568872

> <r_epik_Ionization_Penalty_Charging>
0

> <r_epik_Ionization_Penalty_Neutral>
0.000568872

> <r_epik_State_Penalty>
0.000177984

> <r_epik_Charging_Adjusted_Penalty>
0.000177984

> <i_epik_Tot_Q>
0

> <i_epik_Tot_abs_Q>
0

> <r_epik_Metal_State_Penalty>
-0

> <b_epik_Metal_Only>
0

> <s_lp_Force_Field>
OPLS_2005

> <r_lp_Energy>
11.9184

> <b_lp_Chiralities_Consistent>
1

> <s_lp_Variant>
AV-unprocessed.smi:3299-2

> <Gold.Version>
5.8.1

> <Gold.Id.Protein>
6NUR|6NUR_protein|mol2

> <Gold.PLP.Fitness>
35.7181

> <Gold.PLP.PLP>
-25.7713

> <Gold.PLP.part.hbond>
-3.0000

> <Gold.PLP.part.metal>
0.0000

> <Gold.PLP.part.buried>
-1.2842

> <Gold.PLP.part.nonpolar>
-23.6451

> <Gold.PLP.part.repulsive>
1.2642

> <Gold.PLP.ligand.clash>
0.0000

> <Gold.PLP.ligand.torsion>
0.9271

> <Gold.PLP.Chemscore.Hbond>
2.8882

> <Gold.PLP.Chemscore.CHOScore>
0.6491

> <Gold.PLP.Chemscore.Metal>
0.0000

> <Gold.Chemscore.Hbonds>
donor molecule, donor type, donor heavy atom, donor atom, acceptor molecule, acceptor atom, score
      L1  H     6    22       P1  7948  1.00
      L1  H     9    23       P1  7948  0.89
      L1  H    13    29       P1 10175  0.99
      L1  C     3    21       P1 10186  0.66

> <Gold.PLP.Chemscore.Internal.Correction>
1.1895

> <Gold.Rescore>
     Score         DG    S(hbond)    S(metal)    S(lipo)     H(rot)  DE(clash)    DE(int)     intcor
     12.95     -16.20       2.80        0.00      64.02       2.39       1.62       1.63       ----

> <Gold.Chemscore.Fitness>
12.9504

> <Gold.Chemscore.DG>
-16.2031

> <Gold.Chemscore.ZeroCoef>
-5.4800

> <Gold.Chemscore.Hbond>
2.8011

> <Gold.Chemscore.Metal>
0.0000

> <Gold.Chemscore.Lipo>
64.0178

> <Gold.Chemscore.Internal_Hbond>
0.0000

> <Gold.Chemscore.DEClash>
1.6206

> <Gold.Chemscore.DEInternal>
1.6321

> <Gold.Chemscore.Rot>
2.3917

> <Gold.Chemscore.Internal.Correction>
   9.000000E+99

> <Gold.Chemscore.Hbonds>
donor molecule, donor type, donor heavy atom, donor atom, acceptor molecule, acceptor atom, score
      L1  H     6    22       P1  7948  0.97
      L1  H     9    23       P1  7948  0.81
      L1  H    13    29       P1 10175  0.91

> <Gold.Chemscore.Hbond.Weighted>
-9.3558

> <Gold.Chemscore.Metal.Weighted>
-0.0000

> <Gold.Chemscore.Lipo.Weighted>
-7.4901

> <Gold.Chemscore.Internal_Hbond.Weighted>
0.0000

> <Gold.Chemscore.DEClash.Weighted>
1.6206

> <Gold.Chemscore.DEInternal.Weighted>
1.6321

> <Gold.Chemscore.Rot.Weighted>
6.1228

> <Gold.Chemscore.Internal.Correction.Weighted>
   9.000000E+99

> <Gold.Protein.RotatedTorsions>
[ 6907 6896 6895 6894 ] final -116.03 input  -60.11 | X-H torsion
[ 7974 7965 7964 7962 ] final   64.58 input  175.53 | X-H torsion
[ 8008 7997 7996 7995 ] final   38.85 input   59.86 | X-H torsion
[ 10167 10162 10161 10158 ] final  -81.05 input  -65.29 | X-H torsion
[ 10718 10713 10712 10709 ] final  113.64 input   66.30 | X-H torsion
[ 10763 10752 10751 10750 ] final   34.45 input  -60.55 | X-H torsion
[ 11005 11000 10999 10996 ] final   20.88 input  -57.11 | X-H torsion

> <Gold.Protein.ActiveResidues>
 VAL166  LYS551  ARG553  GLY616  TRP617  ASP618  TYR619  PRO620  LYS621  CYS622 
 ASP623  PHE694  ASN695  SER759  ASP760  ASP761  ALA762  ILE779  LEU786  VAL792 
 PHE793  MET794  SER795  GLU796  ALA797  LYS798  CYS799  TRP800  GLU811  SER814 

> <Gold.Protein.RotatedAtoms>
  150.8024  133.8574  159.3222 H   0  0  0  0  0  0  0  0  0  0  0  0  # atno 6907 bound_to 6896
  151.6382  135.1014  160.0145 H   0  0  0  0  0  0  0  0  0  0  0  0  # atno 6908 bound_to 6896
  152.4112  133.6927  159.6435 H   0  0  0  0  0  0  0  0  0  0  0  0  # atno 6909 bound_to 6896
  145.8486  139.3240  143.0889 H   0  0  0  0  0  0  0  0  0  0  0  0  # atno 7974 bound_to 7965
  155.2270  140.3335  155.4308 H   0  0  0  0  0  0  0  0  0  0  0  0  # atno 8008 bound_to 7997
  156.2310  140.1851  156.7288 H   0  0  0  0  0  0  0  0  0  0  0  0  # atno 8009 bound_to 7997
  154.5978  140.0628  156.9313 H   0  0  0  0  0  0  0  0  0  0  0  0  # atno 8010 bound_to 7997
  140.4447  143.2503  151.8575 H   0  0  0  0  0  0  0  0  0  0  0  0  # atno 10167 bound_to 10162
  157.6327  131.0986  150.7070 H   0  0  0  0  0  0  0  0  0  0  0  0  # atno 10718 bound_to 10713
  153.0164  135.6360  154.1670 H   0  0  0  0  0  0  0  0  0  0  0  0  # atno 10763 bound_to 10752
  154.1409  135.2834  155.3162 H   0  0  0  0  0  0  0  0  0  0  0  0  # atno 10764 bound_to 10752
  154.6125  135.5551  153.7550 H   0  0  0  0  0  0  0  0  0  0  0  0  # atno 10765 bound_to 10752
  140.3977  134.1751  155.7663 H   0  0  0  0  0  0  0  0  0  0  0  0  # atno 11005 bound_to 11000
  145.9384  140.8998  143.0320 LP  0  0  0  0  0  0  0  0  0  0  0  0  # atno 17320 bound_to 7965
  144.6730  140.1514  143.7429 LP  0  0  0  0  0  0  0  0  0  0  0  0  # atno 17321 bound_to 7965
  139.4792  144.5189  151.8830 LP  0  0  0  0  0  0  0  0  0  0  0  0  # atno 17342 bound_to 10162
  140.4277  144.2158  150.5887 LP  0  0  0  0  0  0  0  0  0  0  0  0  # atno 17343 bound_to 10162
  156.7407  130.4738  149.5478 LP  0  0  0  0  0  0  0  0  0  0  0  0  # atno 17370 bound_to 10713
  156.1542  130.6330  151.0635 LP  0  0  0  0  0  0  0  0  0  0  0  0  # atno 17371 bound_to 10713
  141.1868  133.8295  157.1055 LP  0  0  0  0  0  0  0  0  0  0  0  0  # atno 17394 bound_to 11000
  140.0359  134.9878  157.0870 LP  0  0  0  0  0  0  0  0  0  0  0  0  # atno 17395 bound_to 11000

$$$$
