#       Name:                AV-unprocessed.smi:35
#       Creating user name   scv26
#       Creation time:       Thu Mar 26 16:00:44 2020


#       File generated by GOLD software.
#

@<TRIPOS>MOLECULE
AV-unprocessed.smi:35
    41    42     1
SMALL
NO_CHARGES


@<TRIPOS>ATOM
      1 ****        -4.0826   2.5739  -2.0268 O.2            1 S1                 0.0000
      2 ****        -3.1187   2.1160  -1.4170 C.2            1 S1                 0.0000
      3 ****        -3.2254   1.8052  -0.0589 N.am           1 S1                 0.0000
      4 ****        -2.2054   1.2767   0.7341 C.2            1 S1                 0.0000
      5 ****        -2.4074   1.0558   1.9276 O.2            1 S1                 0.0000
      6 ****        -0.9640   1.0159   0.1100 N.am           1 S1                 0.0000
      7 ****         0.1613   0.4552   0.9634 C.3            1 S1                 0.0000
      8 ****         1.3347   0.3920   0.2070 O.3            1 S1                 0.0000
      9 ****         1.4961  -0.9221  -0.3178 C.3            1 S1                 0.0000
     10 ****         2.9351  -1.1571  -0.8082 C.3            1 S1                 0.0000
     11 ****         3.0849  -0.6526  -2.1182 O.3            1 S1                 0.0000
     12 ****         1.0436  -1.7853   0.8633 C.3            1 S1                 0.0000
     13 ****         2.0905  -1.9172   1.8120 O.3            1 S1                 0.0000
     14 ****        -0.1479  -0.9948   1.4041 C.3            1 S1                 0.0000
     15 ****        -0.3069  -1.1400   2.8037 O.3            1 S1                 0.0000
     16 ****        -0.8045   1.3364  -1.2348 C.2            1 S1                 0.0000
     17 ****        -1.8033   1.8531  -1.9889 C.2            1 S1                 0.0000
     18 ****        -1.3745   2.2344  -3.8852 Br             1 S1                 0.0000
     19 ****        -4.1139   1.9824   0.3867 H              1 S1                 0.0000
     20 ****         0.2896   1.1675   1.7809 H              1 S1                 0.0000
     21 ****         0.7935  -1.0767  -1.1390 H              1 S1                 0.0000
     22 ****         3.6650  -0.6980  -0.1408 H              1 S1                 0.0000
     23 ****         3.1505  -2.2255  -0.8430 H              1 S1                 0.0000
     24 ****         3.9733  -0.8093  -2.4000 H              1 S1                 0.0000
     25 ****         0.7489  -2.7853   0.5428 H              1 S1                 0.0000
     26 ****         1.7393  -2.3338   2.5846 H              1 S1                 0.0000
     27 ****        -1.0555  -1.3396   0.9060 H              1 S1                 0.0000
     28 ****        -1.0404  -0.6093   3.0763 H              1 S1                 0.0000
     29 ****         0.1444   1.1815  -1.7252 H              1 S1                 0.0000
     30 ****        -3.9993   2.7983  -2.9977 LP             1 S1                 0.0000
     31 ****        -4.9501   2.7221  -1.5520 LP             1 S1                 0.0000
     32 ****        -3.3016   1.2549   2.3286 LP             1 S1                 0.0000
     33 ****        -1.6774   0.6772   2.4966 LP             1 S1                 0.0000
     34 ****         2.1172   0.6167   0.7877 LP             1 S1                 0.0000
     35 ****         1.2801   1.0468  -0.5468 LP             1 S1                 0.0000
     36 ****         2.8971   0.3296  -2.1249 LP             1 S1                 0.0000
     37 ****         2.4487  -1.1178  -2.7336 LP             1 S1                 0.0000
     38 ****         2.4490  -1.0140   2.0480 LP             1 S1                 0.0000
     39 ****         2.8250  -2.4778   1.4296 LP             1 S1                 0.0000
     40 ****         0.5229  -0.8356   3.2716 LP             1 S1                 0.0000
     41 ****        -0.4823  -2.0990   3.0263 LP             1 S1                 0.0000
@<TRIPOS>BOND
    1    1    2 2     
    2    2   17 1     
    3    2    3 1     
    4    3   19 1     
    5    3    4 1     
    6    4    5 2     
    7    4    6 1     
    8    6    7 1     
    9    6   16 1     
   10    7   14 1     
   11    7    8 1     
   12    7   20 1     
   13    8    9 1     
   14    9   10 1     
   15    9   12 1     
   16    9   21 1     
   17   10   11 1     
   18   10   22 1     
   19   10   23 1     
   20   11   24 1     
   21   12   13 1     
   22   12   14 1     
   23   12   25 1     
   24   13   26 1     
   25   14   15 1     
   26   14   27 1     
   27   15   28 1     
   28   16   17 2     
   29   16   29 1     
   30   17   18 1     
   31    1   30 1     
   32    1   31 1     
   33    5   32 1     
   34    5   33 1     
   35    8   34 1     
   36    8   35 1     
   37   11   36 1     
   38   11   37 1     
   39   13   38 1     
   40   13   39 1     
   41   15   40 1     
   42   15   41 1     
@<TRIPOS>SUBSTRUCTURE
      1 S1             1
@<TRIPOS>SET
LONE_PAIRS      STATIC     ATOMS    <user>   **** ""
12 30 31 32 33 34 35 36 37 38 39 40 41
DONOR_HYDROGENS      STATIC     ATOMS    <user>   **** ""
4 19 24 26 28
ATOM$BLUE        STATIC     ATOMS    COLORGROUP SYSTEM
12 30 31 32 33 34 35 36 37 38 39 40 41
ATOM$RED        STATIC     ATOMS    COLORGROUP SYSTEM
4 19 24 26 28
