#       Name:                AV-unprocessed.smi:1251
#       Creating user name   scv26
#       Creation time:       Fri Mar 27 04:36:46 2020


#       File generated by GOLD software.
#

@<TRIPOS>MOLECULE
AV-unprocessed.smi:1251
    45    46     1
SMALL
NO_CHARGES


@<TRIPOS>ATOM
      1 ****        -7.2274   2.7847   1.1808 C.3            1 S1                 0.0000
      2 ****        -5.8233   2.1818   1.2960 C.3            1 S1                 0.0000
      3 ****        -5.2384   1.7870  -0.0674 C.3            1 S1                 0.0000
      4 ****        -3.8675   1.2077   0.0439 C.2            1 S1                 0.0000
      5 ****        -3.6470  -0.0985   0.2376 N.2            1 S1                 0.0000
      6 ****        -2.2950  -0.3942   0.3428 N.2            1 S1                 0.0000
      7 ****        -1.5339   0.7040   0.2408 C.2            1 S1                 0.0000
      8 ****        -0.1162   0.6928   0.3219 N.am           1 S1                 0.0000
      9 ****         0.7001  -0.3595   0.5061 C.2            1 S1                 0.0000
     10 ****         0.3361  -1.5290   0.6308 O.2            1 S1                 0.0000
     11 ****         1.9850   0.0252   0.5311 N.am           1 S1                 0.0000
     12 ****         3.1395  -0.8539   0.7133 C.3            1 S1                 0.0000
     13 ****         4.0895  -0.2149   1.7371 C.3            1 S1                 0.0000
     14 ****         3.8406  -1.1133  -0.6365 C.3            1 S1                 0.0000
     15 ****         2.9593  -1.7496  -1.7134 C.3            1 S1                 0.0000
     16 ****         3.9908  -2.3850  -2.6161 C.3            1 S1                 0.0000
     17 ****         5.0167  -2.8929  -1.6077 C.3            1 S1                 0.0000
     18 ****         4.9181  -2.0332  -0.4744 O.3            1 S1                 0.0000
     19 ****        -2.4164   2.2022   0.0007 S.3            1 S1                 0.0000
     20 ****        -7.6156   3.0549   2.1629 H              1 S1                 0.0000
     21 ****        -7.9241   2.0770   0.7305 H              1 S1                 0.0000
     22 ****        -7.2195   3.6854   0.5668 H              1 S1                 0.0000
     23 ****        -5.1634   2.9014   1.7820 H              1 S1                 0.0000
     24 ****        -5.8596   1.3069   1.9463 H              1 S1                 0.0000
     25 ****        -5.8881   1.0616  -0.5590 H              1 S1                 0.0000
     26 ****        -5.1935   2.6585  -0.7213 H              1 S1                 0.0000
     27 ****         0.3287   1.5943   0.2326 H              1 S1                 0.0000
     28 ****         2.1843   1.0078   0.4151 H              1 S1                 0.0000
     29 ****         2.8146  -1.8122   1.1224 H              1 S1                 0.0000
     30 ****         4.9478  -0.8578   1.9331 H              1 S1                 0.0000
     31 ****         3.5853  -0.0460   2.6891 H              1 S1                 0.0000
     32 ****         4.4676   0.7455   1.3847 H              1 S1                 0.0000
     33 ****         4.2575  -0.1831  -1.0269 H              1 S1                 0.0000
     34 ****         2.3181  -2.5195  -1.2814 H              1 S1                 0.0000
     35 ****         2.3271  -1.0273  -2.2305 H              1 S1                 0.0000
     36 ****         3.5828  -3.1756  -3.2465 H              1 S1                 0.0000
     37 ****         4.4391  -1.6283  -3.2615 H              1 S1                 0.0000
     38 ****         4.7723  -3.9078  -1.2920 H              1 S1                 0.0000
     39 ****         6.0280  -2.8990  -2.0147 H              1 S1                 0.0000
     40 ****        -4.3734  -0.7829   0.2995 LP             1 S1                 0.0000
     41 ****        -1.9324  -1.3162   0.4785 LP             1 S1                 0.0000
     42 ****        -0.6373  -1.7558   0.5982 LP             1 S1                 0.0000
     43 ****         1.0138  -2.2520   0.7647 LP             1 S1                 0.0000
     44 ****         4.7591  -2.5850   0.3443 LP             1 S1                 0.0000
     45 ****         5.7727  -1.5240  -0.3724 LP             1 S1                 0.0000
@<TRIPOS>BOND
    1    1    2 1     
    2    1   20 1     
    3    1   21 1     
    4    1   22 1     
    5    2    3 1     
    6    2   23 1     
    7    2   24 1     
    8    3    4 1     
    9    3   25 1     
   10    3   26 1     
   11    4   19 1     
   12    4    5 2     
   13    5    6 1     
   14    6    7 2     
   15    7    8 1     
   16    7   19 1     
   17    8    9 am    
   18    8   27 1     
   19    9   10 2     
   20    9   11 am    
   21   11   12 1     
   22   11   28 1     
   23   12   13 1     
   24   12   14 1     
   25   12   29 1     
   26   13   30 1     
   27   13   31 1     
   28   13   32 1     
   29   14   18 1     
   30   14   15 1     
   31   14   33 1     
   32   15   16 1     
   33   15   34 1     
   34   15   35 1     
   35   16   17 1     
   36   16   36 1     
   37   16   37 1     
   38   17   18 1     
   39   17   38 1     
   40   17   39 1     
   41    5   40 1     
   42    6   41 1     
   43   10   42 1     
   44   10   43 1     
   45   18   44 1     
   46   18   45 1     
@<TRIPOS>SUBSTRUCTURE
      1 S1             1
@<TRIPOS>SET
LONE_PAIRS      STATIC     ATOMS    <user>   **** ""
6 40 41 42 43 44 45
DONOR_HYDROGENS      STATIC     ATOMS    <user>   **** ""
2 27 28
ATOM$BLUE        STATIC     ATOMS    COLORGROUP SYSTEM
6 40 41 42 43 44 45
ATOM$RED        STATIC     ATOMS    COLORGROUP SYSTEM
2 27 28
