AV-unprocessed.smi:40|AV-procd|sdf|371|dock9
  -GOLD-   2262016213D 1   1.00000     0.00000
 Structure written by MMmdl.
 47 48  0  0  0  0  0  0  0  0  1 V2000
  144.6934  133.8125  162.8862 C   0  0  0  0  0  0  0  0  0  0  0  0
  145.7754  134.3286  161.9313 C   0  0  0  0  0  0  0  0  0  0  0  0
  146.8462  135.1630  162.6488 C   0  0  0  0  0  0  0  0  0  0  0  0
  147.5507  136.1508  161.7095 C   0  0  0  0  0  0  0  0  0  0  0  0
  148.2678  135.4416  160.5508 C   0  0  0  0  0  0  0  0  0  0  0  0
  147.4122  135.3370  159.4210 O   0  0  0  0  0  0  0  0  0  0  0  0
  147.8480  134.7870  158.2676 C   0  0  0  0  0  0  0  0  0  0  0  0
  148.9849  134.3455  158.1026 O   0  0  0  0  0  0  0  0  0  0  0  0
  146.8040  134.7518  157.2558 N   0  0  0  0  0  0  0  0  0  0  0  0
  146.8461  134.2828  155.9841 C   0  0  0  0  0  0  0  0  0  0  0  0
  147.9762  134.1031  155.3194 N   0  0  0  0  0  0  0  0  0  0  0  0
  148.0461  133.6131  154.0438 C   0  0  0  0  0  0  0  0  0  0  0  0
  149.1292  133.5288  153.4670 O   0  0  0  0  0  0  0  0  0  0  0  0
  146.8344  133.2241  153.4219 N   0  0  0  0  0  0  0  0  0  0  0  0
  146.8850  132.7124  151.9906 C   0  0  2  0  0  0  0  0  0  0  0  0
  146.4209  133.7064  151.1183 O   0  0  0  0  0  0  0  0  0  0  0  0
  145.1121  133.4042  150.6423 C   0  0  2  0  0  0  0  0  0  0  0  0
  144.0397  134.0209  151.5626 C   0  0  0  0  0  0  0  0  0  0  0  0
  145.1236  131.8755  150.5795 C   0  0  2  0  0  0  0  0  0  0  0  0
  143.8259  131.3169  150.6490 O   0  0  0  0  0  0  0  0  0  0  0  0
  145.9762  131.4757  151.7773 C   0  0  1  0  0  0  0  0  0  0  0  0
  146.7245  130.3205  151.4552 O   0  0  0  0  0  0  0  0  0  0  0  0
  145.6357  133.4376  154.0917 C   0  0  0  0  0  0  0  0  0  0  0  0
  145.5950  133.9341  155.3470 C   0  0  0  0  0  0  0  0  0  0  0  0
  144.4211  134.1045  155.9796 F   0  0  0  0  0  0  0  0  0  0  0  0
  147.9445  132.5278  151.8038 H   0  0  0  0  0  0  0  0  0  0  0  0
  144.9923  133.8243  149.6430 H   0  0  0  0  0  0  0  0  0  0  0  0
  145.6037  131.5669  149.6489 H   0  0  0  0  0  0  0  0  0  0  0  0
  145.3534  131.3070  152.6576 H   0  0  0  0  0  0  0  0  0  0  0  0
  143.9488  133.2247  162.3489 H   0  0  0  0  0  0  0  0  0  0  0  0
  144.1758  134.6370  163.3771 H   0  0  0  0  0  0  0  0  0  0  0  0
  145.1237  133.1768  163.6606 H   0  0  0  0  0  0  0  0  0  0  0  0
  146.2459  133.4811  161.4315 H   0  0  0  0  0  0  0  0  0  0  0  0
  145.3074  134.9276  161.1490 H   0  0  0  0  0  0  0  0  0  0  0  0
  146.3874  135.7124  163.4719 H   0  0  0  0  0  0  0  0  0  0  0  0
  147.5857  134.4973  163.0958 H   0  0  0  0  0  0  0  0  0  0  0  0
  146.8214  136.8535  161.3050 H   0  0  0  0  0  0  0  0  0  0  0  0
  148.2682  136.7425  162.2790 H   0  0  0  0  0  0  0  0  0  0  0  0
  149.1956  135.9546  160.2935 H   0  0  0  0  0  0  0  0  0  0  0  0
  148.5458  134.4328  160.8566 H   0  0  0  0  0  0  0  0  0  0  0  0
  145.9281  135.1527  157.5589 H   0  0  0  0  0  0  0  0  0  0  0  0
  143.0371  133.8415  151.1738 H   0  0  0  0  0  0  0  0  0  0  0  0
  144.1668  135.1010  151.6359 H   0  0  0  0  0  0  0  0  0  0  0  0
  144.0796  133.6081  152.5706 H   0  0  0  0  0  0  0  0  0  0  0  0
  143.2210  132.0000  150.8963 H   0  0  0  0  0  0  0  0  0  0  0  0
  147.4254  130.5747  150.8732 H   0  0  0  0  0  0  0  0  0  0  0  0
  144.6896  133.2073  153.6265 H   0  0  0  0  0  0  0  0  0  0  0  0
  1  2  1  0  0  0  0
  1 30  1  0  0  0  0
  1 31  1  0  0  0  0
  1 32  1  0  0  0  0
  2  3  1  0  0  0  0
  2 33  1  0  0  0  0
  2 34  1  0  0  0  0
  3  4  1  0  0  0  0
  3 35  1  0  0  0  0
  3 36  1  0  0  0  0
  4  5  1  0  0  0  0
  4 37  1  0  0  0  0
  4 38  1  0  0  0  0
  5  6  1  0  0  0  0
  5 39  1  0  0  0  0
  5 40  1  0  0  0  0
  6  7  1  0  0  0  0
  7  8  2  0  0  0  0
  7  9  1  0  0  0  0
  9 10  1  0  0  0  0
  9 41  1  0  0  0  0
 10 24  1  0  0  0  0
 10 11  2  0  0  0  0
 11 12  1  0  0  0  0
 12 13  2  0  0  0  0
 12 14  1  0  0  0  0
 14 15  1  0  0  0  0
 14 23  1  0  0  0  0
 15 26  1  0  0  0  0
 15 21  1  0  0  0  0
 15 16  1  0  0  0  0
 16 17  1  0  0  0  0
 17 27  1  0  0  0  0
 17 18  1  0  0  0  0
 17 19  1  0  0  0  0
 18 42  1  0  0  0  0
 18 43  1  0  0  0  0
 18 44  1  0  0  0  0
 19 28  1  0  0  0  0
 19 20  1  0  0  0  0
 19 21  1  0  0  0  0
 20 45  1  0  0  0  0
 21 29  1  0  0  0  0
 21 22  1  0  0  0  0
 22 46  1  0  0  0  0
 23 24  2  0  0  0  0
 23 47  1  0  0  0  0
 24 25  1  0  0  0  0
M  END
> <s_m_source_file>
AV-unprocessed.smi

> <i_m_source_file_index>
40

> <i_lp_mmshare_version>
43012

> <i_f3d_flags>
0

> <s_epik_input>
W0NIM11bQ0gyXVtDSDJdW0NIMl1bQ0gyXU9DKD1PKVtOSF1jMW5jKD1PKW4oW2NIXWMxRilbQ0BASF0yT1tDQEhdKFtDSDNdKVtDQEBIXShbT0hdKVtDQEhdMltPSF0=

> <s_epik_cmdline>
J2VwaWtfcHl0aG9uJywgJy1waCcsICc3LjAnLCAnLXRuJywgJzgnLCAnLW1hJywgJzIwMCcsICctbWV0YWxfYmluZGluZycsICctaW1hZScsICc8aW5maWxlLm1hZT4nLCAnLW9tYWUnLCAnPG91dGZpbGUubWFlPic=

> <r_lp_tautomer_probability>
1

> <r_epik_Ionization_Penalty>
2.29506e-06

> <r_epik_Ionization_Penalty_Charging>
8.26867e-09

> <r_epik_Ionization_Penalty_Neutral>
2.2868e-06

> <r_epik_State_Penalty>
-0

> <r_epik_Charging_Adjusted_Penalty>
8.26867e-09

> <i_epik_Tot_Q>
0

> <i_epik_Tot_abs_Q>
0

> <r_epik_Metal_State_Penalty>
-0

> <b_epik_Metal_Only>
0

> <s_epik_Chemistry_Notes>
This compound has an ester and may undergo hydrolysis at high or low pH. This compound contains an acetal/aminal-like group ( X-CH(R)-Y where X, Y are N, S, or O) that may be acid/base labile, releasing an aldehyde.

> <s_lp_Force_Field>
OPLS_2005

> <r_lp_Energy>
32.726

> <b_lp_Chiralities_Consistent>
1

> <s_lp_Variant>
AV-unprocessed.smi:40-5

> <Gold.Version>
5.8.1

> <Gold.Id.Protein>
6NUR|6NUR_protein|mol2

> <Gold.PLP.Fitness>
39.1435

> <Gold.PLP.PLP>
-33.7247

> <Gold.PLP.part.hbond>
-2.3909

> <Gold.PLP.part.metal>
0.0000

> <Gold.PLP.part.buried>
-6.9590

> <Gold.PLP.part.nonpolar>
-25.9819

> <Gold.PLP.part.repulsive>
0.4573

> <Gold.PLP.ligand.clash>
0.0000

> <Gold.PLP.ligand.torsion>
0.7642

> <Gold.PLP.Chemscore.Hbond>
2.0685

> <Gold.PLP.Chemscore.CHOScore>
0.2068

> <Gold.PLP.Chemscore.Metal>
0.0000

> <Gold.Chemscore.Hbonds>
donor molecule, donor type, donor heavy atom, donor atom, acceptor molecule, acceptor atom, score
      L1  H    22    46       P1 10747  1.00
      P1  H  6896  6908       L1     8  0.81
      P1  H 10785 10796       L1    20  0.20
      L1  C    23    47       P1 10957  0.44

> <Gold.PLP.Chemscore.Internal.Correction>
0.1215

> <Gold.Rescore>
     Score         DG    S(hbond)    S(metal)    S(lipo)     H(rot)  DE(clash)    DE(int)     intcor
      9.35     -11.47       2.10        0.00      72.09       3.70       0.04       2.08       ----

> <Gold.Chemscore.Fitness>
9.3547

> <Gold.Chemscore.DG>
-11.4738

> <Gold.Chemscore.ZeroCoef>
-5.4800

> <Gold.Chemscore.Hbond>
2.1018

> <Gold.Chemscore.Metal>
0.0000

> <Gold.Chemscore.Lipo>
72.0920

> <Gold.Chemscore.Internal_Hbond>
0.0000

> <Gold.Chemscore.DEClash>
0.0402

> <Gold.Chemscore.DEInternal>
2.0788

> <Gold.Chemscore.Rot>
3.6957

> <Gold.Chemscore.Internal.Correction>
   9.000000E+99

> <Gold.Chemscore.Hbonds>
donor molecule, donor type, donor heavy atom, donor atom, acceptor molecule, acceptor atom, score
      L1  H    22    46       P1 10747  1.00
      P1  H  6896  6908       L1     8  0.80
      P1  H 10785 10796       L1    20  0.16

> <Gold.Chemscore.Hbond.Weighted>
-7.0200

> <Gold.Chemscore.Metal.Weighted>
-0.0000

> <Gold.Chemscore.Lipo.Weighted>
-8.4348

> <Gold.Chemscore.Internal_Hbond.Weighted>
0.0000

> <Gold.Chemscore.DEClash.Weighted>
0.0402

> <Gold.Chemscore.DEInternal.Weighted>
2.0788

> <Gold.Chemscore.Rot.Weighted>
9.4610

> <Gold.Chemscore.Internal.Correction.Weighted>
   9.000000E+99

> <Gold.Protein.RotatedTorsions>
[ 6907 6896 6895 6894 ] final  136.36 input  -60.11 | X-H torsion
[ 7974 7965 7964 7962 ] final  161.63 input  175.53 | X-H torsion
[ 8008 7997 7996 7995 ] final  117.55 input   59.86 | X-H torsion
[ 10167 10162 10161 10158 ] final   -8.76 input  -65.29 | X-H torsion
[ 10718 10713 10712 10709 ] final  -82.17 input   66.30 | X-H torsion
[ 10763 10752 10751 10750 ] final   54.26 input  -60.55 | X-H torsion
[ 11005 11000 10999 10996 ] final  -95.16 input  -57.11 | X-H torsion

> <Gold.Protein.ActiveResidues>
 VAL166  LYS551  ARG553  GLY616  TRP617  ASP618  TYR619  PRO620  LYS621  CYS622 
 ASP623  PHE694  ASN695  SER759  ASP760  ASP761  ALA762  ILE779  LEU786  VAL792 
 PHE793  MET794  SER795  GLU796  ALA797  LYS798  CYS799  TRP800  GLU811  SER814 

> <Gold.Protein.RotatedAtoms>
  152.2902  133.5554  159.5552 H   0  0  0  0  0  0  0  0  0  0  0  0  # atno 6907 bound_to 6896
  150.7232  134.0440  159.3784 H   0  0  0  0  0  0  0  0  0  0  0  0  # atno 6908 bound_to 6896
  151.8346  135.0610  160.0492 H   0  0  0  0  0  0  0  0  0  0  0  0  # atno 6909 bound_to 6896
  144.7676  139.7926  143.6309 H   0  0  0  0  0  0  0  0  0  0  0  0  # atno 7974 bound_to 7965
  156.2500  140.2894  156.0696 H   0  0  0  0  0  0  0  0  0  0  0  0  # atno 8008 bound_to 7997
  155.1685  140.0401  157.2875 H   0  0  0  0  0  0  0  0  0  0  0  0  # atno 8009 bound_to 7997
  154.6342  140.2507  155.7404 H   0  0  0  0  0  0  0  0  0  0  0  0  # atno 8010 bound_to 7997
  140.7068  143.5933  150.8872 H   0  0  0  0  0  0  0  0  0  0  0  0  # atno 10167 bound_to 10162
  156.0037  130.4626  150.4064 H   0  0  0  0  0  0  0  0  0  0  0  0  # atno 10718 bound_to 10713
  152.9803  135.5751  154.4875 H   0  0  0  0  0  0  0  0  0  0  0  0  # atno 10763 bound_to 10752
  154.4414  135.2776  155.1847 H   0  0  0  0  0  0  0  0  0  0  0  0  # atno 10764 bound_to 10752
  154.3513  135.6208  153.5698 H   0  0  0  0  0  0  0  0  0  0  0  0  # atno 10765 bound_to 10752
  141.1450  133.8007  157.0397 H   0  0  0  0  0  0  0  0  0  0  0  0  # atno 11005 bound_to 11000
  146.1796  139.4983  142.9875 LP  0  0  0  0  0  0  0  0  0  0  0  0  # atno 17320 bound_to 7965
  145.6422  141.0282  143.1805 LP  0  0  0  0  0  0  0  0  0  0  0  0  # atno 17321 bound_to 7965
  139.9658  143.6112  152.2989 LP  0  0  0  0  0  0  0  0  0  0  0  0  # atno 17342 bound_to 10162
  139.6681  144.7661  151.1834 LP  0  0  0  0  0  0  0  0  0  0  0  0  # atno 17343 bound_to 10162
  157.2129  131.0464  151.2589 LP  0  0  0  0  0  0  0  0  0  0  0  0  # atno 17370 bound_to 10713
  157.3871  130.7262  149.6671 LP  0  0  0  0  0  0  0  0  0  0  0  0  # atno 17371 bound_to 10713
  140.0700  134.9707  157.1452 LP  0  0  0  0  0  0  0  0  0  0  0  0  # atno 17394 bound_to 11000
  140.3724  134.2376  155.7177 LP  0  0  0  0  0  0  0  0  0  0  0  0  # atno 17395 bound_to 11000

$$$$
