AV-unprocessed.smi:266|AV-procd|sdf|2038|dock9
  -GOLD-   2262021253D 1   1.00000     0.00000
 Structure written by MMmdl.
 52 55  0  0  0  0  0  0  0  0  1 V2000
  147.2670  140.2429  153.5873 C   0  0  0  0  0  0  0  0  0  0  0  0
  147.6868  141.3984  154.5089 C   0  0  1  0  0  0  0  0  0  0  0  0
  146.5529  141.7385  155.3044 O   0  0  0  0  0  0  0  0  0  0  0  0
  146.9925  142.1712  156.5798 C   0  0  0  0  0  0  0  0  0  0  0  0
  148.1468  141.2243  156.8687 C   0  0  0  0  0  0  0  0  0  0  0  0
  148.8380  141.1078  155.5134 C   0  0  2  0  0  0  0  0  0  0  0  0
  149.7732  142.1697  155.4138 O   0  0  0  0  0  0  0  0  0  0  0  0
  149.6118  139.7771  155.3172 C   0  0  0  0  0  0  0  0  0  0  0  0
  150.6608  139.5714  156.3047 N   0  0  0  0  0  0  0  0  0  0  0  0
  151.8817  140.2068  156.3599 C   0  0  0  0  0  0  0  0  0  0  0  0
  152.6482  139.8569  157.3571 N   0  0  0  0  0  0  0  0  0  0  0  0
  151.9022  138.9007  158.0346 C   0  0  0  0  0  0  0  0  0  0  0  0
  152.1164  138.1162  159.2014 C   0  0  0  0  0  0  0  0  0  0  0  0
  153.2230  138.1785  159.9683 N   0  0  0  0  0  0  0  0  0  0  0  0
  153.6532  139.5403  160.2560 C   0  0  0  0  0  0  0  0  0  0  0  0
  153.2094  137.2245  161.0731 C   0  0  0  0  0  0  0  0  0  0  0  0
  154.0121  137.7233  162.2865 C   0  0  1  0  0  0  0  0  0  0  0  0
  153.7163  136.8990  163.5542 C   0  0  0  0  0  0  0  0  0  0  0  0
  154.7544  137.2552  164.6226 C   0  0  0  0  0  0  0  0  0  0  0  0
  156.3080  137.5757  163.7083 S   0  0  0  0  0  0  0  0  0  0  0  0
  156.8307  138.8940  164.0979 O   0  0  0  0  0  0  0  0  0  0  0  0
  157.1607  136.3783  163.7559 O   0  0  0  0  0  0  0  0  0  0  0  0
  155.5321  137.6874  162.0513 C   0  0  0  0  0  0  0  0  0  0  0  0
  151.1389  137.2605  159.5869 N   0  0  0  0  0  0  0  0  0  0  0  0
  150.0136  137.1710  158.8714 C   0  0  0  0  0  0  0  0  0  0  0  0
  149.6712  137.8375  157.7664 N   0  0  0  0  0  0  0  0  0  0  0  0
  150.6538  138.7027  157.3820 C   0  0  0  0  0  0  0  0  0  0  0  0
  148.0858  139.9320  152.9385 H   0  0  0  0  0  0  0  0  0  0  0  0
  146.4399  140.5456  152.9451 H   0  0  0  0  0  0  0  0  0  0  0  0
  146.9341  139.3761  154.1590 H   0  0  0  0  0  0  0  0  0  0  0  0
  147.9303  142.2624  153.8878 H   0  0  0  0  0  0  0  0  0  0  0  0
  147.3353  143.2054  156.5222 H   0  0  0  0  0  0  0  0  0  0  0  0
  146.1976  142.1089  157.3232 H   0  0  0  0  0  0  0  0  0  0  0  0
  148.8001  141.5718  157.6704 H   0  0  0  0  0  0  0  0  0  0  0  0
  147.7390  140.2578  157.1667 H   0  0  0  0  0  0  0  0  0  0  0  0
  149.3811  142.9492  155.7765 H   0  0  0  0  0  0  0  0  0  0  0  0
  148.9330  138.9264  155.3793 H   0  0  0  0  0  0  0  0  0  0  0  0
  150.0635  139.7388  154.3250 H   0  0  0  0  0  0  0  0  0  0  0  0
  152.1840  140.9509  155.6372 H   0  0  0  0  0  0  0  0  0  0  0  0
  153.4734  140.2009  159.4063 H   0  0  0  0  0  0  0  0  0  0  0  0
  154.7214  139.5617  160.4703 H   0  0  0  0  0  0  0  0  0  0  0  0
  153.1229  139.9416  161.1203 H   0  0  0  0  0  0  0  0  0  0  0  0
  152.1745  137.0446  161.3672 H   0  0  0  0  0  0  0  0  0  0  0  0
  153.6076  136.2619  160.7467 H   0  0  0  0  0  0  0  0  0  0  0  0
  153.7307  138.7541  162.5052 H   0  0  0  0  0  0  0  0  0  0  0  0
  152.7008  137.0634  163.9152 H   0  0  0  0  0  0  0  0  0  0  0  0
  153.8027  135.8371  163.3203 H   0  0  0  0  0  0  0  0  0  0  0  0
  154.4746  138.1706  165.1443 H   0  0  0  0  0  0  0  0  0  0  0  0
  154.9030  136.4640  165.3577 H   0  0  0  0  0  0  0  0  0  0  0  0
  155.8221  136.8002  161.4872 H   0  0  0  0  0  0  0  0  0  0  0  0
  155.8999  138.5666  161.5223 H   0  0  0  0  0  0  0  0  0  0  0  0
  149.2812  136.4674  159.2388 H   0  0  0  0  0  0  0  0  0  0  0  0
  1  2  1  0  0  0  0
  1 28  1  0  0  0  0
  1 29  1  0  0  0  0
  1 30  1  0  0  0  0
  2  6  1  0  0  0  0
  2  3  1  0  0  0  0
  2 31  1  0  0  0  0
  3  4  1  0  0  0  0
  4  5  1  0  0  0  0
  4 32  1  0  0  0  0
  4 33  1  0  0  0  0
  5  6  1  0  0  0  0
  5 34  1  0  0  0  0
  5 35  1  0  0  0  0
  6  7  1  0  0  0  0
  6  8  1  0  0  0  0
  7 36  1  0  0  0  0
  8  9  1  0  0  0  0
  8 37  1  0  0  0  0
  8 38  1  0  0  0  0
  9 27  1  0  0  0  0
  9 10  1  0  0  0  0
 10 11  2  0  0  0  0
 10 39  1  0  0  0  0
 11 12  1  0  0  0  0
 12 27  2  0  0  0  0
 12 13  1  0  0  0  0
 13 14  1  0  0  0  0
 13 24  2  0  0  0  0
 14 15  1  0  0  0  0
 14 16  1  0  0  0  0
 15 40  1  0  0  0  0
 15 41  1  0  0  0  0
 15 42  1  0  0  0  0
 16 17  1  0  0  0  0
 16 43  1  0  0  0  0
 16 44  1  0  0  0  0
 17 23  1  0  0  0  0
 17 18  1  0  0  0  0
 17 45  1  0  0  0  0
 18 19  1  0  0  0  0
 18 46  1  0  0  0  0
 18 47  1  0  0  0  0
 19 20  1  0  0  0  0
 19 48  1  0  0  0  0
 19 49  1  0  0  0  0
 20 21  2  0  0  0  0
 20 22  2  0  0  0  0
 20 23  1  0  0  0  0
 23 50  1  0  0  0  0
 23 51  1  0  0  0  0
 24 25  1  0  0  0  0
 25 26  2  0  0  0  0
 25 52  1  0  0  0  0
 26 27  1  0  0  0  0
M  END
> <s_m_source_file>
AV-unprocessed.smi

> <i_m_source_file_index>
266

> <i_lp_mmshare_version>
43012

> <i_f3d_flags>
0

> <s_epik_input>
W0NIMl0xW0NIMl1PW0NAQEhdKFtDSDNdKVtDQEBdMShbT0hdKVtDSDJdbihbY0hdbjIpYyhjMjMpbltjSF1uYzNOKFtDSDNdKVtDSDJdW0NAQEhdKFtDSDJdNClbQ0gyXVtDSDJdUzQoPU8pPU8=

> <s_epik_cmdline>
J2VwaWtfcHl0aG9uJywgJy1waCcsICc3LjAnLCAnLXRuJywgJzgnLCAnLW1hJywgJzIwMCcsICctbWV0YWxfYmluZGluZycsICctaW1hZScsICc8aW5maWxlLm1hZT4nLCAnLW9tYWUnLCAnPG91dGZpbGUubWFlPic=

> <r_lp_tautomer_probability>
1

> <r_epik_Ionization_Penalty>
0.00155497

> <r_epik_Ionization_Penalty_Charging>
0

> <r_epik_Ionization_Penalty_Neutral>
0.00155497

> <r_epik_State_Penalty>
-0

> <r_epik_Charging_Adjusted_Penalty>
0

> <i_epik_Tot_Q>
0

> <i_epik_Tot_abs_Q>
0

> <r_epik_Metal_State_Penalty>
-0

> <b_epik_Metal_Only>
0

> <s_lp_Force_Field>
OPLS_2005

> <r_lp_Energy>
32.9828

> <b_lp_Chiralities_Consistent>
1

> <s_lp_Variant>
AV-unprocessed.smi:266-8

> <Gold.Version>
5.8.1

> <Gold.Id.Protein>
6NUR|6NUR_protein|mol2

> <Gold.PLP.Fitness>
44.1842

> <Gold.PLP.PLP>
-37.4816

> <Gold.PLP.part.hbond>
-2.6877

> <Gold.PLP.part.metal>
0.0000

> <Gold.PLP.part.buried>
-5.3890

> <Gold.PLP.part.nonpolar>
-29.6266

> <Gold.PLP.part.repulsive>
0.1196

> <Gold.PLP.ligand.clash>
0.0598

> <Gold.PLP.ligand.torsion>
0.9432

> <Gold.PLP.Chemscore.Hbond>
2.7395

> <Gold.PLP.Chemscore.CHOScore>
0.0000

> <Gold.PLP.Chemscore.Metal>
0.0000

> <Gold.Chemscore.Hbonds>
donor molecule, donor type, donor heavy atom, donor atom, acceptor molecule, acceptor atom, score
      L1  H     7    36       P1  8028  1.00
      P1  H  6896  6908       L1    24  0.68
      P1  H  7997  8009       L1    11  1.00

> <Gold.PLP.Chemscore.Internal.Correction>
0.4304

> <Gold.Rescore>
     Score         DG    S(hbond)    S(metal)    S(lipo)     H(rot)  DE(clash)    DE(int)     intcor
     14.38     -15.29       2.43        0.00      75.04       2.76       0.00       0.91       ----

> <Gold.Chemscore.Fitness>
14.3814

> <Gold.Chemscore.DG>
-15.2924

> <Gold.Chemscore.ZeroCoef>
-5.4800

> <Gold.Chemscore.Hbond>
2.4275

> <Gold.Chemscore.Metal>
0.0000

> <Gold.Chemscore.Lipo>
75.0391

> <Gold.Chemscore.Internal_Hbond>
0.0000

> <Gold.Chemscore.DEClash>
0.0029

> <Gold.Chemscore.DEInternal>
0.9081

> <Gold.Chemscore.Rot>
2.7637

> <Gold.Chemscore.Internal.Correction>
   9.000000E+99

> <Gold.Chemscore.Hbonds>
donor molecule, donor type, donor heavy atom, donor atom, acceptor molecule, acceptor atom, score
      L1  H     7    36       P1  8028  0.95
      P1  H  6896  6908       L1    24  0.15
      P1  H  7997  8009       L1    11  0.75

> <Gold.Chemscore.Hbond.Weighted>
-8.1079

> <Gold.Chemscore.Metal.Weighted>
-0.0000

> <Gold.Chemscore.Lipo.Weighted>
-8.7796

> <Gold.Chemscore.Internal_Hbond.Weighted>
0.0000

> <Gold.Chemscore.DEClash.Weighted>
0.0029

> <Gold.Chemscore.DEInternal.Weighted>
0.9081

> <Gold.Chemscore.Rot.Weighted>
7.0750

> <Gold.Chemscore.Internal.Correction.Weighted>
   9.000000E+99

> <Gold.Protein.RotatedTorsions>
[ 6907 6896 6895 6894 ] final -126.30 input  -60.11 | X-H torsion
[ 7974 7965 7964 7962 ] final -113.15 input  175.53 | X-H torsion
[ 8008 7997 7996 7995 ] final  161.48 input   59.86 | X-H torsion
[ 10167 10162 10161 10158 ] final   26.19 input  -65.29 | X-H torsion
[ 10718 10713 10712 10709 ] final  -20.63 input   66.30 | X-H torsion
[ 10763 10752 10751 10750 ] final  127.75 input  -60.55 | X-H torsion
[ 11005 11000 10999 10996 ] final   17.61 input  -57.11 | X-H torsion

> <Gold.Protein.ActiveResidues>
 VAL166  LYS551  ARG553  GLY616  TRP617  ASP618  TYR619  PRO620  LYS621  CYS622 
 ASP623  PHE694  ASN695  SER759  ASP760  ASP761  ALA762  ILE779  LEU786  VAL792 
 PHE793  MET794  SER795  GLU796  ALA797  LYS798  CYS799  TRP800  GLU811  SER814 

> <Gold.Protein.RotatedAtoms>
  150.8955  133.7187  159.2892 H   0  0  0  0  0  0  0  0  0  0  0  0  # atno 6907 bound_to 6896
  151.4723  135.1045  159.9764 H   0  0  0  0  0  0  0  0  0  0  0  0  # atno 6908 bound_to 6896
  152.4846  133.8292  159.7149 H   0  0  0  0  0  0  0  0  0  0  0  0  # atno 6909 bound_to 6896
  145.1354  140.8748  143.3733 H   0  0  0  0  0  0  0  0  0  0  0  0  # atno 7974 bound_to 7965
  156.2100  140.1776  156.7716 H   0  0  0  0  0  0  0  0  0  0  0  0  # atno 8008 bound_to 7997
  154.5709  140.0682  156.8992 H   0  0  0  0  0  0  0  0  0  0  0  0  # atno 8009 bound_to 7997
  155.2675  140.3340  155.4270 H   0  0  0  0  0  0  0  0  0  0  0  0  # atno 8010 bound_to 7997
  140.5043  144.0264  150.6345 H   0  0  0  0  0  0  0  0  0  0  0  0  # atno 10167 bound_to 10162
  156.5292  130.4651  149.6556 H   0  0  0  0  0  0  0  0  0  0  0  0  # atno 10718 bound_to 10713
  153.7145  135.3263  155.3253 H   0  0  0  0  0  0  0  0  0  0  0  0  # atno 10763 bound_to 10752
  154.8375  135.4485  154.1280 H   0  0  0  0  0  0  0  0  0  0  0  0  # atno 10764 bound_to 10752
  153.2383  135.6968  153.7891 H   0  0  0  0  0  0  0  0  0  0  0  0  # atno 10765 bound_to 10752
  140.4341  134.1390  155.7683 H   0  0  0  0  0  0  0  0  0  0  0  0  # atno 11005 bound_to 11000
  145.0589  139.3121  143.5890 LP  0  0  0  0  0  0  0  0  0  0  0  0  # atno 17320 bound_to 7965
  146.3510  140.0024  142.8675 LP  0  0  0  0  0  0  0  0  0  0  0  0  # atno 17321 bound_to 7965
  140.3569  143.2930  152.0426 LP  0  0  0  0  0  0  0  0  0  0  0  0  # atno 17342 bound_to 10162
  139.4880  144.6332  151.7027 LP  0  0  0  0  0  0  0  0  0  0  0  0  # atno 17343 bound_to 10162
  156.3076  130.7211  151.2097 LP  0  0  0  0  0  0  0  0  0  0  0  0  # atno 17370 bound_to 10713
  157.7424  131.0490  150.5023 LP  0  0  0  0  0  0  0  0  0  0  0  0  # atno 17371 bound_to 10713
  141.1733  133.8564  157.1501 LP  0  0  0  0  0  0  0  0  0  0  0  0  # atno 17394 bound_to 11000
  140.0114  134.9986  157.0404 LP  0  0  0  0  0  0  0  0  0  0  0  0  # atno 17395 bound_to 11000

$$$$
