#       Name:                AV-unprocessed.smi:1265
#       Creating user name   scv26
#       Creation time:       Fri Mar 27 04:44:17 2020


#       File generated by GOLD software.
#

@<TRIPOS>MOLECULE
AV-unprocessed.smi:1265
    50    52     1
SMALL
NO_CHARGES


@<TRIPOS>ATOM
      1 ****        -0.2339   2.6434   0.4943 O.2            1 S1                 0.0000
      2 ****        -0.6590   1.5291   0.7963 C.2            1 S1                 0.0000
      3 ****         0.1305   0.4638   0.9927 N.am           1 S1                 0.0000
      4 ****         1.5877   0.4411   0.8692 C.3            1 S1                 0.0000
      5 ****         2.0722  -0.3854  -0.3678 C.3            1 S1                 0.0000
      6 ****         1.4557  -1.7484  -0.3570 N.3            1 S1                 0.0000
      7 ****         1.6860  -2.5718  -1.5534 C.3            1 S1                 0.0000
      8 ****         0.9521  -3.9224  -1.4878 C.3            1 S1                 0.0000
      9 ****         1.3416  -4.6271  -0.3169 O.3            1 S1                 0.0000
     10 ****         1.0586  -3.8946   0.8671 C.3            1 S1                 0.0000
     11 ****         1.7965  -2.5460   0.8294 C.3            1 S1                 0.0000
     12 ****         1.7391   0.4331  -1.6492 C.3            1 S1                 0.0000
     13 ****         2.6594   1.6565  -1.7210 C.3            1 S1                 0.0000
     14 ****         4.2395   1.1859  -0.9784 S.3            1 S1                 0.0000
     15 ****         3.6225  -0.4042  -0.3590 C.3            1 S1                 0.0000
     16 ****        -1.9521   1.2087   0.9784 N.am           1 S1                 0.0000
     17 ****        -3.1083   2.0338   0.8944 C.ar           1 S1                 0.0000
     18 ****        -4.3175   1.4999   1.3941 C.ar           1 S1                 0.0000
     19 ****        -5.4984   2.2672   1.3318 C.ar           1 S1                 0.0000
     20 ****        -5.4685   3.5036   0.7911 N.pl3          1 S1                 1.0000
     21 ****        -4.3413   4.0540   0.2921 C.ar           1 S1                 0.0000
     22 ****        -3.1296   3.3339   0.3255 C.ar           1 S1                 0.0000
     23 ****        -0.3082  -0.4140   1.2297 H              1 S1                 0.0000
     24 ****         1.9825   1.4566   0.8556 H              1 S1                 0.0000
     25 ****         1.9892   0.0314   1.7949 H              1 S1                 0.0000
     26 ****         1.3280  -2.0707  -2.4495 H              1 S1                 0.0000
     27 ****         2.7499  -2.7603  -1.6923 H              1 S1                 0.0000
     28 ****        -0.1292  -3.7752  -1.4907 H              1 S1                 0.0000
     29 ****         1.1944  -4.5266  -2.3622 H              1 S1                 0.0000
     30 ****        -0.0178  -3.7442   0.9645 H              1 S1                 0.0000
     31 ****         1.3795  -4.4772   1.7307 H              1 S1                 0.0000
     32 ****         2.8712  -2.7291   0.8595 H              1 S1                 0.0000
     33 ****         1.5424  -2.0167   1.7448 H              1 S1                 0.0000
     34 ****         1.9569  -0.1372  -2.5492 H              1 S1                 0.0000
     35 ****         0.6882   0.7145  -1.7132 H              1 S1                 0.0000
     36 ****         2.8022   1.9959  -2.7472 H              1 S1                 0.0000
     37 ****         2.2400   2.4915  -1.1598 H              1 S1                 0.0000
     38 ****         4.0342  -0.6089   0.6297 H              1 S1                 0.0000
     39 ****         4.0173  -1.1656  -1.0293 H              1 S1                 0.0000
     40 ****        -2.1273   0.2551   1.2595 H              1 S1                 0.0000
     41 ****        -4.3438   0.5100   1.8266 H              1 S1                 0.0000
     42 ****        -6.4587   1.9305   1.6942 H              1 S1                 0.0000
     43 ****        -4.4419   5.0469  -0.1215 H              1 S1                 0.0000
     44 ****        -2.2500   3.7955  -0.0942 H              1 S1                 0.0000
     45 ****        -6.3340   4.0431   0.7547 H              1 S1                 0.0000
     46 ****         0.7490   2.7903   0.3829 LP             1 S1                 0.0000
     47 ****        -0.8712   3.4022   0.3602 LP             1 S1                 0.0000
     48 ****         0.4833  -1.5157  -0.3406 LP             1 S1                 0.0000
     49 ****         2.3250  -4.8041  -0.3593 LP             1 S1                 0.0000
     50 ****         0.8477  -5.4960  -0.2843 LP             1 S1                 0.0000
@<TRIPOS>BOND
    1    1    2 2     
    2    2    3 am    
    3    2   16 am    
    4    3    4 1     
    5    3   23 1     
    6    4    5 1     
    7    4   24 1     
    8    4   25 1     
    9    5   15 1     
   10    5    6 1     
   11    5   12 1     
   12    6   11 1     
   13    6    7 1     
   14    7    8 1     
   15    7   26 1     
   16    7   27 1     
   17    8    9 1     
   18    8   28 1     
   19    8   29 1     
   20    9   10 1     
   21   10   11 1     
   22   10   30 1     
   23   10   31 1     
   24   11   32 1     
   25   11   33 1     
   26   12   13 1     
   27   12   34 1     
   28   12   35 1     
   29   13   14 1     
   30   13   36 1     
   31   13   37 1     
   32   14   15 1     
   33   15   38 1     
   34   15   39 1     
   35   16   17 1     
   36   16   40 1     
   37   17   22 ar    
   38   17   18 ar    
   39   18   19 ar    
   40   18   41 1     
   41   19   20 ar    
   42   19   42 1     
   43   20   21 ar    
   44   20   45 1     
   45   21   22 ar    
   46   21   43 1     
   47   22   44 1     
   48    1   46 1     
   49    1   47 1     
   50    6   48 1     
   51    9   49 1     
   52    9   50 1     
@<TRIPOS>SUBSTRUCTURE
      1 S1             1
@<TRIPOS>SET
LONE_PAIRS      STATIC     ATOMS    <user>   **** ""
5 46 47 48 49 50
DONOR_HYDROGENS      STATIC     ATOMS    <user>   **** ""
3 23 40 45
ATOM$BLUE        STATIC     ATOMS    COLORGROUP SYSTEM
5 46 47 48 49 50
ATOM$RED        STATIC     ATOMS    COLORGROUP SYSTEM
3 23 40 45
