AV-unprocessed.smi:1295|AV-procd|sdf|5409|dock3
  -GOLD-   22720 4563D 1   1.00000     0.00000
 Structure written by MMmdl.
 42 43  0  0  0  0  0  0  0  0  2 V2000
  150.3205  134.2016  154.5155 C   0  0  0  0  0  0  0  0  0  0  0  0
  150.3400  135.6972  154.7468 C   0  0  0  0  0  0  0  0  0  0  0  0
  149.3473  136.2530  155.3300 N   0  0  0  0  0  0  0  0  0  0  0  0
  149.3636  137.6406  155.5508 C   0  0  0  0  0  0  0  0  0  0  0  0
  148.1431  138.2156  156.2488 C   0  0  0  0  0  0  0  0  0  0  0  0
  150.4213  138.4058  155.1556 C   0  0  0  0  0  0  0  0  0  0  0  0
  150.4854  139.9170  155.3740 C   0  0  0  0  0  0  0  0  0  0  0  0
  151.6579  140.4140  156.2220 C   0  0  0  0  0  0  0  0  0  0  0  0
  152.8148  140.1354  155.9070 O   0  0  0  0  0  0  0  0  0  0  0  0
  151.3386  141.1477  157.2996 N   0  0  0  0  0  0  0  0  0  0  0  0
  152.2780  141.6914  158.2789 C   0  0  2  0  0  0  0  0  0  0  0  0
  152.5798  140.6000  159.3247 C   0  0  0  0  0  0  0  0  0  0  0  0
  153.5102  141.1128  160.4330 C   0  0  0  0  0  0  0  0  0  0  0  0
  152.9285  142.3649  161.1023 C   0  0  0  0  0  0  0  0  0  0  0  0
  152.6492  143.4623  160.0649 C   0  0  0  0  0  0  0  0  0  0  0  0
  151.7097  142.9715  158.9447 C   0  0  1  0  0  0  0  0  0  0  0  0
  151.4458  144.1021  157.9338 C   0  0  0  0  0  0  0  0  0  0  0  0
  151.5463  137.7262  154.4886 C   0  0  0  0  0  0  0  0  0  0  0  0
  152.5304  138.3668  154.1212 O   0  0  0  0  0  0  0  0  0  0  0  0
  151.4508  136.3787  154.3029 N   0  5  0  0  0  0  0  0  0  0  0  0
  149.5052  133.7295  155.0652 H   0  0  0  0  0  0  0  0  0  0  0  0
  151.2578  133.7529  154.8459 H   0  0  0  0  0  0  0  0  0  0  0  0
  150.1893  133.9877  153.4546 H   0  0  0  0  0  0  0  0  0  0  0  0
  147.6321  138.9282  155.6011 H   0  0  0  0  0  0  0  0  0  0  0  0
  148.4303  138.7250  157.1690 H   0  0  0  0  0  0  0  0  0  0  0  0
  147.4320  137.4310  156.5104 H   0  0  0  0  0  0  0  0  0  0  0  0
  150.5069  140.4482  154.4221 H   0  0  0  0  0  0  0  0  0  0  0  0
  149.5518  140.2313  155.8420 H   0  0  0  0  0  0  0  0  0  0  0  0
  150.3593  141.3253  157.4688 H   0  0  0  0  0  0  0  0  0  0  0  0
  153.2201  141.9491  157.7911 H   0  0  0  0  0  0  0  0  0  0  0  0
  151.6488  140.2486  159.7721 H   0  0  0  0  0  0  0  0  0  0  0  0
  153.0334  139.7350  158.8388 H   0  0  0  0  0  0  0  0  0  0  0  0
  153.6674  140.3319  161.1774 H   0  0  0  0  0  0  0  0  0  0  0  0
  154.4899  141.3431  160.0124 H   0  0  0  0  0  0  0  0  0  0  0  0
  152.0052  142.1086  161.6235 H   0  0  0  0  0  0  0  0  0  0  0  0
  153.6191  142.7364  161.8598 H   0  0  0  0  0  0  0  0  0  0  0  0
  152.2139  144.3289  160.5636 H   0  0  0  0  0  0  0  0  0  0  0  0
  153.5924  143.7990  159.6321 H   0  0  0  0  0  0  0  0  0  0  0  0
  150.7542  142.7170  159.4061 H   0  0  0  0  0  0  0  0  0  0  0  0
  152.3563  144.3734  157.3989 H   0  0  0  0  0  0  0  0  0  0  0  0
  151.0754  144.9971  158.4342 H   0  0  0  0  0  0  0  0  0  0  0  0
  150.6982  143.8158  157.1941 H   0  0  0  0  0  0  0  0  0  0  0  0
  1  2  1  0  0  0  0
  1 21  1  0  0  0  0
  1 22  1  0  0  0  0
  1 23  1  0  0  0  0
  2 20  1  0  0  0  0
  2  3  2  0  0  0  0
  3  4  1  0  0  0  0
  4  5  1  0  0  0  0
  4  6  2  0  0  0  0
  5 24  1  0  0  0  0
  5 25  1  0  0  0  0
  5 26  1  0  0  0  0
  6  7  1  0  0  0  0
  6 18  1  0  0  0  0
  7  8  1  0  0  0  0
  7 27  1  0  0  0  0
  7 28  1  0  0  0  0
  8  9  2  0  0  0  0
  8 10  1  0  0  0  0
 10 11  1  0  0  0  0
 10 29  1  0  0  0  0
 11 16  1  0  0  0  0
 11 12  1  0  0  0  0
 11 30  1  0  0  0  0
 12 13  1  0  0  0  0
 12 31  1  0  0  0  0
 12 32  1  0  0  0  0
 13 14  1  0  0  0  0
 13 33  1  0  0  0  0
 13 34  1  0  0  0  0
 14 15  1  0  0  0  0
 14 35  1  0  0  0  0
 14 36  1  0  0  0  0
 15 16  1  0  0  0  0
 15 37  1  0  0  0  0
 15 38  1  0  0  0  0
 16 17  1  0  0  0  0
 16 39  1  0  0  0  0
 17 40  1  0  0  0  0
 17 41  1  0  0  0  0
 17 42  1  0  0  0  0
 18 19  2  0  0  0  0
 18 20  1  0  0  0  0
M  CHG  1  20  -1
M  END
> <s_m_source_file>
AV-unprocessed.smi

> <i_m_source_file_index>
1295

> <i_lp_mmshare_version>
43012

> <i_f3d_flags>
0

> <s_epik_input>
W0NIM11jMW5jKFtDSDNdKWMoYyg9TylbbkhdMSlbQ0gyXUMoPU8pW05IXVtDQEBIXTJbQ0gyXVtDSDJdW0NIMl1bQ0gyXVtDQEhdMltDSDNd

> <s_epik_cmdline>
J2VwaWtfcHl0aG9uJywgJy1waCcsICc3LjAnLCAnLXRuJywgJzgnLCAnLW1hJywgJzIwMCcsICctbWV0YWxfYmluZGluZycsICctaW1hZScsICc8aW5maWxlLm1hZT4nLCAnLW9tYWUnLCAnPG91dGZpbGUubWFlPic=

> <r_lp_tautomer_probability>
0.839158

> <r_epik_Ionization_Penalty>
6.67742

> <r_epik_Ionization_Penalty_Charging>
7.78154e-08

> <r_epik_Ionization_Penalty_Neutral>
6.67742

> <r_epik_State_Penalty>
4.51991

> <r_epik_Charging_Adjusted_Penalty>
4.51991

> <i_epik_Tot_Q>
-1

> <i_epik_Tot_abs_Q>
1

> <r_epik_Metal_State_Penalty>
0.853272

> <b_epik_Metal_Only>
1

> <s_lp_Force_Field>
OPLS_2005

> <r_lp_Energy>
15.3241

> <b_lp_Chiralities_Consistent>
1

> <s_lp_Variant>
AV-unprocessed.smi:1295-9

> <Gold.Version>
5.8.1

> <Gold.Id.Protein>
6NUR|6NUR_protein|mol2

> <Gold.PLP.Fitness>
45.5543

> <Gold.PLP.PLP>
-37.2958

> <Gold.PLP.part.hbond>
-2.6709

> <Gold.PLP.part.metal>
0.0000

> <Gold.PLP.part.buried>
-4.1789

> <Gold.PLP.part.nonpolar>
-31.1542

> <Gold.PLP.part.repulsive>
0.4175

> <Gold.PLP.ligand.clash>
0.0000

> <Gold.PLP.ligand.torsion>
0.3737

> <Gold.PLP.Chemscore.Hbond>
3.0000

> <Gold.PLP.Chemscore.CHOScore>
0.0000

> <Gold.PLP.Chemscore.Metal>
0.0000

> <Gold.Chemscore.Hbonds>
donor molecule, donor type, donor heavy atom, donor atom, acceptor molecule, acceptor atom, score
      P1  H  7997  8010       L1     9  0.90
      P1  H 10752 10763       L1    20  1.86

> <Gold.PLP.Chemscore.Internal.Correction>
0.0059

> <Gold.Rescore>
     Score         DG    S(hbond)    S(metal)    S(lipo)     H(rot)  DE(clash)    DE(int)     intcor
     15.27     -17.23       1.67        0.00      84.49       1.45       0.11       1.85       ----

> <Gold.Chemscore.Fitness>
15.2730

> <Gold.Chemscore.DG>
-17.2285

> <Gold.Chemscore.ZeroCoef>
-5.4800

> <Gold.Chemscore.Hbond>
1.6655

> <Gold.Chemscore.Metal>
0.0000

> <Gold.Chemscore.Lipo>
84.4868

> <Gold.Chemscore.Internal_Hbond>
0.0000

> <Gold.Chemscore.DEClash>
0.1099

> <Gold.Chemscore.DEInternal>
1.8456

> <Gold.Chemscore.Rot>
1.4450

> <Gold.Chemscore.Internal.Correction>
   9.000000E+99

> <Gold.Chemscore.Hbonds>
donor molecule, donor type, donor heavy atom, donor atom, acceptor molecule, acceptor atom, score
      P1  H  7997  8010       L1     9  0.88
      P1  H 10752 10763       L1    20  0.64

> <Gold.Chemscore.Hbond.Weighted>
-5.5628

> <Gold.Chemscore.Metal.Weighted>
-0.0000

> <Gold.Chemscore.Lipo.Weighted>
-9.8850

> <Gold.Chemscore.Internal_Hbond.Weighted>
0.0000

> <Gold.Chemscore.DEClash.Weighted>
0.1099

> <Gold.Chemscore.DEInternal.Weighted>
1.8456

> <Gold.Chemscore.Rot.Weighted>
3.6992

> <Gold.Chemscore.Internal.Correction.Weighted>
   9.000000E+99

> <Gold.Protein.RotatedTorsions>
[ 6907 6896 6895 6894 ] final  -16.26 input  -60.11 | X-H torsion
[ 7974 7965 7964 7962 ] final  -18.11 input  175.53 | X-H torsion
[ 8008 7997 7996 7995 ] final   67.14 input   59.86 | X-H torsion
[ 10167 10162 10161 10158 ] final  -93.36 input  -65.29 | X-H torsion
[ 10718 10713 10712 10709 ] final  -60.26 input   66.30 | X-H torsion
[ 10763 10752 10751 10750 ] final   67.36 input  -60.55 | X-H torsion
[ 11005 11000 10999 10996 ] final  -75.85 input  -57.11 | X-H torsion

> <Gold.Protein.ActiveResidues>
 VAL166  LYS551  ARG553  GLY616  TRP617  ASP618  TYR619  PRO620  LYS621  CYS622 
 ASP623  PHE694  ASN695  SER759  ASP760  ASP761  ALA762  ILE779  LEU786  VAL792 
 PHE793  MET794  SER795  GLU796  ALA797  LYS798  CYS799  TRP800  GLU811  SER814 

> <Gold.Protein.RotatedAtoms>
  151.3113  135.0795  159.9273 H   0  0  0  0  0  0  0  0  0  0  0  0  # atno 6907 bound_to 6896
  152.5277  133.9733  159.7782 H   0  0  0  0  0  0  0  0  0  0  0  0  # atno 6908 bound_to 6896
  151.0037  133.5980  159.2722 H   0  0  0  0  0  0  0  0  0  0  0  0  # atno 6909 bound_to 6896
  146.1908  140.3874  142.8458 H   0  0  0  0  0  0  0  0  0  0  0  0  # atno 7974 bound_to 7965
  155.6883  140.3496  155.4883 H   0  0  0  0  0  0  0  0  0  0  0  0  # atno 8008 bound_to 7997
  155.9546  140.1126  157.0970 H   0  0  0  0  0  0  0  0  0  0  0  0  # atno 8009 bound_to 7997
  154.4129  140.1187  156.5084 H   0  0  0  0  0  0  0  0  0  0  0  0  # atno 8010 bound_to 7997
  140.3254  143.3025  152.0001 H   0  0  0  0  0  0  0  0  0  0  0  0  # atno 10167 bound_to 10162
  156.1003  130.4187  150.0829 H   0  0  0  0  0  0  0  0  0  0  0  0  # atno 10718 bound_to 10713
  153.0182  135.5287  154.6967 H   0  0  0  0  0  0  0  0  0  0  0  0  # atno 10763 bound_to 10752
  154.6087  135.2876  155.0459 H   0  0  0  0  0  0  0  0  0  0  0  0  # atno 10764 bound_to 10752
  154.1489  135.6566  153.5011 H   0  0  0  0  0  0  0  0  0  0  0  0  # atno 10765 bound_to 10752
  141.1649  133.6961  156.7579 H   0  0  0  0  0  0  0  0  0  0  0  0  # atno 11005 bound_to 11000
  144.8484  140.6964  143.6184 LP  0  0  0  0  0  0  0  0  0  0  0  0  # atno 17320 bound_to 7965
  145.3797  139.1639  143.4287 LP  0  0  0  0  0  0  0  0  0  0  0  0  # atno 17321 bound_to 7965
  139.4866  144.6278  151.7130 LP  0  0  0  0  0  0  0  0  0  0  0  0  # atno 17342 bound_to 10162
  140.5446  144.0524  150.6102 LP  0  0  0  0  0  0  0  0  0  0  0  0  # atno 17343 bound_to 10162
  156.8818  130.9559  151.3598 LP  0  0  0  0  0  0  0  0  0  0  0  0  # atno 17370 bound_to 10713
  157.6172  130.8627  149.9048 LP  0  0  0  0  0  0  0  0  0  0  0  0  # atno 17371 bound_to 10713
  140.2556  134.8507  157.3709 LP  0  0  0  0  0  0  0  0  0  0  0  0  # atno 17394 bound_to 11000
  140.1661  134.4668  155.7862 LP  0  0  0  0  0  0  0  0  0  0  0  0  # atno 17395 bound_to 11000

$$$$
