#       Name:                AV-unprocessed.smi:1535
#       Creating user name   scv26
#       Creation time:       Fri Mar 27 06:34:40 2020


#       File generated by GOLD software.
#

@<TRIPOS>MOLECULE
AV-unprocessed.smi:1535
    51    52     1
SMALL
NO_CHARGES


@<TRIPOS>ATOM
      1 ****        -5.1806   2.9347  -2.8721 C.3            1 S1                 0.0000
      2 ****        -4.0537   2.5270  -1.9393 C.ar           1 S1                 0.0000
      3 ****        -4.3703   1.9375  -0.6944 C.ar           1 S1                 0.0000
      4 ****        -3.3515   1.5455   0.2014 C.ar           1 S1                 0.0000
      5 ****        -3.4307   0.9572   1.4521 N.2            1 S1                 0.0000
      6 ****        -2.1465   0.8429   1.7773 C.2            1 S1                 0.0000
      7 ****        -1.2423   1.2849   0.8823 N.pl3          1 S1                 0.0000
      8 ****         0.2035   1.2678   1.0184 C.3            1 S1                 0.0000
      9 ****         0.8156  -0.1067   0.6873 C.3            1 S1                 0.0000
     10 ****         0.4624  -0.4766  -0.6321 O.3            1 S1                 0.0000
     11 ****         2.3534  -0.0824   0.7908 C.3            1 S1                 0.0000
     12 ****         2.9470  -1.4325   0.6167 N.4            1 S1                 1.0000
     13 ****         4.3010  -1.3710   0.0196 C.3            1 S1                 0.0000
     14 ****         2.9080  -2.2521   1.8563 C.3            1 S1                 0.0000
     15 ****         2.8954  -3.7628   1.5587 C.3            1 S1                 0.0000
     16 ****         2.9364  -4.5910   2.8491 C.3            1 S1                 0.0000
     17 ****         1.7300  -4.1318   0.7386 C.1            1 S1                 0.0000
     18 ****         0.8139  -4.4176   0.0935 N.1            1 S1                 0.0000
     19 ****        -1.9964   1.7621  -0.1848 C.ar           1 S1                 0.0000
     20 ****        -1.6687   2.3452  -1.4216 C.ar           1 S1                 0.0000
     21 ****        -2.6987   2.7303  -2.3052 C.ar           1 S1                 0.0000
     22 ****        -2.3340   3.3569  -3.6393 C.3            1 S1                 0.0000
     23 ****        -6.1567   2.7319  -2.4305 H              1 S1                 0.0000
     24 ****        -5.1166   2.3843  -3.8109 H              1 S1                 0.0000
     25 ****        -5.1293   4.0015  -3.0916 H              1 S1                 0.0000
     26 ****        -5.4021   1.7808  -0.4158 H              1 S1                 0.0000
     27 ****        -1.8445   0.4116   2.7206 H              1 S1                 0.0000
     28 ****         0.6230   2.0394   0.3715 H              1 S1                 0.0000
     29 ****         0.4521   1.5529   2.0415 H              1 S1                 0.0000
     30 ****         0.3979  -0.8483   1.3684 H              1 S1                 0.0000
     31 ****        -0.4809  -0.4900  -0.6992 H              1 S1                 0.0000
     32 ****         2.7382   0.5976   0.0286 H              1 S1                 0.0000
     33 ****         2.6715   0.3302   1.7497 H              1 S1                 0.0000
     34 ****         4.9943  -0.8443   0.6766 H              1 S1                 0.0000
     35 ****         4.2752  -0.8493  -0.9378 H              1 S1                 0.0000
     36 ****         4.6992  -2.3675  -0.1682 H              1 S1                 0.0000
     37 ****         3.7547  -1.9898   2.4927 H              1 S1                 0.0000
     38 ****         2.0148  -2.0137   2.4342 H              1 S1                 0.0000
     39 ****         3.7747  -4.0261   0.9716 H              1 S1                 0.0000
     40 ****         2.9498  -5.6584   2.6268 H              1 S1                 0.0000
     41 ****         2.0653  -4.3932   3.4745 H              1 S1                 0.0000
     42 ****         3.8277  -4.3651   3.4351 H              1 S1                 0.0000
     43 ****        -0.6332   2.4941  -1.6895 H              1 S1                 0.0000
     44 ****        -1.2537   3.4530  -3.7522 H              1 S1                 0.0000
     45 ****        -2.7683   4.3530  -3.7265 H              1 S1                 0.0000
     46 ****        -2.7031   2.7443  -4.4620 H              1 S1                 0.0000
     47 ****         2.3589  -1.8958  -0.0622 H              1 S1                 0.0000
     48 ****        -4.2406   0.6888   1.9737 LP             1 S1                 0.0000
     49 ****         0.8276  -1.3848  -0.8366 LP             1 S1                 0.0000
     50 ****         0.8368   0.1869  -1.2797 LP             1 S1                 0.0000
     51 ****         0.0216  -4.6648  -0.4644 LP             1 S1                 0.0000
@<TRIPOS>BOND
    1    1    2 1     
    2    1   23 1     
    3    1   24 1     
    4    1   25 1     
    5    2   21 ar    
    6    2    3 ar    
    7    3    4 ar    
    8    3   26 1     
    9    4   19 ar    
   10    4    5 1     
   11    5    6 2     
   12    6    7 1     
   13    6   27 1     
   14    7    8 1     
   15    7   19 1     
   16    8    9 1     
   17    8   28 1     
   18    8   29 1     
   19    9   10 1     
   20    9   11 1     
   21    9   30 1     
   22   10   31 1     
   23   11   12 1     
   24   11   32 1     
   25   11   33 1     
   26   12   13 1     
   27   12   14 1     
   28   12   47 1     
   29   13   34 1     
   30   13   35 1     
   31   13   36 1     
   32   14   15 1     
   33   14   37 1     
   34   14   38 1     
   35   15   16 1     
   36   15   17 1     
   37   15   39 1     
   38   16   40 1     
   39   16   41 1     
   40   16   42 1     
   41   17   18 3     
   42   19   20 ar    
   43   20   21 ar    
   44   20   43 1     
   45   21   22 1     
   46   22   44 1     
   47   22   45 1     
   48   22   46 1     
   49    5   48 1     
   50   10   49 1     
   51   10   50 1     
   52   18   51 1     
@<TRIPOS>SUBSTRUCTURE
      1 S1             1
@<TRIPOS>SET
LONE_PAIRS      STATIC     ATOMS    <user>   **** ""
4 48 49 50 51
DONOR_HYDROGENS      STATIC     ATOMS    <user>   **** ""
2 31 47
ATOM$BLUE        STATIC     ATOMS    COLORGROUP SYSTEM
4 48 49 50 51
ATOM$RED        STATIC     ATOMS    COLORGROUP SYSTEM
2 31 47
