AV-unprocessed.smi:545|AV-procd|sdf|2881|dock3
  -GOLD-   2262023373D 1   1.00000     0.00000
 Structure written by MMmdl.
 36 37  0  0  0  0  0  0  0  0  1 V2000
  148.2214  141.4768  153.8443 C   0  0  0  0  0  0  0  0  0  0  0  0
  149.4989  141.8271  154.3448 O   0  0  0  0  0  0  0  0  0  0  0  0
  149.5669  141.7630  155.7599 C   0  0  0  0  0  0  0  0  0  0  0  0
  150.9385  142.2586  156.2392 C   0  0  0  0  0  0  0  0  0  0  0  0
  151.5764  141.3096  157.1522 N   0  0  0  0  0  0  0  0  0  0  0  0
  152.0093  141.4812  158.4380 C   0  0  0  0  0  0  0  0  0  0  0  0
  151.9272  142.6924  159.1395 N   0  0  0  0  0  0  0  0  0  0  0  0
  152.3978  142.8443  160.5107 C   0  0  0  0  0  0  0  0  0  0  0  0
  151.5600  144.0065  158.6268 C   0  0  0  0  0  0  0  0  0  0  0  0
  152.4920  140.3692  159.0030 N   0  0  0  0  0  0  0  0  0  0  0  0
  152.3723  139.4174  158.0057 C   0  0  0  0  0  0  0  0  0  0  0  0
  151.8142  139.9561  156.8934 C   0  0  0  0  0  0  0  0  0  0  0  0
  151.5271  139.1528  155.6945 C   0  0  0  0  0  0  0  0  0  0  0  0
  150.9982  139.6051  154.6815 O   0  0  0  0  0  0  0  0  0  0  0  0
  151.8954  137.8550  155.8211 N   0  0  0  0  0  0  0  0  0  0  0  0
  152.4682  137.2551  156.9083 C   0  0  0  0  0  0  0  0  0  0  0  0
  152.7435  136.0557  156.8755 O   0  0  0  0  0  0  0  0  0  0  0  0
  152.7116  138.0342  158.0098 N   0  0  0  0  0  0  0  0  0  0  0  0
  153.3173  137.4434  159.2046 C   0  0  0  0  0  0  0  0  0  0  0  0
  151.7214  137.2609  155.0236 H   0  0  0  0  0  0  0  0  0  0  0  0
  148.2253  141.5407  152.7563 H   0  0  0  0  0  0  0  0  0  0  0  0
  147.4521  142.1537  154.2185 H   0  0  0  0  0  0  0  0  0  0  0  0
  147.9555  140.4559  154.1212 H   0  0  0  0  0  0  0  0  0  0  0  0
  148.7769  142.3745  156.1988 H   0  0  0  0  0  0  0  0  0  0  0  0
  149.4083  140.7367  156.0939 H   0  0  0  0  0  0  0  0  0  0  0  0
  151.5925  142.4300  155.3861 H   0  0  0  0  0  0  0  0  0  0  0  0
  150.8486  143.2370  156.6961 H   0  0  0  0  0  0  0  0  0  0  0  0
  152.4057  141.8841  161.0274 H   0  0  0  0  0  0  0  0  0  0  0  0
  151.7519  143.5148  161.0793 H   0  0  0  0  0  0  0  0  0  0  0  0
  153.4118  143.2449  160.5231 H   0  0  0  0  0  0  0  0  0  0  0  0
  151.8411  144.0975  157.5775 H   0  0  0  0  0  0  0  0  0  0  0  0
  152.0675  144.8121  159.1597 H   0  0  0  0  0  0  0  0  0  0  0  0
  150.4859  144.1672  158.7229 H   0  0  0  0  0  0  0  0  0  0  0  0
  154.2546  136.9436  158.9560 H   0  0  0  0  0  0  0  0  0  0  0  0
  152.6445  136.7071  159.6460 H   0  0  0  0  0  0  0  0  0  0  0  0
  153.5422  138.1847  159.9712 H   0  0  0  0  0  0  0  0  0  0  0  0
  1  2  1  0  0  0  0
  1 21  1  0  0  0  0
  1 22  1  0  0  0  0
  1 23  1  0  0  0  0
  2  3  1  0  0  0  0
  3  4  1  0  0  0  0
  3 24  1  0  0  0  0
  3 25  1  0  0  0  0
  4  5  1  0  0  0  0
  4 26  1  0  0  0  0
  4 27  1  0  0  0  0
  5 12  1  0  0  0  0
  5  6  1  0  0  0  0
  6  7  1  0  0  0  0
  6 10  2  0  0  0  0
  7  8  1  0  0  0  0
  7  9  1  0  0  0  0
  8 28  1  0  0  0  0
  8 29  1  0  0  0  0
  8 30  1  0  0  0  0
  9 31  1  0  0  0  0
  9 32  1  0  0  0  0
  9 33  1  0  0  0  0
 10 11  1  0  0  0  0
 11 18  1  0  0  0  0
 11 12  2  0  0  0  0
 12 13  1  0  0  0  0
 13 14  2  0  0  0  0
 13 15  1  0  0  0  0
 15 20  1  0  0  0  0
 15 16  1  0  0  0  0
 16 17  2  0  0  0  0
 16 18  1  0  0  0  0
 18 19  1  0  0  0  0
 19 34  1  0  0  0  0
 19 35  1  0  0  0  0
 19 36  1  0  0  0  0
M  END
> <s_m_source_file>
AV-unprocessed.smi

> <i_m_source_file_index>
545

> <i_lp_mmshare_version>
43012

> <i_f3d_flags>
0

> <s_epik_input>
W0NIM11PW0NIMl1bQ0gyXW4oYyhuMSlOKFtDSDNdKVtDSDNdKWMoYzEyKWMoPU8pW25IXWMoPU8pbjJbQ0gzXQ==

> <s_epik_cmdline>
J2VwaWtfcHl0aG9uJywgJy1waCcsICc3LjAnLCAnLXRuJywgJzgnLCAnLW1hJywgJzIwMCcsICctbWV0YWxfYmluZGluZycsICctaW1hZScsICc8aW5maWxlLm1hZT4nLCAnLW9tYWUnLCAnPG91dGZpbGUubWFlPic=

> <r_lp_tautomer_probability>
1

> <r_epik_Ionization_Penalty>
6.48997e-05

> <r_epik_Ionization_Penalty_Charging>
1.66474e-05

> <r_epik_Ionization_Penalty_Neutral>
4.82523e-05

> <r_epik_State_Penalty>
-0

> <r_epik_Charging_Adjusted_Penalty>
1.66474e-05

> <i_epik_Tot_Q>
0

> <i_epik_Tot_abs_Q>
0

> <r_epik_Metal_State_Penalty>
0.0159702

> <b_epik_Metal_Only>
0

> <s_lp_Force_Field>
OPLS_2005

> <r_lp_Energy>
27.7728

> <b_lp_Chiralities_Consistent>
1

> <s_lp_Variant>
AV-unprocessed.smi:545-1

> <Gold.Version>
5.8.1

> <Gold.Id.Protein>
6NUR|6NUR_protein|mol2

> <Gold.PLP.Fitness>
38.4066

> <Gold.PLP.PLP>
-32.9335

> <Gold.PLP.part.hbond>
-4.0000

> <Gold.PLP.part.metal>
0.0000

> <Gold.PLP.part.buried>
-3.1457

> <Gold.PLP.part.nonpolar>
-24.8035

> <Gold.PLP.part.repulsive>
0.3980

> <Gold.PLP.ligand.clash>
0.0000

> <Gold.PLP.ligand.torsion>
0.3942

> <Gold.PLP.Chemscore.Hbond>
2.0741

> <Gold.PLP.Chemscore.CHOScore>
0.0000

> <Gold.PLP.Chemscore.Metal>
0.0000

> <Gold.Chemscore.Hbonds>
donor molecule, donor type, donor heavy atom, donor atom, acceptor molecule, acceptor atom, score
      P1  H  7989  7998       L1    14  1.00
      P1  H  8011  8017       L1     2  0.04
      P1  H 10752 10765       L1    17  1.00

> <Gold.PLP.Chemscore.Internal.Correction>
0.0391

> <Gold.Rescore>
     Score         DG    S(hbond)    S(metal)    S(lipo)     H(rot)  DE(clash)    DE(int)     intcor
     12.26     -14.61       1.99        0.00      55.61       1.57       0.06       2.29       ----

> <Gold.Chemscore.Fitness>
12.2597

> <Gold.Chemscore.DG>
-14.6064

> <Gold.Chemscore.ZeroCoef>
-5.4800

> <Gold.Chemscore.Hbond>
1.9884

> <Gold.Chemscore.Metal>
0.0000

> <Gold.Chemscore.Lipo>
55.6055

> <Gold.Chemscore.Internal_Hbond>
0.0000

> <Gold.Chemscore.DEClash>
0.0590

> <Gold.Chemscore.DEInternal>
2.2877

> <Gold.Chemscore.Rot>
1.5705

> <Gold.Chemscore.Internal.Correction>
   9.000000E+99

> <Gold.Chemscore.Hbonds>
donor molecule, donor type, donor heavy atom, donor atom, acceptor molecule, acceptor atom, score
      P1  H  7989  7998       L1    14  1.00
      P1  H 10752 10765       L1    17  0.96

> <Gold.Chemscore.Hbond.Weighted>
-6.6411

> <Gold.Chemscore.Metal.Weighted>
-0.0000

> <Gold.Chemscore.Lipo.Weighted>
-6.5058

> <Gold.Chemscore.Internal_Hbond.Weighted>
0.0000

> <Gold.Chemscore.DEClash.Weighted>
0.0590

> <Gold.Chemscore.DEInternal.Weighted>
2.2877

> <Gold.Chemscore.Rot.Weighted>
4.0205

> <Gold.Chemscore.Internal.Correction.Weighted>
   9.000000E+99

> <Gold.Protein.RotatedTorsions>
[ 6907 6896 6895 6894 ] final -168.28 input  -60.11 | X-H torsion
[ 7974 7965 7964 7962 ] final   18.36 input  175.53 | X-H torsion
[ 8008 7997 7996 7995 ] final   84.04 input   59.86 | X-H torsion
[ 10167 10162 10161 10158 ] final -102.52 input  -65.29 | X-H torsion
[ 10718 10713 10712 10709 ] final  -50.51 input   66.30 | X-H torsion
[ 10763 10752 10751 10750 ] final -114.34 input  -60.55 | X-H torsion
[ 11005 11000 10999 10996 ] final   43.15 input  -57.11 | X-H torsion

> <Gold.Protein.ActiveResidues>
 VAL166  LYS551  ARG553  GLY616  TRP617  ASP618  TYR619  PRO620  LYS621  CYS622 
 ASP623  PHE694  ASN695  SER759  ASP760  ASP761  ALA762  ILE779  LEU786  VAL792 
 PHE793  MET794  SER795  GLU796  ALA797  LYS798  CYS799  TRP800  GLU811  SER814 

> <Gold.Protein.RotatedAtoms>
  151.4730  133.3564  159.2826 H   0  0  0  0  0  0  0  0  0  0  0  0  # atno 6907 bound_to 6896
  150.8948  134.8357  159.7329 H   0  0  0  0  0  0  0  0  0  0  0  0  # atno 6908 bound_to 6896
  152.4845  134.4644  159.9667 H   0  0  0  0  0  0  0  0  0  0  0  0  # atno 6909 bound_to 6896
  146.2187  139.8468  142.8630 H   0  0  0  0  0  0  0  0  0  0  0  0  # atno 7974 bound_to 7965
  155.9319  140.3414  155.6256 H   0  0  0  0  0  0  0  0  0  0  0  0  # atno 8008 bound_to 7997
  155.7147  140.0776  157.2375 H   0  0  0  0  0  0  0  0  0  0  0  0  # atno 8009 bound_to 7997
  154.4086  140.1616  156.2323 H   0  0  0  0  0  0  0  0  0  0  0  0  # atno 8010 bound_to 7997
  140.2297  143.3615  152.0897 H   0  0  0  0  0  0  0  0  0  0  0  0  # atno 10167 bound_to 10162
  156.1794  130.4150  149.9529 H   0  0  0  0  0  0  0  0  0  0  0  0  # atno 10718 bound_to 10713
  154.8436  135.4421  154.1491 H   0  0  0  0  0  0  0  0  0  0  0  0  # atno 10763 bound_to 10752
  153.2656  135.6940  153.7539 H   0  0  0  0  0  0  0  0  0  0  0  0  # atno 10764 bound_to 10752
  153.6799  135.3405  155.3151 H   0  0  0  0  0  0  0  0  0  0  0  0  # atno 10765 bound_to 10752
  140.1671  134.4268  155.8280 H   0  0  0  0  0  0  0  0  0  0  0  0  # atno 11005 bound_to 11000
  145.2842  141.0148  143.3700 LP  0  0  0  0  0  0  0  0  0  0  0  0  # atno 17320 bound_to 7965
  144.9127  139.4509  143.6579 LP  0  0  0  0  0  0  0  0  0  0  0  0  # atno 17321 bound_to 7965
  139.5114  144.6900  151.5784 LP  0  0  0  0  0  0  0  0  0  0  0  0  # atno 17342 bound_to 10162
  140.6194  143.9287  150.6514 LP  0  0  0  0  0  0  0  0  0  0  0  0  # atno 17343 bound_to 10162
  156.7304  130.9041  151.3625 LP  0  0  0  0  0  0  0  0  0  0  0  0  # atno 17370 bound_to 10713
  157.6858  130.9184  150.0383 LP  0  0  0  0  0  0  0  0  0  0  0  0  # atno 17371 bound_to 10713
  141.2214  133.6939  156.7698 LP  0  0  0  0  0  0  0  0  0  0  0  0  # atno 17394 bound_to 11000
  140.2420  134.8606  157.3583 LP  0  0  0  0  0  0  0  0  0  0  0  0  # atno 17395 bound_to 11000

$$$$
