AV-unprocessed.smi:2881|AV-procd|sdf|11067|dock4
  -GOLD-   2272015543D 1   1.00000     0.00000
 Structure written by MMmdl.
 40 42  0  0  0  0  0  0  0  0  1 V2000
  153.2231  142.3041  162.3684 C   0  0  0  0  0  0  0  0  0  0  0  0
  152.5382  142.8537  161.1521 C   0  0  0  0  0  0  0  0  0  0  0  0
  152.7646  142.5146  159.7859 C   0  0  0  0  0  0  0  0  0  0  0  0
  151.8855  143.2983  159.0922 C   0  0  0  0  0  0  0  0  0  0  0  0
  151.6177  143.4195  157.6268 C   0  0  0  0  0  0  0  0  0  0  0  0
  151.0561  142.1145  157.0633 C   0  0  0  0  0  0  0  0  0  0  0  0
  151.6672  141.0593  157.2290 O   0  0  0  0  0  0  0  0  0  0  0  0
  149.8885  142.1999  156.4065 N   0  0  0  0  0  0  0  0  0  0  0  0
  149.1797  141.0810  155.7835 C   0  0  2  0  0  0  0  0  0  0  0  0
  148.8475  141.4148  154.3132 C   0  0  1  0  0  0  0  0  0  0  0  0
  148.4582  140.1193  153.5777 C   0  0  0  0  0  0  0  0  0  0  0  0
  147.0706  139.8041  154.1685 C   0  0  0  0  0  0  0  0  0  0  0  0
  146.8511  140.9594  155.1655 C   0  0  2  0  0  0  0  0  0  0  0  0
  147.5025  142.1221  154.4277 C   0  0  0  0  0  0  0  0  0  0  0  0
  147.7786  140.7643  156.3904 C   0  0  2  0  0  0  0  0  0  0  0  0
  147.3583  141.6069  157.6162 C   0  0  0  0  0  0  0  0  0  0  0  0
  146.2900  140.9851  158.2991 O   0  0  0  0  0  0  0  0  0  0  0  0
  151.2035  144.0348  160.0350 N   0  0  0  0  0  0  0  0  0  0  0  0
  151.5947  143.7725  161.2957 N   0  0  0  0  0  0  0  0  0  0  0  0
  150.4802  144.7111  159.8357 H   0  0  0  0  0  0  0  0  0  0  0  0
  153.9495  141.5373  162.0983 H   0  0  0  0  0  0  0  0  0  0  0  0
  152.5054  141.8536  163.0543 H   0  0  0  0  0  0  0  0  0  0  0  0
  153.7544  143.0884  162.9079 H   0  0  0  0  0  0  0  0  0  0  0  0
  153.4674  141.8037  159.3770 H   0  0  0  0  0  0  0  0  0  0  0  0
  152.5298  143.6954  157.0955 H   0  0  0  0  0  0  0  0  0  0  0  0
  150.9005  144.2208  157.4456 H   0  0  0  0  0  0  0  0  0  0  0  0
  149.4583  143.1094  156.3239 H   0  0  0  0  0  0  0  0  0  0  0  0
  149.8170  140.1952  155.8196 H   0  0  0  0  0  0  0  0  0  0  0  0
  149.6251  141.9817  153.7994 H   0  0  0  0  0  0  0  0  0  0  0  0
  148.3870  140.2886  152.5025 H   0  0  0  0  0  0  0  0  0  0  0  0
  149.1747  139.3137  153.7415 H   0  0  0  0  0  0  0  0  0  0  0  0
  146.3107  139.8185  153.3862 H   0  0  0  0  0  0  0  0  0  0  0  0
  147.0335  138.8256  154.6489 H   0  0  0  0  0  0  0  0  0  0  0  0
  145.8013  141.1099  155.4185 H   0  0  0  0  0  0  0  0  0  0  0  0
  147.5429  143.0433  155.0104 H   0  0  0  0  0  0  0  0  0  0  0  0
  147.0414  142.3339  153.4613 H   0  0  0  0  0  0  0  0  0  0  0  0
  147.7595  139.7173  156.6975 H   0  0  0  0  0  0  0  0  0  0  0  0
  148.1875  141.7006  158.3178 H   0  0  0  0  0  0  0  0  0  0  0  0
  147.0594  142.6147  157.3274 H   0  0  0  0  0  0  0  0  0  0  0  0
  146.5160  140.0805  158.4526 H   0  0  0  0  0  0  0  0  0  0  0  0
  1 21  1  0  0  0  0
  1 22  1  0  0  0  0
  1 23  1  0  0  0  0
  1  2  1  0  0  0  0
  2 19  2  0  0  0  0
  2  3  1  0  0  0  0
  3  4  2  0  0  0  0
  3 24  1  0  0  0  0
  4 18  1  0  0  0  0
  4  5  1  0  0  0  0
  5  6  1  0  0  0  0
  5 25  1  0  0  0  0
  5 26  1  0  0  0  0
  6  7  2  0  0  0  0
  6  8  1  0  0  0  0
  8  9  1  0  0  0  0
  8 27  1  0  0  0  0
  9 15  1  0  0  0  0
  9 10  1  0  0  0  0
  9 28  1  0  0  0  0
 10 14  1  0  0  0  0
 10 11  1  0  0  0  0
 10 29  1  0  0  0  0
 11 12  1  0  0  0  0
 11 30  1  0  0  0  0
 11 31  1  0  0  0  0
 12 13  1  0  0  0  0
 12 32  1  0  0  0  0
 12 33  1  0  0  0  0
 13 14  1  0  0  0  0
 13 15  1  0  0  0  0
 13 34  1  0  0  0  0
 14 35  1  0  0  0  0
 14 36  1  0  0  0  0
 15 16  1  0  0  0  0
 15 37  1  0  0  0  0
 16 17  1  0  0  0  0
 16 38  1  0  0  0  0
 16 39  1  0  0  0  0
 17 40  1  0  0  0  0
 18 19  1  0  0  0  0
 18 20  1  0  0  0  0
M  END
> <s_m_source_file>
AV-unprocessed.smi

> <i_m_source_file_index>
2881

> <i_lp_mmshare_version>
43012

> <i_f3d_flags>
0

> <s_epik_input>
W0NIM11jMVtjSF1jKG5bbkhdMSlbQ0gyXUMoPU8pW05IXVtDQEhdKFtDQEBIXTIzKVtDQEhdKFtDSDJdW09IXSlbQ0BASF0oW0NIMl0zKVtDSDJdW0NIMl0y

> <s_epik_cmdline>
J2VwaWtfcHl0aG9uJywgJy1waCcsICc3LjAnLCAnLXRuJywgJzgnLCAnLW1hJywgJzIwMCcsICctbWV0YWxfYmluZGluZycsICctaW1hZScsICc8aW5maWxlLm1hZT4nLCAnLW9tYWUnLCAnPG91dGZpbGUubWFlPic=

> <r_lp_tautomer_probability>
0.5

> <r_epik_Ionization_Penalty>
0.00013396

> <r_epik_Ionization_Penalty_Charging>
0

> <r_epik_Ionization_Penalty_Neutral>
0.00013396

> <r_epik_State_Penalty>
0.41068

> <r_epik_Charging_Adjusted_Penalty>
0.41068

> <i_epik_Tot_Q>
0

> <i_epik_Tot_abs_Q>
0

> <r_epik_Metal_State_Penalty>
0.41066

> <b_epik_Metal_Only>
0

> <s_lp_Force_Field>
OPLS_2005

> <r_lp_Energy>
49.1739

> <b_lp_Chiralities_Consistent>
1

> <s_lp_Variant>
AV-unprocessed.smi:2881-13

> <Gold.Version>
5.8.1

> <Gold.Id.Protein>
6NUR|6NUR_protein|mol2

> <Gold.PLP.Fitness>
39.9742

> <Gold.PLP.PLP>
-37.4422

> <Gold.PLP.part.hbond>
-1.7104

> <Gold.PLP.part.metal>
0.0000

> <Gold.PLP.part.buried>
-2.1374

> <Gold.PLP.part.nonpolar>
-33.5496

> <Gold.PLP.part.repulsive>
0.3660

> <Gold.PLP.ligand.clash>
0.0000

> <Gold.PLP.ligand.torsion>
0.2460

> <Gold.PLP.Chemscore.Hbond>
1.0000

> <Gold.PLP.Chemscore.CHOScore>
0.0000

> <Gold.PLP.Chemscore.Metal>
0.0000

> <Gold.Chemscore.Hbonds>
donor molecule, donor type, donor heavy atom, donor atom, acceptor molecule, acceptor atom, score
      L1  H     8    27       P1  8028  1.00

> <Gold.PLP.Chemscore.Internal.Correction>
0.0240

> <Gold.Rescore>
     Score         DG    S(hbond)    S(metal)    S(lipo)     H(rot)  DE(clash)    DE(int)     intcor
     13.01     -14.64       1.00        0.00      99.60       2.28       1.30       0.33       ----

> <Gold.Chemscore.Fitness>
13.0146

> <Gold.Chemscore.DG>
-14.6443

> <Gold.Chemscore.ZeroCoef>
-5.4800

> <Gold.Chemscore.Hbond>
0.9991

> <Gold.Chemscore.Metal>
0.0000

> <Gold.Chemscore.Lipo>
99.5950

> <Gold.Chemscore.Internal_Hbond>
0.0000

> <Gold.Chemscore.DEClash>
1.2965

> <Gold.Chemscore.DEInternal>
0.3333

> <Gold.Chemscore.Rot>
2.2755

> <Gold.Chemscore.Internal.Correction>
   9.000000E+99

> <Gold.Chemscore.Hbonds>
donor molecule, donor type, donor heavy atom, donor atom, acceptor molecule, acceptor atom, score
      L1  H     8    27       P1  8028  1.00

> <Gold.Chemscore.Hbond.Weighted>
-3.3369

> <Gold.Chemscore.Metal.Weighted>
-0.0000

> <Gold.Chemscore.Lipo.Weighted>
-11.6526

> <Gold.Chemscore.Internal_Hbond.Weighted>
0.0000

> <Gold.Chemscore.DEClash.Weighted>
1.2965

> <Gold.Chemscore.DEInternal.Weighted>
0.3333

> <Gold.Chemscore.Rot.Weighted>
5.8252

> <Gold.Chemscore.Internal.Correction.Weighted>
   9.000000E+99

> <Gold.Protein.RotatedTorsions>
[ 6907 6896 6895 6894 ] final -150.50 input  -60.11 | X-H torsion
[ 7974 7965 7964 7962 ] final -131.10 input  175.53 | X-H torsion
[ 8008 7997 7996 7995 ] final  -12.03 input   59.86 | X-H torsion
[ 10167 10162 10161 10158 ] final   10.13 input  -65.29 | X-H torsion
[ 10718 10713 10712 10709 ] final  -62.03 input   66.30 | X-H torsion
[ 10763 10752 10751 10750 ] final  156.54 input  -60.55 | X-H torsion
[ 11005 11000 10999 10996 ] final   15.37 input  -57.11 | X-H torsion

> <Gold.Protein.ActiveResidues>
 VAL166  LYS551  ARG553  GLY616  TRP617  ASP618  TYR619  PRO620  LYS621  CYS622 
 ASP623  PHE694  ASN695  SER759  ASP760  ASP761  ALA762  ILE779  LEU786  VAL792 
 PHE793  MET794  SER795  GLU796  ALA797  LYS798  CYS799  TRP800  GLU811  SER814 

> <Gold.Protein.RotatedAtoms>
  151.1994  133.4619  159.2595 H   0  0  0  0  0  0  0  0  0  0  0  0  # atno 6907 bound_to 6896
  151.1084  135.0012  159.8492 H   0  0  0  0  0  0  0  0  0  0  0  0  # atno 6908 bound_to 6896
  152.5448  134.1915  159.8729 H   0  0  0  0  0  0  0  0  0  0  0  0  # atno 6909 bound_to 6896
  144.9411  140.7240  143.4846 H   0  0  0  0  0  0  0  0  0  0  0  0  # atno 7974 bound_to 7965
  154.5413  140.2287  155.8636 H   0  0  0  0  0  0  0  0  0  0  0  0  # atno 8008 bound_to 7997
  156.1861  140.3088  155.9203 H   0  0  0  0  0  0  0  0  0  0  0  0  # atno 8009 bound_to 7997
  155.3252  140.0442  157.3031 H   0  0  0  0  0  0  0  0  0  0  0  0  # atno 8010 bound_to 7997
  140.6213  143.8198  150.7179 H   0  0  0  0  0  0  0  0  0  0  0  0  # atno 10167 bound_to 10162
  156.0882  130.4204  150.1077 H   0  0  0  0  0  0  0  0  0  0  0  0  # atno 10718 bound_to 10713
  154.1859  135.2797  155.3037 H   0  0  0  0  0  0  0  0  0  0  0  0  # atno 10763 bound_to 10752
  154.5966  135.5543  153.7335 H   0  0  0  0  0  0  0  0  0  0  0  0  # atno 10764 bound_to 10752
  153.0125  135.6381  154.1998 H   0  0  0  0  0  0  0  0  0  0  0  0  # atno 10765 bound_to 10752
  140.4591  134.1146  155.7714 H   0  0  0  0  0  0  0  0  0  0  0  0  # atno 11005 bound_to 11000
  145.2989  139.1857  143.4700 LP  0  0  0  0  0  0  0  0  0  0  0  0  # atno 17320 bound_to 7965
  146.3286  140.2977  142.8619 LP  0  0  0  0  0  0  0  0  0  0  0  0  # atno 17321 bound_to 7965
  140.1789  143.4132  152.1947 LP  0  0  0  0  0  0  0  0  0  0  0  0  # atno 17342 bound_to 10162
  139.5441  144.7283  151.4639 LP  0  0  0  0  0  0  0  0  0  0  0  0  # atno 17343 bound_to 10162
  156.9093  130.9646  151.3565 LP  0  0  0  0  0  0  0  0  0  0  0  0  # atno 17370 bound_to 10713
  157.6023  130.8522  149.8821 LP  0  0  0  0  0  0  0  0  0  0  0  0  # atno 17371 bound_to 10713
  141.1629  133.8758  157.1796 LP  0  0  0  0  0  0  0  0  0  0  0  0  # atno 17394 bound_to 11000
  139.9957  135.0048  157.0076 LP  0  0  0  0  0  0  0  0  0  0  0  0  # atno 17395 bound_to 11000

$$$$
