AV-unprocessed.smi:2451|AV-procd|sdf|9676|dock8
  -GOLD-   2272013313D 1   1.00000     0.00000
 Structure written by MMmdl.
 38 39  0  0  0  0  0  0  0  0  1 V2000
  153.1724  143.3680  162.7823 C   0  0  0  0  0  0  0  0  0  0  0  0
  152.6560  143.0809  161.3614 C   0  0  1  0  0  0  0  0  0  0  0  0
  152.5709  144.3962  160.5610 C   0  0  0  0  0  0  0  0  0  0  0  0
  152.0363  144.1721  159.1410 C   0  0  0  0  0  0  0  0  0  0  0  0
  152.8921  143.1501  158.3799 C   0  0  0  0  0  0  0  0  0  0  0  0
  153.0252  141.8206  159.1493 C   0  0  2  0  0  0  0  0  0  0  0  0
  151.7592  141.0734  159.1266 N   0  0  0  0  0  0  0  0  0  0  0  0
  151.6343  139.6238  158.1966 S   0  0  0  0  0  0  0  0  0  0  0  0
  152.5348  139.7590  157.0416 O   0  0  0  0  0  0  0  0  0  0  0  0
  151.7745  138.4802  159.1115 O   0  0  0  0  0  0  0  0  0  0  0  0
  149.8906  139.6858  157.6067 C   0  0  0  0  0  0  0  0  0  0  0  0
  149.8693  139.7305  156.1057 C   0  0  0  0  0  0  0  0  0  0  0  0
  149.2055  140.6605  155.2581 C   0  0  0  0  0  0  0  0  0  0  0  0
  149.5230  140.2297  154.0022 C   0  0  0  0  0  0  0  0  0  0  0  0
  150.3184  139.1321  154.0634 O   0  0  0  0  0  0  0  0  0  0  0  0
  150.5361  138.8225  155.4106 N   0  0  0  0  0  0  0  0  0  0  0  0
  153.5176  142.0335  160.6041 C   0  0  2  0  0  0  0  0  0  0  0  0
  153.6667  140.6929  161.3515 C   0  0  0  0  0  0  0  0  0  0  0  0
  154.2102  143.7019  162.7680 H   0  0  0  0  0  0  0  0  0  0  0  0
  153.1109  142.4870  163.4206 H   0  0  0  0  0  0  0  0  0  0  0  0
  152.5808  144.1476  163.2631 H   0  0  0  0  0  0  0  0  0  0  0  0
  151.6441  142.6848  161.4585 H   0  0  0  0  0  0  0  0  0  0  0  0
  151.9261  145.1072  161.0792 H   0  0  0  0  0  0  0  0  0  0  0  0
  153.5570  144.8599  160.5073 H   0  0  0  0  0  0  0  0  0  0  0  0
  151.0027  143.8269  159.1872 H   0  0  0  0  0  0  0  0  0  0  0  0
  152.0197  145.1174  158.5978 H   0  0  0  0  0  0  0  0  0  0  0  0
  152.4864  142.9868  157.3813 H   0  0  0  0  0  0  0  0  0  0  0  0
  153.8874  143.5700  158.2292 H   0  0  0  0  0  0  0  0  0  0  0  0
  153.7717  141.2129  158.6366 H   0  0  0  0  0  0  0  0  0  0  0  0
  150.9728  141.6951  158.9402 H   0  0  0  0  0  0  0  0  0  0  0  0
  149.3701  138.8039  157.9793 H   0  0  0  0  0  0  0  0  0  0  0  0
  149.4112  140.5638  158.0407 H   0  0  0  0  0  0  0  0  0  0  0  0
  148.5901  141.5053  155.5293 H   0  0  0  0  0  0  0  0  0  0  0  0
  149.2735  140.5810  153.0119 H   0  0  0  0  0  0  0  0  0  0  0  0
  154.5231  142.4503  160.5268 H   0  0  0  0  0  0  0  0  0  0  0  0
  152.6970  140.2566  161.5922 H   0  0  0  0  0  0  0  0  0  0  0  0
  154.2181  140.8113  162.2840 H   0  0  0  0  0  0  0  0  0  0  0  0
  154.2162  139.9685  160.7496 H   0  0  0  0  0  0  0  0  0  0  0  0
  1  2  1  0  0  0  0
  1 19  1  0  0  0  0
  1 20  1  0  0  0  0
  1 21  1  0  0  0  0
  2 17  1  0  0  0  0
  2  3  1  0  0  0  0
  2 22  1  0  0  0  0
  3  4  1  0  0  0  0
  3 23  1  0  0  0  0
  3 24  1  0  0  0  0
  4  5  1  0  0  0  0
  4 25  1  0  0  0  0
  4 26  1  0  0  0  0
  5  6  1  0  0  0  0
  5 27  1  0  0  0  0
  5 28  1  0  0  0  0
  6  7  1  0  0  0  0
  6 17  1  0  0  0  0
  6 29  1  0  0  0  0
  7  8  1  0  0  0  0
  7 30  1  0  0  0  0
  8  9  2  0  0  0  0
  8 10  2  0  0  0  0
  8 11  1  0  0  0  0
 11 12  1  0  0  0  0
 11 31  1  0  0  0  0
 11 32  1  0  0  0  0
 12 16  2  0  0  0  0
 12 13  1  0  0  0  0
 13 14  2  0  0  0  0
 13 33  1  0  0  0  0
 14 15  1  0  0  0  0
 14 34  1  0  0  0  0
 15 16  1  0  0  0  0
 17 18  1  0  0  0  0
 17 35  1  0  0  0  0
 18 36  1  0  0  0  0
 18 37  1  0  0  0  0
 18 38  1  0  0  0  0
M  END
> <s_m_source_file>
AV-unprocessed.smi

> <i_m_source_file_index>
2451

> <i_lp_mmshare_version>
43012

> <i_f3d_flags>
0

> <s_epik_input>
W0NIM11bQ0BASF0xW0NIMl1bQ0gyXVtDSDJdW0NASF0oW0NASF0xW0NIM10pW05IXVMoPU8pKD1PKVtDSDJdYzJbY0hdW2NIXW9uMg==

> <s_epik_cmdline>
J2VwaWtfcHl0aG9uJywgJy1waCcsICc3LjAnLCAnLXRuJywgJzgnLCAnLW1hJywgJzIwMCcsICctbWV0YWxfYmluZGluZycsICctaW1hZScsICc8aW5maWxlLm1hZT4nLCAnLW9tYWUnLCAnPG91dGZpbGUubWFlPic=

> <r_lp_tautomer_probability>
1

> <r_epik_Ionization_Penalty>
8.73668e-05

> <r_epik_Ionization_Penalty_Charging>
0

> <r_epik_Ionization_Penalty_Neutral>
8.73668e-05

> <r_epik_State_Penalty>
-0

> <r_epik_Charging_Adjusted_Penalty>
0

> <i_epik_Tot_Q>
0

> <i_epik_Tot_abs_Q>
0

> <r_epik_Metal_State_Penalty>
0.0716439

> <b_epik_Metal_Only>
0

> <s_lp_Force_Field>
OPLS_2005

> <r_lp_Energy>
8.50206

> <b_lp_Chiralities_Consistent>
1

> <s_lp_Variant>
AV-unprocessed.smi:2451-8

> <Gold.Version>
5.8.1

> <Gold.Id.Protein>
6NUR|6NUR_protein|mol2

> <Gold.PLP.Fitness>
44.4974

> <Gold.PLP.PLP>
-39.6199

> <Gold.PLP.part.hbond>
-2.0000

> <Gold.PLP.part.metal>
0.0000

> <Gold.PLP.part.buried>
-2.8072

> <Gold.PLP.part.nonpolar>
-34.3876

> <Gold.PLP.part.repulsive>
0.9951

> <Gold.PLP.ligand.clash>
0.0000

> <Gold.PLP.ligand.torsion>
1.3109

> <Gold.PLP.Chemscore.Hbond>
1.7160

> <Gold.PLP.Chemscore.CHOScore>
0.7339

> <Gold.PLP.Chemscore.Metal>
0.0000

> <Gold.Chemscore.Hbonds>
donor molecule, donor type, donor heavy atom, donor atom, acceptor molecule, acceptor atom, score
      P1  H  7997  8010       L1     9  1.00
      L1  C    14    34       P1  7957  0.81

> <Gold.PLP.Chemscore.Internal.Correction>
0.1496

> <Gold.Rescore>
     Score         DG    S(hbond)    S(metal)    S(lipo)     H(rot)  DE(clash)    DE(int)     intcor
     15.37     -17.84       1.00        0.00     113.44       1.66       0.20       2.28       ----

> <Gold.Chemscore.Fitness>
15.3731

> <Gold.Chemscore.DG>
-17.8446

> <Gold.Chemscore.ZeroCoef>
-5.4800

> <Gold.Chemscore.Hbond>
0.9994

> <Gold.Chemscore.Metal>
0.0000

> <Gold.Chemscore.Lipo>
113.4447

> <Gold.Chemscore.Internal_Hbond>
0.0000

> <Gold.Chemscore.DEClash>
0.1961

> <Gold.Chemscore.DEInternal>
2.2755

> <Gold.Chemscore.Rot>
1.6588

> <Gold.Chemscore.Internal.Correction>
   9.000000E+99

> <Gold.Chemscore.Hbonds>
donor molecule, donor type, donor heavy atom, donor atom, acceptor molecule, acceptor atom, score
      P1  H  7997  8010       L1     9  0.95

> <Gold.Chemscore.Hbond.Weighted>
-3.3381

> <Gold.Chemscore.Metal.Weighted>
-0.0000

> <Gold.Chemscore.Lipo.Weighted>
-13.2730

> <Gold.Chemscore.Internal_Hbond.Weighted>
0.0000

> <Gold.Chemscore.DEClash.Weighted>
0.1961

> <Gold.Chemscore.DEInternal.Weighted>
2.2755

> <Gold.Chemscore.Rot.Weighted>
4.2466

> <Gold.Chemscore.Internal.Correction.Weighted>
   9.000000E+99

> <Gold.Protein.RotatedTorsions>
[ 6907 6896 6895 6894 ] final  -30.89 input  -60.11 | X-H torsion
[ 7974 7965 7964 7962 ] final   91.66 input  175.53 | X-H torsion
[ 8008 7997 7996 7995 ] final   45.90 input   59.86 | X-H torsion
[ 10167 10162 10161 10158 ] final  -88.90 input  -65.29 | X-H torsion
[ 10718 10713 10712 10709 ] final  -89.55 input   66.30 | X-H torsion
[ 10763 10752 10751 10750 ] final  120.93 input  -60.55 | X-H torsion
[ 11005 11000 10999 10996 ] final  -18.04 input  -57.11 | X-H torsion

> <Gold.Protein.ActiveResidues>
 VAL166  LYS551  ARG553  GLY616  TRP617  ASP618  TYR619  PRO620  LYS621  CYS622 
 ASP623  PHE694  ASN695  SER759  ASP760  ASP761  ALA762  ILE779  LEU786  VAL792 
 PHE793  MET794  SER795  GLU796  ALA797  LYS798  CYS799  TRP800  GLU811  SER814 

> <Gold.Protein.RotatedAtoms>
  151.0994  134.9963  159.8440 H   0  0  0  0  0  0  0  0  0  0  0  0  # atno 6907 bound_to 6896
  152.5436  134.1969  159.8706 H   0  0  0  0  0  0  0  0  0  0  0  0  # atno 6908 bound_to 6896
  151.2010  133.4566  159.2629 H   0  0  0  0  0  0  0  0  0  0  0  0  # atno 6909 bound_to 6896
  145.5027  139.2276  143.2768 H   0  0  0  0  0  0  0  0  0  0  0  0  # atno 7974 bound_to 7965
  155.3436  140.3409  155.4239 H   0  0  0  0  0  0  0  0  0  0  0  0  # atno 8008 bound_to 7997
  156.1800  140.1661  156.8327 H   0  0  0  0  0  0  0  0  0  0  0  0  # atno 8009 bound_to 7997
  154.5324  140.0742  156.8350 H   0  0  0  0  0  0  0  0  0  0  0  0  # atno 8010 bound_to 7997
  140.3701  143.2798  151.9510 H   0  0  0  0  0  0  0  0  0  0  0  0  # atno 10167 bound_to 10162
  155.9985  130.4876  150.5189 H   0  0  0  0  0  0  0  0  0  0  0  0  # atno 10718 bound_to 10713
  153.6062  135.3439  155.2963 H   0  0  0  0  0  0  0  0  0  0  0  0  # atno 10763 bound_to 10752
  154.8627  135.4239  154.2359 H   0  0  0  0  0  0  0  0  0  0  0  0  # atno 10764 bound_to 10752
  153.3199  135.7037  153.7112 H   0  0  0  0  0  0  0  0  0  0  0  0  # atno 10765 bound_to 10752
  140.8228  133.8055  155.9677 H   0  0  0  0  0  0  0  0  0  0  0  0  # atno 11005 bound_to 11000
  146.2216  140.5829  142.9015 LP  0  0  0  0  0  0  0  0  0  0  0  0  # atno 17320 bound_to 7965
  144.7771  140.5762  143.6631 LP  0  0  0  0  0  0  0  0  0  0  0  0  # atno 17321 bound_to 7965
  139.4804  144.5914  151.7764 LP  0  0  0  0  0  0  0  0  0  0  0  0  # atno 17342 bound_to 10162
  140.5042  144.1124  150.5978 LP  0  0  0  0  0  0  0  0  0  0  0  0  # atno 17343 bound_to 10162
  157.3152  131.0671  151.1972 LP  0  0  0  0  0  0  0  0  0  0  0  0  # atno 17370 bound_to 10713
  157.2904  130.6793  149.6111 LP  0  0  0  0  0  0  0  0  0  0  0  0  # atno 17371 bound_to 10713
  140.9080  134.2295  157.5002 LP  0  0  0  0  0  0  0  0  0  0  0  0  # atno 17394 bound_to 11000
  139.8708  134.9737  156.4820 LP  0  0  0  0  0  0  0  0  0  0  0  0  # atno 17395 bound_to 11000

$$$$
