AV-unprocessed.smi:97|AV-procd|sdf|861|dock5
  -GOLD-   2262017303D 1   1.00000     0.00000
 Structure written by MMmdl.
 46 49  0  0  0  0  0  0  0  0  1 V2000
  151.2806  136.6721  154.7632 O   0  0  0  0  0  0  0  0  0  0  0  0
  150.8497  137.7417  155.1975 C   0  0  0  0  0  0  0  0  0  0  0  0
  151.7379  138.9941  155.2460 C   0  0  0  0  0  0  0  0  0  0  0  0
  151.8735  139.5654  156.6039 N   0  0  0  0  0  0  0  0  0  0  0  0
  152.5239  138.7937  157.5990 C   0  0  0  0  0  0  0  0  0  0  0  0
  152.9494  137.6637  157.3541 O   0  0  0  0  0  0  0  0  0  0  0  0
  152.6589  139.4328  158.9029 C   0  0  0  0  0  0  0  0  0  0  0  0
  153.2768  138.7822  159.9033 F   0  0  0  0  0  0  0  0  0  0  0  0
  152.1755  140.6730  159.1211 C   0  0  0  0  0  0  0  0  0  0  0  0
  151.5233  141.4060  158.1491 N   0  0  0  0  0  0  0  0  0  0  0  0
  151.0590  142.8080  158.4696 C   0  0  2  0  0  0  0  0  0  0  0  0
  151.7669  143.8968  157.6412 C   0  0  0  0  0  0  0  0  0  0  0  0
  152.4011  144.7762  158.7064 C   0  0  0  0  0  0  0  0  0  0  0  0
  151.5778  144.4528  159.9481 C   0  0  0  0  0  0  0  0  0  0  0  0
  151.3158  143.0644  159.8158 O   0  0  0  0  0  0  0  0  0  0  0  0
  151.3868  140.8723  156.8466 C   0  0  0  0  0  0  0  0  0  0  0  0
  150.8657  141.5285  155.9435 O   0  0  0  0  0  0  0  0  0  0  0  0
  149.5981  137.8952  155.6544 N   0  0  0  0  0  0  0  0  0  0  0  0
  148.6064  136.8282  155.7395 C   0  0  0  0  0  0  0  0  0  0  0  0
  148.3786  136.3070  157.1521 C   0  0  0  0  0  0  0  0  0  0  0  0
  148.3991  134.9073  157.3886 C   0  0  0  0  0  0  0  0  0  0  0  0
  148.1909  134.3869  158.6862 C   0  0  0  0  0  0  0  0  0  0  0  0
  147.9596  135.2996  159.7279 C   0  0  0  0  0  0  0  0  0  0  0  0
  147.9323  136.6603  159.5044 C   0  0  0  0  0  0  0  0  0  0  0  0
  148.1352  137.2020  158.2251 C   0  0  0  0  0  0  0  0  0  0  0  0
  147.6895  137.3083  160.6719 O   0  0  0  0  0  0  0  0  0  0  0  0
  147.5657  136.3067  161.6483 C   0  0  0  0  0  0  0  0  0  0  0  0
  147.7351  135.0505  161.0432 O   0  0  0  0  0  0  0  0  0  0  0  0
  152.7099  138.7415  154.8197 H   0  0  0  0  0  0  0  0  0  0  0  0
  151.3335  139.7383  154.5575 H   0  0  0  0  0  0  0  0  0  0  0  0
  152.3067  141.1030  160.1032 H   0  0  0  0  0  0  0  0  0  0  0  0
  149.9808  142.8134  158.3030 H   0  0  0  0  0  0  0  0  0  0  0  0
  152.4930  143.4850  156.9398 H   0  0  0  0  0  0  0  0  0  0  0  0
  151.0140  144.4466  157.0758 H   0  0  0  0  0  0  0  0  0  0  0  0
  153.4403  144.4863  158.8639 H   0  0  0  0  0  0  0  0  0  0  0  0
  152.3827  145.8357  158.4501 H   0  0  0  0  0  0  0  0  0  0  0  0
  152.1067  144.6753  160.8750 H   0  0  0  0  0  0  0  0  0  0  0  0
  150.6363  145.0046  159.9455 H   0  0  0  0  0  0  0  0  0  0  0  0
  149.3201  138.8067  155.9881 H   0  0  0  0  0  0  0  0  0  0  0  0
  147.6596  137.2128  155.3602 H   0  0  0  0  0  0  0  0  0  0  0  0
  148.8931  136.0083  155.0785 H   0  0  0  0  0  0  0  0  0  0  0  0
  148.5798  134.2255  156.5705 H   0  0  0  0  0  0  0  0  0  0  0  0
  148.2091  133.3230  158.8708 H   0  0  0  0  0  0  0  0  0  0  0  0
  148.1060  138.2711  158.0749 H   0  0  0  0  0  0  0  0  0  0  0  0
  148.3273  136.4486  162.4156 H   0  0  0  0  0  0  0  0  0  0  0  0
  146.5771  136.3623  162.1051 H   0  0  0  0  0  0  0  0  0  0  0  0
  1  2  2  0  0  0  0
  2  3  1  0  0  0  0
  2 18  1  0  0  0  0
  3  4  1  0  0  0  0
  3 29  1  0  0  0  0
  3 30  1  0  0  0  0
  4 16  1  0  0  0  0
  4  5  1  0  0  0  0
  5  6  2  0  0  0  0
  5  7  1  0  0  0  0
  7  8  1  0  0  0  0
  7  9  2  0  0  0  0
  9 10  1  0  0  0  0
  9 31  1  0  0  0  0
 10 11  1  0  0  0  0
 10 16  1  0  0  0  0
 11 15  1  0  0  0  0
 11 12  1  0  0  0  0
 11 32  1  0  0  0  0
 12 13  1  0  0  0  0
 12 33  1  0  0  0  0
 12 34  1  0  0  0  0
 13 14  1  0  0  0  0
 13 35  1  0  0  0  0
 13 36  1  0  0  0  0
 14 15  1  0  0  0  0
 14 37  1  0  0  0  0
 14 38  1  0  0  0  0
 16 17  2  0  0  0  0
 18 19  1  0  0  0  0
 18 39  1  0  0  0  0
 19 20  1  0  0  0  0
 19 40  1  0  0  0  0
 19 41  1  0  0  0  0
 20 25  1  0  0  0  0
 20 21  2  0  0  0  0
 21 22  1  0  0  0  0
 21 42  1  0  0  0  0
 22 23  2  0  0  0  0
 22 43  1  0  0  0  0
 23 28  1  0  0  0  0
 23 24  1  0  0  0  0
 24 25  2  0  0  0  0
 24 26  1  0  0  0  0
 25 44  1  0  0  0  0
 26 27  1  0  0  0  0
 27 28  1  0  0  0  0
 27 45  1  0  0  0  0
 27 46  1  0  0  0  0
M  END
> <s_m_source_file>
AV-unprocessed.smi

> <i_m_source_file_index>
97

> <i_lp_mmshare_version>
43012

> <i_f3d_flags>
0

> <s_epik_input>
TzFbQ0gyXU9jKGMxMilbY0hdYyhbY0hdW2NIXTIpW0NIMl1bTkhdQyg9TylbQ0gyXW4zYyg9TyljKEYpW2NIXW4oYzM9TylbQ0BASF00W0NIMl1bQ0gyXVtDSDJdTzQ=

> <s_epik_cmdline>
J2VwaWtfcHl0aG9uJywgJy1waCcsICc3LjAnLCAnLXRuJywgJzgnLCAnLW1hJywgJzIwMCcsICctbWV0YWxfYmluZGluZycsICctaW1hZScsICc8aW5maWxlLm1hZT4nLCAnLW9tYWUnLCAnPG91dGZpbGUubWFlPic=

> <r_lp_tautomer_probability>
1

> <r_epik_Ionization_Penalty>
3.79042e-08

> <r_epik_Ionization_Penalty_Charging>
3.81036e-09

> <r_epik_Ionization_Penalty_Neutral>
3.40938e-08

> <r_epik_State_Penalty>
-0

> <r_epik_Charging_Adjusted_Penalty>
3.81036e-09

> <i_epik_Tot_Q>
0

> <i_epik_Tot_abs_Q>
0

> <r_epik_Metal_State_Penalty>
-0

> <b_epik_Metal_Only>
0

> <s_epik_Chemistry_Notes>
This compound contains an acetal/aminal-like group ( X-CH(R)-Y where X, Y are N, S, or O) that may be acid/base labile, releasing an aldehyde.

> <s_lp_Force_Field>
OPLS_2005

> <r_lp_Energy>
33.0069

> <b_lp_Chiralities_Consistent>
1

> <s_lp_Variant>
AV-unprocessed.smi:97-1

> <Gold.Version>
5.8.1

> <Gold.Id.Protein>
6NUR|6NUR_protein|mol2

> <Gold.PLP.Fitness>
51.2902

> <Gold.PLP.PLP>
-44.7598

> <Gold.PLP.part.hbond>
-3.4282

> <Gold.PLP.part.metal>
0.0000

> <Gold.PLP.part.buried>
-7.4243

> <Gold.PLP.part.nonpolar>
-35.3457

> <Gold.PLP.part.repulsive>
0.2337

> <Gold.PLP.ligand.clash>
0.0000

> <Gold.PLP.ligand.torsion>
0.2516

> <Gold.PLP.Chemscore.Hbond>
2.3288

> <Gold.PLP.Chemscore.CHOScore>
0.0000

> <Gold.PLP.Chemscore.Metal>
0.0000

> <Gold.Chemscore.Hbonds>
donor molecule, donor type, donor heavy atom, donor atom, acceptor molecule, acceptor atom, score
      P1  H  6931  6943       L1    26  0.32
      P1  H  6934  6947       L1    26  0.91
      P1  H 10752 10764       L1     1  1.00

> <Gold.PLP.Chemscore.Internal.Correction>
0.0472

> <Gold.Rescore>
     Score         DG    S(hbond)    S(metal)    S(lipo)     H(rot)  DE(clash)    DE(int)     intcor
     13.93     -14.18       1.98        0.00      74.34       2.58       0.00       0.25       ----

> <Gold.Chemscore.Fitness>
13.9318

> <Gold.Chemscore.DG>
-14.1796

> <Gold.Chemscore.ZeroCoef>
-5.4800

> <Gold.Chemscore.Hbond>
1.9782

> <Gold.Chemscore.Metal>
0.0000

> <Gold.Chemscore.Lipo>
74.3375

> <Gold.Chemscore.Internal_Hbond>
0.0000

> <Gold.Chemscore.DEClash>
0.0021

> <Gold.Chemscore.DEInternal>
0.2457

> <Gold.Chemscore.Rot>
2.5801

> <Gold.Chemscore.Internal.Correction>
   9.000000E+99

> <Gold.Chemscore.Hbonds>
donor molecule, donor type, donor heavy atom, donor atom, acceptor molecule, acceptor atom, score
      P1  H  6931  6943       L1    26  0.01
      P1  H  6934  6947       L1    26  0.88
      P1  H 10752 10764       L1     1  0.97

> <Gold.Chemscore.Hbond.Weighted>
-6.6072

> <Gold.Chemscore.Metal.Weighted>
-0.0000

> <Gold.Chemscore.Lipo.Weighted>
-8.6975

> <Gold.Chemscore.Internal_Hbond.Weighted>
0.0000

> <Gold.Chemscore.DEClash.Weighted>
0.0021

> <Gold.Chemscore.DEInternal.Weighted>
0.2457

> <Gold.Chemscore.Rot.Weighted>
6.6050

> <Gold.Chemscore.Internal.Correction.Weighted>
   9.000000E+99

> <Gold.Protein.RotatedTorsions>
[ 6907 6896 6895 6894 ] final   58.50 input  -60.11 | X-H torsion
[ 7974 7965 7964 7962 ] final -116.52 input  175.53 | X-H torsion
[ 8008 7997 7996 7995 ] final   95.65 input   59.86 | X-H torsion
[ 10167 10162 10161 10158 ] final   17.46 input  -65.29 | X-H torsion
[ 10718 10713 10712 10709 ] final  124.06 input   66.30 | X-H torsion
[ 10763 10752 10751 10750 ] final  -57.83 input  -60.55 | X-H torsion
[ 11005 11000 10999 10996 ] final  -59.67 input  -57.11 | X-H torsion

> <Gold.Protein.ActiveResidues>
 VAL166  LYS551  ARG553  GLY616  TRP617  ASP618  TYR619  PRO620  LYS621  CYS622 
 ASP623  PHE694  ASN695  SER759  ASP760  ASP761  ALA762  ILE779  LEU786  VAL792 
 PHE793  MET794  SER795  GLU796  ALA797  LYS798  CYS799  TRP800  GLU811  SER814 

> <Gold.Protein.RotatedAtoms>
  152.3829  134.6562  160.0135 H   0  0  0  0  0  0  0  0  0  0  0  0  # atno 6907 bound_to 6896
  151.6819  133.3306  159.3229 H   0  0  0  0  0  0  0  0  0  0  0  0  # atno 6908 bound_to 6896
  150.7762  134.6709  159.6436 H   0  0  0  0  0  0  0  0  0  0  0  0  # atno 6909 bound_to 6896
  145.0958  140.8519  143.3956 H   0  0  0  0  0  0  0  0  0  0  0  0  # atno 7974 bound_to 7965
  156.0712  140.3283  155.7578 H   0  0  0  0  0  0  0  0  0  0  0  0  # atno 8008 bound_to 7997
  155.5302  140.0592  157.2907 H   0  0  0  0  0  0  0  0  0  0  0  0  # atno 8009 bound_to 7997
  154.4531  140.1928  156.0477 H   0  0  0  0  0  0  0  0  0  0  0  0  # atno 8010 bound_to 7997
  140.5724  143.9136  150.6723 H   0  0  0  0  0  0  0  0  0  0  0  0  # atno 10167 bound_to 10162
  157.5615  131.1089  150.8529 H   0  0  0  0  0  0  0  0  0  0  0  0  # atno 10718 bound_to 10713
  154.2285  135.6365  153.5167 H   0  0  0  0  0  0  0  0  0  0  0  0  # atno 10763 bound_to 10752
  152.9954  135.5514  154.6038 H   0  0  0  0  0  0  0  0  0  0  0  0  # atno 10764 bound_to 10752
  154.5515  135.2902  155.0978 H   0  0  0  0  0  0  0  0  0  0  0  0  # atno 10765 bound_to 10752
  141.1257  133.6617  156.5107 H   0  0  0  0  0  0  0  0  0  0  0  0  # atno 11005 bound_to 11000
  145.1013  139.2820  143.5685 LP  0  0  0  0  0  0  0  0  0  0  0  0  # atno 17320 bound_to 7965
  146.3531  140.0581  142.8631 LP  0  0  0  0  0  0  0  0  0  0  0  0  # atno 17321 bound_to 7965
  140.2614  143.3521  152.1319 LP  0  0  0  0  0  0  0  0  0  0  0  0  # atno 17342 bound_to 10162
  139.5124  144.6917  151.5742 LP  0  0  0  0  0  0  0  0  0  0  0  0  # atno 17343 bound_to 10162
  156.9026  130.5252  149.5282 LP  0  0  0  0  0  0  0  0  0  0  0  0  # atno 17370 bound_to 10713
  156.0667  130.5709  150.9303 LP  0  0  0  0  0  0  0  0  0  0  0  0  # atno 17371 bound_to 10713
  140.4371  134.7049  157.4972 LP  0  0  0  0  0  0  0  0  0  0  0  0  # atno 17394 bound_to 11000
  140.0254  134.6485  155.9180 LP  0  0  0  0  0  0  0  0  0  0  0  0  # atno 17395 bound_to 11000

$$$$
