#       Name:                AV-unprocessed.smi:1571
#       Creating user name   scv26
#       Creation time:       Fri Mar 27 06:53:42 2020


#       File generated by GOLD software.
#

@<TRIPOS>MOLECULE
AV-unprocessed.smi:1571
    42    43     1
SMALL
NO_CHARGES


@<TRIPOS>ATOM
      1 ****        -3.2469   2.5727  -1.7571 C.3            1 S1                 0.0000
      2 ****        -3.6035   1.1138  -1.7680 C.2            1 S1                 0.0000
      3 ****        -4.8785   0.7640  -1.7700 N.2            1 S1                 0.0000
      4 ****        -4.8927  -0.6337  -1.7739 O.3            1 S1                 0.0000
      5 ****        -3.6103  -1.0767  -1.7752 C.2            1 S1                 0.0000
      6 ****        -3.4203  -2.5559  -1.7726 C.3            1 S1                 0.0000
      7 ****        -2.7402  -0.0205  -1.7745 C.2            1 S1                 0.0000
      8 ****        -1.2304  -0.0445  -1.7747 C.3            1 S1                 0.0000
      9 ****        -0.6567  -0.0249  -0.3522 C.2            1 S1                 0.0000
     10 ****        -1.3943  -0.0265   0.6347 O.2            1 S1                 0.0000
     11 ****         0.6829  -0.0099  -0.2718 N.am           1 S1                 0.0000
     12 ****         1.4742  -0.0030   0.9562 C.3            1 S1                 0.0000
     13 ****         2.3197   1.2841   1.0105 C.3            1 S1                 0.0000
     14 ****         3.1134   1.4230   2.3173 C.3            1 S1                 0.0000
     15 ****         4.2682   0.0064   2.5311 S.o2           1 S1                 0.0000
     16 ****         5.1977   0.0037   1.3909 O.2            1 S1                 0.0000
     17 ****         4.7848   0.0121   3.9079 O.2            1 S1                 0.0000
     18 ****         3.1175  -1.4148   2.3275 C.3            1 S1                 0.0000
     19 ****         2.3234  -1.2874   1.0202 C.3            1 S1                 0.0000
     20 ****        -2.1682   2.7225  -1.7203 H              1 S1                 0.0000
     21 ****        -3.6770   3.0739  -0.8898 H              1 S1                 0.0000
     22 ****        -3.6202   3.0738  -2.6505 H              1 S1                 0.0000
     23 ****        -2.3626  -2.8176  -1.7531 H              1 S1                 0.0000
     24 ****        -3.8626  -3.0033  -2.6628 H              1 S1                 0.0000
     25 ****        -3.8923  -3.0029  -0.8977 H              1 S1                 0.0000
     26 ****        -0.8551  -0.9336  -2.2822 H              1 S1                 0.0000
     27 ****        -0.8251   0.8057  -2.3240 H              1 S1                 0.0000
     28 ****         1.2009  -0.0089  -1.1387 H              1 S1                 0.0000
     29 ****         0.8093  -0.0004   1.8218 H              1 S1                 0.0000
     30 ****         3.0054   1.3145   0.1627 H              1 S1                 0.0000
     31 ****         1.6669   2.1515   0.9052 H              1 S1                 0.0000
     32 ****         3.6974   2.3432   2.3246 H              1 S1                 0.0000
     33 ****         2.4429   1.4495   3.1763 H              1 S1                 0.0000
     34 ****         3.7042  -2.3334   2.3409 H              1 S1                 0.0000
     35 ****         2.4474  -1.4376   3.1871 H              1 S1                 0.0000
     36 ****         1.6731  -2.1573   0.9210 H              1 S1                 0.0000
     37 ****         3.0090  -1.3220   0.1724 H              1 S1                 0.0000
     38 ****        -5.6706   1.3744  -1.7689 LP             1 S1                 0.0000
     39 ****        -5.3647  -0.9641  -2.5913 LP             1 S1                 0.0000
     40 ****        -5.3646  -0.9686  -0.9583 LP             1 S1                 0.0000
     41 ****        -2.3873  -0.0408   0.5168 LP             1 S1                 0.0000
     42 ****        -1.0001  -0.0135   1.5536 LP             1 S1                 0.0000
@<TRIPOS>BOND
    1    1    2 1     
    2    1   20 1     
    3    1   21 1     
    4    1   22 1     
    5    2    7 1     
    6    2    3 2     
    7    3    4 1     
    8    4    5 1     
    9    5    6 1     
   10    5    7 2     
   11    6   23 1     
   12    6   24 1     
   13    6   25 1     
   14    7    8 1     
   15    8    9 1     
   16    8   26 1     
   17    8   27 1     
   18    9   10 2     
   19    9   11 am    
   20   11   12 1     
   21   11   28 1     
   22   12   19 1     
   23   12   13 1     
   24   12   29 1     
   25   13   14 1     
   26   13   30 1     
   27   13   31 1     
   28   14   15 1     
   29   14   32 1     
   30   14   33 1     
   31   15   16 2     
   32   15   17 2     
   33   15   18 1     
   34   18   19 1     
   35   18   34 1     
   36   18   35 1     
   37   19   36 1     
   38   19   37 1     
   39    3   38 1     
   40    4   39 1     
   41    4   40 1     
   42   10   41 1     
   43   10   42 1     
@<TRIPOS>SUBSTRUCTURE
      1 S1             1
@<TRIPOS>SET
LONE_PAIRS      STATIC     ATOMS    <user>   **** ""
7 38 39 40 41 42 16 17
DONOR_HYDROGENS      STATIC     ATOMS    <user>   **** ""
1 28
ATOM$BLUE        STATIC     ATOMS    COLORGROUP SYSTEM
7 38 39 40 41 42 16 17
ATOM$RED        STATIC     ATOMS    COLORGROUP SYSTEM
1 28
