AV-unprocessed.smi:283|AV-procd|sdf|2147|dock5
  -GOLD-   2262021483D 1   1.00000     0.00000
 Structure written by MMmdl.
 48 51  0  0  0  0  0  0  0  0  1 V2000
  152.0194  140.6243  155.7590 C   0  0  0  0  0  0  0  0  0  0  0  0
  150.9163  141.2139  156.6478 C   0  0  2  0  0  0  0  0  0  0  0  0
  149.9391  141.9224  155.8218 N   0  0  0  0  0  0  0  0  0  0  0  0
  149.1202  141.2323  154.9978 C   0  0  0  0  0  0  0  0  0  0  0  0
  148.1271  141.9460  154.4160 N   0  0  0  0  0  0  0  0  0  0  0  0
  147.2405  141.3364  153.6242 C   0  0  0  0  0  0  0  0  0  0  0  0
  147.1640  140.0452  153.2970 N   0  0  0  0  0  0  0  0  0  0  0  0
  148.1690  139.3212  153.8697 C   0  0  0  0  0  0  0  0  0  0  0  0
  149.1966  139.8390  154.7078 C   0  0  0  0  0  0  0  0  0  0  0  0
  150.0685  138.8136  155.0509 N   0  0  0  0  0  0  0  0  0  0  0  0
  149.5704  137.7577  154.4702 C   0  0  0  0  0  0  0  0  0  0  0  0
  148.3916  137.9614  153.7853 N   0  0  0  0  0  0  0  0  0  0  0  0
  147.5648  136.9678  153.0232 C   0  0  1  0  0  0  0  0  0  0  0  0
  146.9036  136.1483  153.9451 O   0  0  0  0  0  0  0  0  0  0  0  0
  145.5485  136.5594  154.1056 C   0  0  1  0  0  0  0  0  0  0  0  0
  145.4379  137.6165  155.2292 C   0  0  0  0  0  0  0  0  0  0  0  0
  145.8932  137.0928  156.4595 O   0  0  0  0  0  0  0  0  0  0  0  0
  145.1863  137.0301  152.6906 C   0  0  1  0  0  0  0  0  0  0  0  0
  144.1090  137.9464  152.6703 O   0  0  0  0  0  0  0  0  0  0  0  0
  146.4747  137.6675  152.1818 C   0  0  2  0  0  0  0  0  0  0  0  0
  146.6288  137.4027  150.8015 O   0  0  0  0  0  0  0  0  0  0  0  0
  151.5306  142.0502  157.7760 C   0  0  0  0  0  0  0  0  0  0  0  0
  151.3280  143.4500  157.8044 C   0  0  0  0  0  0  0  0  0  0  0  0
  151.8638  144.2332  158.8436 C   0  0  0  0  0  0  0  0  0  0  0  0
  152.6200  143.6265  159.8621 C   0  0  0  0  0  0  0  0  0  0  0  0
  152.8457  142.2382  159.8339 C   0  0  0  0  0  0  0  0  0  0  0  0
  152.3109  141.4487  158.7960 C   0  0  0  0  0  0  0  0  0  0  0  0
  152.6346  139.7501  158.8077 Cl  0  0  0  0  0  0  0  0  0  0  0  0
  148.2947  136.4007  152.4440 H   0  0  0  0  0  0  0  0  0  0  0  0
  144.9595  135.6844  154.3841 H   0  0  0  0  0  0  0  0  0  0  0  0
  144.9283  136.1564  152.0893 H   0  0  0  0  0  0  0  0  0  0  0  0
  146.4771  138.7422  152.3704 H   0  0  0  0  0  0  0  0  0  0  0  0
  152.7112  140.0185  156.3450 H   0  0  0  0  0  0  0  0  0  0  0  0
  152.5971  141.4085  155.2686 H   0  0  0  0  0  0  0  0  0  0  0  0
  151.5993  139.9839  154.9827 H   0  0  0  0  0  0  0  0  0  0  0  0
  150.3817  140.3710  157.0814 H   0  0  0  0  0  0  0  0  0  0  0  0
  149.6910  142.8393  156.1636 H   0  0  0  0  0  0  0  0  0  0  0  0
  146.4759  141.9715  153.2017 H   0  0  0  0  0  0  0  0  0  0  0  0
  150.0510  136.7933  154.5434 H   0  0  0  0  0  0  0  0  0  0  0  0
  146.0716  138.4721  154.9973 H   0  0  0  0  0  0  0  0  0  0  0  0
  144.4191  137.9895  155.3390 H   0  0  0  0  0  0  0  0  0  0  0  0
  145.6184  137.6735  157.1527 H   0  0  0  0  0  0  0  0  0  0  0  0
  143.8282  138.0593  151.7749 H   0  0  0  0  0  0  0  0  0  0  0  0
  145.8544  137.7002  150.3493 H   0  0  0  0  0  0  0  0  0  0  0  0
  150.7494  143.9321  157.0300 H   0  0  0  0  0  0  0  0  0  0  0  0
  151.6934  145.2995  158.8590 H   0  0  0  0  0  0  0  0  0  0  0  0
  153.0313  144.2258  160.6609 H   0  0  0  0  0  0  0  0  0  0  0  0
  153.4343  141.7768  160.6132 H   0  0  0  0  0  0  0  0  0  0  0  0
  1  2  1  0  0  0  0
  1 33  1  0  0  0  0
  1 34  1  0  0  0  0
  1 35  1  0  0  0  0
  2  3  1  0  0  0  0
  2 22  1  0  0  0  0
  2 36  1  0  0  0  0
  3  4  1  0  0  0  0
  3 37  1  0  0  0  0
  4  9  1  0  0  0  0
  4  5  2  0  0  0  0
  5  6  1  0  0  0  0
  6  7  2  0  0  0  0
  6 38  1  0  0  0  0
  7  8  1  0  0  0  0
  8 12  1  0  0  0  0
  8  9  2  0  0  0  0
  9 10  1  0  0  0  0
 10 11  2  0  0  0  0
 11 12  1  0  0  0  0
 11 39  1  0  0  0  0
 12 13  1  0  0  0  0
 13 29  1  0  0  0  0
 13 20  1  0  0  0  0
 13 14  1  0  0  0  0
 14 15  1  0  0  0  0
 15 30  1  0  0  0  0
 15 16  1  0  0  0  0
 15 18  1  0  0  0  0
 16 17  1  0  0  0  0
 16 40  1  0  0  0  0
 16 41  1  0  0  0  0
 17 42  1  0  0  0  0
 18 31  1  0  0  0  0
 18 19  1  0  0  0  0
 18 20  1  0  0  0  0
 19 43  1  0  0  0  0
 20 32  1  0  0  0  0
 20 21  1  0  0  0  0
 21 44  1  0  0  0  0
 22 27  1  0  0  0  0
 22 23  2  0  0  0  0
 23 24  1  0  0  0  0
 23 45  1  0  0  0  0
 24 25  2  0  0  0  0
 24 46  1  0  0  0  0
 25 26  1  0  0  0  0
 25 47  1  0  0  0  0
 26 27  2  0  0  0  0
 26 48  1  0  0  0  0
 27 28  1  0  0  0  0
M  END
> <s_m_source_file>
AV-unprocessed.smi

> <i_m_source_file_index>
283

> <i_lp_mmshare_version>
43012

> <i_f3d_flags>
0

> <s_epik_input>
Q2xjMVtjSF1bY0hdW2NIXVtjSF1jMVtDQEhdKFtDSDNdKVtOSF1jKG5bY0hdbjIpYyhjMjMpbltjSF1uM1tDQEBIXTRPW0NASF0oW0NIMl1bT0hdKVtDQEBIXShbT0hdKVtDQEhdNFtPSF0=

> <s_epik_cmdline>
J2VwaWtfcHl0aG9uJywgJy1waCcsICc3LjAnLCAnLXRuJywgJzgnLCAnLW1hJywgJzIwMCcsICctbWV0YWxfYmluZGluZycsICctaW1hZScsICc8aW5maWxlLm1hZT4nLCAnLW9tYWUnLCAnPG91dGZpbGUubWFlPic=

> <r_lp_tautomer_probability>
1

> <r_epik_Ionization_Penalty>
0.000266407

> <r_epik_Ionization_Penalty_Charging>
0

> <r_epik_Ionization_Penalty_Neutral>
0.000266407

> <r_epik_State_Penalty>
-0

> <r_epik_Charging_Adjusted_Penalty>
0

> <i_epik_Tot_Q>
0

> <i_epik_Tot_abs_Q>
0

> <r_epik_Metal_State_Penalty>
-0

> <b_epik_Metal_Only>
0

> <s_epik_Chemistry_Notes>
This compound contains an acetal/aminal-like group ( X-CH(R)-Y where X, Y are N, S, or O) that may be acid/base labile, releasing an aldehyde.

> <s_lp_Force_Field>
OPLS_2005

> <r_lp_Energy>
42.7281

> <b_lp_Chiralities_Consistent>
1

> <s_lp_Variant>
AV-unprocessed.smi:283-23

> <Gold.Version>
5.8.1

> <Gold.Id.Protein>
6NUR|6NUR_protein|mol2

> <Gold.PLP.Fitness>
49.0808

> <Gold.PLP.PLP>
-39.7658

> <Gold.PLP.part.hbond>
-4.3872

> <Gold.PLP.part.metal>
0.0000

> <Gold.PLP.part.buried>
1.1037

> <Gold.PLP.part.nonpolar>
-37.8787

> <Gold.PLP.part.repulsive>
1.6112

> <Gold.PLP.ligand.clash>
1.2567

> <Gold.PLP.ligand.torsion>
0.5118

> <Gold.PLP.Chemscore.Hbond>
3.8210

> <Gold.PLP.Chemscore.CHOScore>
0.0000

> <Gold.PLP.Chemscore.Metal>
0.0000

> <Gold.Chemscore.Hbonds>
donor molecule, donor type, donor heavy atom, donor atom, acceptor molecule, acceptor atom, score
      L1  H     3    37       P1  8028  0.74
      L1  H    19    43       P1 10171  1.00
      L1  H    21    44       P1 10171  0.52
      P1  H  7954  7966       L1    21  1.00

> <Gold.PLP.Chemscore.Internal.Correction>
0.1323

> <Gold.Rescore>
     Score         DG    S(hbond)    S(metal)    S(lipo)     H(rot)  DE(clash)    DE(int)     intcor
      9.35     -15.51       2.65        0.00      99.72       4.10       1.58       4.58       ----

> <Gold.Chemscore.Fitness>
9.3523

> <Gold.Chemscore.DG>
-15.5065

> <Gold.Chemscore.ZeroCoef>
-5.4800

> <Gold.Chemscore.Hbond>
2.6487

> <Gold.Chemscore.Metal>
0.0000

> <Gold.Chemscore.Lipo>
99.7249

> <Gold.Chemscore.Internal_Hbond>
0.0000

> <Gold.Chemscore.DEClash>
1.5750

> <Gold.Chemscore.DEInternal>
4.5793

> <Gold.Chemscore.Rot>
4.0968

> <Gold.Chemscore.Internal.Correction>
   9.000000E+99

> <Gold.Chemscore.Hbonds>
donor molecule, donor type, donor heavy atom, donor atom, acceptor molecule, acceptor atom, score
      L1  H     3    37       P1  8028  0.71
      L1  H    19    43       P1 10171  0.93
      L1  H    21    44       P1 10171  0.52
      P1  H  7954  7966       L1    21  0.76

> <Gold.Chemscore.Hbond.Weighted>
-8.8467

> <Gold.Chemscore.Metal.Weighted>
-0.0000

> <Gold.Chemscore.Lipo.Weighted>
-11.6678

> <Gold.Chemscore.Internal_Hbond.Weighted>
0.0000

> <Gold.Chemscore.DEClash.Weighted>
1.5750

> <Gold.Chemscore.DEInternal.Weighted>
4.5793

> <Gold.Chemscore.Rot.Weighted>
10.4879

> <Gold.Chemscore.Internal.Correction.Weighted>
   9.000000E+99

> <Gold.Protein.RotatedTorsions>
[ 6907 6896 6895 6894 ] final -108.12 input  -60.11 | X-H torsion
[ 7974 7965 7964 7962 ] final  -36.12 input  175.53 | X-H torsion
[ 8008 7997 7996 7995 ] final  134.73 input   59.86 | X-H torsion
[ 10167 10162 10161 10158 ] final  -54.75 input  -65.29 | X-H torsion
[ 10718 10713 10712 10709 ] final  -86.28 input   66.30 | X-H torsion
[ 10763 10752 10751 10750 ] final -144.60 input  -60.55 | X-H torsion
[ 11005 11000 10999 10996 ] final  -72.74 input  -57.11 | X-H torsion

> <Gold.Protein.ActiveResidues>
 VAL166  LYS551  ARG553  GLY616  TRP617  ASP618  TYR619  PRO620  LYS621  CYS622 
 ASP623  PHE694  ASN695  SER759  ASP760  ASP761  ALA762  ILE779  LEU786  VAL792 
 PHE793  MET794  SER795  GLU796  ALA797  LYS798  CYS799  TRP800  GLU811  SER814 

> <Gold.Protein.RotatedAtoms>
  150.7483  133.9724  159.3549 H   0  0  0  0  0  0  0  0  0  0  0  0  # atno 6907 bound_to 6896
  151.7659  135.0796  160.0362 H   0  0  0  0  0  0  0  0  0  0  0  0  # atno 6908 bound_to 6896
  152.3372  133.5988  159.5886 H   0  0  0  0  0  0  0  0  0  0  0  0  # atno 6909 bound_to 6896
  146.0688  140.6241  142.8962 H   0  0  0  0  0  0  0  0  0  0  0  0  # atno 7974 bound_to 7965
  156.3000  140.2488  156.3465 H   0  0  0  0  0  0  0  0  0  0  0  0  # atno 8008 bound_to 7997
  154.9005  140.0406  157.1910 H   0  0  0  0  0  0  0  0  0  0  0  0  # atno 8009 bound_to 7997
  154.8505  140.2905  155.5605 H   0  0  0  0  0  0  0  0  0  0  0  0  # atno 8010 bound_to 7997
  140.6413  143.2509  151.4981 H   0  0  0  0  0  0  0  0  0  0  0  0  # atno 10167 bound_to 10162
  155.9991  130.4759  150.4690 H   0  0  0  0  0  0  0  0  0  0  0  0  # atno 10718 bound_to 10713
  154.8421  135.3436  154.6371 H   0  0  0  0  0  0  0  0  0  0  0  0  # atno 10763 bound_to 10752
  153.6982  135.6971  153.5075 H   0  0  0  0  0  0  0  0  0  0  0  0  # atno 10764 bound_to 10752
  153.2543  135.4343  155.0784 H   0  0  0  0  0  0  0  0  0  0  0  0  # atno 10765 bound_to 10752
  141.1613  133.6856  156.7105 H   0  0  0  0  0  0  0  0  0  0  0  0  # atno 11005 bound_to 11000
  144.7219  140.4401  143.7002 LP  0  0  0  0  0  0  0  0  0  0  0  0  # atno 17320 bound_to 7965
  145.6428  139.1552  143.2906 LP  0  0  0  0  0  0  0  0  0  0  0  0  # atno 17321 bound_to 7965
  139.5623  144.2127  152.1710 LP  0  0  0  0  0  0  0  0  0  0  0  0  # atno 17342 bound_to 10162
  140.1399  144.5212  150.6750 LP  0  0  0  0  0  0  0  0  0  0  0  0  # atno 17343 bound_to 10162
  157.2707  131.0586  151.2261 LP  0  0  0  0  0  0  0  0  0  0  0  0  # atno 17370 bound_to 10713
  157.3343  130.7001  149.6343 LP  0  0  0  0  0  0  0  0  0  0  0  0  # atno 17371 bound_to 10713
  140.2891  134.8255  157.4001 LP  0  0  0  0  0  0  0  0  0  0  0  0  # atno 17394 bound_to 11000
  140.1363  134.5029  155.8066 LP  0  0  0  0  0  0  0  0  0  0  0  0  # atno 17395 bound_to 11000

$$$$
