AV-unprocessed.smi:516|AV-procd|sdf|2787|dock5
  -GOLD-   2262023263D 1   1.00000     0.00000
 Structure written by MMmdl.
 44 46  0  0  0  0  0  0  0  0  3 V2000
  149.8082  130.9659  154.1560 C   0  0  0  0  0  0  0  0  0  0  0  0
  150.0782  131.9700  155.1172 O   0  0  0  0  0  0  0  0  0  0  0  0
  149.7066  133.2649  154.6753 C   0  0  0  0  0  0  0  0  0  0  0  0
  149.7660  134.2585  155.8452 C   0  0  0  0  0  0  0  0  0  0  0  0
  149.3728  135.6072  155.4450 N   0  0  0  0  0  0  0  0  0  0  0  0
  148.1650  135.9981  154.9590 C   0  0  0  0  0  0  0  0  0  0  0  0
  147.0062  135.0646  154.7497 C   0  0  0  0  0  0  0  0  0  0  0  0
  146.7509  135.1083  153.2878 N   0  3  0  0  0  0  0  0  0  0  0  0
  146.4705  133.7674  152.7239 C   0  0  0  0  0  0  0  0  0  0  0  0
  146.2834  133.8540  151.1997 C   0  0  0  0  0  0  0  0  0  0  0  0
  145.2392  134.7713  150.8981 O   0  0  0  0  0  0  0  0  0  0  0  0
  145.5348  136.0843  151.3580 C   0  0  0  0  0  0  0  0  0  0  0  0
  145.6946  136.0722  152.8871 C   0  0  0  0  0  0  0  0  0  0  0  0
  148.0832  137.3011  154.6778 N   0  0  0  0  0  0  0  0  0  0  0  0
  149.3427  137.7769  155.0087 C   0  0  0  0  0  0  0  0  0  0  0  0
  150.1405  136.7765  155.4685 C   0  0  0  0  0  0  0  0  0  0  0  0
  151.5463  136.9748  155.8887 C   0  0  0  0  0  0  0  0  0  0  0  0
  152.2343  136.0330  156.2757 O   0  0  0  0  0  0  0  0  0  0  0  0
  151.9361  138.2848  155.7867 N   0  5  0  0  0  0  0  0  0  0  0  0
  151.1583  139.3296  155.3358 C   0  0  0  0  0  0  0  0  0  0  0  0
  151.5863  140.4830  155.2814 O   0  0  0  0  0  0  0  0  0  0  0  0
  149.8692  139.0948  154.9355 N   0  0  0  0  0  0  0  0  0  0  0  0
  149.0203  140.1851  154.4464 C   0  0  0  0  0  0  0  0  0  0  0  0
  150.1175  129.9957  154.5445 H   0  0  0  0  0  0  0  0  0  0  0  0
  150.3566  131.1482  153.2310 H   0  0  0  0  0  0  0  0  0  0  0  0
  148.7429  130.9140  153.9279 H   0  0  0  0  0  0  0  0  0  0  0  0
  150.3779  133.5870  153.8779 H   0  0  0  0  0  0  0  0  0  0  0  0
  148.6972  133.2438  154.2620 H   0  0  0  0  0  0  0  0  0  0  0  0
  149.1227  133.9230  156.6577 H   0  0  0  0  0  0  0  0  0  0  0  0
  150.7646  134.2784  156.2762 H   0  0  0  0  0  0  0  0  0  0  0  0
  147.3120  134.0650  155.0617 H   0  0  0  0  0  0  0  0  0  0  0  0
  146.1233  135.3353  155.3271 H   0  0  0  0  0  0  0  0  0  0  0  0
  147.2942  133.0904  152.9541 H   0  0  0  0  0  0  0  0  0  0  0  0
  145.5742  133.3544  153.1893 H   0  0  0  0  0  0  0  0  0  0  0  0
  147.2085  134.1626  150.7100 H   0  0  0  0  0  0  0  0  0  0  0  0
  146.0213  132.8754  150.7970 H   0  0  0  0  0  0  0  0  0  0  0  0
  146.4392  136.4585  150.8754 H   0  0  0  0  0  0  0  0  0  0  0  0
  144.7211  136.7506  151.0708 H   0  0  0  0  0  0  0  0  0  0  0  0
  144.7498  135.7978  153.3590 H   0  0  0  0  0  0  0  0  0  0  0  0
  145.9420  137.0774  153.2287 H   0  0  0  0  0  0  0  0  0  0  0  0
  149.4961  140.6971  153.6090 H   0  0  0  0  0  0  0  0  0  0  0  0
  148.8469  140.9154  155.2376 H   0  0  0  0  0  0  0  0  0  0  0  0
  148.0470  139.8384  154.1006 H   0  0  0  0  0  0  0  0  0  0  0  0
  147.6125  135.4214  152.8626 H   0  0  0  0  0  0  0  0  0  0  0  0
  1  2  1  0  0  0  0
  1 24  1  0  0  0  0
  1 25  1  0  0  0  0
  1 26  1  0  0  0  0
  2  3  1  0  0  0  0
  3  4  1  0  0  0  0
  3 27  1  0  0  0  0
  3 28  1  0  0  0  0
  4  5  1  0  0  0  0
  4 29  1  0  0  0  0
  4 30  1  0  0  0  0
  5 16  1  0  0  0  0
  5  6  1  0  0  0  0
  6  7  1  0  0  0  0
  6 14  2  0  0  0  0
  7  8  1  0  0  0  0
  7 31  1  0  0  0  0
  7 32  1  0  0  0  0
  8 13  1  0  0  0  0
  8  9  1  0  0  0  0
  8 44  1  0  0  0  0
  9 10  1  0  0  0  0
  9 33  1  0  0  0  0
  9 34  1  0  0  0  0
 10 11  1  0  0  0  0
 10 35  1  0  0  0  0
 10 36  1  0  0  0  0
 11 12  1  0  0  0  0
 12 13  1  0  0  0  0
 12 37  1  0  0  0  0
 12 38  1  0  0  0  0
 13 39  1  0  0  0  0
 13 40  1  0  0  0  0
 14 15  1  0  0  0  0
 15 22  1  0  0  0  0
 15 16  2  0  0  0  0
 16 17  1  0  0  0  0
 17 18  2  0  0  0  0
 17 19  1  0  0  0  0
 19 20  1  0  0  0  0
 20 21  2  0  0  0  0
 20 22  1  0  0  0  0
 22 23  1  0  0  0  0
 23 41  1  0  0  0  0
 23 42  1  0  0  0  0
 23 43  1  0  0  0  0
M  CHG  1   8   1
M  CHG  1  19  -1
M  END
> <s_m_source_file>
AV-unprocessed.smi

> <i_m_source_file_index>
516

> <i_lp_mmshare_version>
43012

> <i_f3d_flags>
0

> <s_epik_input>
W0NIM11uMWMoPU8pW25IXWMoPU8pYyhjMTIpbihbQ0gyXVtDSDJdT1tDSDNdKWMobjIpW0NIMl1OM1tDSDJdW0NIMl1PW0NIMl1bQ0gyXTM=

> <s_epik_cmdline>
J2VwaWtfcHl0aG9uJywgJy1waCcsICc3LjAnLCAnLXRuJywgJzgnLCAnLW1hJywgJzIwMCcsICctbWV0YWxfYmluZGluZycsICctaW1hZScsICc8aW5maWxlLm1hZT4nLCAnLW9tYWUnLCAnPG91dGZpbGUubWFlPic=

> <r_epik_Ionization_Penalty>
5.20946

> <r_epik_Ionization_Penalty_Charging>
1.12908

> <r_epik_Ionization_Penalty_Neutral>
4.08038

> <r_epik_State_Penalty>
5.2587

> <r_epik_Charging_Adjusted_Penalty>
6.38778

> <i_epik_Tot_Q>
0

> <i_epik_Tot_abs_Q>
2

> <r_epik_Metal_State_Penalty>
1.732

> <b_epik_Metal_Only>
1

> <s_lp_Force_Field>
OPLS_2005

> <r_lp_Energy>
35.9619

> <b_lp_Chiralities_Consistent>
1

> <s_lp_Variant>
AV-unprocessed.smi:516-4

> <Gold.Version>
5.8.1

> <Gold.Id.Protein>
6NUR|6NUR_protein|mol2

> <Gold.PLP.Fitness>
40.9818

> <Gold.PLP.PLP>
-30.5688

> <Gold.PLP.part.hbond>
-3.0000

> <Gold.PLP.part.metal>
0.0000

> <Gold.PLP.part.buried>
-4.9840

> <Gold.PLP.part.nonpolar>
-23.3122

> <Gold.PLP.part.repulsive>
0.5648

> <Gold.PLP.ligand.clash>
0.0000

> <Gold.PLP.ligand.torsion>
0.5763

> <Gold.PLP.Chemscore.Hbond>
3.8320

> <Gold.PLP.Chemscore.CHOScore>
0.0000

> <Gold.PLP.Chemscore.Metal>
0.0000

> <Gold.Chemscore.Hbonds>
donor molecule, donor type, donor heavy atom, donor atom, acceptor molecule, acceptor atom, score
      L1  H     8    44       P1  7948  2.00
      P1  H  7989  7998       L1    21  0.83
      P1  H 10752 10764       L1    18  1.00

> <Gold.PLP.Chemscore.Internal.Correction>
0.0696

> <Gold.Rescore>
     Score         DG    S(hbond)    S(metal)    S(lipo)     H(rot)  DE(clash)    DE(int)     intcor
     13.67     -14.38       2.63        0.00      46.24       2.07       0.15       0.56       ----

> <Gold.Chemscore.Fitness>
13.6672

> <Gold.Chemscore.DG>
-14.3761

> <Gold.Chemscore.ZeroCoef>
-5.4800

> <Gold.Chemscore.Hbond>
2.6297

> <Gold.Chemscore.Metal>
0.0000

> <Gold.Chemscore.Lipo>
46.2442

> <Gold.Chemscore.Internal_Hbond>
0.0000

> <Gold.Chemscore.DEClash>
0.1461

> <Gold.Chemscore.DEInternal>
0.5628

> <Gold.Chemscore.Rot>
2.0693

> <Gold.Chemscore.Internal.Correction>
   9.000000E+99

> <Gold.Chemscore.Hbonds>
donor molecule, donor type, donor heavy atom, donor atom, acceptor molecule, acceptor atom, score
      L1  H     8    44       P1  7948  1.00
      P1  H  7989  7998       L1    21  0.41
      P1  H 10752 10764       L1    18  0.96

> <Gold.Chemscore.Hbond.Weighted>
-8.7831

> <Gold.Chemscore.Metal.Weighted>
-0.0000

> <Gold.Chemscore.Lipo.Weighted>
-5.4106

> <Gold.Chemscore.Internal_Hbond.Weighted>
0.0000

> <Gold.Chemscore.DEClash.Weighted>
0.1461

> <Gold.Chemscore.DEInternal.Weighted>
0.5628

> <Gold.Chemscore.Rot.Weighted>
5.2975

> <Gold.Chemscore.Internal.Correction.Weighted>
   9.000000E+99

> <Gold.Protein.RotatedTorsions>
[ 6907 6896 6895 6894 ] final  116.87 input  -60.11 | X-H torsion
[ 7974 7965 7964 7962 ] final  -89.53 input  175.53 | X-H torsion
[ 8008 7997 7996 7995 ] final  -34.34 input   59.86 | X-H torsion
[ 10167 10162 10161 10158 ] final   57.20 input  -65.29 | X-H torsion
[ 10718 10713 10712 10709 ] final  165.17 input   66.30 | X-H torsion
[ 10763 10752 10751 10750 ] final  -11.01 input  -60.55 | X-H torsion
[ 11005 11000 10999 10996 ] final -177.72 input  -57.11 | X-H torsion

> <Gold.Protein.ActiveResidues>
 VAL166  LYS551  ARG553  GLY616  TRP617  ASP618  TYR619  PRO620  LYS621  CYS622 
 ASP623  PHE694  ASN695  SER759  ASP760  ASP761  ALA762  ILE779  LEU786  VAL792 
 PHE793  MET794  SER795  GLU796  ALA797  LYS798  CYS799  TRP800  GLU811  SER814 

> <Gold.Protein.RotatedAtoms>
  152.4649  133.7902  159.6897 H   0  0  0  0  0  0  0  0  0  0  0  0  # atno 6907 bound_to 6896
  150.8609  133.7635  159.2999 H   0  0  0  0  0  0  0  0  0  0  0  0  # atno 6908 bound_to 6896
  151.5200  135.1070  159.9928 H   0  0  0  0  0  0  0  0  0  0  0  0  # atno 6909 bound_to 6896
  145.4386  140.9558  143.2088 H   0  0  0  0  0  0  0  0  0  0  0  0  # atno 7974 bound_to 7965
  154.4123  140.1686  156.2034 H   0  0  0  0  0  0  0  0  0  0  0  0  # atno 8008 bound_to 7997
  155.9505  140.3401  155.6380 H   0  0  0  0  0  0  0  0  0  0  0  0  # atno 8009 bound_to 7997
  155.6876  140.0730  157.2451 H   0  0  0  0  0  0  0  0  0  0  0  0  # atno 8010 bound_to 7997
  140.2005  144.3993  150.6531 H   0  0  0  0  0  0  0  0  0  0  0  0  # atno 10167 bound_to 10162
  157.0839  131.0399  151.2564 H   0  0  0  0  0  0  0  0  0  0  0  0  # atno 10718 bound_to 10713
  153.4775  135.7017  153.5957 H   0  0  0  0  0  0  0  0  0  0  0  0  # atno 10763 bound_to 10752
  153.4185  135.3831  155.2096 H   0  0  0  0  0  0  0  0  0  0  0  0  # atno 10764 bound_to 10752
  154.8723  135.3922  154.4220 H   0  0  0  0  0  0  0  0  0  0  0  0  # atno 10765 bound_to 10752
  140.4377  134.6460  157.4743 H   0  0  0  0  0  0  0  0  0  0  0  0  # atno 11005 bound_to 11000
  144.8136  139.5917  143.7018 LP  0  0  0  0  0  0  0  0  0  0  0  0  # atno 17320 bound_to 7965
  146.2568  139.6321  142.9389 LP  0  0  0  0  0  0  0  0  0  0  0  0  # atno 17321 bound_to 7965
  140.6394  143.2200  151.6324 LP  0  0  0  0  0  0  0  0  0  0  0  0  # atno 17342 bound_to 10162
  139.5219  144.3179  152.0936 LP  0  0  0  0  0  0  0  0  0  0  0  0  # atno 17343 bound_to 10162
  157.4777  130.7746  149.7384 LP  0  0  0  0  0  0  0  0  0  0  0  0  # atno 17370 bound_to 10713
  155.9916  130.3936  150.2978 LP  0  0  0  0  0  0  0  0  0  0  0  0  # atno 17371 bound_to 10713
  140.0091  134.6719  155.9409 LP  0  0  0  0  0  0  0  0  0  0  0  0  # atno 17394 bound_to 11000
  141.1719  133.6538  156.4682 LP  0  0  0  0  0  0  0  0  0  0  0  0  # atno 17395 bound_to 11000

$$$$
