AV-unprocessed.smi:3244|AV-procd|sdf|12398|dock10
  -GOLD-   2272018273D 1   1.00000     0.00000
 Structure written by MMmdl.
 41 42  0  0  0  0  0  0  0  0  2 V2000
  147.6858  139.1955  153.5674 C   0  0  0  0  0  0  0  0  0  0  0  0
  148.4757  140.4800  153.2673 C   0  0  0  0  0  0  0  0  0  0  0  0
  148.7272  141.2699  154.4822 N   0  0  0  0  0  0  0  0  0  0  0  0
  149.8184  141.0975  155.2709 C   0  0  0  0  0  0  0  0  0  0  0  0
  150.7786  140.4071  154.9242 O   0  0  0  0  0  0  0  0  0  0  0  0
  149.8553  141.7662  156.6557 C   0  0  0  0  0  0  0  0  0  0  0  0
  150.8160  142.8896  156.7094 N   0  3  0  0  0  0  0  0  0  0  0  0
  151.2796  143.2702  158.0634 C   0  0  2  0  0  0  0  0  0  0  0  0
  151.9571  144.6506  158.0463 C   0  0  0  0  0  0  0  0  0  0  0  0
  152.2359  142.1965  158.6188 C   0  0  0  0  0  0  0  0  0  0  0  0
  152.5547  142.4122  160.0195 N   0  0  0  0  0  0  0  0  0  0  0  0
  153.4158  141.6950  160.8230 C   0  0  0  0  0  0  0  0  0  0  0  0
  153.3949  142.2746  162.0592 C   0  0  0  0  0  0  0  0  0  0  0  0
  152.4793  143.3537  161.9125 C   0  0  0  0  0  0  0  0  0  0  0  0
  151.9795  143.4344  160.6898 N   0  0  0  0  0  0  0  0  0  0  0  0
  147.6040  142.0860  154.8647 C   0  0  0  0  0  0  0  0  0  0  0  0
  146.2421  141.4394  155.0077 C   0  0  0  0  0  0  0  0  0  0  0  0
  146.4924  142.4070  153.8800 C   0  0  0  0  0  0  0  0  0  0  0  0
  147.5095  138.6304  152.6521 H   0  0  0  0  0  0  0  0  0  0  0  0
  146.7128  139.4266  154.0020 H   0  0  0  0  0  0  0  0  0  0  0  0
  148.2095  138.5402  154.2620 H   0  0  0  0  0  0  0  0  0  0  0  0
  149.4057  140.2372  152.7535 H   0  0  0  0  0  0  0  0  0  0  0  0
  147.9119  141.0753  152.5481 H   0  0  0  0  0  0  0  0  0  0  0  0
  148.8661  142.1342  156.9211 H   0  0  0  0  0  0  0  0  0  0  0  0
  150.1454  141.0180  157.3944 H   0  0  0  0  0  0  0  0  0  0  0  0
  151.6305  142.6056  156.1823 H   0  0  0  0  0  0  0  0  0  0  0  0
  150.4129  143.3183  158.7246 H   0  0  0  0  0  0  0  0  0  0  0  0
  152.3132  144.9225  159.0404 H   0  0  0  0  0  0  0  0  0  0  0  0
  151.2708  145.4348  157.7275 H   0  0  0  0  0  0  0  0  0  0  0  0
  152.8150  144.6631  157.3733 H   0  0  0  0  0  0  0  0  0  0  0  0
  151.8107  141.1985  158.5005 H   0  0  0  0  0  0  0  0  0  0  0  0
  153.1723  142.2026  158.0589 H   0  0  0  0  0  0  0  0  0  0  0  0
  153.9663  140.8425  160.4530 H   0  0  0  0  0  0  0  0  0  0  0  0
  153.9485  141.9727  162.9362 H   0  0  0  0  0  0  0  0  0  0  0  0
  152.1660  144.0760  162.6522 H   0  0  0  0  0  0  0  0  0  0  0  0
  147.8310  142.8736  155.5807 H   0  0  0  0  0  0  0  0  0  0  0  0
  146.1463  140.3868  154.7477 H   0  0  0  0  0  0  0  0  0  0  0  0
  145.6114  141.7751  155.8283 H   0  0  0  0  0  0  0  0  0  0  0  0
  146.0298  143.3895  153.9499 H   0  0  0  0  0  0  0  0  0  0  0  0
  146.5334  141.9848  152.8780 H   0  0  0  0  0  0  0  0  0  0  0  0
  150.4143  143.6961  156.2532 H   0  0  0  0  0  0  0  0  0  0  0  0
  1  2  1  0  0  0  0
  1 19  1  0  0  0  0
  1 20  1  0  0  0  0
  1 21  1  0  0  0  0
  2  3  1  0  0  0  0
  2 22  1  0  0  0  0
  2 23  1  0  0  0  0
  3  4  1  0  0  0  0
  3 16  1  0  0  0  0
  4  5  2  0  0  0  0
  4  6  1  0  0  0  0
  6  7  1  0  0  0  0
  6 24  1  0  0  0  0
  6 25  1  0  0  0  0
  7  8  1  0  0  0  0
  7 26  1  0  0  0  0
  7 41  1  0  0  0  0
  8  9  1  0  0  0  0
  8 10  1  0  0  0  0
  8 27  1  0  0  0  0
  9 28  1  0  0  0  0
  9 29  1  0  0  0  0
  9 30  1  0  0  0  0
 10 11  1  0  0  0  0
 10 31  1  0  0  0  0
 10 32  1  0  0  0  0
 11 15  1  0  0  0  0
 11 12  1  0  0  0  0
 12 13  2  0  0  0  0
 12 33  1  0  0  0  0
 13 14  1  0  0  0  0
 13 34  1  0  0  0  0
 14 15  2  0  0  0  0
 14 35  1  0  0  0  0
 16 18  1  0  0  0  0
 16 17  1  0  0  0  0
 16 36  1  0  0  0  0
 17 18  1  0  0  0  0
 17 37  1  0  0  0  0
 17 38  1  0  0  0  0
 18 39  1  0  0  0  0
 18 40  1  0  0  0  0
M  CHG  1   7   1
M  END
> <s_m_source_file>
AV-unprocessed.smi

> <i_m_source_file_index>
3244

> <i_lp_mmshare_version>
43012

> <i_f3d_flags>
0

> <s_epik_input>
W0NIMl0xW0NIMl1bQ0hdMU4oW0NIMl1bQ0gzXSlDKD1PKVtDSDJdW05IXVtDQEhdKFtDSDNdKVtDSDJdbjJbY0hdW2NIXVtjSF1uMg==

> <s_epik_cmdline>
J2VwaWtfcHl0aG9uJywgJy1waCcsICc3LjAnLCAnLXRuJywgJzgnLCAnLW1hJywgJzIwMCcsICctbWV0YWxfYmluZGluZycsICctaW1hZScsICc8aW5maWxlLm1hZT4nLCAnLW9tYWUnLCAnPG91dGZpbGUubWFlPic=

> <r_lp_tautomer_probability>
1

> <r_epik_Ionization_Penalty>
0.115625

> <r_epik_Ionization_Penalty_Charging>
0.115622

> <r_epik_Ionization_Penalty_Neutral>
3.43793e-06

> <r_epik_State_Penalty>
0.105255

> <r_epik_Charging_Adjusted_Penalty>
0.220877

> <i_epik_Tot_Q>
1

> <i_epik_Tot_abs_Q>
1

> <r_epik_Metal_State_Penalty>
0.105264

> <b_epik_Metal_Only>
0

> <s_lp_Force_Field>
OPLS_2005

> <r_lp_Energy>
33.3923

> <b_lp_Chiralities_Consistent>
1

> <s_lp_Variant>
AV-unprocessed.smi:3244-1

> <Gold.Version>
5.8.1

> <Gold.Id.Protein>
6NUR|6NUR_protein|mol2

> <Gold.PLP.Fitness>
53.2680

> <Gold.PLP.PLP>
-45.7737

> <Gold.PLP.part.hbond>
-2.0000

> <Gold.PLP.part.metal>
0.0000

> <Gold.PLP.part.buried>
-0.3781

> <Gold.PLP.part.nonpolar>
-43.0521

> <Gold.PLP.part.repulsive>
0.1964

> <Gold.PLP.ligand.clash>
0.0000

> <Gold.PLP.ligand.torsion>
0.9120

> <Gold.PLP.Chemscore.Hbond>
3.0000

> <Gold.PLP.Chemscore.CHOScore>
0.0000

> <Gold.PLP.Chemscore.Metal>
0.0000

> <Gold.Chemscore.Hbonds>
donor molecule, donor type, donor heavy atom, donor atom, acceptor molecule, acceptor atom, score
      L1  H     7    41       P1  8028  2.00
      P1  H  7989  7998       L1     5  1.00

> <Gold.PLP.Chemscore.Internal.Correction>
0.3183

> <Gold.Rescore>
     Score         DG    S(hbond)    S(metal)    S(lipo)     H(rot)  DE(clash)    DE(int)     intcor
     16.37     -18.92       1.94        0.00     104.25       2.04       1.64       0.91       ----

> <Gold.Chemscore.Fitness>
16.3682

> <Gold.Chemscore.DG>
-18.9177

> <Gold.Chemscore.ZeroCoef>
-5.4800

> <Gold.Chemscore.Hbond>
1.9381

> <Gold.Chemscore.Metal>
0.0000

> <Gold.Chemscore.Lipo>
104.2468

> <Gold.Chemscore.Internal_Hbond>
0.0000

> <Gold.Chemscore.DEClash>
1.6431

> <Gold.Chemscore.DEInternal>
0.9065

> <Gold.Chemscore.Rot>
2.0440

> <Gold.Chemscore.Internal.Correction>
   9.000000E+99

> <Gold.Chemscore.Hbonds>
donor molecule, donor type, donor heavy atom, donor atom, acceptor molecule, acceptor atom, score
      L1  H     7    41       P1  8028  0.96
      P1  H  7989  7998       L1     5  0.93

> <Gold.Chemscore.Hbond.Weighted>
-6.4734

> <Gold.Chemscore.Metal.Weighted>
-0.0000

> <Gold.Chemscore.Lipo.Weighted>
-12.1969

> <Gold.Chemscore.Internal_Hbond.Weighted>
0.0000

> <Gold.Chemscore.DEClash.Weighted>
1.6431

> <Gold.Chemscore.DEInternal.Weighted>
0.9065

> <Gold.Chemscore.Rot.Weighted>
5.2325

> <Gold.Chemscore.Internal.Correction.Weighted>
   9.000000E+99

> <Gold.Protein.RotatedTorsions>
[ 6907 6896 6895 6894 ] final  -35.05 input  -60.11 | X-H torsion
[ 7974 7965 7964 7962 ] final  -13.25 input  175.53 | X-H torsion
[ 8008 7997 7996 7995 ] final  -64.37 input   59.86 | X-H torsion
[ 10167 10162 10161 10158 ] final  -98.98 input  -65.29 | X-H torsion
[ 10718 10713 10712 10709 ] final -141.53 input   66.30 | X-H torsion
[ 10763 10752 10751 10750 ] final   33.04 input  -60.55 | X-H torsion
[ 11005 11000 10999 10996 ] final   95.94 input  -57.11 | X-H torsion

> <Gold.Protein.ActiveResidues>
 VAL166  LYS551  ARG553  GLY616  TRP617  ASP618  TYR619  PRO620  LYS621  CYS622 
 ASP623  PHE694  ASN695  SER759  ASP760  ASP761  ALA762  ILE779  LEU786  VAL792 
 PHE793  MET794  SER795  GLU796  ALA797  LYS798  CYS799  TRP800  GLU811  SER814 

> <Gold.Protein.RotatedAtoms>
  151.0448  134.9632  159.8180 H   0  0  0  0  0  0  0  0  0  0  0  0  # atno 6907 bound_to 6896
  152.5370  134.2612  159.8946 H   0  0  0  0  0  0  0  0  0  0  0  0  # atno 6908 bound_to 6896
  151.2625  133.4252  159.2651 H   0  0  0  0  0  0  0  0  0  0  0  0  # atno 6909 bound_to 6896
  146.2121  140.3176  142.8387 H   0  0  0  0  0  0  0  0  0  0  0  0  # atno 7974 bound_to 7965
  154.4608  140.0955  156.6887 H   0  0  0  0  0  0  0  0  0  0  0  0  # atno 8008 bound_to 7997
  155.5001  140.3473  155.4351 H   0  0  0  0  0  0  0  0  0  0  0  0  # atno 8009 bound_to 7997
  156.0866  140.1386  156.9634 H   0  0  0  0  0  0  0  0  0  0  0  0  # atno 8010 bound_to 7997
  140.2673  143.3368  152.0569 H   0  0  0  0  0  0  0  0  0  0  0  0  # atno 10167 bound_to 10162
  156.3352  130.7607  151.1733 H   0  0  0  0  0  0  0  0  0  0  0  0  # atno 10718 bound_to 10713
  153.0231  135.6397  154.1450 H   0  0  0  0  0  0  0  0  0  0  0  0  # atno 10763 bound_to 10752
  154.1182  135.2848  155.3216 H   0  0  0  0  0  0  0  0  0  0  0  0  # atno 10764 bound_to 10752
  154.6283  135.5501  153.7714 H   0  0  0  0  0  0  0  0  0  0  0  0  # atno 10765 bound_to 10752
  139.8785  134.8925  156.4085 H   0  0  0  0  0  0  0  0  0  0  0  0  # atno 11005 bound_to 11000
  144.8943  140.7563  143.5907 LP  0  0  0  0  0  0  0  0  0  0  0  0  # atno 17320 bound_to 7965
  145.3099  139.1822  143.4644 LP  0  0  0  0  0  0  0  0  0  0  0  0  # atno 17321 bound_to 7965
  139.4999  144.6680  151.6311 LP  0  0  0  0  0  0  0  0  0  0  0  0  # atno 17342 bound_to 10162
  140.5918  143.9766  150.6329 LP  0  0  0  0  0  0  0  0  0  0  0  0  # atno 17343 bound_to 10162
  157.7437  131.0470  150.4922 LP  0  0  0  0  0  0  0  0  0  0  0  0  # atno 17370 bound_to 10713
  156.5094  130.4136  149.6309 LP  0  0  0  0  0  0  0  0  0  0  0  0  # atno 17371 bound_to 10713
  140.9217  133.7640  155.9915 LP  0  0  0  0  0  0  0  0  0  0  0  0  # atno 17394 bound_to 11000
  140.8432  134.3042  157.5305 LP  0  0  0  0  0  0  0  0  0  0  0  0  # atno 17395 bound_to 11000

$$$$
