AV-unprocessed.smi:1645|AV-procd|sdf|6622|dock8
  -GOLD-   22720 7323D 1   1.00000     0.00000
 Structure written by MMmdl.
 55 58  0  0  0  0  0  0  0  0  4 V2000
  148.7047  136.4603  156.8914 O   0  0  0  0  0  0  0  0  0  0  0  0
  149.0974  136.4616  155.7197 C   0  0  0  0  0  0  0  0  0  0  0  0
  149.9188  137.4298  155.2766 N   0  0  0  0  0  0  0  0  0  0  0  0
  150.3954  138.5846  155.9539 C   0  0  0  0  0  0  0  0  0  0  0  0
  150.4351  138.5477  157.3640 C   0  0  0  0  0  0  0  0  0  0  0  0
  150.9254  139.6588  158.0798 C   0  0  0  0  0  0  0  0  0  0  0  0
  151.3825  140.7921  157.3691 C   0  0  0  0  0  0  0  0  0  0  0  0
  151.8929  141.9383  157.9920 N   0  0  0  0  0  0  0  0  0  0  0  0
  151.2818  143.1717  157.5036 C   0  0  0  0  0  0  0  0  0  0  0  0
  152.0016  144.4042  158.0781 C   0  0  0  0  0  0  0  0  0  0  0  0
  152.0525  144.3437  159.6134 C   0  0  0  0  0  0  0  0  0  0  0  0
  152.6756  143.0156  160.0729 C   0  0  0  0  0  0  0  0  0  0  0  0
  151.9406  141.8176  159.4469 C   0  0  0  0  0  0  0  0  0  0  0  0
  151.3421  140.7849  156.0191 N   0  3  0  0  0  0  0  0  0  0  0  0
  150.8779  139.7425  155.2964 C   0  0  0  0  0  0  0  0  0  0  0  0
  148.8081  135.5538  154.7486 N   0  5  0  0  0  0  0  0  0  0  0  0
  147.8697  134.4321  154.8993 C   0  0  2  0  0  0  0  0  0  0  0  0
  148.5926  133.1176  154.5484 C   0  0  0  0  0  0  0  0  0  0  0  0
  148.3464  132.8821  153.0431 C   0  0  0  0  0  0  0  0  0  0  0  0
  147.4535  133.9746  152.6074 N   0  3  1  0  0  0  0  0  0  0  0  0
  146.5212  133.6807  151.4962 C   0  0  0  0  0  0  0  0  0  0  0  0
  145.7212  134.9509  151.1424 C   0  0  0  0  0  0  0  0  0  0  0  0
  145.0163  135.5471  152.3777 C   0  0  0  0  0  0  0  0  0  0  0  0
  146.0173  135.7814  153.5248 C   0  0  0  0  0  0  0  0  0  0  0  0
  146.7743  134.4664  153.8175 C   0  0  2  0  0  0  0  0  0  0  0  0
  150.2748  137.2966  154.3415 H   0  0  0  0  0  0  0  0  0  0  0  0
  150.0888  137.6741  157.8970 H   0  0  0  0  0  0  0  0  0  0  0  0
  150.9516  139.6343  159.1592 H   0  0  0  0  0  0  0  0  0  0  0  0
  151.3209  143.1944  156.4135 H   0  0  0  0  0  0  0  0  0  0  0  0
  150.2285  143.1951  157.7869 H   0  0  0  0  0  0  0  0  0  0  0  0
  153.0162  144.4535  157.6805 H   0  0  0  0  0  0  0  0  0  0  0  0
  151.4979  145.3156  157.7549 H   0  0  0  0  0  0  0  0  0  0  0  0
  152.6246  145.1850  160.0058 H   0  0  0  0  0  0  0  0  0  0  0  0
  151.0438  144.4355  160.0179 H   0  0  0  0  0  0  0  0  0  0  0  0
  153.7283  142.9880  159.7880 H   0  0  0  0  0  0  0  0  0  0  0  0
  152.6474  142.9448  161.1606 H   0  0  0  0  0  0  0  0  0  0  0  0
  150.9253  141.7598  159.8419 H   0  0  0  0  0  0  0  0  0  0  0  0
  152.4440  140.8899  159.7224 H   0  0  0  0  0  0  0  0  0  0  0  0
  150.9275  139.8741  154.2259 H   0  0  0  0  0  0  0  0  0  0  0  0
  147.4327  134.3765  155.8972 H   0  0  0  0  0  0  0  0  0  0  0  0
  149.6549  133.1350  154.7972 H   0  0  0  0  0  0  0  0  0  0  0  0
  148.1492  132.2985  155.1158 H   0  0  0  0  0  0  0  0  0  0  0  0
  149.2717  132.9077  152.4661 H   0  0  0  0  0  0  0  0  0  0  0  0
  147.8776  131.9093  152.8840 H   0  0  0  0  0  0  0  0  0  0  0  0
  147.0845  133.3362  150.6283 H   0  0  0  0  0  0  0  0  0  0  0  0
  145.8454  132.8740  151.7845 H   0  0  0  0  0  0  0  0  0  0  0  0
  146.3962  135.6966  150.7203 H   0  0  0  0  0  0  0  0  0  0  0  0
  144.9882  134.7257  150.3674 H   0  0  0  0  0  0  0  0  0  0  0  0
  144.5233  136.4831  152.1137 H   0  0  0  0  0  0  0  0  0  0  0  0
  144.2319  134.8671  152.7124 H   0  0  0  0  0  0  0  0  0  0  0  0
  146.7055  136.5772  153.2338 H   0  0  0  0  0  0  0  0  0  0  0  0
  145.4890  136.1319  154.4129 H   0  0  0  0  0  0  0  0  0  0  0  0
  146.0304  133.7183  154.1006 H   0  0  0  0  0  0  0  0  0  0  0  0
  148.0569  134.7296  152.3129 H   0  0  0  0  0  0  0  0  0  0  0  0
  151.6825  141.6062  155.5186 H   0  0  0  0  0  0  0  0  0  0  0  0
  1  2  2  0  0  0  0
  2  3  1  0  0  0  0
  2 16  1  0  0  0  0
  3  4  1  0  0  0  0
  3 26  1  0  0  0  0
  4 15  1  0  0  0  0
  4  5  2  0  0  0  0
  5  6  1  0  0  0  0
  5 27  1  0  0  0  0
  6  7  2  0  0  0  0
  6 28  1  0  0  0  0
  7  8  1  0  0  0  0
  7 14  1  0  0  0  0
  8 13  1  0  0  0  0
  8  9  1  0  0  0  0
  9 10  1  0  0  0  0
  9 29  1  0  0  0  0
  9 30  1  0  0  0  0
 10 11  1  0  0  0  0
 10 31  1  0  0  0  0
 10 32  1  0  0  0  0
 11 12  1  0  0  0  0
 11 33  1  0  0  0  0
 11 34  1  0  0  0  0
 12 13  1  0  0  0  0
 12 35  1  0  0  0  0
 12 36  1  0  0  0  0
 13 37  1  0  0  0  0
 13 38  1  0  0  0  0
 14 15  2  0  0  0  0
 14 55  1  0  0  0  0
 15 39  1  0  0  0  0
 16 17  1  0  0  0  0
 17 25  1  0  0  0  0
 17 18  1  0  0  0  0
 17 40  1  0  0  0  0
 18 19  1  0  0  0  0
 18 41  1  0  0  0  0
 18 42  1  0  0  0  0
 19 20  1  0  0  0  0
 19 43  1  0  0  0  0
 19 44  1  0  0  0  0
 20 25  1  0  0  0  0
 20 21  1  0  0  0  0
 20 54  1  0  0  0  0
 21 22  1  0  0  0  0
 21 45  1  0  0  0  0
 21 46  1  0  0  0  0
 22 23  1  0  0  0  0
 22 47  1  0  0  0  0
 22 48  1  0  0  0  0
 23 24  1  0  0  0  0
 23 49  1  0  0  0  0
 23 50  1  0  0  0  0
 24 25  1  0  0  0  0
 24 51  1  0  0  0  0
 24 52  1  0  0  0  0
 25 53  1  0  0  0  0
M  CHG  1  14   1
M  CHG  1  16  -1
M  CHG  1  20   1
M  END
> <s_m_source_file>
AV-unprocessed.smi

> <i_m_source_file_index>
1645

> <i_lp_mmshare_version>
43012

> <i_f3d_flags>
0

> <s_epik_input>
W0NIMl0xW0NIMl1bQ0gyXVtDSDJdW0NASF0oTjEyKVtDQEBIXShbQ0gyXVtDSDJdMilbTkhdQyg9TylbTkhdYzNbY0hdW2NIXWMobltjSF0zKU40W0NIMl1bQ0gyXVtDSDJdW0NIMl1bQ0gyXTQ=

> <s_epik_cmdline>
J2VwaWtfcHl0aG9uJywgJy1waCcsICc3LjAnLCAnLXRuJywgJzgnLCAnLW1hJywgJzIwMCcsICctbWV0YWxfYmluZGluZycsICctaW1hZScsICc8aW5maWxlLm1hZT4nLCAnLW9tYWUnLCAnPG91dGZpbGUubWFlPic=

> <r_lp_tautomer_probability>
0.999994

> <r_epik_Ionization_Penalty>
8.55589

> <r_epik_Ionization_Penalty_Charging>
8.55589

> <r_epik_Ionization_Penalty_Neutral>
3.8092e-06

> <r_epik_State_Penalty>
8.15703

> <r_epik_Charging_Adjusted_Penalty>
16.7129

> <i_epik_Tot_Q>
1

> <i_epik_Tot_abs_Q>
3

> <r_epik_Metal_State_Penalty>
4.13781

> <b_epik_Metal_Only>
1

> <s_lp_Force_Field>
OPLS_2005

> <r_lp_Energy>
55.4093

> <b_lp_Chiralities_Consistent>
1

> <s_lp_Variant>
AV-unprocessed.smi:1645-23

> <Gold.Version>
5.8.1

> <Gold.Id.Protein>
6NUR|6NUR_protein|mol2

> <Gold.PLP.Fitness>
46.0178

> <Gold.PLP.PLP>
-40.3093

> <Gold.PLP.part.hbond>
-1.0000

> <Gold.PLP.part.metal>
0.0000

> <Gold.PLP.part.buried>
-5.6038

> <Gold.PLP.part.nonpolar>
-35.6553

> <Gold.PLP.part.repulsive>
1.3954

> <Gold.PLP.ligand.clash>
0.0151

> <Gold.PLP.ligand.torsion>
0.2370

> <Gold.PLP.Chemscore.Hbond>
2.0000

> <Gold.PLP.Chemscore.CHOScore>
0.0000

> <Gold.PLP.Chemscore.Metal>
0.0000

> <Gold.Chemscore.Hbonds>
donor molecule, donor type, donor heavy atom, donor atom, acceptor molecule, acceptor atom, score
      L1  H    20    54       P1  7948  2.00

> <Gold.PLP.Chemscore.Internal.Correction>
0.1977

> <Gold.Rescore>
     Score         DG    S(hbond)    S(metal)    S(lipo)     H(rot)  DE(clash)    DE(int)     intcor
     16.65     -18.47       0.92        0.00     110.32       1.17       0.13       1.69       ----

> <Gold.Chemscore.Fitness>
16.6485

> <Gold.Chemscore.DG>
-18.4687

> <Gold.Chemscore.ZeroCoef>
-5.4800

> <Gold.Chemscore.Hbond>
0.9236

> <Gold.Chemscore.Metal>
0.0000

> <Gold.Chemscore.Lipo>
110.3167

> <Gold.Chemscore.Internal_Hbond>
0.0000

> <Gold.Chemscore.DEClash>
0.1349

> <Gold.Chemscore.DEInternal>
1.6852

> <Gold.Chemscore.Rot>
1.1731

> <Gold.Chemscore.Internal.Correction>
   9.000000E+99

> <Gold.Chemscore.Hbonds>
donor molecule, donor type, donor heavy atom, donor atom, acceptor molecule, acceptor atom, score
      L1  H    20    54       P1  7948  0.45

> <Gold.Chemscore.Hbond.Weighted>
-3.0849

> <Gold.Chemscore.Metal.Weighted>
-0.0000

> <Gold.Chemscore.Lipo.Weighted>
-12.9071

> <Gold.Chemscore.Internal_Hbond.Weighted>
0.0000

> <Gold.Chemscore.DEClash.Weighted>
0.1349

> <Gold.Chemscore.DEInternal.Weighted>
1.6852

> <Gold.Chemscore.Rot.Weighted>
3.0032

> <Gold.Chemscore.Internal.Correction.Weighted>
   9.000000E+99

> <Gold.Protein.RotatedTorsions>
[ 6907 6896 6895 6894 ] final -105.71 input  -60.11 | X-H torsion
[ 7974 7965 7964 7962 ] final  117.11 input  175.53 | X-H torsion
[ 8008 7997 7996 7995 ] final  143.92 input   59.86 | X-H torsion
[ 10167 10162 10161 10158 ] final -172.91 input  -65.29 | X-H torsion
[ 10718 10713 10712 10709 ] final   30.81 input   66.30 | X-H torsion
[ 10763 10752 10751 10750 ] final -114.19 input  -60.55 | X-H torsion
[ 11005 11000 10999 10996 ] final -153.86 input  -57.11 | X-H torsion

> <Gold.Protein.ActiveResidues>
 VAL166  LYS551  ARG553  GLY616  TRP617  ASP618  TYR619  PRO620  LYS621  CYS622 
 ASP623  PHE694  ASN695  SER759  ASP760  ASP761  ALA762  ILE779  LEU786  VAL792 
 PHE793  MET794  SER795  GLU796  ALA797  LYS798  CYS799  TRP800  GLU811  SER814 

> <Gold.Protein.RotatedAtoms>
  150.7351  134.0085  159.3661 H   0  0  0  0  0  0  0  0  0  0  0  0  # atno 6907 bound_to 6896
  151.8043  135.0697  160.0414 H   0  0  0  0  0  0  0  0  0  0  0  0  # atno 6908 bound_to 6896
  152.3118  133.5724  159.5722 H   0  0  0  0  0  0  0  0  0  0  0  0  # atno 6909 bound_to 6896
  145.1714  139.3099  143.4465 H   0  0  0  0  0  0  0  0  0  0  0  0  # atno 7974 bound_to 7965
  156.2920  140.2249  156.4968 H   0  0  0  0  0  0  0  0  0  0  0  0  # atno 8008 bound_to 7997
  154.7723  140.0466  157.1083 H   0  0  0  0  0  0  0  0  0  0  0  0  # atno 8009 bound_to 7997
  154.9858  140.3084  155.4930 H   0  0  0  0  0  0  0  0  0  0  0  0  # atno 8010 bound_to 7997
  139.5718  144.1625  152.1394 H   0  0  0  0  0  0  0  0  0  0  0  0  # atno 10167 bound_to 10162
  157.2644  130.7177  149.6471 H   0  0  0  0  0  0  0  0  0  0  0  0  # atno 10718 bound_to 10713
  154.8429  135.4427  154.1466 H   0  0  0  0  0  0  0  0  0  0  0  0  # atno 10763 bound_to 10752
  153.2638  135.6938  153.7557 H   0  0  0  0  0  0  0  0  0  0  0  0  # atno 10764 bound_to 10752
  153.6824  135.3401  155.3157 H   0  0  0  0  0  0  0  0  0  0  0  0  # atno 10765 bound_to 10752
  140.7036  134.3910  157.5206 H   0  0  0  0  0  0  0  0  0  0  0  0  # atno 11005 bound_to 11000
  146.3468  140.1861  142.8589 LP  0  0  0  0  0  0  0  0  0  0  0  0  # atno 17320 bound_to 7965
  145.0229  140.8808  143.5156 LP  0  0  0  0  0  0  0  0  0  0  0  0  # atno 17321 bound_to 7965
  140.1159  144.5416  150.6894 LP  0  0  0  0  0  0  0  0  0  0  0  0  # atno 17342 bound_to 10162
  140.7002  143.2430  151.4886 LP  0  0  0  0  0  0  0  0  0  0  0  0  # atno 17343 bound_to 10162
  155.9663  130.4387  150.5228 LP  0  0  0  0  0  0  0  0  0  0  0  0  # atno 17370 bound_to 10713
  157.3140  131.0669  151.1980 LP  0  0  0  0  0  0  0  0  0  0  0  0  # atno 17371 bound_to 10713
  139.8890  134.8841  156.2444 LP  0  0  0  0  0  0  0  0  0  0  0  0  # atno 17394 bound_to 11000
  141.0143  133.7077  156.1163 LP  0  0  0  0  0  0  0  0  0  0  0  0  # atno 17395 bound_to 11000

$$$$
