AV-unprocessed.smi:682|AV-procd|sdf|3326|dock6
  -GOLD-   22720 0293D 1   1.00000     0.00000
 Structure written by MMmdl.
 41 42  0  0  0  0  0  0  0  0  1 V2000
  150.7040  138.6010  154.3589 C   0  0  0  0  0  0  0  0  0  0  0  0
  149.5630  139.0307  153.6264 O   0  0  0  0  0  0  0  0  0  0  0  0
  148.6973  139.9876  154.2519 C   0  0  1  0  0  0  0  0  0  0  0  0
  149.5220  141.1118  154.8921 C   0  0  0  0  0  0  0  0  0  0  0  0
  147.5344  140.3501  153.3090 C   0  0  0  0  0  0  0  0  0  0  0  0
  146.7459  139.1665  153.8738 C   0  0  1  0  0  0  0  0  0  0  0  0
  146.9225  137.9710  153.0491 N   0  0  0  0  0  0  0  0  0  0  0  0
  145.9235  137.2298  152.5529 C   0  0  0  0  0  0  0  0  0  0  0  0
  144.7326  137.4964  152.7139 O   0  0  0  0  0  0  0  0  0  0  0  0
  146.3949  136.1675  151.8808 N   0  0  0  0  0  0  0  0  0  0  0  0
  145.6394  135.1534  151.2414 C   0  0  0  0  0  0  0  0  0  0  0  0
  144.4870  135.2737  150.4143 C   0  0  0  0  0  0  0  0  0  0  0  0
  144.0693  134.0845  150.0062 N   0  0  0  0  0  0  0  0  0  0  0  0
  144.9350  133.1990  150.5563 N   0  0  0  0  0  0  0  0  0  0  0  0
  144.7559  131.7847  150.3060 C   0  0  0  0  0  0  0  0  0  0  0  0
  145.9084  133.8197  151.3135 C   0  0  0  0  0  0  0  0  0  0  0  0
  147.6587  139.2151  155.1295 C   0  0  0  0  0  0  0  0  0  0  0  0
  148.1206  137.8865  155.7511 C   0  0  0  0  0  0  0  0  0  0  0  0
  147.0443  140.0106  156.2910 C   0  0  0  0  0  0  0  0  0  0  0  0
  151.3448  138.0126  153.7025 H   0  0  0  0  0  0  0  0  0  0  0  0
  150.4264  137.9600  155.1954 H   0  0  0  0  0  0  0  0  0  0  0  0
  151.2949  139.4344  154.7372 H   0  0  0  0  0  0  0  0  0  0  0  0
  148.8975  141.8021  155.4580 H   0  0  0  0  0  0  0  0  0  0  0  0
  150.0371  141.7160  154.1458 H   0  0  0  0  0  0  0  0  0  0  0  0
  150.2710  140.7131  155.5765 H   0  0  0  0  0  0  0  0  0  0  0  0
  147.0771  141.3083  153.5604 H   0  0  0  0  0  0  0  0  0  0  0  0
  147.7430  140.2939  152.2407 H   0  0  0  0  0  0  0  0  0  0  0  0
  145.7027  139.4169  154.0755 H   0  0  0  0  0  0  0  0  0  0  0  0
  147.8718  137.6735  152.8768 H   0  0  0  0  0  0  0  0  0  0  0  0
  147.3981  136.0630  151.8413 H   0  0  0  0  0  0  0  0  0  0  0  0
  143.9476  136.1544  150.0990 H   0  0  0  0  0  0  0  0  0  0  0  0
  145.5028  131.2096  150.8542 H   0  0  0  0  0  0  0  0  0  0  0  0
  144.8636  131.5822  149.2401 H   0  0  0  0  0  0  0  0  0  0  0  0
  143.7621  131.4751  150.6309 H   0  0  0  0  0  0  0  0  0  0  0  0
  146.6846  133.2712  151.8266 H   0  0  0  0  0  0  0  0  0  0  0  0
  147.2866  137.3457  156.1995 H   0  0  0  0  0  0  0  0  0  0  0  0
  148.8638  138.0503  156.5319 H   0  0  0  0  0  0  0  0  0  0  0  0
  148.5740  137.2144  155.0228 H   0  0  0  0  0  0  0  0  0  0  0  0
  146.1967  139.4831  156.7297 H   0  0  0  0  0  0  0  0  0  0  0  0
  146.6757  140.9847  155.9692 H   0  0  0  0  0  0  0  0  0  0  0  0
  147.7676  140.1853  157.0881 H   0  0  0  0  0  0  0  0  0  0  0  0
  1  2  1  0  0  0  0
  1 20  1  0  0  0  0
  1 21  1  0  0  0  0
  1 22  1  0  0  0  0
  2  3  1  0  0  0  0
  3 17  1  0  0  0  0
  3  4  1  0  0  0  0
  3  5  1  0  0  0  0
  4 23  1  0  0  0  0
  4 24  1  0  0  0  0
  4 25  1  0  0  0  0
  5  6  1  0  0  0  0
  5 26  1  0  0  0  0
  5 27  1  0  0  0  0
  6  7  1  0  0  0  0
  6 17  1  0  0  0  0
  6 28  1  0  0  0  0
  7  8  1  0  0  0  0
  7 29  1  0  0  0  0
  8  9  2  0  0  0  0
  8 10  1  0  0  0  0
 10 11  1  0  0  0  0
 10 30  1  0  0  0  0
 11 16  2  0  0  0  0
 11 12  1  0  0  0  0
 12 13  2  0  0  0  0
 12 31  1  0  0  0  0
 13 14  1  0  0  0  0
 14 15  1  0  0  0  0
 14 16  1  0  0  0  0
 15 32  1  0  0  0  0
 15 33  1  0  0  0  0
 15 34  1  0  0  0  0
 16 35  1  0  0  0  0
 17 18  1  0  0  0  0
 17 19  1  0  0  0  0
 18 36  1  0  0  0  0
 18 37  1  0  0  0  0
 18 38  1  0  0  0  0
 19 39  1  0  0  0  0
 19 40  1  0  0  0  0
 19 41  1  0  0  0  0
M  END
> <s_m_source_file>
AV-unprocessed.smi

> <i_m_source_file_index>
682

> <i_lp_mmshare_version>
43012

> <i_f3d_flags>
0

> <s_epik_input>
W0NIM11PW0NAQF0xKFtDSDNdKVtDSDJdW0NASF0oQzEoW0NIM10pW0NIM10pW05IXUMoPU8pW05IXWMyW2NIXW5uKFtDSDNdKVtjSF0y

> <s_epik_cmdline>
J2VwaWtfcHl0aG9uJywgJy1waCcsICc3LjAnLCAnLXRuJywgJzgnLCAnLW1hJywgJzIwMCcsICctbWV0YWxfYmluZGluZycsICctaW1hZScsICc8aW5maWxlLm1hZT4nLCAnLW9tYWUnLCAnPG91dGZpbGUubWFlPic=

> <r_lp_tautomer_probability>
1

> <r_epik_Ionization_Penalty>
0.000192302

> <r_epik_Ionization_Penalty_Charging>
0

> <r_epik_Ionization_Penalty_Neutral>
0.000192302

> <r_epik_State_Penalty>
-0

> <r_epik_Charging_Adjusted_Penalty>
0

> <i_epik_Tot_Q>
0

> <i_epik_Tot_abs_Q>
0

> <r_epik_Metal_State_Penalty>
-0

> <b_epik_Metal_Only>
0

> <s_lp_Force_Field>
OPLS_2005

> <r_lp_Energy>
26.143

> <b_lp_Chiralities_Consistent>
1

> <s_lp_Variant>
AV-unprocessed.smi:682-1

> <Gold.Version>
5.8.1

> <Gold.Id.Protein>
6NUR|6NUR_protein|mol2

> <Gold.PLP.Fitness>
34.1847

> <Gold.PLP.PLP>
-26.8735

> <Gold.PLP.part.hbond>
-1.9759

> <Gold.PLP.part.metal>
0.0000

> <Gold.PLP.part.buried>
-4.5683

> <Gold.PLP.part.nonpolar>
-24.2315

> <Gold.PLP.part.repulsive>
3.4980

> <Gold.PLP.ligand.clash>
0.0000

> <Gold.PLP.ligand.torsion>
0.6796

> <Gold.PLP.Chemscore.Hbond>
1.7619

> <Gold.PLP.Chemscore.CHOScore>
1.0000

> <Gold.PLP.Chemscore.Metal>
0.0000

> <Gold.Chemscore.Hbonds>
donor molecule, donor type, donor heavy atom, donor atom, acceptor molecule, acceptor atom, score
      L1  H     7    29       P1  7948  0.77
      L1  H    10    30       P1  7948  1.00
      L1  C    12    31       P1 10171  1.00

> <Gold.PLP.Chemscore.Internal.Correction>
0.3846

> <Gold.Rescore>
     Score         DG    S(hbond)    S(metal)    S(lipo)     H(rot)  DE(clash)    DE(int)     intcor
     12.85     -15.21       1.73        0.00      60.92       1.23       1.41       0.95       ----

> <Gold.Chemscore.Fitness>
12.8532

> <Gold.Chemscore.DG>
-15.2137

> <Gold.Chemscore.ZeroCoef>
-5.4800

> <Gold.Chemscore.Hbond>
1.7258

> <Gold.Chemscore.Metal>
0.0000

> <Gold.Chemscore.Lipo>
60.9211

> <Gold.Chemscore.Internal_Hbond>
0.0000

> <Gold.Chemscore.DEClash>
1.4105

> <Gold.Chemscore.DEInternal>
0.9500

> <Gold.Chemscore.Rot>
1.2336

> <Gold.Chemscore.Internal.Correction>
   9.000000E+99

> <Gold.Chemscore.Hbonds>
donor molecule, donor type, donor heavy atom, donor atom, acceptor molecule, acceptor atom, score
      L1  H     7    29       P1  7948  0.74
      L1  H    10    30       P1  7948  0.93

> <Gold.Chemscore.Hbond.Weighted>
-5.7640

> <Gold.Chemscore.Metal.Weighted>
-0.0000

> <Gold.Chemscore.Lipo.Weighted>
-7.1278

> <Gold.Chemscore.Internal_Hbond.Weighted>
0.0000

> <Gold.Chemscore.DEClash.Weighted>
1.4105

> <Gold.Chemscore.DEInternal.Weighted>
0.9500

> <Gold.Chemscore.Rot.Weighted>
3.1581

> <Gold.Chemscore.Internal.Correction.Weighted>
   9.000000E+99

> <Gold.Protein.RotatedTorsions>
[ 6907 6896 6895 6894 ] final  138.72 input  -60.11 | X-H torsion
[ 7974 7965 7964 7962 ] final   -0.78 input  175.53 | X-H torsion
[ 8008 7997 7996 7995 ] final  -42.61 input   59.86 | X-H torsion
[ 10167 10162 10161 10158 ] final   34.22 input  -65.29 | X-H torsion
[ 10718 10713 10712 10709 ] final   90.02 input   66.30 | X-H torsion
[ 10763 10752 10751 10750 ] final  158.27 input  -60.55 | X-H torsion
[ 11005 11000 10999 10996 ] final   83.35 input  -57.11 | X-H torsion

> <Gold.Protein.ActiveResidues>
 VAL166  LYS551  ARG553  GLY616  TRP617  ASP618  TYR619  PRO620  LYS621  CYS622 
 ASP623  PHE694  ASN695  SER759  ASP760  ASP761  ALA762  ILE779  LEU786  VAL792 
 PHE793  MET794  SER795  GLU796  ALA797  LYS798  CYS799  TRP800  GLU811  SER814 

> <Gold.Protein.RotatedAtoms>
  152.2633  133.5317  159.5394 H   0  0  0  0  0  0  0  0  0  0  0  0  # atno 6907 bound_to 6896
  150.7133  134.0799  159.3903 H   0  0  0  0  0  0  0  0  0  0  0  0  # atno 6908 bound_to 6896
  151.8716  135.0487  160.0530 H   0  0  0  0  0  0  0  0  0  0  0  0  # atno 6909 bound_to 6896
  146.2424  140.1321  142.8337 H   0  0  0  0  0  0  0  0  0  0  0  0  # atno 7974 bound_to 7965
  154.3998  140.1469  156.3382 H   0  0  0  0  0  0  0  0  0  0  0  0  # atno 8008 bound_to 7997
  155.8380  140.3463  155.5593 H   0  0  0  0  0  0  0  0  0  0  0  0  # atno 8009 bound_to 7997
  155.8117  140.0885  157.1890 H   0  0  0  0  0  0  0  0  0  0  0  0  # atno 8010 bound_to 7997
  140.4335  144.1290  150.6163 H   0  0  0  0  0  0  0  0  0  0  0  0  # atno 10167 bound_to 10162
  157.6957  131.0355  150.3515 H   0  0  0  0  0  0  0  0  0  0  0  0  # atno 10718 bound_to 10713
  154.2134  135.2785  155.2950 H   0  0  0  0  0  0  0  0  0  0  0  0  # atno 10763 bound_to 10752
  154.5760  135.5604  153.7143 H   0  0  0  0  0  0  0  0  0  0  0  0  # atno 10764 bound_to 10752
  153.0059  135.6333  154.2273 H   0  0  0  0  0  0  0  0  0  0  0  0  # atno 10765 bound_to 10752
  139.9034  134.8138  156.2298 H   0  0  0  0  0  0  0  0  0  0  0  0  # atno 11005 bound_to 11000
  145.0317  140.8876  143.5105 LP  0  0  0  0  0  0  0  0  0  0  0  0  # atno 17320 bound_to 7965
  145.1387  139.2586  143.5501 LP  0  0  0  0  0  0  0  0  0  0  0  0  # atno 17321 bound_to 7965
  140.4400  143.2530  151.9485 LP  0  0  0  0  0  0  0  0  0  0  0  0  # atno 17342 bound_to 10162
  139.4786  144.5663  151.8159 LP  0  0  0  0  0  0  0  0  0  0  0  0  # atno 17343 bound_to 10162
  156.3962  130.3907  149.6993 LP  0  0  0  0  0  0  0  0  0  0  0  0  # atno 17370 bound_to 10713
  156.4326  130.7822  151.2842 LP  0  0  0  0  0  0  0  0  0  0  0  0  # atno 17371 bound_to 10713
  141.0353  133.6967  156.1501 LP  0  0  0  0  0  0  0  0  0  0  0  0  # atno 17394 bound_to 11000
  140.7036  134.4537  157.5585 LP  0  0  0  0  0  0  0  0  0  0  0  0  # atno 17395 bound_to 11000

$$$$
