AV-unprocessed.smi:61|AV-procd|sdf|599|dock1
  -GOLD-   2262016493D 1   1.00000     0.00000
 Structure written by MMmdl.
 29 30  0  0  0  0  0  0  0  0  2 V2000
  142.1143  134.7050  154.7701 N   0  0  0  0  0  0  0  0  0  0  0  0
  142.7812  135.0090  153.6084 C   0  0  0  0  0  0  0  0  0  0  0  0
  142.8289  136.2870  153.2185 N   0  0  0  0  0  0  0  0  0  0  0  0
  143.4815  136.5950  152.0806 C   0  0  0  0  0  0  0  0  0  0  0  0
  144.1060  135.6065  151.3018 C   0  0  0  0  0  0  0  0  0  0  0  0
  144.0156  134.2760  151.7670 C   0  0  0  0  0  0  0  0  0  0  0  0
  144.5876  133.1837  151.0989 N   0  0  0  0  0  0  0  0  0  0  0  0
  143.6433  132.1225  150.7625 C   0  0  0  0  0  0  0  0  0  0  0  0
  144.3616  130.7871  151.0091 C   0  0  0  0  0  0  0  0  0  0  0  0
  145.8343  131.1686  151.1404 C   0  0  0  0  0  0  0  0  0  0  0  0
  145.7397  132.5684  151.7473 C   0  0  1  0  0  0  0  0  0  0  0  0
  147.0195  133.4267  151.6762 C   0  0  0  0  0  0  0  0  0  0  0  0
  148.1216  132.7714  152.2696 O   0  0  0  0  0  0  0  0  0  0  0  0
  143.3520  134.0108  152.9198 N   0  3  0  0  0  0  0  0  0  0  0  0
  142.0591  133.7494  155.0924 H   0  0  0  0  0  0  0  0  0  0  0  0
  141.6737  135.4307  155.3166 H   0  0  0  0  0  0  0  0  0  0  0  0
  143.5053  137.6351  151.7913 H   0  0  0  0  0  0  0  0  0  0  0  0
  144.6307  135.8628  150.3932 H   0  0  0  0  0  0  0  0  0  0  0  0
  142.7166  132.1829  151.3348 H   0  0  0  0  0  0  0  0  0  0  0  0
  143.3837  132.2212  149.7081 H   0  0  0  0  0  0  0  0  0  0  0  0
  144.0113  130.3521  151.9458 H   0  0  0  0  0  0  0  0  0  0  0  0
  144.1835  130.0596  150.2166 H   0  0  0  0  0  0  0  0  0  0  0  0
  146.4011  130.4732  151.7599 H   0  0  0  0  0  0  0  0  0  0  0  0
  146.2941  131.1965  150.1516 H   0  0  0  0  0  0  0  0  0  0  0  0
  145.4979  132.4424  152.8034 H   0  0  0  0  0  0  0  0  0  0  0  0
  147.2645  133.6848  150.6454 H   0  0  0  0  0  0  0  0  0  0  0  0
  146.8606  134.3660  152.2063 H   0  0  0  0  0  0  0  0  0  0  0  0
  148.2896  131.9719  151.7939 H   0  0  0  0  0  0  0  0  0  0  0  0
  143.2910  133.0484  153.2531 H   0  0  0  0  0  0  0  0  0  0  0  0
  1  2  1  0  0  0  0
  1 15  1  0  0  0  0
  1 16  1  0  0  0  0
  2 14  1  0  0  0  0
  2  3  2  0  0  0  0
  3  4  1  0  0  0  0
  4  5  2  0  0  0  0
  4 17  1  0  0  0  0
  5  6  1  0  0  0  0
  5 18  1  0  0  0  0
  6  7  1  0  0  0  0
  6 14  2  0  0  0  0
  7 11  1  0  0  0  0
  7  8  1  0  0  0  0
  8  9  1  0  0  0  0
  8 19  1  0  0  0  0
  8 20  1  0  0  0  0
  9 10  1  0  0  0  0
  9 21  1  0  0  0  0
  9 22  1  0  0  0  0
 10 11  1  0  0  0  0
 10 23  1  0  0  0  0
 10 24  1  0  0  0  0
 11 12  1  0  0  0  0
 11 25  1  0  0  0  0
 12 13  1  0  0  0  0
 12 26  1  0  0  0  0
 12 27  1  0  0  0  0
 13 28  1  0  0  0  0
 14 29  1  0  0  0  0
M  CHG  1  14   1
M  END
> <s_m_source_file>
AV-unprocessed.smi

> <i_m_source_file_index>
61

> <i_lp_mmshare_version>
43012

> <i_f3d_flags>
0

> <s_epik_input>
W05IMl1jMW5bY0hdW2NIXWMobjEpTjJbQ0gyXVtDSDJdW0NIMl1bQ0BIXTJbQ0gyXVtPSF0=

> <s_epik_cmdline>
J2VwaWtfcHl0aG9uJywgJy1waCcsICc3LjAnLCAnLXRuJywgJzgnLCAnLW1hJywgJzIwMCcsICctbWV0YWxfYmluZGluZycsICctaW1hZScsICc8aW5maWxlLm1hZT4nLCAnLW9tYWUnLCAnPG91dGZpbGUubWFlPic=

> <r_lp_tautomer_probability>
0.424989

> <r_epik_Ionization_Penalty>
0.696162

> <r_epik_Ionization_Penalty_Charging>
0.696158

> <r_epik_Ionization_Penalty_Neutral>
4.43138e-06

> <r_epik_State_Penalty>
0.906374

> <r_epik_Charging_Adjusted_Penalty>
1.60253

> <i_epik_Tot_Q>
1

> <i_epik_Tot_abs_Q>
1

> <r_epik_Metal_State_Penalty>
1.16703

> <b_epik_Metal_Only>
0

> <s_lp_Force_Field>
OPLS_2005

> <r_lp_Energy>
33.2177

> <b_lp_Chiralities_Consistent>
1

> <s_lp_Variant>
AV-unprocessed.smi:61-5

> <Gold.Version>
5.8.1

> <Gold.Id.Protein>
6NUR|6NUR_protein|mol2

> <Gold.PLP.Fitness>
41.7221

> <Gold.PLP.PLP>
-23.8930

> <Gold.PLP.part.hbond>
-4.0000

> <Gold.PLP.part.metal>
0.0000

> <Gold.PLP.part.buried>
-3.7815

> <Gold.PLP.part.nonpolar>
-17.3822

> <Gold.PLP.part.repulsive>
0.2503

> <Gold.PLP.ligand.clash>
0.0000

> <Gold.PLP.ligand.torsion>
0.1156

> <Gold.PLP.Chemscore.Hbond>
4.5032

> <Gold.PLP.Chemscore.CHOScore>
1.5015

> <Gold.PLP.Chemscore.Metal>
0.0000

> <Gold.Chemscore.Hbonds>
donor molecule, donor type, donor heavy atom, donor atom, acceptor molecule, acceptor atom, score
      L1  H     1    15       P1 10957  1.72
      L1  H    13    28       P1 10747  1.00
      L1  H    14    29       P1 10957  1.63
      L1  C     4    17       P1 10171  1.00
      L1  C     4    17       P1 10175  0.15

> <Gold.PLP.Chemscore.Internal.Correction>
0.0461

> <Gold.Rescore>
     Score         DG    S(hbond)    S(metal)    S(lipo)     H(rot)  DE(clash)    DE(int)     intcor
     14.96     -15.11       2.64        0.00      50.27       1.98       0.01       0.14       ----

> <Gold.Chemscore.Fitness>
14.9635

> <Gold.Chemscore.DG>
-15.1082

> <Gold.Chemscore.ZeroCoef>
-5.4800

> <Gold.Chemscore.Hbond>
2.6424

> <Gold.Chemscore.Metal>
0.0000

> <Gold.Chemscore.Lipo>
50.2671

> <Gold.Chemscore.Internal_Hbond>
0.0000

> <Gold.Chemscore.DEClash>
0.0073

> <Gold.Chemscore.DEInternal>
0.1374

> <Gold.Chemscore.Rot>
1.9838

> <Gold.Chemscore.Internal.Correction>
   9.000000E+99

> <Gold.Chemscore.Hbonds>
donor molecule, donor type, donor heavy atom, donor atom, acceptor molecule, acceptor atom, score
      L1  H     1    15       P1 10957  0.79
      L1  H    13    28       P1 10747  0.95
      L1  H    14    29       P1 10957  0.60

> <Gold.Chemscore.Hbond.Weighted>
-8.8255

> <Gold.Chemscore.Metal.Weighted>
-0.0000

> <Gold.Chemscore.Lipo.Weighted>
-5.8812

> <Gold.Chemscore.Internal_Hbond.Weighted>
0.0000

> <Gold.Chemscore.DEClash.Weighted>
0.0073

> <Gold.Chemscore.DEInternal.Weighted>
0.1374

> <Gold.Chemscore.Rot.Weighted>
5.0786

> <Gold.Chemscore.Internal.Correction.Weighted>
   9.000000E+99

> <Gold.Protein.RotatedTorsions>
[ 6907 6896 6895 6894 ] final -170.83 input  -60.11 | X-H torsion
[ 7974 7965 7964 7962 ] final  153.79 input  175.53 | X-H torsion
[ 8008 7997 7996 7995 ] final  -60.33 input   59.86 | X-H torsion
[ 10167 10162 10161 10158 ] final   77.38 input  -65.29 | X-H torsion
[ 10718 10713 10712 10709 ] final    8.51 input   66.30 | X-H torsion
[ 10763 10752 10751 10750 ] final -160.67 input  -60.55 | X-H torsion
[ 11005 11000 10999 10996 ] final -175.65 input  -57.11 | X-H torsion

> <Gold.Protein.ActiveResidues>
 VAL166  LYS551  ARG553  GLY616  TRP617  ASP618  TYR619  PRO620  LYS621  CYS622 
 ASP623  PHE694  ASN695  SER759  ASP760  ASP761  ALA762  ILE779  LEU786  VAL792 
 PHE793  MET794  SER795  GLU796  ALA797  LYS798  CYS799  TRP800  GLU811  SER814 

> <Gold.Protein.RotatedAtoms>
  151.5140  133.3479  159.2889 H   0  0  0  0  0  0  0  0  0  0  0  0  # atno 6907 bound_to 6896
  150.8694  134.8067  159.7154 H   0  0  0  0  0  0  0  0  0  0  0  0  # atno 6908 bound_to 6896
  152.4688  134.5021  159.9780 H   0  0  0  0  0  0  0  0  0  0  0  0  # atno 6909 bound_to 6896
  144.8131  139.6847  143.6133 H   0  0  0  0  0  0  0  0  0  0  0  0  # atno 7974 bound_to 7965
  154.4393  140.1042  156.6256 H   0  0  0  0  0  0  0  0  0  0  0  0  # atno 8008 bound_to 7997
  155.5660  140.3488  155.4484 H   0  0  0  0  0  0  0  0  0  0  0  0  # atno 8009 bound_to 7997
  156.0425  140.1285  157.0130 H   0  0  0  0  0  0  0  0  0  0  0  0  # atno 8010 bound_to 7997
  139.9822  144.5818  150.7890 H   0  0  0  0  0  0  0  0  0  0  0  0  # atno 10167 bound_to 10162
  156.9528  130.5903  149.5657 H   0  0  0  0  0  0  0  0  0  0  0  0  # atno 10718 bound_to 10713
  154.7370  135.3059  154.8794 H   0  0  0  0  0  0  0  0  0  0  0  0  # atno 10763 bound_to 10752
  153.9619  135.6752  153.4749 H   0  0  0  0  0  0  0  0  0  0  0  0  # atno 10764 bound_to 10752
  153.0972  135.4930  154.8724 H   0  0  0  0  0  0  0  0  0  0  0  0  # atno 10765 bound_to 10752
  140.4609  134.6256  157.4842 H   0  0  0  0  0  0  0  0  0  0  0  0  # atno 11005 bound_to 11000
  146.2432  139.6043  142.9477 LP  0  0  0  0  0  0  0  0  0  0  0  0  # atno 17320 bound_to 7965
  145.5277  141.0429  143.2400 LP  0  0  0  0  0  0  0  0  0  0  0  0  # atno 17321 bound_to 7965
  140.7485  143.2923  151.3297 LP  0  0  0  0  0  0  0  0  0  0  0  0  # atno 17342 bound_to 10162
  139.6401  144.0555  152.2547 LP  0  0  0  0  0  0  0  0  0  0  0  0  # atno 17343 bound_to 10162
  156.0355  130.5443  150.8644 LP  0  0  0  0  0  0  0  0  0  0  0  0  # atno 17370 bound_to 10713
  157.5711  131.0946  150.9417 LP  0  0  0  0  0  0  0  0  0  0  0  0  # atno 17371 bound_to 10713
  139.9946  134.6931  155.9631 LP  0  0  0  0  0  0  0  0  0  0  0  0  # atno 17394 bound_to 11000
  141.1622  133.6538  156.4356 LP  0  0  0  0  0  0  0  0  0  0  0  0  # atno 17395 bound_to 11000

$$$$
