AV-unprocessed.smi:276|AV-procd|sdf|2074|dock4
  -GOLD-   2262021333D 1   1.00000     0.00000
 Structure written by MMmdl.
 57 61  0  0  0  0  0  0  0  0  1 V2000
  152.9469  143.2428  162.8181 C   0  0  0  0  0  0  0  0  0  0  0  0
  152.6298  143.6765  161.5074 O   0  0  0  0  0  0  0  0  0  0  0  0
  152.2527  142.6070  160.6549 C   0  0  2  0  0  0  0  0  0  0  0  0
  153.3343  141.5371  160.4567 C   0  0  0  0  0  0  0  0  0  0  0  0
  152.9445  141.4832  158.9659 C   0  0  1  0  0  0  0  0  0  0  0  0
  151.9368  140.4432  158.7106 N   0  0  0  0  0  0  0  0  0  0  0  0
  152.2036  139.1362  159.3027 C   0  0  0  0  0  0  0  0  0  0  0  0
  151.5789  140.2869  157.4174 C   0  0  0  0  0  0  0  0  0  0  0  0
  152.4418  139.6155  156.6151 N   0  0  0  0  0  0  0  0  0  0  0  0
  152.1411  139.4199  155.3278 C   0  0  0  0  0  0  0  0  0  0  0  0
  151.0580  139.8128  154.6540 N   0  0  0  0  0  0  0  0  0  0  0  0
  150.1983  140.5047  155.4554 C   0  0  0  0  0  0  0  0  0  0  0  0
  150.3779  140.7873  156.8384 C   0  0  0  0  0  0  0  0  0  0  0  0
  149.2957  141.5161  157.3174 N   0  0  0  0  0  0  0  0  0  0  0  0
  148.5212  141.6573  156.2769 C   0  0  0  0  0  0  0  0  0  0  0  0
  148.9917  141.0893  155.1147 N   0  0  0  0  0  0  0  0  0  0  0  0
  148.3455  141.1058  153.8149 C   0  0  0  0  0  0  0  0  0  0  0  0
  147.7713  139.7336  153.3992 C   0  0  1  0  0  0  0  0  0  0  0  0
  148.8723  138.8872  153.1351 O   0  0  0  0  0  0  0  0  0  0  0  0
  146.8630  139.0627  154.4554 C   0  0  2  0  0  0  0  0  0  0  0  0
  146.3609  137.6717  154.0534 C   0  0  0  0  0  0  0  0  0  0  0  0
  145.0781  137.5546  154.8424 C   0  0  0  0  0  0  0  0  0  0  0  0
  144.5291  138.9706  154.7320 C   0  0  0  0  0  0  0  0  0  0  0  0
  145.6706  139.8192  154.6715 O   0  0  0  0  0  0  0  0  0  0  0  0
  152.3947  142.9238  159.1552 C   0  0  0  0  0  0  0  0  0  0  0  0
  153.2480  144.1245  158.7048 C   0  0  0  0  0  0  0  0  0  0  0  0
  151.9466  144.9063  158.5058 C   0  0  0  0  0  0  0  0  0  0  0  0
  151.2377  143.5579  158.3597 C   0  0  0  0  0  0  0  0  0  0  0  0
  153.2177  144.1020  163.4313 H   0  0  0  0  0  0  0  0  0  0  0  0
  153.7917  142.5530  162.8147 H   0  0  0  0  0  0  0  0  0  0  0  0
  152.0945  142.7500  163.2869 H   0  0  0  0  0  0  0  0  0  0  0  0
  151.2730  142.1851  160.8900 H   0  0  0  0  0  0  0  0  0  0  0  0
  154.3416  141.9289  160.6082 H   0  0  0  0  0  0  0  0  0  0  0  0
  153.1771  140.6298  161.0393 H   0  0  0  0  0  0  0  0  0  0  0  0
  153.8156  141.4296  158.3126 H   0  0  0  0  0  0  0  0  0  0  0  0
  151.5493  138.3631  158.8956 H   0  0  0  0  0  0  0  0  0  0  0  0
  152.0393  139.1603  160.3792 H   0  0  0  0  0  0  0  0  0  0  0  0
  153.2364  138.8357  159.1217 H   0  0  0  0  0  0  0  0  0  0  0  0
  152.8733  138.8698  154.7555 H   0  0  0  0  0  0  0  0  0  0  0  0
  147.5846  142.1930  156.3274 H   0  0  0  0  0  0  0  0  0  0  0  0
  147.5509  141.8527  153.8455 H   0  0  0  0  0  0  0  0  0  0  0  0
  149.0694  141.4505  153.0751 H   0  0  0  0  0  0  0  0  0  0  0  0
  147.2142  139.8405  152.4681 H   0  0  0  0  0  0  0  0  0  0  0  0
  149.2276  139.1128  152.2892 H   0  0  0  0  0  0  0  0  0  0  0  0
  147.3859  138.9896  155.4105 H   0  0  0  0  0  0  0  0  0  0  0  0
  146.1413  137.6356  152.9853 H   0  0  0  0  0  0  0  0  0  0  0  0
  147.0746  136.8794  154.2811 H   0  0  0  0  0  0  0  0  0  0  0  0
  144.3968  136.8002  154.4479 H   0  0  0  0  0  0  0  0  0  0  0  0
  145.2966  137.3127  155.8834 H   0  0  0  0  0  0  0  0  0  0  0  0
  143.9622  139.0892  153.8078 H   0  0  0  0  0  0  0  0  0  0  0  0
  143.8791  139.2341  155.5666 H   0  0  0  0  0  0  0  0  0  0  0  0
  153.9203  144.5363  159.4578 H   0  0  0  0  0  0  0  0  0  0  0  0
  153.7711  143.9384  157.7651 H   0  0  0  0  0  0  0  0  0  0  0  0
  151.6382  145.4514  159.3995 H   0  0  0  0  0  0  0  0  0  0  0  0
  151.9216  145.5356  157.6160 H   0  0  0  0  0  0  0  0  0  0  0  0
  151.1941  143.2473  157.3156 H   0  0  0  0  0  0  0  0  0  0  0  0
  150.2609  143.4986  158.8403 H   0  0  0  0  0  0  0  0  0  0  0  0
  1  2  1  0  0  0  0
  1 29  1  0  0  0  0
  1 30  1  0  0  0  0
  1 31  1  0  0  0  0
  2  3  1  0  0  0  0
  3 25  1  0  0  0  0
  3  4  1  0  0  0  0
  3 32  1  0  0  0  0
  4  5  1  0  0  0  0
  4 33  1  0  0  0  0
  4 34  1  0  0  0  0
  5  6  1  0  0  0  0
  5 25  1  0  0  0  0
  5 35  1  0  0  0  0
  6  7  1  0  0  0  0
  6  8  1  0  0  0  0
  7 36  1  0  0  0  0
  7 37  1  0  0  0  0
  7 38  1  0  0  0  0
  8 13  1  0  0  0  0
  8  9  2  0  0  0  0
  9 10  1  0  0  0  0
 10 11  2  0  0  0  0
 10 39  1  0  0  0  0
 11 12  1  0  0  0  0
 12 16  1  0  0  0  0
 12 13  2  0  0  0  0
 13 14  1  0  0  0  0
 14 15  2  0  0  0  0
 15 16  1  0  0  0  0
 15 40  1  0  0  0  0
 16 17  1  0  0  0  0
 17 18  1  0  0  0  0
 17 41  1  0  0  0  0
 17 42  1  0  0  0  0
 18 19  1  0  0  0  0
 18 20  1  0  0  0  0
 18 43  1  0  0  0  0
 19 44  1  0  0  0  0
 20 24  1  0  0  0  0
 20 21  1  0  0  0  0
 20 45  1  0  0  0  0
 21 22  1  0  0  0  0
 21 46  1  0  0  0  0
 21 47  1  0  0  0  0
 22 23  1  0  0  0  0
 22 48  1  0  0  0  0
 22 49  1  0  0  0  0
 23 24  1  0  0  0  0
 23 50  1  0  0  0  0
 23 51  1  0  0  0  0
 25 28  1  0  0  0  0
 25 26  1  0  0  0  0
 26 27  1  0  0  0  0
 26 52  1  0  0  0  0
 26 53  1  0  0  0  0
 27 28  1  0  0  0  0
 27 54  1  0  0  0  0
 27 55  1  0  0  0  0
 28 56  1  0  0  0  0
 28 57  1  0  0  0  0
M  END
> <s_m_source_file>
AV-unprocessed.smi

> <i_m_source_file_index>
276

> <i_lp_mmshare_version>
43012

> <i_f3d_flags>
0

> <s_epik_input>
W0NIMl0xW0NIMl1bQ0gyXUMxMltDQEhdKE9bQ0gzXSlbQ0gyXVtDQEhdMk4oW0NIM10pYyhuW2NIXW4zKWMoYzM0KW5bY0hdbjRbQ0gyXVtDQEhdKFtPSF0pW0NAQEhdNVtDSDJdW0NIMl1bQ0gyXU81

> <s_epik_cmdline>
J2VwaWtfcHl0aG9uJywgJy1waCcsICc3LjAnLCAnLXRuJywgJzgnLCAnLW1hJywgJzIwMCcsICctbWV0YWxfYmluZGluZycsICctaW1hZScsICc8aW5maWxlLm1hZT4nLCAnLW9tYWUnLCAnPG91dGZpbGUubWFlPic=

> <r_lp_tautomer_probability>
1

> <r_epik_Ionization_Penalty>
0.00204117

> <r_epik_Ionization_Penalty_Charging>
0

> <r_epik_Ionization_Penalty_Neutral>
0.00204117

> <r_epik_State_Penalty>
0.00127401

> <r_epik_Charging_Adjusted_Penalty>
0.00127401

> <i_epik_Tot_Q>
0

> <i_epik_Tot_abs_Q>
0

> <r_epik_Metal_State_Penalty>
-0

> <b_epik_Metal_Only>
0

> <s_lp_Force_Field>
OPLS_2005

> <r_lp_Energy>
56.3497

> <b_lp_Chiralities_Consistent>
1

> <s_lp_Variant>
AV-unprocessed.smi:276-5

> <Gold.Version>
5.8.1

> <Gold.Id.Protein>
6NUR|6NUR_protein|mol2

> <Gold.PLP.Fitness>
58.6785

> <Gold.PLP.PLP>
-50.9546

> <Gold.PLP.part.hbond>
-3.9212

> <Gold.PLP.part.metal>
0.0000

> <Gold.PLP.part.buried>
-6.9975

> <Gold.PLP.part.nonpolar>
-40.9372

> <Gold.PLP.part.repulsive>
0.3314

> <Gold.PLP.ligand.clash>
0.0000

> <Gold.PLP.ligand.torsion>
0.9838

> <Gold.PLP.Chemscore.Hbond>
3.0000

> <Gold.PLP.Chemscore.CHOScore>
0.0000

> <Gold.PLP.Chemscore.Metal>
0.0000

> <Gold.Chemscore.Hbonds>
donor molecule, donor type, donor heavy atom, donor atom, acceptor molecule, acceptor atom, score
      L1  H    19    44       P1  7957  0.91
      P1  H  7989  7998       L1    11  1.00
      P1  H  7997  8010       L1     9  1.00
      L1  C    15    40       P1  8028  0.02

> <Gold.PLP.Chemscore.Internal.Correction>
0.6914

> <Gold.Rescore>
     Score         DG    S(hbond)    S(metal)    S(lipo)     H(rot)  DE(clash)    DE(int)     intcor
     16.59     -18.67       1.75        0.00     122.29       2.72       0.37       1.71       ----

> <Gold.Chemscore.Fitness>
16.5908

> <Gold.Chemscore.DG>
-18.6672

> <Gold.Chemscore.ZeroCoef>
-5.4800

> <Gold.Chemscore.Hbond>
1.7472

> <Gold.Chemscore.Metal>
0.0000

> <Gold.Chemscore.Lipo>
122.2851

> <Gold.Chemscore.Internal_Hbond>
0.0000

> <Gold.Chemscore.DEClash>
0.3710

> <Gold.Chemscore.DEInternal>
1.7053

> <Gold.Chemscore.Rot>
2.7172

> <Gold.Chemscore.Internal.Correction>
   9.000000E+99

> <Gold.Chemscore.Hbonds>
donor molecule, donor type, donor heavy atom, donor atom, acceptor molecule, acceptor atom, score
      L1  H    19    44       P1  7957  0.85
      P1  H  7989  7998       L1    11  0.33
      P1  H  7997  8010       L1     9  0.38

> <Gold.Chemscore.Hbond.Weighted>
-5.8358

> <Gold.Chemscore.Metal.Weighted>
-0.0000

> <Gold.Chemscore.Lipo.Weighted>
-14.3074

> <Gold.Chemscore.Internal_Hbond.Weighted>
0.0000

> <Gold.Chemscore.DEClash.Weighted>
0.3710

> <Gold.Chemscore.DEInternal.Weighted>
1.7053

> <Gold.Chemscore.Rot.Weighted>
6.9560

> <Gold.Chemscore.Internal.Correction.Weighted>
   9.000000E+99

> <Gold.Protein.RotatedTorsions>
[ 6907 6896 6895 6894 ] final  -88.81 input  -60.11 | X-H torsion
[ 7974 7965 7964 7962 ] final -169.20 input  175.53 | X-H torsion
[ 8008 7997 7996 7995 ] final   64.35 input   59.86 | X-H torsion
[ 10167 10162 10161 10158 ] final   90.97 input  -65.29 | X-H torsion
[ 10718 10713 10712 10709 ] final   31.22 input   66.30 | X-H torsion
[ 10763 10752 10751 10750 ] final  114.64 input  -60.55 | X-H torsion
[ 11005 11000 10999 10996 ] final  -36.72 input  -57.11 | X-H torsion

> <Gold.Protein.ActiveResidues>
 VAL166  LYS551  ARG553  GLY616  TRP617  ASP618  TYR619  PRO620  LYS621  CYS622 
 ASP623  PHE694  ASN695  SER759  ASP760  ASP761  ALA762  ILE779  LEU786  VAL792 
 PHE793  MET794  SER795  GLU796  ALA797  LYS798  CYS799  TRP800  GLU811  SER814 

> <Gold.Protein.RotatedAtoms>
  150.6870  134.2684  159.4577 H   0  0  0  0  0  0  0  0  0  0  0  0  # atno 6907 bound_to 6896
  152.0609  134.9592  160.0584 H   0  0  0  0  0  0  0  0  0  0  0  0  # atno 6908 bound_to 6896
  152.1020  133.4220  159.4628 H   0  0  0  0  0  0  0  0  0  0  0  0  # atno 6909 bound_to 6896
  144.7189  140.2256  143.6310 H   0  0  0  0  0  0  0  0  0  0  0  0  # atno 7974 bound_to 7965
  155.6446  140.3497  155.4727 H   0  0  0  0  0  0  0  0  0  0  0  0  # atno 8008 bound_to 7997
  155.9898  140.1191  157.0672 H   0  0  0  0  0  0  0  0  0  0  0  0  # atno 8009 bound_to 7997
  154.4216  140.1121  156.5536 H   0  0  0  0  0  0  0  0  0  0  0  0  # atno 8010 bound_to 7997
  139.8420  144.6636  150.9272 H   0  0  0  0  0  0  0  0  0  0  0  0  # atno 10167 bound_to 10162
  157.2697  130.7202  149.6497 H   0  0  0  0  0  0  0  0  0  0  0  0  # atno 10718 bound_to 10713
  153.5102  135.3619  155.2583 H   0  0  0  0  0  0  0  0  0  0  0  0  # atno 10763 bound_to 10752
  154.8742  135.4021  154.3377 H   0  0  0  0  0  0  0  0  0  0  0  0  # atno 10764 bound_to 10752
  153.4029  135.7075  153.6480 H   0  0  0  0  0  0  0  0  0  0  0  0  # atno 10765 bound_to 10752
  140.9896  133.7012  156.1827 H   0  0  0  0  0  0  0  0  0  0  0  0  # atno 11005 bound_to 11000
  145.8459  139.2152  143.1800 LP  0  0  0  0  0  0  0  0  0  0  0  0  # atno 17320 bound_to 7965
  146.0304  140.8263  142.9878 LP  0  0  0  0  0  0  0  0  0  0  0  0  # atno 17321 bound_to 7965
  140.7797  143.3904  151.1320 LP  0  0  0  0  0  0  0  0  0  0  0  0  # atno 17342 bound_to 10162
  139.7549  143.8722  152.3086 LP  0  0  0  0  0  0  0  0  0  0  0  0  # atno 17343 bound_to 10162
  155.9663  130.4371  150.5163 LP  0  0  0  0  0  0  0  0  0  0  0  0  # atno 17370 bound_to 10713
  157.3085  131.0659  151.2018 LP  0  0  0  0  0  0  0  0  0  0  0  0  # atno 17371 bound_to 10713
  140.7060  134.4513  157.5584 LP  0  0  0  0  0  0  0  0  0  0  0  0  # atno 17394 bound_to 11000
  139.8986  134.8609  156.1994 LP  0  0  0  0  0  0  0  0  0  0  0  0  # atno 17395 bound_to 11000

$$$$
