AV-unprocessed.smi:916|AV-procd|sdf|4159|dock2
  -GOLD-   22720 2 63D 1   1.00000     0.00000
 Structure written by MMmdl.
 43 44  0  0  0  0  0  0  0  0  1 V2000
  146.1692  130.7397  152.1680 C   0  0  0  0  0  0  0  0  0  0  0  0
  144.8467  131.2721  151.6052 C   0  0  0  0  0  0  0  0  0  0  0  0
  144.7726  132.7684  151.6448 C   0  0  0  0  0  0  0  0  0  0  0  0
  143.7280  133.5541  151.2225 C   0  0  0  0  0  0  0  0  0  0  0  0
  144.0536  135.2521  151.4467 S   0  0  0  0  0  0  0  0  0  0  0  0
  145.6219  134.8234  152.1117 C   0  0  0  0  0  0  0  0  0  0  0  0
  146.5418  135.8065  152.5609 N   0  0  0  0  0  0  0  0  0  0  0  0
  146.3115  136.8445  153.3841 C   0  0  0  0  0  0  0  0  0  0  0  0
  145.2307  137.1107  153.9107 O   0  0  0  0  0  0  0  0  0  0  0  0
  147.4211  137.5715  153.5711 N   0  0  0  0  0  0  0  0  0  0  0  0
  147.4915  138.7659  154.4037 C   0  0  0  0  0  0  0  0  0  0  0  0
  148.1021  139.9573  153.6304 C   0  0  1  0  0  0  0  0  0  0  0  0
  147.0885  141.0636  153.3680 C   0  0  0  0  0  0  0  0  0  0  0  0
  147.1723  141.9319  154.6256 C   0  0  0  0  0  0  0  0  0  0  0  0
  148.3765  141.5546  155.2868 O   0  0  0  0  0  0  0  0  0  0  0  0
  149.1615  140.7521  154.4142 C   0  0  1  0  0  0  0  0  0  0  0  0
  150.2285  139.9475  155.1913 C   0  0  0  0  0  0  0  0  0  0  0  0
  151.2733  140.8828  155.8214 C   0  0  0  0  0  0  0  0  0  0  0  0
  150.9271  138.9114  154.2943 C   0  0  0  0  0  0  0  0  0  0  0  0
  145.8473  133.5055  152.1518 N   0  0  0  0  0  0  0  0  0  0  0  0
  146.2001  129.6509  152.1229 H   0  0  0  0  0  0  0  0  0  0  0  0
  146.3005  131.0330  153.2100 H   0  0  0  0  0  0  0  0  0  0  0  0
  147.0199  131.1214  151.6028 H   0  0  0  0  0  0  0  0  0  0  0  0
  144.7261  130.9188  150.5805 H   0  0  0  0  0  0  0  0  0  0  0  0
  144.0171  130.8430  152.1681 H   0  0  0  0  0  0  0  0  0  0  0  0
  142.7887  133.2371  150.7942 H   0  0  0  0  0  0  0  0  0  0  0  0
  147.4849  135.7074  152.2155 H   0  0  0  0  0  0  0  0  0  0  0  0
  148.2692  137.2860  153.1043 H   0  0  0  0  0  0  0  0  0  0  0  0
  146.4948  139.0202  154.7688 H   0  0  0  0  0  0  0  0  0  0  0  0
  148.0973  138.5243  155.2770 H   0  0  0  0  0  0  0  0  0  0  0  0
  148.5188  139.5911  152.6912 H   0  0  0  0  0  0  0  0  0  0  0  0
  147.4043  141.6477  152.5023 H   0  0  0  0  0  0  0  0  0  0  0  0
  146.0772  140.7088  153.1689 H   0  0  0  0  0  0  0  0  0  0  0  0
  147.1840  142.9930  154.3760 H   0  0  0  0  0  0  0  0  0  0  0  0
  146.3293  141.7485  155.2923 H   0  0  0  0  0  0  0  0  0  0  0  0
  149.6692  141.4277  153.7224 H   0  0  0  0  0  0  0  0  0  0  0  0
  149.7428  139.4164  156.0102 H   0  0  0  0  0  0  0  0  0  0  0  0
  151.7978  141.4620  155.0610 H   0  0  0  0  0  0  0  0  0  0  0  0
  152.0184  140.3183  156.3826 H   0  0  0  0  0  0  0  0  0  0  0  0
  150.8103  141.5857  156.5145 H   0  0  0  0  0  0  0  0  0  0  0  0
  151.4356  139.3925  153.4582 H   0  0  0  0  0  0  0  0  0  0  0  0
  150.2208  138.1915  153.8815 H   0  0  0  0  0  0  0  0  0  0  0  0
  151.6726  138.3470  154.8548 H   0  0  0  0  0  0  0  0  0  0  0  0
  1  2  1  0  0  0  0
  1 21  1  0  0  0  0
  1 22  1  0  0  0  0
  1 23  1  0  0  0  0
  2  3  1  0  0  0  0
  2 24  1  0  0  0  0
  2 25  1  0  0  0  0
  3 20  1  0  0  0  0
  3  4  2  0  0  0  0
  4  5  1  0  0  0  0
  4 26  1  0  0  0  0
  5  6  1  0  0  0  0
  6  7  1  0  0  0  0
  6 20  2  0  0  0  0
  7  8  1  0  0  0  0
  7 27  1  0  0  0  0
  8  9  2  0  0  0  0
  8 10  1  0  0  0  0
 10 11  1  0  0  0  0
 10 28  1  0  0  0  0
 11 12  1  0  0  0  0
 11 29  1  0  0  0  0
 11 30  1  0  0  0  0
 12 16  1  0  0  0  0
 12 13  1  0  0  0  0
 12 31  1  0  0  0  0
 13 14  1  0  0  0  0
 13 32  1  0  0  0  0
 13 33  1  0  0  0  0
 14 15  1  0  0  0  0
 14 34  1  0  0  0  0
 14 35  1  0  0  0  0
 15 16  1  0  0  0  0
 16 17  1  0  0  0  0
 16 36  1  0  0  0  0
 17 18  1  0  0  0  0
 17 19  1  0  0  0  0
 17 37  1  0  0  0  0
 18 38  1  0  0  0  0
 18 39  1  0  0  0  0
 18 40  1  0  0  0  0
 19 41  1  0  0  0  0
 19 42  1  0  0  0  0
 19 43  1  0  0  0  0
M  END
> <s_m_source_file>
AV-unprocessed.smi

> <i_m_source_file_index>
916

> <i_lp_mmshare_version>
43012

> <i_f3d_flags>
0

> <s_epik_input>
W0NIM11bQ0gyXWMxW2NIXXNjKG4xKVtOSF1DKD1PKVtOSF1bQ0gyXVtDQEBIXTJbQ0gyXVtDSDJdT1tDQEhdMltDSF0oW0NIM10pW0NIM10=

> <s_epik_cmdline>
J2VwaWtfcHl0aG9uJywgJy1waCcsICc3LjAnLCAnLXRuJywgJzgnLCAnLW1hJywgJzIwMCcsICctbWV0YWxfYmluZGluZycsICctaW1hZScsICc8aW5maWxlLm1hZT4nLCAnLW9tYWUnLCAnPG91dGZpbGUubWFlPic=

> <r_lp_tautomer_probability>
0.999

> <r_epik_Ionization_Penalty>
0.000518907

> <r_epik_Ionization_Penalty_Charging>
0

> <r_epik_Ionization_Penalty_Neutral>
0.000518907

> <r_epik_State_Penalty>
0.000177984

> <r_epik_Charging_Adjusted_Penalty>
0.000177984

> <i_epik_Tot_Q>
0

> <i_epik_Tot_abs_Q>
0

> <r_epik_Metal_State_Penalty>
-0

> <b_epik_Metal_Only>
0

> <s_lp_Force_Field>
OPLS_2005

> <r_lp_Energy>
19.5432

> <b_lp_Chiralities_Consistent>
1

> <s_lp_Variant>
AV-unprocessed.smi:916-2

> <Gold.Version>
5.8.1

> <Gold.Id.Protein>
6NUR|6NUR_protein|mol2

> <Gold.PLP.Fitness>
40.9255

> <Gold.PLP.PLP>
-34.5033

> <Gold.PLP.part.hbond>
-1.9818

> <Gold.PLP.part.metal>
0.0000

> <Gold.PLP.part.buried>
-2.5647

> <Gold.PLP.part.nonpolar>
-30.0186

> <Gold.PLP.part.repulsive>
0.4050

> <Gold.PLP.ligand.clash>
0.0000

> <Gold.PLP.ligand.torsion>
1.1923

> <Gold.PLP.Chemscore.Hbond>
1.9120

> <Gold.PLP.Chemscore.CHOScore>
1.0000

> <Gold.PLP.Chemscore.Metal>
0.0000

> <Gold.Chemscore.Hbonds>
donor molecule, donor type, donor heavy atom, donor atom, acceptor molecule, acceptor atom, score
      L1  H     7    27       P1  7948  1.00
      L1  H    10    28       P1  7948  0.91
      L1  C     4    26       P1 10186  1.00

> <Gold.PLP.Chemscore.Internal.Correction>
0.0708

> <Gold.Rescore>
     Score         DG    S(hbond)    S(metal)    S(lipo)     H(rot)  DE(clash)    DE(int)     intcor
     16.63     -18.14       1.88        0.00      87.80       1.52       0.32       1.19       ----

> <Gold.Chemscore.Fitness>
16.6317

> <Gold.Chemscore.DG>
-18.1438

> <Gold.Chemscore.ZeroCoef>
-5.4800

> <Gold.Chemscore.Hbond>
1.8838

> <Gold.Chemscore.Metal>
0.0000

> <Gold.Chemscore.Lipo>
87.8013

> <Gold.Chemscore.Internal_Hbond>
0.0000

> <Gold.Chemscore.DEClash>
0.3179

> <Gold.Chemscore.DEInternal>
1.1942

> <Gold.Chemscore.Rot>
1.5238

> <Gold.Chemscore.Internal.Correction>
   9.000000E+99

> <Gold.Chemscore.Hbonds>
donor molecule, donor type, donor heavy atom, donor atom, acceptor molecule, acceptor atom, score
      L1  H     7    27       P1  7948  0.96
      L1  H    10    28       P1  7948  0.90

> <Gold.Chemscore.Hbond.Weighted>
-6.2919

> <Gold.Chemscore.Metal.Weighted>
-0.0000

> <Gold.Chemscore.Lipo.Weighted>
-10.2728

> <Gold.Chemscore.Internal_Hbond.Weighted>
0.0000

> <Gold.Chemscore.DEClash.Weighted>
0.3179

> <Gold.Chemscore.DEInternal.Weighted>
1.1942

> <Gold.Chemscore.Rot.Weighted>
3.9008

> <Gold.Chemscore.Internal.Correction.Weighted>
   9.000000E+99

> <Gold.Protein.RotatedTorsions>
[ 6907 6896 6895 6894 ] final  -18.91 input  -60.11 | X-H torsion
[ 7974 7965 7964 7962 ] final   -0.78 input  175.53 | X-H torsion
[ 8008 7997 7996 7995 ] final  -42.31 input   59.86 | X-H torsion
[ 10167 10162 10161 10158 ] final   76.42 input  -65.29 | X-H torsion
[ 10718 10713 10712 10709 ] final   30.21 input   66.30 | X-H torsion
[ 10763 10752 10751 10750 ] final  126.81 input  -60.55 | X-H torsion
[ 11005 11000 10999 10996 ] final -155.31 input  -57.11 | X-H torsion

> <Gold.Protein.ActiveResidues>
 VAL166  LYS551  ARG553  GLY616  TRP617  ASP618  TYR619  PRO620  LYS621  CYS622 
 ASP623  PHE694  ASN695  SER759  ASP760  ASP761  ALA762  ILE779  LEU786  VAL792 
 PHE793  MET794  SER795  GLU796  ALA797  LYS798  CYS799  TRP800  GLU811  SER814 

> <Gold.Protein.RotatedAtoms>
  151.2710  135.0684  159.9133 H   0  0  0  0  0  0  0  0  0  0  0  0  # atno 6907 bound_to 6896
  152.5350  134.0130  159.7957 H   0  0  0  0  0  0  0  0  0  0  0  0  # atno 6908 bound_to 6896
  151.0369  133.5691  159.2686 H   0  0  0  0  0  0  0  0  0  0  0  0  # atno 6909 bound_to 6896
  146.2424  140.1321  142.8337 H   0  0  0  0  0  0  0  0  0  0  0  0  # atno 7974 bound_to 7965
  154.3999  140.1477  156.3334 H   0  0  0  0  0  0  0  0  0  0  0  0  # atno 8008 bound_to 7997
  155.8422  140.3461  155.5618 H   0  0  0  0  0  0  0  0  0  0  0  0  # atno 8009 bound_to 7997
  155.8074  140.0879  157.1913 H   0  0  0  0  0  0  0  0  0  0  0  0  # atno 8010 bound_to 7997
  139.9924  144.5747  150.7807 H   0  0  0  0  0  0  0  0  0  0  0  0  # atno 10167 bound_to 10162
  157.2566  130.7141  149.6432 H   0  0  0  0  0  0  0  0  0  0  0  0  # atno 10718 bound_to 10713
  153.6993  135.3286  155.3221 H   0  0  0  0  0  0  0  0  0  0  0  0  # atno 10763 bound_to 10752
  154.8417  135.4450  154.1427 H   0  0  0  0  0  0  0  0  0  0  0  0  # atno 10764 bound_to 10752
  153.2490  135.6979  153.7778 H   0  0  0  0  0  0  0  0  0  0  0  0  # atno 10765 bound_to 10752
  140.6879  134.4073  157.5221 H   0  0  0  0  0  0  0  0  0  0  0  0  # atno 11005 bound_to 11000
  145.0318  140.8876  143.5105 LP  0  0  0  0  0  0  0  0  0  0  0  0  # atno 17320 bound_to 7965
  145.1386  139.2586  143.5502 LP  0  0  0  0  0  0  0  0  0  0  0  0  # atno 17321 bound_to 7965
  140.7450  143.2868  151.3440 LP  0  0  0  0  0  0  0  0  0  0  0  0  # atno 17342 bound_to 10162
  139.6330  144.0684  152.2492 LP  0  0  0  0  0  0  0  0  0  0  0  0  # atno 17343 bound_to 10162
  155.9665  130.4411  150.5325 LP  0  0  0  0  0  0  0  0  0  0  0  0  # atno 17370 bound_to 10713
  157.3221  131.0684  151.1924 LP  0  0  0  0  0  0  0  0  0  0  0  0  # atno 17371 bound_to 10713
  139.8932  134.8736  156.2234 LP  0  0  0  0  0  0  0  0  0  0  0  0  # atno 17394 bound_to 11000
  141.0265  133.7012  156.1357 LP  0  0  0  0  0  0  0  0  0  0  0  0  # atno 17395 bound_to 11000

$$$$
