AV-unprocessed.smi:109|AV-procd|sdf|1055|dock5
  -GOLD-   2262018113D 1   1.00000     0.00000
 Structure written by MMmdl.
 58 61  0  0  0  0  0  0  0  0  1 V2000
  154.1288  136.0279  156.7856 O   0  0  0  0  0  0  0  0  0  0  0  0
  153.6587  137.3495  156.9394 C   0  0  0  0  0  0  0  0  0  0  0  0
  152.8376  137.4634  158.2352 C   0  0  0  0  0  0  0  0  0  0  0  0
  151.9844  138.7518  158.3317 C   0  0  2  0  0  0  0  0  0  0  0  0
  151.2811  138.9627  157.0643 N   0  0  0  0  0  0  0  0  0  0  0  0
  150.0138  139.4298  157.0075 C   0  0  0  0  0  0  0  0  0  0  0  0
  149.7423  140.7606  157.0427 N   0  0  0  0  0  0  0  0  0  0  0  0
  148.4778  141.1890  156.9845 C   0  0  0  0  0  0  0  0  0  0  0  0
  147.3565  140.4701  156.8913 N   0  0  0  0  0  0  0  0  0  0  0  0
  147.6256  139.1329  156.8593 C   0  0  0  0  0  0  0  0  0  0  0  0
  148.9157  138.5373  156.9112 C   0  0  0  0  0  0  0  0  0  0  0  0
  148.7977  137.1546  156.8539 N   0  0  0  0  0  0  0  0  0  0  0  0
  147.5099  136.9510  156.7706 C   0  0  0  0  0  0  0  0  0  0  0  0
  146.7319  138.0892  156.7653 N   0  0  0  0  0  0  0  0  0  0  0  0
  145.2429  138.2161  156.6794 C   0  0  2  0  0  0  0  0  0  0  0  0
  144.6951  137.4185  157.6869 O   0  0  0  0  0  0  0  0  0  0  0  0
  143.7560  136.4919  157.1445 C   0  0  2  0  0  0  0  0  0  0  0  0
  143.6880  135.2108  157.9944 C   0  0  0  0  0  0  0  0  0  0  0  0
  142.7281  134.3252  157.4596 O   0  0  0  0  0  0  0  0  0  0  0  0
  144.2047  136.3009  155.6890 C   0  0  2  0  0  0  0  0  0  0  0  0
  145.2216  135.3169  155.5891 O   0  0  0  0  0  0  0  0  0  0  0  0
  144.6968  137.6984  155.3351 C   0  0  2  0  0  0  0  0  0  0  0  0
  145.6077  137.7158  154.2488 O   0  0  0  0  0  0  0  0  0  0  0  0
  152.8104  140.0234  158.6805 C   0  0  0  0  0  0  0  0  0  0  0  0
  153.7999  139.8066  159.8530 C   0  0  0  0  0  0  0  0  0  0  0  0
  154.5765  141.0844  160.2121 C   0  0  0  0  0  0  0  0  0  0  0  0
  153.6299  142.2471  160.5333 C   0  0  0  0  0  0  0  0  0  0  0  0
  152.6640  142.4923  159.3685 C   0  0  0  0  0  0  0  0  0  0  0  0
  151.8809  141.2171  159.0212 C   0  0  0  0  0  0  0  0  0  0  0  0
  145.0417  139.2734  156.8563 H   0  0  0  0  0  0  0  0  0  0  0  0
  142.7794  136.9800  157.1276 H   0  0  0  0  0  0  0  0  0  0  0  0
  143.3759  135.9942  155.0501 H   0  0  0  0  0  0  0  0  0  0  0  0
  143.8389  138.3212  155.0781 H   0  0  0  0  0  0  0  0  0  0  0  0
  154.5566  135.7660  157.5865 H   0  0  0  0  0  0  0  0  0  0  0  0
  154.5165  138.0218  156.9524 H   0  0  0  0  0  0  0  0  0  0  0  0
  153.0493  137.6119  156.0742 H   0  0  0  0  0  0  0  0  0  0  0  0
  152.1930  136.5872  158.2739 H   0  0  0  0  0  0  0  0  0  0  0  0
  153.5002  137.3967  159.0992 H   0  0  0  0  0  0  0  0  0  0  0  0
  151.2758  138.6135  159.1478 H   0  0  0  0  0  0  0  0  0  0  0  0
  151.8134  138.7443  156.2343 H   0  0  0  0  0  0  0  0  0  0  0  0
  148.3460  142.2604  157.0175 H   0  0  0  0  0  0  0  0  0  0  0  0
  147.0919  135.9567  156.7112 H   0  0  0  0  0  0  0  0  0  0  0  0
  144.6489  134.6957  157.9760 H   0  0  0  0  0  0  0  0  0  0  0  0
  143.4565  135.4354  159.0360 H   0  0  0  0  0  0  0  0  0  0  0  0
  143.1435  133.7960  156.7959 H   0  0  0  0  0  0  0  0  0  0  0  0
  145.7654  135.5197  154.8436 H   0  0  0  0  0  0  0  0  0  0  0  0
  145.9039  138.6039  154.1205 H   0  0  0  0  0  0  0  0  0  0  0  0
  153.3964  140.2950  157.8008 H   0  0  0  0  0  0  0  0  0  0  0  0
  153.2585  139.4493  160.7300 H   0  0  0  0  0  0  0  0  0  0  0  0
  154.5332  139.0408  159.6063 H   0  0  0  0  0  0  0  0  0  0  0  0
  155.2306  140.8936  161.0632 H   0  0  0  0  0  0  0  0  0  0  0  0
  155.2256  141.3619  159.3805 H   0  0  0  0  0  0  0  0  0  0  0  0
  153.0651  142.0231  161.4392 H   0  0  0  0  0  0  0  0  0  0  0  0
  154.2042  143.1509  160.7394 H   0  0  0  0  0  0  0  0  0  0  0  0
  151.9714  143.2948  159.6235 H   0  0  0  0  0  0  0  0  0  0  0  0
  153.2204  142.8302  158.4933 H   0  0  0  0  0  0  0  0  0  0  0  0
  151.2172  141.4428  158.1865 H   0  0  0  0  0  0  0  0  0  0  0  0
  151.2350  140.9500  159.8587 H   0  0  0  0  0  0  0  0  0  0  0  0
  1  2  1  0  0  0  0
  1 34  1  0  0  0  0
  2  3  1  0  0  0  0
  2 35  1  0  0  0  0
  2 36  1  0  0  0  0
  3  4  1  0  0  0  0
  3 37  1  0  0  0  0
  3 38  1  0  0  0  0
  4  5  1  0  0  0  0
  4 24  1  0  0  0  0
  4 39  1  0  0  0  0
  5  6  1  0  0  0  0
  5 40  1  0  0  0  0
  6 11  1  0  0  0  0
  6  7  2  0  0  0  0
  7  8  1  0  0  0  0
  8  9  2  0  0  0  0
  8 41  1  0  0  0  0
  9 10  1  0  0  0  0
 10 14  1  0  0  0  0
 10 11  2  0  0  0  0
 11 12  1  0  0  0  0
 12 13  2  0  0  0  0
 13 14  1  0  0  0  0
 13 42  1  0  0  0  0
 14 15  1  0  0  0  0
 15 30  1  0  0  0  0
 15 22  1  0  0  0  0
 15 16  1  0  0  0  0
 16 17  1  0  0  0  0
 17 31  1  0  0  0  0
 17 18  1  0  0  0  0
 17 20  1  0  0  0  0
 18 19  1  0  0  0  0
 18 43  1  0  0  0  0
 18 44  1  0  0  0  0
 19 45  1  0  0  0  0
 20 32  1  0  0  0  0
 20 21  1  0  0  0  0
 20 22  1  0  0  0  0
 21 46  1  0  0  0  0
 22 33  1  0  0  0  0
 22 23  1  0  0  0  0
 23 47  1  0  0  0  0
 24 29  1  0  0  0  0
 24 25  1  0  0  0  0
 24 48  1  0  0  0  0
 25 26  1  0  0  0  0
 25 49  1  0  0  0  0
 25 50  1  0  0  0  0
 26 27  1  0  0  0  0
 26 51  1  0  0  0  0
 26 52  1  0  0  0  0
 27 28  1  0  0  0  0
 27 53  1  0  0  0  0
 27 54  1  0  0  0  0
 28 29  1  0  0  0  0
 28 55  1  0  0  0  0
 28 56  1  0  0  0  0
 29 57  1  0  0  0  0
 29 58  1  0  0  0  0
M  END
> <s_m_source_file>
AV-unprocessed.smi

> <i_m_source_file_index>
109

> <i_lp_mmshare_version>
43012

> <i_f3d_flags>
0

> <s_epik_input>
W0NIMl0xW0NIMl1bQ0gyXVtDSDJdW0NIMl1bQ0hdMVtDQEhdKFtDSDJdW0NIMl1bT0hdKVtOSF1jKG5bY0hdbjIpYyhjMjMpbltjSF1uM1tDQEBIXTRPW0NASF0oW0NIMl1bT0hdKVtDQEBIXShbT0hdKVtDQEhdNFtPSF0=

> <s_epik_cmdline>
J2VwaWtfcHl0aG9uJywgJy1waCcsICc3LjAnLCAnLXRuJywgJzgnLCAnLW1hJywgJzIwMCcsICctbWV0YWxfYmluZGluZycsICctaW1hZScsICc8aW5maWxlLm1hZT4nLCAnLW9tYWUnLCAnPG91dGZpbGUubWFlPic=

> <r_lp_tautomer_probability>
1

> <r_epik_Ionization_Penalty>
0.000793976

> <r_epik_Ionization_Penalty_Charging>
0

> <r_epik_Ionization_Penalty_Neutral>
0.000793976

> <r_epik_State_Penalty>
-0

> <r_epik_Charging_Adjusted_Penalty>
0

> <i_epik_Tot_Q>
0

> <i_epik_Tot_abs_Q>
0

> <r_epik_Metal_State_Penalty>
-0

> <b_epik_Metal_Only>
0

> <s_epik_Chemistry_Notes>
This compound contains an acetal/aminal-like group ( X-CH(R)-Y where X, Y are N, S, or O) that may be acid/base labile, releasing an aldehyde.

> <s_lp_Force_Field>
OPLS_2005

> <r_lp_Energy>
59.4654

> <b_lp_Chiralities_Consistent>
1

> <s_lp_Variant>
AV-unprocessed.smi:109-25

> <Gold.Version>
5.8.1

> <Gold.Id.Protein>
6NUR|6NUR_protein|mol2

> <Gold.PLP.Fitness>
52.2246

> <Gold.PLP.PLP>
-39.4103

> <Gold.PLP.part.hbond>
-5.1255

> <Gold.PLP.part.metal>
0.0000

> <Gold.PLP.part.buried>
0.0906

> <Gold.PLP.part.nonpolar>
-33.5480

> <Gold.PLP.part.repulsive>
0.5821

> <Gold.PLP.ligand.clash>
0.0000

> <Gold.PLP.ligand.torsion>
1.4292

> <Gold.PLP.Chemscore.Hbond>
3.8400

> <Gold.PLP.Chemscore.CHOScore>
1.2816

> <Gold.PLP.Chemscore.Metal>
0.0000

> <Gold.Chemscore.Hbonds>
donor molecule, donor type, donor heavy atom, donor atom, acceptor molecule, acceptor atom, score
      P1  H 10752 10765       L1     1  1.00
      L1  C     8    41       P1  8028  0.20

> <Gold.PLP.Chemscore.Internal.Correction>
0.3081

> <Gold.Rescore>
     Score         DG    S(hbond)    S(metal)    S(lipo)     H(rot)  DE(clash)    DE(int)     intcor
      7.80     -12.00       3.04        0.00      88.60       5.47       0.36       3.84       ----

> <Gold.Chemscore.Fitness>
7.7996

> <Gold.Chemscore.DG>
-12.0031

> <Gold.Chemscore.ZeroCoef>
-5.4800

> <Gold.Chemscore.Hbond>
3.0391

> <Gold.Chemscore.Metal>
0.0000

> <Gold.Chemscore.Lipo>
88.5986

> <Gold.Chemscore.Internal_Hbond>
0.0000

> <Gold.Chemscore.DEClash>
0.3634

> <Gold.Chemscore.DEInternal>
3.8401

> <Gold.Chemscore.Rot>
5.4662

> <Gold.Chemscore.Internal.Correction>
   9.000000E+99

> <Gold.Chemscore.Hbonds>
donor molecule, donor type, donor heavy atom, donor atom, acceptor molecule, acceptor atom, score
      P1  H 10752 10765       L1     1  0.92

> <Gold.Chemscore.Hbond.Weighted>
-10.1506

> <Gold.Chemscore.Metal.Weighted>
-0.0000

> <Gold.Chemscore.Lipo.Weighted>
-10.3660

> <Gold.Chemscore.Internal_Hbond.Weighted>
0.0000

> <Gold.Chemscore.DEClash.Weighted>
0.3634

> <Gold.Chemscore.DEInternal.Weighted>
3.8401

> <Gold.Chemscore.Rot.Weighted>
13.9935

> <Gold.Chemscore.Internal.Correction.Weighted>
   9.000000E+99

> <Gold.Protein.RotatedTorsions>
[ 6907 6896 6895 6894 ] final   64.23 input  -60.11 | X-H torsion
[ 7974 7965 7964 7962 ] final -164.93 input  175.53 | X-H torsion
[ 8008 7997 7996 7995 ] final  -34.19 input   59.86 | X-H torsion
[ 10167 10162 10161 10158 ] final   52.98 input  -65.29 | X-H torsion
[ 10718 10713 10712 10709 ] final  -66.09 input   66.30 | X-H torsion
[ 10763 10752 10751 10750 ] final  -96.06 input  -60.55 | X-H torsion
[ 11005 11000 10999 10996 ] final    6.63 input  -57.11 | X-H torsion

> <Gold.Protein.ActiveResidues>
 VAL166  LYS551  ARG553  GLY616  TRP617  ASP618  TYR619  PRO620  LYS621  CYS622 
 ASP623  PHE694  ASN695  SER759  ASP760  ASP761  ALA762  ILE779  LEU786  VAL792 
 PHE793  MET794  SER795  GLU796  ALA797  LYS798  CYS799  TRP800  GLU811  SER814 

> <Gold.Protein.RotatedAtoms>
  152.4315  134.5768  159.9936 H   0  0  0  0  0  0  0  0  0  0  0  0  # atno 6907 bound_to 6896
  151.5890  133.3363  159.3032 H   0  0  0  0  0  0  0  0  0  0  0  0  # atno 6908 bound_to 6896
  150.8209  134.7451  159.6836 H   0  0  0  0  0  0  0  0  0  0  0  0  # atno 6909 bound_to 6896
  144.7283  140.2889  143.6223 H   0  0  0  0  0  0  0  0  0  0  0  0  # atno 7974 bound_to 7965
  154.4127  140.1690  156.2010 H   0  0  0  0  0  0  0  0  0  0  0  0  # atno 8008 bound_to 7997
  155.9524  140.3400  155.6396 H   0  0  0  0  0  0  0  0  0  0  0  0  # atno 8009 bound_to 7997
  155.6853  140.0727  157.2460 H   0  0  0  0  0  0  0  0  0  0  0  0  # atno 8010 bound_to 7997
  140.2457  144.3535  150.6365 H   0  0  0  0  0  0  0  0  0  0  0  0  # atno 10167 bound_to 10162
  156.0632  130.4257  150.1658 H   0  0  0  0  0  0  0  0  0  0  0  0  # atno 10718 bound_to 10713
  154.7205  135.5097  153.8804 H   0  0  0  0  0  0  0  0  0  0  0  0  # atno 10763 bound_to 10752
  153.0858  135.6645  153.9961 H   0  0  0  0  0  0  0  0  0  0  0  0  # atno 10764 bound_to 10752
  153.9785  135.3031  155.3401 H   0  0  0  0  0  0  0  0  0  0  0  0  # atno 10765 bound_to 10752
  140.5574  134.0225  155.7959 H   0  0  0  0  0  0  0  0  0  0  0  0  # atno 11005 bound_to 11000
  145.7875  139.1914  143.2122 LP  0  0  0  0  0  0  0  0  0  0  0  0  # atno 17320 bound_to 7965
  146.0783  140.7792  142.9654 LP  0  0  0  0  0  0  0  0  0  0  0  0  # atno 17321 bound_to 7965
  140.6080  143.2168  151.6943 LP  0  0  0  0  0  0  0  0  0  0  0  0  # atno 17342 bound_to 10162
  139.5063  144.3688  152.0491 LP  0  0  0  0  0  0  0  0  0  0  0  0  # atno 17343 bound_to 10162
  156.9723  130.9838  151.3456 LP  0  0  0  0  0  0  0  0  0  0  0  0  # atno 17370 bound_to 10713
  157.5656  130.8275  149.8323 LP  0  0  0  0  0  0  0  0  0  0  0  0  # atno 17371 bound_to 10713
  141.1135  133.9577  157.2865 LP  0  0  0  0  0  0  0  0  0  0  0  0  # atno 17394 bound_to 11000
  139.9425  135.0189  156.8751 LP  0  0  0  0  0  0  0  0  0  0  0  0  # atno 17395 bound_to 11000

$$$$
