AV-unprocessed.smi:50|AV-procd|sdf|492|dock5
  -GOLD-   2262016353D 1   1.00000     0.00000
 Structure written by MMmdl.
 44 45  0  0  0  0  0  0  0  0  2 V2000
  142.3205  145.1659  160.9708 C   0  0  0  0  0  0  0  0  0  0  0  0
  143.4005  144.0834  160.7769 C   0  0  0  0  0  0  0  0  0  0  0  0
  144.2774  144.0068  162.0410 C   0  0  0  0  0  0  0  0  0  0  0  0
  144.2481  144.3178  159.4963 C   0  0  1  0  0  0  0  0  0  0  0  0
  145.1507  145.4751  159.6426 N   0  3  0  0  0  0  0  0  0  0  0  0
  145.1504  143.1330  159.1157 C   0  0  0  0  0  0  0  0  0  0  0  0
  145.3751  142.1642  159.8427 O   0  0  0  0  0  0  0  0  0  0  0  0
  145.6859  143.3280  157.8984 O   0  0  0  0  0  0  0  0  0  0  0  0
  146.4344  142.2897  157.2857 C   0  0  0  0  0  0  0  0  0  0  0  0
  147.6541  141.9578  158.1497 C   0  0  0  0  0  0  0  0  0  0  0  0
  148.5459  141.1582  157.3897 O   0  0  0  0  0  0  0  0  0  0  0  0
  149.6794  141.8449  156.9704 C   0  0  0  0  0  0  0  0  0  0  0  0
  150.6515  140.8746  156.4979 N   0  0  0  0  0  0  0  0  0  0  0  0
  151.9340  140.6469  156.9358 C   0  0  0  0  0  0  0  0  0  0  0  0
  152.5539  139.6978  156.2914 N   0  0  0  0  0  0  0  0  0  0  0  0
  151.6278  139.2655  155.3470 C   0  0  0  0  0  0  0  0  0  0  0  0
  151.7369  138.2440  154.3442 C   0  0  0  0  0  0  0  0  0  0  0  0
  152.6938  137.5107  154.1043 O   0  0  0  0  0  0  0  0  0  0  0  0
  150.5678  138.1262  153.5816 N   0  0  0  0  0  0  0  0  0  0  0  0
  149.4290  138.9057  153.7702 C   0  0  0  0  0  0  0  0  0  0  0  0
  148.3950  138.6697  152.9521 N   0  0  0  0  0  0  0  0  0  0  0  0
  149.3284  139.8430  154.6964 N   0  0  0  0  0  0  0  0  0  0  0  0
  150.4546  139.9859  155.4624 C   0  0  0  0  0  0  0  0  0  0  0  0
  143.5734  144.5307  158.6662 H   0  0  0  0  0  0  0  0  0  0  0  0
  150.5675  137.4282  152.8524 H   0  0  0  0  0  0  0  0  0  0  0  0
  142.7656  146.1589  161.0427 H   0  0  0  0  0  0  0  0  0  0  0  0
  141.7517  144.9925  161.8848 H   0  0  0  0  0  0  0  0  0  0  0  0
  141.6028  145.1833  160.1511 H   0  0  0  0  0  0  0  0  0  0  0  0
  142.8892  143.1235  160.6839 H   0  0  0  0  0  0  0  0  0  0  0  0
  144.8516  144.9235  162.1803 H   0  0  0  0  0  0  0  0  0  0  0  0
  144.9800  143.1746  162.0000 H   0  0  0  0  0  0  0  0  0  0  0  0
  143.6667  143.8619  162.9330 H   0  0  0  0  0  0  0  0  0  0  0  0
  144.8660  146.2038  159.0040 H   0  0  0  0  0  0  0  0  0  0  0  0
  146.0963  145.1909  159.4291 H   0  0  0  0  0  0  0  0  0  0  0  0
  145.8003  141.4077  157.1878 H   0  0  0  0  0  0  0  0  0  0  0  0
  146.7501  142.5800  156.2824 H   0  0  0  0  0  0  0  0  0  0  0  0
  148.1419  142.8696  158.4982 H   0  0  0  0  0  0  0  0  0  0  0  0
  147.3291  141.4016  159.0301 H   0  0  0  0  0  0  0  0  0  0  0  0
  149.4281  142.5244  156.1535 H   0  0  0  0  0  0  0  0  0  0  0  0
  150.1244  142.4045  157.7946 H   0  0  0  0  0  0  0  0  0  0  0  0
  152.3938  141.1992  157.7425 H   0  0  0  0  0  0  0  0  0  0  0  0
  148.4706  137.9539  152.2436 H   0  0  0  0  0  0  0  0  0  0  0  0
  147.5416  139.2018  153.0421 H   0  0  0  0  0  0  0  0  0  0  0  0
  145.1075  145.8198  160.5910 H   0  0  0  0  0  0  0  0  0  0  0  0
  1  2  1  0  0  0  0
  1 26  1  0  0  0  0
  1 27  1  0  0  0  0
  1 28  1  0  0  0  0
  2  3  1  0  0  0  0
  2  4  1  0  0  0  0
  2 29  1  0  0  0  0
  3 30  1  0  0  0  0
  3 31  1  0  0  0  0
  3 32  1  0  0  0  0
  4 24  1  0  0  0  0
  4  5  1  0  0  0  0
  4  6  1  0  0  0  0
  5 33  1  0  0  0  0
  5 34  1  0  0  0  0
  5 44  1  0  0  0  0
  6  7  2  0  0  0  0
  6  8  1  0  0  0  0
  8  9  1  0  0  0  0
  9 10  1  0  0  0  0
  9 35  1  0  0  0  0
  9 36  1  0  0  0  0
 10 11  1  0  0  0  0
 10 37  1  0  0  0  0
 10 38  1  0  0  0  0
 11 12  1  0  0  0  0
 12 13  1  0  0  0  0
 12 39  1  0  0  0  0
 12 40  1  0  0  0  0
 13 23  1  0  0  0  0
 13 14  1  0  0  0  0
 14 15  2  0  0  0  0
 14 41  1  0  0  0  0
 15 16  1  0  0  0  0
 16 23  2  0  0  0  0
 16 17  1  0  0  0  0
 17 18  2  0  0  0  0
 17 19  1  0  0  0  0
 19 25  1  0  0  0  0
 19 20  1  0  0  0  0
 20 21  1  0  0  0  0
 20 22  2  0  0  0  0
 21 42  1  0  0  0  0
 21 43  1  0  0  0  0
 22 23  1  0  0  0  0
M  CHG  1   5   1
M  END
> <s_m_source_file>
AV-unprocessed.smi

> <i_m_source_file_index>
50

> <i_lp_mmshare_version>
43012

> <i_f3d_flags>
0

> <s_epik_input>
W0NIM11bQ0hdKFtDSDNdKVtDQEhdKFtOSDJdKUMoPU8pT1tDSDJdW0NIMl1PW0NIMl1uKFtjSF1uMSljKGMxMiluYyhbTkgyXSlbbkhdYzI9Tw==

> <s_epik_cmdline>
J2VwaWtfcHl0aG9uJywgJy1waCcsICc3LjAnLCAnLXRuJywgJzgnLCAnLW1hJywgJzIwMCcsICctbWV0YWxfYmluZGluZycsICctaW1hZScsICc8aW5maWxlLm1hZT4nLCAnLW9tYWUnLCAnPG91dGZpbGUubWFlPic=

> <r_lp_tautomer_probability>
0.99994

> <r_epik_Ionization_Penalty>
0.217551

> <r_epik_Ionization_Penalty_Charging>
0.217477

> <r_epik_Ionization_Penalty_Neutral>
7.42487e-05

> <r_epik_State_Penalty>
0.206211

> <r_epik_Charging_Adjusted_Penalty>
0.423688

> <i_epik_Tot_Q>
1

> <i_epik_Tot_abs_Q>
1

> <r_epik_Metal_State_Penalty>
0.526339

> <b_epik_Metal_Only>
0

> <s_epik_Chemistry_Notes>
This compound has an ester and may undergo hydrolysis at high or low pH. This compound contains an acetal/aminal-like group ( X-CH(R)-Y where X, Y are N, S, or O) that may be acid/base labile, releasing an aldehyde.

> <s_lp_Force_Field>
OPLS_2005

> <r_lp_Energy>
7.49642

> <b_lp_Chiralities_Consistent>
1

> <s_lp_Variant>
AV-unprocessed.smi:50-2

> <Gold.Version>
5.8.1

> <Gold.Id.Protein>
6NUR|6NUR_protein|mol2

> <Gold.PLP.Fitness>
42.7055

> <Gold.PLP.PLP>
-31.8439

> <Gold.PLP.part.hbond>
-7.0200

> <Gold.PLP.part.metal>
0.0000

> <Gold.PLP.part.buried>
-4.0472

> <Gold.PLP.part.nonpolar>
-22.1346

> <Gold.PLP.part.repulsive>
0.5221

> <Gold.PLP.ligand.clash>
0.0000

> <Gold.PLP.ligand.torsion>
0.7317

> <Gold.PLP.Chemscore.Hbond>
4.0356

> <Gold.PLP.Chemscore.CHOScore>
0.0000

> <Gold.PLP.Chemscore.Metal>
0.0000

> <Gold.Chemscore.Hbonds>
donor molecule, donor type, donor heavy atom, donor atom, acceptor molecule, acceptor atom, score
      L1  H    19    25       P1  7949  0.41
      L1  H    21    42       P1  7948  0.94
      P1  H  6934  6946       L1     7  0.60
      P1  H  7997  8009       L1    15  1.00
      P1  H 10752 10765       L1    18  0.59

> <Gold.PLP.Chemscore.Internal.Correction>
0.2183

> <Gold.Rescore>
     Score         DG    S(hbond)    S(metal)    S(lipo)     H(rot)  DE(clash)    DE(int)     intcor
      6.42      -8.62       3.41        0.00      35.88       4.86       0.24       1.96       ----

> <Gold.Chemscore.Fitness>
6.4223

> <Gold.Chemscore.DG>
-8.6237

> <Gold.Chemscore.ZeroCoef>
-5.4800

> <Gold.Chemscore.Hbond>
3.4072

> <Gold.Chemscore.Metal>
0.0000

> <Gold.Chemscore.Lipo>
35.8803

> <Gold.Chemscore.Internal_Hbond>
0.0000

> <Gold.Chemscore.DEClash>
0.2443

> <Gold.Chemscore.DEInternal>
1.9571

> <Gold.Chemscore.Rot>
4.8571

> <Gold.Chemscore.Internal.Correction>
   9.000000E+99

> <Gold.Chemscore.Hbonds>
donor molecule, donor type, donor heavy atom, donor atom, acceptor molecule, acceptor atom, score
      L1  H    19    25       P1  7949  0.01
      L1  H    21    42       P1  7948  0.92
      P1  H  6934  6946       L1     7  0.60
      P1  H  7997  8009       L1    15  0.65
      P1  H 10752 10765       L1    18  0.58

> <Gold.Chemscore.Hbond.Weighted>
-11.3800

> <Gold.Chemscore.Metal.Weighted>
-0.0000

> <Gold.Chemscore.Lipo.Weighted>
-4.1980

> <Gold.Chemscore.Internal_Hbond.Weighted>
0.0000

> <Gold.Chemscore.DEClash.Weighted>
0.2443

> <Gold.Chemscore.DEInternal.Weighted>
1.9571

> <Gold.Chemscore.Rot.Weighted>
12.4343

> <Gold.Chemscore.Internal.Correction.Weighted>
   9.000000E+99

> <Gold.Protein.RotatedTorsions>
[ 6907 6896 6895 6894 ] final -105.18 input  -60.11 | X-H torsion
[ 7974 7965 7964 7962 ] final -176.36 input  175.53 | X-H torsion
[ 8008 7997 7996 7995 ] final -153.33 input   59.86 | X-H torsion
[ 10167 10162 10161 10158 ] final   52.80 input  -65.29 | X-H torsion
[ 10718 10713 10712 10709 ] final  141.84 input   66.30 | X-H torsion
[ 10763 10752 10751 10750 ] final  140.43 input  -60.55 | X-H torsion
[ 11005 11000 10999 10996 ] final   11.93 input  -57.11 | X-H torsion

> <Gold.Protein.ActiveResidues>
 VAL166  LYS551  ARG553  GLY616  TRP617  ASP618  TYR619  PRO620  LYS621  CYS622 
 ASP623  PHE694  ASN695  SER759  ASP760  ASP761  ALA762  ILE779  LEU786  VAL792 
 PHE793  MET794  SER795  GLU796  ALA797  LYS798  CYS799  TRP800  GLU811  SER814 

> <Gold.Protein.RotatedAtoms>
  150.7324  134.0165  159.3686 H   0  0  0  0  0  0  0  0  0  0  0  0  # atno 6907 bound_to 6896
  151.8128  135.0673  160.0424 H   0  0  0  0  0  0  0  0  0  0  0  0  # atno 6908 bound_to 6896
  152.3060  133.5668  159.5686 H   0  0  0  0  0  0  0  0  0  0  0  0  # atno 6909 bound_to 6896
  144.7127  140.1181  143.6407 H   0  0  0  0  0  0  0  0  0  0  0  0  # atno 7974 bound_to 7965
  155.6691  140.0731  157.2526 H   0  0  0  0  0  0  0  0  0  0  0  0  # atno 8008 bound_to 7997
  154.4127  140.1702  156.1911 H   0  0  0  0  0  0  0  0  0  0  0  0  # atno 8009 bound_to 7997
  155.9631  140.3368  155.6512 H   0  0  0  0  0  0  0  0  0  0  0  0  # atno 8010 bound_to 7997
  140.2475  144.3515  150.6359 H   0  0  0  0  0  0  0  0  0  0  0  0  # atno 10167 bound_to 10162
  157.3874  131.1000  151.0679 H   0  0  0  0  0  0  0  0  0  0  0  0  # atno 10718 bound_to 10713
  153.9225  135.2999  155.3447 H   0  0  0  0  0  0  0  0  0  0  0  0  # atno 10763 bound_to 10752
  154.7568  135.4953  153.9393 H   0  0  0  0  0  0  0  0  0  0  0  0  # atno 10764 bound_to 10752
  153.1134  135.6765  153.9564 H   0  0  0  0  0  0  0  0  0  0  0  0  # atno 10765 bound_to 10752
  140.4977  134.0777  155.7786 H   0  0  0  0  0  0  0  0  0  0  0  0  # atno 11005 bound_to 11000
  145.9395  139.2659  143.1277 LP  0  0  0  0  0  0  0  0  0  0  0  0  # atno 17320 bound_to 7965
  145.9439  140.8959  143.0294 LP  0  0  0  0  0  0  0  0  0  0  0  0  # atno 17321 bound_to 7965
  140.6066  143.2168  151.6969 LP  0  0  0  0  0  0  0  0  0  0  0  0  # atno 17342 bound_to 10162
  139.5057  144.3709  152.0471 LP  0  0  0  0  0  0  0  0  0  0  0  0  # atno 17343 bound_to 10162
  157.1726  130.6274  149.5645 LP  0  0  0  0  0  0  0  0  0  0  0  0  # atno 17370 bound_to 10713
  155.9790  130.4780  150.6689 LP  0  0  0  0  0  0  0  0  0  0  0  0  # atno 17371 bound_to 10713
  141.1452  133.9068  157.2233 LP  0  0  0  0  0  0  0  0  0  0  0  0  # atno 17394 bound_to 11000
  139.9732  135.0122  156.9564 LP  0  0  0  0  0  0  0  0  0  0  0  0  # atno 17395 bound_to 11000

$$$$
