AV-unprocessed.smi:1094|AV-procd|sdf|4746|dock8
  -GOLD-   22720 3283D 1   1.00000     0.00000
 Structure written by MMmdl.
 45 46  0  0  0  0  0  0  0  0  1 V2000
  145.9030  130.9133  152.4988 C   0  0  0  0  0  0  0  0  0  0  0  0
  145.7678  131.2218  151.0008 C   0  0  0  0  0  0  0  0  0  0  0  0
  145.2970  132.5954  150.7750 N   0  0  0  0  0  0  0  0  0  0  0  0
  146.0473  133.6315  151.3654 C   0  0  0  0  0  0  0  0  0  0  0  0
  145.7138  134.9344  151.2328 C   0  0  0  0  0  0  0  0  0  0  0  0
  146.4115  136.0181  151.7881 N   0  0  0  0  0  0  0  0  0  0  0  0
  145.9390  137.1042  152.4283 C   0  0  0  0  0  0  0  0  0  0  0  0
  144.7537  137.3666  152.6312 O   0  0  0  0  0  0  0  0  0  0  0  0
  146.9455  137.8891  152.8395 N   0  0  0  0  0  0  0  0  0  0  0  0
  146.8032  139.1466  153.5733 C   0  0  0  0  0  0  0  0  0  0  0  0
  147.9702  139.4461  154.5587 C   0  0  0  0  0  0  0  0  0  0  0  0
  147.4724  139.0044  155.9629 C   0  0  0  0  0  0  0  0  0  0  0  0
  147.1759  137.7160  156.1641 N   0  0  0  0  0  0  0  0  0  0  0  0
  147.3354  139.8296  156.8647 O   0  0  0  0  0  0  0  0  0  0  0  0
  149.2821  138.7214  154.1380 C   0  0  0  0  0  0  0  0  0  0  0  0
  150.4917  139.1429  154.9973 C   0  0  0  0  0  0  0  0  0  0  0  0
  150.6710  140.5523  154.9210 O   0  0  0  0  0  0  0  0  0  0  0  0
  149.5536  141.2848  155.4111 C   0  0  0  0  0  0  0  0  0  0  0  0
  148.3064  140.9640  154.5637 C   0  0  0  0  0  0  0  0  0  0  0  0
  144.5374  135.2296  150.4431 C   0  0  0  0  0  0  0  0  0  0  0  0
  143.8073  134.2463  149.8825 C   0  0  0  0  0  0  0  0  0  0  0  0
  144.1694  132.8362  150.0418 C   0  0  0  0  0  0  0  0  0  0  0  0
  143.4992  131.9297  149.5469 O   0  0  0  0  0  0  0  0  0  0  0  0
  146.2634  129.8961  152.6532 H   0  0  0  0  0  0  0  0  0  0  0  0
  144.9451  131.0065  153.0115 H   0  0  0  0  0  0  0  0  0  0  0  0
  146.6082  131.5919  152.9794 H   0  0  0  0  0  0  0  0  0  0  0  0
  146.7302  131.0687  150.5101 H   0  0  0  0  0  0  0  0  0  0  0  0
  145.0973  130.4984  150.5333 H   0  0  0  0  0  0  0  0  0  0  0  0
  146.8968  133.2727  151.9240 H   0  0  0  0  0  0  0  0  0  0  0  0
  147.4149  135.9623  151.6938 H   0  0  0  0  0  0  0  0  0  0  0  0
  147.8884  137.5955  152.6304 H   0  0  0  0  0  0  0  0  0  0  0  0
  146.7406  139.9368  152.8234 H   0  0  0  0  0  0  0  0  0  0  0  0
  145.8471  139.1696  154.1006 H   0  0  0  0  0  0  0  0  0  0  0  0
  146.8513  137.4086  157.0693 H   0  0  0  0  0  0  0  0  0  0  0  0
  147.2785  137.0544  155.4083 H   0  0  0  0  0  0  0  0  0  0  0  0
  149.1618  137.6377  154.1560 H   0  0  0  0  0  0  0  0  0  0  0  0
  149.5246  138.9654  153.1042 H   0  0  0  0  0  0  0  0  0  0  0  0
  150.3788  138.8362  156.0376 H   0  0  0  0  0  0  0  0  0  0  0  0
  151.3953  138.6584  154.6269 H   0  0  0  0  0  0  0  0  0  0  0  0
  149.3924  141.0635  156.4670 H   0  0  0  0  0  0  0  0  0  0  0  0
  149.7816  142.3487  155.3465 H   0  0  0  0  0  0  0  0  0  0  0  0
  148.5005  141.3083  153.5477 H   0  0  0  0  0  0  0  0  0  0  0  0
  147.4580  141.5542  154.9133 H   0  0  0  0  0  0  0  0  0  0  0  0
  144.2336  136.2565  150.2987 H   0  0  0  0  0  0  0  0  0  0  0  0
  142.9341  134.5020  149.3001 H   0  0  0  0  0  0  0  0  0  0  0  0
  1  2  1  0  0  0  0
  1 24  1  0  0  0  0
  1 25  1  0  0  0  0
  1 26  1  0  0  0  0
  2  3  1  0  0  0  0
  2 27  1  0  0  0  0
  2 28  1  0  0  0  0
  3 22  1  0  0  0  0
  3  4  1  0  0  0  0
  4  5  2  0  0  0  0
  4 29  1  0  0  0  0
  5  6  1  0  0  0  0
  5 20  1  0  0  0  0
  6  7  1  0  0  0  0
  6 30  1  0  0  0  0
  7  8  2  0  0  0  0
  7  9  1  0  0  0  0
  9 10  1  0  0  0  0
  9 31  1  0  0  0  0
 10 11  1  0  0  0  0
 10 32  1  0  0  0  0
 10 33  1  0  0  0  0
 11 19  1  0  0  0  0
 11 12  1  0  0  0  0
 11 15  1  0  0  0  0
 12 13  1  0  0  0  0
 12 14  2  0  0  0  0
 13 34  1  0  0  0  0
 13 35  1  0  0  0  0
 15 16  1  0  0  0  0
 15 36  1  0  0  0  0
 15 37  1  0  0  0  0
 16 17  1  0  0  0  0
 16 38  1  0  0  0  0
 16 39  1  0  0  0  0
 17 18  1  0  0  0  0
 18 19  1  0  0  0  0
 18 40  1  0  0  0  0
 18 41  1  0  0  0  0
 19 42  1  0  0  0  0
 19 43  1  0  0  0  0
 20 21  2  0  0  0  0
 20 44  1  0  0  0  0
 21 22  1  0  0  0  0
 21 45  1  0  0  0  0
 22 23  2  0  0  0  0
M  END
> <s_m_source_file>
AV-unprocessed.smi

> <i_m_source_file_index>
1094

> <i_lp_mmshare_version>
43012

> <i_f3d_flags>
0

> <s_epik_input>
W0NIM11bQ0gyXW4xW2NIXWMoW2NIXVtjSF1jMT1PKVtOSF1DKD1PKVtOSF1bQ0gyXUMyKEMoPU8pW05IMl0pW0NIMl1bQ0gyXU9bQ0gyXVtDSDJdMg==

> <s_epik_cmdline>
J2VwaWtfcHl0aG9uJywgJy1waCcsICc3LjAnLCAnLXRuJywgJzgnLCAnLW1hJywgJzIwMCcsICctbWV0YWxfYmluZGluZycsICctaW1hZScsICc8aW5maWxlLm1hZT4nLCAnLW9tYWUnLCAnPG91dGZpbGUubWFlPic=

> <r_lp_tautomer_probability>
1

> <r_epik_Ionization_Penalty>
2.3227e-05

> <r_epik_Ionization_Penalty_Charging>
4.44262e-06

> <r_epik_Ionization_Penalty_Neutral>
1.87844e-05

> <r_epik_State_Penalty>
-0

> <r_epik_Charging_Adjusted_Penalty>
4.44262e-06

> <i_epik_Tot_Q>
0

> <i_epik_Tot_abs_Q>
0

> <r_epik_Metal_State_Penalty>
-0

> <b_epik_Metal_Only>
0

> <s_lp_Force_Field>
OPLS_2005

> <r_lp_Energy>
26.2071

> <b_lp_Chiralities_Consistent>
1

> <s_lp_Variant>
AV-unprocessed.smi:1094-1

> <Gold.Version>
5.8.1

> <Gold.Id.Protein>
6NUR|6NUR_protein|mol2

> <Gold.PLP.Fitness>
44.1334

> <Gold.PLP.PLP>
-35.0910

> <Gold.PLP.part.hbond>
-3.9221

> <Gold.PLP.part.metal>
0.0000

> <Gold.PLP.part.buried>
-3.3505

> <Gold.PLP.part.nonpolar>
-30.3685

> <Gold.PLP.part.repulsive>
0.8048

> <Gold.PLP.ligand.clash>
0.0000

> <Gold.PLP.ligand.torsion>
1.3617

> <Gold.PLP.Chemscore.Hbond>
3.9033

> <Gold.PLP.Chemscore.CHOScore>
0.0000

> <Gold.PLP.Chemscore.Metal>
0.0000

> <Gold.Chemscore.Hbonds>
donor molecule, donor type, donor heavy atom, donor atom, acceptor molecule, acceptor atom, score
      L1  H     6    30       P1  7948  1.00
      L1  H     9    31       P1  7948  0.91
      P1  H  7989  7998       L1    17  1.00
      P1  H 10785 10796       L1    23  1.00

> <Gold.PLP.Chemscore.Internal.Correction>
0.0561

> <Gold.Rescore>
     Score         DG    S(hbond)    S(metal)    S(lipo)     H(rot)  DE(clash)    DE(int)     intcor
     17.64     -21.98       3.77        0.00      79.68       2.11       1.86       2.48       ----

> <Gold.Chemscore.Fitness>
17.6391

> <Gold.Chemscore.DG>
-21.9815

> <Gold.Chemscore.ZeroCoef>
-5.4800

> <Gold.Chemscore.Hbond>
3.7696

> <Gold.Chemscore.Metal>
0.0000

> <Gold.Chemscore.Lipo>
79.6838

> <Gold.Chemscore.Internal_Hbond>
0.0000

> <Gold.Chemscore.DEClash>
1.8619

> <Gold.Chemscore.DEInternal>
2.4805

> <Gold.Chemscore.Rot>
2.1140

> <Gold.Chemscore.Internal.Correction>
   9.000000E+99

> <Gold.Chemscore.Hbonds>
donor molecule, donor type, donor heavy atom, donor atom, acceptor molecule, acceptor atom, score
      L1  H     6    30       P1  7948  0.93
      L1  H     9    31       P1  7948  0.88
      P1  H  7989  7998       L1    17  0.62
      P1  H 10785 10796       L1    23  0.93

> <Gold.Chemscore.Hbond.Weighted>
-12.5904

> <Gold.Chemscore.Metal.Weighted>
-0.0000

> <Gold.Chemscore.Lipo.Weighted>
-9.3230

> <Gold.Chemscore.Internal_Hbond.Weighted>
0.0000

> <Gold.Chemscore.DEClash.Weighted>
1.8619

> <Gold.Chemscore.DEInternal.Weighted>
2.4805

> <Gold.Chemscore.Rot.Weighted>
5.4119

> <Gold.Chemscore.Internal.Correction.Weighted>
   9.000000E+99

> <Gold.Protein.RotatedTorsions>
[ 6907 6896 6895 6894 ] final  141.80 input  -60.11 | X-H torsion
[ 7974 7965 7964 7962 ] final -102.96 input  175.53 | X-H torsion
[ 8008 7997 7996 7995 ] final  -92.96 input   59.86 | X-H torsion
[ 10167 10162 10161 10158 ] final  -55.60 input  -65.29 | X-H torsion
[ 10718 10713 10712 10709 ] final   95.37 input   66.30 | X-H torsion
[ 10763 10752 10751 10750 ] final -104.38 input  -60.55 | X-H torsion
[ 11005 11000 10999 10996 ] final -167.25 input  -57.11 | X-H torsion

> <Gold.Protein.ActiveResidues>
 VAL166  LYS551  ARG553  GLY616  TRP617  ASP618  TYR619  PRO620  LYS621  CYS622 
 ASP623  PHE694  ASN695  SER759  ASP760  ASP761  ALA762  ILE779  LEU786  VAL792 
 PHE793  MET794  SER795  GLU796  ALA797  LYS798  CYS799  TRP800  GLU811  SER814 

> <Gold.Protein.RotatedAtoms>
  152.2265  133.5024  159.5191 H   0  0  0  0  0  0  0  0  0  0  0  0  # atno 6907 bound_to 6896
  150.7026  134.1273  159.4066 H   0  0  0  0  0  0  0  0  0  0  0  0  # atno 6908 bound_to 6896
  151.9194  135.0305  160.0571 H   0  0  0  0  0  0  0  0  0  0  0  0  # atno 6909 bound_to 6896
  145.2620  140.9272  143.3035 H   0  0  0  0  0  0  0  0  0  0  0  0  # atno 7974 bound_to 7965
  154.7297  140.0503  157.0715 H   0  0  0  0  0  0  0  0  0  0  0  0  # atno 8008 bound_to 7997
  155.0318  140.3159  155.4736 H   0  0  0  0  0  0  0  0  0  0  0  0  # atno 8009 bound_to 7997
  156.2838  140.2148  156.5440 H   0  0  0  0  0  0  0  0  0  0  0  0  # atno 8010 bound_to 7997
  140.6365  143.2485  151.5103 H   0  0  0  0  0  0  0  0  0  0  0  0  # atno 10167 bound_to 10162
  157.6939  131.0543  150.4329 H   0  0  0  0  0  0  0  0  0  0  0  0  # atno 10718 bound_to 10713
  154.7874  135.4788  153.9977 H   0  0  0  0  0  0  0  0  0  0  0  0  # atno 10763 bound_to 10752
  153.1580  135.6803  153.8790 H   0  0  0  0  0  0  0  0  0  0  0  0  # atno 10764 bound_to 10752
  153.8413  135.3179  155.3404 H   0  0  0  0  0  0  0  0  0  0  0  0  # atno 10765 bound_to 10752
  140.5554  134.5386  157.5132 H   0  0  0  0  0  0  0  0  0  0  0  0  # atno 11005 bound_to 11000
  144.9410  139.4189  143.6449 LP  0  0  0  0  0  0  0  0  0  0  0  0  # atno 17320 bound_to 7965
  146.3272  139.8370  142.8897 LP  0  0  0  0  0  0  0  0  0  0  0  0  # atno 17321 bound_to 7965
  139.5575  144.2238  152.1637 LP  0  0  0  0  0  0  0  0  0  0  0  0  # atno 17342 bound_to 10162
  140.1496  144.5127  150.6695 LP  0  0  0  0  0  0  0  0  0  0  0  0  # atno 17343 bound_to 10162
  156.4694  130.4049  149.6527 LP  0  0  0  0  0  0  0  0  0  0  0  0  # atno 17370 bound_to 10713
  156.3613  130.7483  151.2455 LP  0  0  0  0  0  0  0  0  0  0  0  0  # atno 17371 bound_to 10713
  139.9434  134.7745  156.0621 LP  0  0  0  0  0  0  0  0  0  0  0  0  # atno 17394 bound_to 11000
  141.1146  133.6632  156.3063 LP  0  0  0  0  0  0  0  0  0  0  0  0  # atno 17395 bound_to 11000

$$$$
