AV-unprocessed.smi:822|AV-procd|sdf|3842|dock9
  -GOLD-   22720 1293D 1   1.00000     0.00000
 Structure written by MMmdl.
 39 40  0  0  0  0  0  0  0  0  2 V2000
  152.4809  140.2700  155.7238 O   0  0  0  0  0  0  0  0  0  0  0  0
  151.7186  140.2879  156.6903 C   0  0  0  0  0  0  0  0  0  0  0  0
  152.2687  140.5009  158.1046 C   0  0  0  0  0  0  0  0  0  0  0  0
  152.2730  141.9789  158.5568 C   0  0  0  0  0  0  0  0  0  0  0  0
  152.5256  142.0802  160.0755 C   0  0  0  0  0  0  0  0  0  0  0  0
  152.5384  143.5394  160.5587 C   0  0  0  0  0  0  0  0  0  0  0  0
  151.2356  144.2608  160.1834 C   0  0  0  0  0  0  0  0  0  0  0  0
  150.9777  144.1777  158.6720 C   0  0  0  0  0  0  0  0  0  0  0  0
  150.9662  142.7191  158.1861 C   0  0  0  0  0  0  0  0  0  0  0  0
  150.3914  140.1215  156.5834 N   0  0  0  0  0  0  0  0  0  0  0  0
  149.6754  139.9099  155.3316 C   0  0  0  0  0  0  0  0  0  0  0  0
  148.7903  141.1168  154.9797 C   0  0  0  0  0  0  0  0  0  0  0  0
  147.3696  140.8192  155.1659 N   0  0  0  0  0  0  0  0  0  0  0  0
  146.5562  141.2444  156.1847 C   0  0  0  0  0  0  0  0  0  0  0  0
  145.3135  140.7213  155.9358 C   0  0  0  0  0  0  0  0  0  0  0  0
  145.4214  139.9993  154.7772 N   0  3  0  0  0  0  0  0  0  0  0  0
  146.6728  140.0610  154.3099 C   0  0  0  0  0  0  0  0  0  0  0  0
  151.7043  139.8983  158.8180 H   0  0  0  0  0  0  0  0  0  0  0  0
  153.2872  140.1113  158.1173 H   0  0  0  0  0  0  0  0  0  0  0  0
  153.0997  142.4863  158.0564 H   0  0  0  0  0  0  0  0  0  0  0  0
  151.7549  141.5276  160.6148 H   0  0  0  0  0  0  0  0  0  0  0  0
  153.4755  141.6078  160.3277 H   0  0  0  0  0  0  0  0  0  0  0  0
  152.6829  143.5719  161.6389 H   0  0  0  0  0  0  0  0  0  0  0  0
  153.3869  144.0632  160.1169 H   0  0  0  0  0  0  0  0  0  0  0  0
  150.3999  143.8131  160.7225 H   0  0  0  0  0  0  0  0  0  0  0  0
  151.2837  145.3040  160.4966 H   0  0  0  0  0  0  0  0  0  0  0  0
  150.0281  144.6563  158.4310 H   0  0  0  0  0  0  0  0  0  0  0  0
  151.7489  144.7346  158.1384 H   0  0  0  0  0  0  0  0  0  0  0  0
  150.8119  142.7083  157.1070 H   0  0  0  0  0  0  0  0  0  0  0  0
  150.1130  142.1987  158.6229 H   0  0  0  0  0  0  0  0  0  0  0  0
  149.8393  140.1520  157.4287 H   0  0  0  0  0  0  0  0  0  0  0  0
  150.4105  139.7441  154.5433 H   0  0  0  0  0  0  0  0  0  0  0  0
  149.0772  138.9990  155.3940 H   0  0  0  0  0  0  0  0  0  0  0  0
  149.0383  141.9807  155.5984 H   0  0  0  0  0  0  0  0  0  0  0  0
  148.9378  141.4134  153.9403 H   0  0  0  0  0  0  0  0  0  0  0  0
  146.9123  141.8713  156.9896 H   0  0  0  0  0  0  0  0  0  0  0  0
  144.3849  140.8062  156.4816 H   0  0  0  0  0  0  0  0  0  0  0  0
  147.0464  139.5919  153.4170 H   0  0  0  0  0  0  0  0  0  0  0  0
  144.6653  139.4910  154.3357 H   0  0  0  0  0  0  0  0  0  0  0  0
  1  2  2  0  0  0  0
  2  3  1  0  0  0  0
  2 10  1  0  0  0  0
  3  4  1  0  0  0  0
  3 18  1  0  0  0  0
  3 19  1  0  0  0  0
  4  9  1  0  0  0  0
  4  5  1  0  0  0  0
  4 20  1  0  0  0  0
  5  6  1  0  0  0  0
  5 21  1  0  0  0  0
  5 22  1  0  0  0  0
  6  7  1  0  0  0  0
  6 23  1  0  0  0  0
  6 24  1  0  0  0  0
  7  8  1  0  0  0  0
  7 25  1  0  0  0  0
  7 26  1  0  0  0  0
  8  9  1  0  0  0  0
  8 27  1  0  0  0  0
  8 28  1  0  0  0  0
  9 29  1  0  0  0  0
  9 30  1  0  0  0  0
 10 11  1  0  0  0  0
 10 31  1  0  0  0  0
 11 12  1  0  0  0  0
 11 32  1  0  0  0  0
 11 33  1  0  0  0  0
 12 13  1  0  0  0  0
 12 34  1  0  0  0  0
 12 35  1  0  0  0  0
 13 17  1  0  0  0  0
 13 14  1  0  0  0  0
 14 15  2  0  0  0  0
 14 36  1  0  0  0  0
 15 16  1  0  0  0  0
 15 37  1  0  0  0  0
 16 17  2  0  0  0  0
 16 39  1  0  0  0  0
 17 38  1  0  0  0  0
M  CHG  1  16   1
M  END
> <s_m_source_file>
AV-unprocessed.smi

> <i_m_source_file_index>
822

> <i_lp_mmshare_version>
43012

> <i_f3d_flags>
0

> <s_epik_input>
W0NIMl0xW0NIMl1bQ0gyXVtDSDJdW0NIMl1bQ0hdMVtDSDJdQyg9TylbTkhdW0NIMl1bQ0gyXW4yW2NIXVtjSF1uW2NIXTI=

> <s_epik_cmdline>
J2VwaWtfcHl0aG9uJywgJy1waCcsICc3LjAnLCAnLXRuJywgJzgnLCAnLW1hJywgJzIwMCcsICctbWV0YWxfYmluZGluZycsICctaW1hZScsICc8aW5maWxlLm1hZT4nLCAnLW9tYWUnLCAnPG91dGZpbGUubWFlPic=

> <r_lp_tautomer_probability>
1

> <r_epik_Ionization_Penalty>
0.267085

> <r_epik_Ionization_Penalty_Charging>
0

> <r_epik_Ionization_Penalty_Neutral>
0.267085

> <r_epik_State_Penalty>
0.259064

> <r_epik_Charging_Adjusted_Penalty>
0.259064

> <i_epik_Tot_Q>
1

> <i_epik_Tot_abs_Q>
1

> <r_epik_Metal_State_Penalty>
0.544959

> <b_epik_Metal_Only>
0

> <s_lp_Force_Field>
OPLS_2005

> <r_lp_Energy>
11.7187

> <b_lp_Chiralities_Consistent>
1

> <s_lp_Variant>
AV-unprocessed.smi:822-1

> <Gold.Version>
5.8.1

> <Gold.Id.Protein>
6NUR|6NUR_protein|mol2

> <Gold.PLP.Fitness>
51.9813

> <Gold.PLP.PLP>
-39.0616

> <Gold.PLP.part.hbond>
-2.0000

> <Gold.PLP.part.metal>
0.0000

> <Gold.PLP.part.buried>
-2.5414

> <Gold.PLP.part.nonpolar>
-35.3292

> <Gold.PLP.part.repulsive>
0.0471

> <Gold.PLP.ligand.clash>
0.0000

> <Gold.PLP.ligand.torsion>
1.0406

> <Gold.PLP.Chemscore.Hbond>
3.0000

> <Gold.PLP.Chemscore.CHOScore>
1.9924

> <Gold.PLP.Chemscore.Metal>
0.0000

> <Gold.Chemscore.Hbonds>
donor molecule, donor type, donor heavy atom, donor atom, acceptor molecule, acceptor atom, score
      L1  H    16    39       P1 10175  0.21
      P1  H  7997  8010       L1     1  1.00

> <Gold.PLP.Chemscore.Internal.Correction>
0.0239

> <Gold.Rescore>
     Score         DG    S(hbond)    S(metal)    S(lipo)     H(rot)  DE(clash)    DE(int)     intcor
     16.36     -17.43       1.85        0.00      94.27       2.05       0.38       0.69       ----

> <Gold.Chemscore.Fitness>
16.3631

> <Gold.Chemscore.DG>
-17.4307

> <Gold.Chemscore.ZeroCoef>
-5.4800

> <Gold.Chemscore.Hbond>
1.8507

> <Gold.Chemscore.Metal>
0.0000

> <Gold.Chemscore.Lipo>
94.2666

> <Gold.Chemscore.Internal_Hbond>
0.0000

> <Gold.Chemscore.DEClash>
0.3785

> <Gold.Chemscore.DEInternal>
0.6891

> <Gold.Chemscore.Rot>
2.0546

> <Gold.Chemscore.Internal.Correction>
   9.000000E+99

> <Gold.Chemscore.Hbonds>
donor molecule, donor type, donor heavy atom, donor atom, acceptor molecule, acceptor atom, score
      L1  H    16    39       P1 10175  0.10
      P1  H  7989  7998       L1     1  0.04
      P1  H  7997  8010       L1     1  0.70

> <Gold.Chemscore.Hbond.Weighted>
-6.1812

> <Gold.Chemscore.Metal.Weighted>
-0.0000

> <Gold.Chemscore.Lipo.Weighted>
-11.0292

> <Gold.Chemscore.Internal_Hbond.Weighted>
0.0000

> <Gold.Chemscore.DEClash.Weighted>
0.3785

> <Gold.Chemscore.DEInternal.Weighted>
0.6891

> <Gold.Chemscore.Rot.Weighted>
5.2598

> <Gold.Chemscore.Internal.Correction.Weighted>
   9.000000E+99

> <Gold.Protein.RotatedTorsions>
[ 6907 6896 6895 6894 ] final  -52.99 input  -60.11 | X-H torsion
[ 7974 7965 7964 7962 ] final   -4.78 input  175.53 | X-H torsion
[ 8008 7997 7996 7995 ] final   77.04 input   59.86 | X-H torsion
[ 10167 10162 10161 10158 ] final  -31.27 input  -65.29 | X-H torsion
[ 10718 10713 10712 10709 ] final  -83.41 input   66.30 | X-H torsion
[ 10763 10752 10751 10750 ] final   67.63 input  -60.55 | X-H torsion
[ 11005 11000 10999 10996 ] final    0.95 input  -57.11 | X-H torsion

> <Gold.Protein.ActiveResidues>
 VAL166  LYS551  ARG553  GLY616  TRP617  ASP618  TYR619  PRO620  LYS621  CYS622 
 ASP623  PHE694  ASN695  SER759  ASP760  ASP761  ALA762  ILE779  LEU786  VAL792 
 PHE793  MET794  SER795  GLU796  ALA797  LYS798  CYS799  TRP800  GLU811  SER814 

> <Gold.Protein.RotatedAtoms>
  150.8468  134.7779  159.6976 H   0  0  0  0  0  0  0  0  0  0  0  0  # atno 6907 bound_to 6896
  152.4543  134.5323  159.9824 H   0  0  0  0  0  0  0  0  0  0  0  0  # atno 6908 bound_to 6896
  151.5452  133.3388  159.2978 H   0  0  0  0  0  0  0  0  0  0  0  0  # atno 6909 bound_to 6896
  146.2366  140.1922  142.8333 H   0  0  0  0  0  0  0  0  0  0  0  0  # atno 7974 bound_to 7965
  155.8360  140.3464  155.5602 H   0  0  0  0  0  0  0  0  0  0  0  0  # atno 8008 bound_to 7997
  155.8192  140.0910  157.1879 H   0  0  0  0  0  0  0  0  0  0  0  0  # atno 8009 bound_to 7997
  154.4004  140.1433  156.3466 H   0  0  0  0  0  0  0  0  0  0  0  0  # atno 8010 bound_to 7997
  140.7238  143.3784  151.1647 H   0  0  0  0  0  0  0  0  0  0  0  0  # atno 10167 bound_to 10162
  156.0019  130.4665  150.4254 H   0  0  0  0  0  0  0  0  0  0  0  0  # atno 10718 bound_to 10713
  153.0195  135.5277  154.7009 H   0  0  0  0  0  0  0  0  0  0  0  0  # atno 10763 bound_to 10752
  154.6118  135.2879  155.0426 H   0  0  0  0  0  0  0  0  0  0  0  0  # atno 10764 bound_to 10752
  154.1444  135.6573  153.5002 H   0  0  0  0  0  0  0  0  0  0  0  0  # atno 10765 bound_to 10752
  140.6209  133.9662  155.8224 H   0  0  0  0  0  0  0  0  0  0  0  0  # atno 11005 bound_to 11000
  144.9848  140.8493  143.5375 LP  0  0  0  0  0  0  0  0  0  0  0  0  # atno 17320 bound_to 7965
  145.1920  139.2296  143.5237 LP  0  0  0  0  0  0  0  0  0  0  0  0  # atno 17321 bound_to 7965
  139.7368  143.8987  152.3037 LP  0  0  0  0  0  0  0  0  0  0  0  0  # atno 17342 bound_to 10162
  139.8794  144.7026  150.8895 LP  0  0  0  0  0  0  0  0  0  0  0  0  # atno 17343 bound_to 10162
  157.2307  131.0503  151.2494 LP  0  0  0  0  0  0  0  0  0  0  0  0  # atno 17370 bound_to 10713
  157.3714  130.7183  149.6567 LP  0  0  0  0  0  0  0  0  0  0  0  0  # atno 17371 bound_to 10713
  141.0743  134.0159  157.3481 LP  0  0  0  0  0  0  0  0  0  0  0  0  # atno 17394 bound_to 11000
  139.9154  135.0196  156.7859 LP  0  0  0  0  0  0  0  0  0  0  0  0  # atno 17395 bound_to 11000

$$$$
