#       Name:                AV-unprocessed.smi:2774
#       Creating user name   scv26
#       Creation time:       Fri Mar 27 15:12:40 2020


#       File generated by GOLD software.
#

@<TRIPOS>MOLECULE
AV-unprocessed.smi:2774
    38    39     1
SMALL
NO_CHARGES


@<TRIPOS>ATOM
      1 ****        -2.6042  -0.5939  -0.4587 O.3            1 S1                 0.0000
      2 ****        -1.9992   0.3577   0.3950 C.3            1 S1                 0.0000
      3 ****        -0.4745   0.3009   0.1971 C.3            1 S1                 0.0000
      4 ****         0.0694  -1.0218   0.5751 N.4            1 S1                 1.0000
      5 ****         1.5395  -1.1584   0.4737 C.3            1 S1                 0.0000
      6 ****         1.9837  -1.3325  -0.9959 C.3            1 S1                 0.0000
      7 ****         3.5109  -1.4268  -1.1507 C.3            1 S1                 0.0000
      8 ****         4.1078  -2.6227  -0.3966 C.3            1 S1                 0.0000
      9 ****         3.8043  -2.4861   1.3847 S.3            1 S1                 0.0000
     10 ****         1.9968  -2.3476   1.3376 C.3            1 S1                 0.0000
     11 ****        -2.5344   1.7589   0.1443 C.ar           1 S1                 0.0000
     12 ****        -2.8989   2.5894   1.2249 C.ar           1 S1                 0.0000
     13 ****        -3.3851   3.8828   0.9468 C.ar           1 S1                 0.0000
     14 ****        -3.5190   4.3713  -0.3046 N.ar           1 S1                 0.0000
     15 ****        -3.1673   3.5737  -1.3354 C.ar           1 S1                 0.0000
     16 ****        -2.6701   2.2658  -1.1665 C.ar           1 S1                 0.0000
     17 ****        -3.5377  -0.5812  -0.3077 H              1 S1                 0.0000
     18 ****        -2.2405   0.0747   1.4208 H              1 S1                 0.0000
     19 ****        -0.2240   0.5321  -0.8383 H              1 S1                 0.0000
     20 ****         0.0013   1.0613   0.8180 H              1 S1                 0.0000
     21 ****        -0.1874  -1.1848   1.5381 H              1 S1                 0.0000
     22 ****         1.9908  -0.2526   0.8823 H              1 S1                 0.0000
     23 ****         1.5192  -2.2240  -1.4197 H              1 S1                 0.0000
     24 ****         1.6349  -0.4939  -1.5981 H              1 S1                 0.0000
     25 ****         3.7594  -1.5114  -2.2091 H              1 S1                 0.0000
     26 ****         3.9751  -0.5031  -0.8026 H              1 S1                 0.0000
     27 ****         3.6792  -3.5568  -0.7614 H              1 S1                 0.0000
     28 ****         5.1837  -2.6769  -0.5646 H              1 S1                 0.0000
     29 ****         1.6405  -2.2331   2.3619 H              1 S1                 0.0000
     30 ****         1.5810  -3.2819   0.9580 H              1 S1                 0.0000
     31 ****        -2.8106   2.2491   2.2463 H              1 S1                 0.0000
     32 ****        -3.6727   4.5427   1.7519 H              1 S1                 0.0000
     33 ****        -3.2839   3.9904  -2.3249 H              1 S1                 0.0000
     34 ****        -2.4004   1.6705  -2.0268 H              1 S1                 0.0000
     35 ****        -0.3672  -1.7323   0.0049 H              1 S1                 0.0000
     36 ****        -2.2424  -1.5045  -0.2590 LP             1 S1                 0.0000
     37 ****        -2.4134  -0.3612  -1.4123 LP             1 S1                 0.0000
     38 ****        -3.8678   5.2950  -0.4630 LP             1 S1                 0.0000
@<TRIPOS>BOND
    1    1    2 1     
    2    1   17 1     
    3    2    3 1     
    4    2   11 1     
    5    2   18 1     
    6    3    4 1     
    7    3   19 1     
    8    3   20 1     
    9    4    5 1     
   10    4   21 1     
   11    4   35 1     
   12    5   10 1     
   13    5    6 1     
   14    5   22 1     
   15    6    7 1     
   16    6   23 1     
   17    6   24 1     
   18    7    8 1     
   19    7   25 1     
   20    7   26 1     
   21    8    9 1     
   22    8   27 1     
   23    8   28 1     
   24    9   10 1     
   25   10   29 1     
   26   10   30 1     
   27   11   16 ar    
   28   11   12 ar    
   29   12   13 ar    
   30   12   31 1     
   31   13   14 ar    
   32   13   32 1     
   33   14   15 ar    
   34   15   16 ar    
   35   15   33 1     
   36   16   34 1     
   37    1   36 1     
   38    1   37 1     
   39   14   38 1     
@<TRIPOS>SUBSTRUCTURE
      1 S1             1
@<TRIPOS>SET
LONE_PAIRS      STATIC     ATOMS    <user>   **** ""
3 36 37 38
DONOR_HYDROGENS      STATIC     ATOMS    <user>   **** ""
3 17 21 35
ATOM$BLUE        STATIC     ATOMS    COLORGROUP SYSTEM
3 36 37 38
ATOM$RED        STATIC     ATOMS    COLORGROUP SYSTEM
3 17 21 35
