AV-unprocessed.smi:1459|AV-procd|sdf|5927|dock3
  -GOLD-   22720 6 13D 1   1.00000     0.00000
 Structure written by MMmdl.
 34 35  0  0  0  0  0  0  0  0  1 V2000
  148.5842  129.7953  153.8704 C   0  0  0  0  0  0  0  0  0  0  0  0
  149.0586  131.1663  154.2105 C   0  0  0  0  0  0  0  0  0  0  0  0
  148.8023  132.3985  153.6777 C   0  0  0  0  0  0  0  0  0  0  0  0
  149.5841  133.2657  154.4865 C   0  0  0  0  0  0  0  0  0  0  0  0
  149.5958  134.6649  154.2534 N   0  0  0  0  0  0  0  0  0  0  0  0
  150.1983  135.6135  154.9903 C   0  0  0  0  0  0  0  0  0  0  0  0
  150.8509  135.4069  156.0137 O   0  0  0  0  0  0  0  0  0  0  0  0
  149.9937  136.8333  154.4708 N   0  0  0  0  0  0  0  0  0  0  0  0
  150.5010  138.0933  155.0131 C   0  0  1  0  0  0  0  0  0  0  0  0
  152.0332  138.0941  154.9093 C   0  0  0  0  0  0  0  0  0  0  0  0
  149.8745  139.2922  154.2708 C   0  0  1  0  0  0  0  0  0  0  0  0
  148.3814  139.5065  154.5302 C   0  0  0  0  0  0  0  0  0  0  0  0
  148.2227  140.9753  154.2138 C   0  0  0  0  0  0  0  0  0  0  0  0
  149.5170  141.5531  154.7767 C   0  0  0  0  0  0  0  0  0  0  0  0
  150.4873  140.5129  154.6817 O   0  0  0  0  0  0  0  0  0  0  0  0
  150.2566  132.6212  155.4278 N   0  0  0  0  0  0  0  0  0  0  0  0
  149.9236  131.2725  155.2555 O   0  0  0  0  0  0  0  0  0  0  0  0
  147.9586  129.8094  152.9778 H   0  0  0  0  0  0  0  0  0  0  0  0
  147.9979  129.3756  154.6880 H   0  0  0  0  0  0  0  0  0  0  0  0
  149.4268  129.1302  153.6812 H   0  0  0  0  0  0  0  0  0  0  0  0
  148.1589  132.6369  152.8440 H   0  0  0  0  0  0  0  0  0  0  0  0
  149.0899  134.9773  153.4382 H   0  0  0  0  0  0  0  0  0  0  0  0
  149.4400  136.8997  153.6296 H   0  0  0  0  0  0  0  0  0  0  0  0
  150.2444  138.1716  156.0711 H   0  0  0  0  0  0  0  0  0  0  0  0
  152.4575  139.0023  155.3381 H   0  0  0  0  0  0  0  0  0  0  0  0
  152.3623  138.0320  153.8714 H   0  0  0  0  0  0  0  0  0  0  0  0
  152.4631  137.2484  155.4472 H   0  0  0  0  0  0  0  0  0  0  0  0
  150.0328  139.1910  153.1957 H   0  0  0  0  0  0  0  0  0  0  0  0
  147.7448  138.8662  153.9188 H   0  0  0  0  0  0  0  0  0  0  0  0
  148.1425  139.3249  155.5793 H   0  0  0  0  0  0  0  0  0  0  0  0
  148.1808  141.1240  153.1339 H   0  0  0  0  0  0  0  0  0  0  0  0
  147.3299  141.4174  154.6565 H   0  0  0  0  0  0  0  0  0  0  0  0
  149.8385  142.4480  154.2434 H   0  0  0  0  0  0  0  0  0  0  0  0
  149.3922  141.8123  155.8287 H   0  0  0  0  0  0  0  0  0  0  0  0
  1  2  1  0  0  0  0
  1 18  1  0  0  0  0
  1 19  1  0  0  0  0
  1 20  1  0  0  0  0
  2 17  1  0  0  0  0
  2  3  2  0  0  0  0
  3  4  1  0  0  0  0
  3 21  1  0  0  0  0
  4  5  1  0  0  0  0
  4 16  2  0  0  0  0
  5  6  1  0  0  0  0
  5 22  1  0  0  0  0
  6  7  2  0  0  0  0
  6  8  1  0  0  0  0
  8  9  1  0  0  0  0
  8 23  1  0  0  0  0
  9 10  1  0  0  0  0
  9 11  1  0  0  0  0
  9 24  1  0  0  0  0
 10 25  1  0  0  0  0
 10 26  1  0  0  0  0
 10 27  1  0  0  0  0
 11 15  1  0  0  0  0
 11 12  1  0  0  0  0
 11 28  1  0  0  0  0
 12 13  1  0  0  0  0
 12 29  1  0  0  0  0
 12 30  1  0  0  0  0
 13 14  1  0  0  0  0
 13 31  1  0  0  0  0
 13 32  1  0  0  0  0
 14 15  1  0  0  0  0
 14 33  1  0  0  0  0
 14 34  1  0  0  0  0
 16 17  1  0  0  0  0
M  END
> <s_m_source_file>
AV-unprocessed.smi

> <i_m_source_file_index>
1459

> <i_lp_mmshare_version>
43012

> <i_f3d_flags>
0

> <s_epik_input>
W0NIM11jMVtjSF1jKG5vMSlbTkhdQyg9TylbTkhdW0NASF0oW0NIM10pW0NAQEhdMltDSDJdW0NIMl1bQ0gyXU8y

> <s_epik_cmdline>
J2VwaWtfcHl0aG9uJywgJy1waCcsICc3LjAnLCAnLXRuJywgJzgnLCAnLW1hJywgJzIwMCcsICctbWV0YWxfYmluZGluZycsICctaW1hZScsICc8aW5maWxlLm1hZT4nLCAnLW9tYWUnLCAnPG91dGZpbGUubWFlPic=

> <r_lp_tautomer_probability>
1

> <r_epik_Ionization_Penalty>
2.20869e-05

> <r_epik_Ionization_Penalty_Charging>
0

> <r_epik_Ionization_Penalty_Neutral>
2.20869e-05

> <r_epik_State_Penalty>
-0

> <r_epik_Charging_Adjusted_Penalty>
0

> <i_epik_Tot_Q>
0

> <i_epik_Tot_abs_Q>
0

> <r_epik_Metal_State_Penalty>
-0

> <b_epik_Metal_Only>
0

> <s_lp_Force_Field>
OPLS_2005

> <r_lp_Energy>
15.566

> <b_lp_Chiralities_Consistent>
1

> <s_lp_Variant>
AV-unprocessed.smi:1459-4

> <Gold.Version>
5.8.1

> <Gold.Id.Protein>
6NUR|6NUR_protein|mol2

> <Gold.PLP.Fitness>
38.6195

> <Gold.PLP.PLP>
-30.1305

> <Gold.PLP.part.hbond>
-3.0952

> <Gold.PLP.part.metal>
0.0000

> <Gold.PLP.part.buried>
-3.9636

> <Gold.PLP.part.nonpolar>
-24.1407

> <Gold.PLP.part.repulsive>
0.2179

> <Gold.PLP.ligand.clash>
0.0000

> <Gold.PLP.ligand.torsion>
0.1390

> <Gold.PLP.Chemscore.Hbond>
2.9192

> <Gold.PLP.Chemscore.CHOScore>
0.0000

> <Gold.PLP.Chemscore.Metal>
0.0000

> <Gold.Chemscore.Hbonds>
donor molecule, donor type, donor heavy atom, donor atom, acceptor molecule, acceptor atom, score
      L1  H     5    22       P1  7948  0.93
      L1  H     8    23       P1  7948  0.99
      P1  H  7989  7998       L1    15  1.00

> <Gold.PLP.Chemscore.Internal.Correction>
0.0093

> <Gold.Rescore>
     Score         DG    S(hbond)    S(metal)    S(lipo)     H(rot)  DE(clash)    DE(int)     intcor
     15.56     -17.05       2.46        0.00      56.71       1.28       0.07       1.42       ----

> <Gold.Chemscore.Fitness>
15.5570

> <Gold.Chemscore.DG>
-17.0516

> <Gold.Chemscore.ZeroCoef>
-5.4800

> <Gold.Chemscore.Hbond>
2.4573

> <Gold.Chemscore.Metal>
0.0000

> <Gold.Chemscore.Lipo>
56.7085

> <Gold.Chemscore.Internal_Hbond>
0.0000

> <Gold.Chemscore.DEClash>
0.0738

> <Gold.Chemscore.DEInternal>
1.4208

> <Gold.Chemscore.Rot>
1.2776

> <Gold.Chemscore.Internal.Correction>
   9.000000E+99

> <Gold.Chemscore.Hbonds>
donor molecule, donor type, donor heavy atom, donor atom, acceptor molecule, acceptor atom, score
      L1  H     5    22       P1  7948  0.20
      L1  H     8    23       P1  7948  0.84
      P1  H  7989  7998       L1    15  0.39

> <Gold.Chemscore.Hbond.Weighted>
-8.2074

> <Gold.Chemscore.Metal.Weighted>
-0.0000

> <Gold.Chemscore.Lipo.Weighted>
-6.6349

> <Gold.Chemscore.Internal_Hbond.Weighted>
0.0000

> <Gold.Chemscore.DEClash.Weighted>
0.0738

> <Gold.Chemscore.DEInternal.Weighted>
1.4208

> <Gold.Chemscore.Rot.Weighted>
3.2707

> <Gold.Chemscore.Internal.Correction.Weighted>
   9.000000E+99

> <Gold.Protein.RotatedTorsions>
[ 6907 6896 6895 6894 ] final   27.15 input  -60.11 | X-H torsion
[ 7974 7965 7964 7962 ] final  -95.85 input  175.53 | X-H torsion
[ 8008 7997 7996 7995 ] final   88.67 input   59.86 | X-H torsion
[ 10167 10162 10161 10158 ] final   83.10 input  -65.29 | X-H torsion
[ 10718 10713 10712 10709 ] final  135.48 input   66.30 | X-H torsion
[ 10763 10752 10751 10750 ] final   -6.31 input  -60.55 | X-H torsion
[ 11005 11000 10999 10996 ] final  114.51 input  -57.11 | X-H torsion

> <Gold.Protein.ActiveResidues>
 VAL166  LYS551  ARG553  GLY616  TRP617  ASP618  TYR619  PRO620  LYS621  CYS622 
 ASP623  PHE694  ASN695  SER759  ASP760  ASP761  ALA762  ILE779  LEU786  VAL792 
 PHE793  MET794  SER795  GLU796  ALA797  LYS798  CYS799  TRP800  GLU811  SER814 

> <Gold.Protein.RotatedAtoms>
  151.9981  134.9943  160.0563 H   0  0  0  0  0  0  0  0  0  0  0  0  # atno 6907 bound_to 6896
  152.1545  133.4538  159.4838 H   0  0  0  0  0  0  0  0  0  0  0  0  # atno 6908 bound_to 6896
  150.6879  134.2065  159.4386 H   0  0  0  0  0  0  0  0  0  0  0  0  # atno 6909 bound_to 6896
  145.3547  140.9482  143.2534 H   0  0  0  0  0  0  0  0  0  0  0  0  # atno 7974 bound_to 7965
  155.9906  140.3369  155.6749 H   0  0  0  0  0  0  0  0  0  0  0  0  # atno 8008 bound_to 7997
  155.6426  140.0697  157.2631 H   0  0  0  0  0  0  0  0  0  0  0  0  # atno 8009 bound_to 7997
  154.4218  140.1740  156.1576 H   0  0  0  0  0  0  0  0  0  0  0  0  # atno 8010 bound_to 7997
  139.9219  144.6207  150.8431 H   0  0  0  0  0  0  0  0  0  0  0  0  # atno 10167 bound_to 10162
  157.4566  131.1070  150.9971 H   0  0  0  0  0  0  0  0  0  0  0  0  # atno 10718 bound_to 10713
  153.4106  135.7007  153.6362 H   0  0  0  0  0  0  0  0  0  0  0  0  # atno 10763 bound_to 10752
  153.4857  135.3683  155.2466 H   0  0  0  0  0  0  0  0  0  0  0  0  # atno 10764 bound_to 10752
  154.8716  135.4077  154.3457 H   0  0  0  0  0  0  0  0  0  0  0  0  # atno 10765 bound_to 10752
  139.8983  134.9569  156.6903 H   0  0  0  0  0  0  0  0  0  0  0  0  # atno 11005 bound_to 11000
  144.8691  139.5064  143.6776 LP  0  0  0  0  0  0  0  0  0  0  0  0  # atno 17320 bound_to 7965
  146.2953  139.7260  142.9131 LP  0  0  0  0  0  0  0  0  0  0  0  0  # atno 17321 bound_to 7965
  140.7660  143.3291  151.2451 LP  0  0  0  0  0  0  0  0  0  0  0  0  # atno 17342 bound_to 10162
  139.6854  143.9782  152.2831 LP  0  0  0  0  0  0  0  0  0  0  0  0  # atno 17343 bound_to 10162
  157.0782  130.5892  149.5415 LP  0  0  0  0  0  0  0  0  0  0  0  0  # atno 17370 bound_to 10713
  156.0010  130.5089  150.7661 LP  0  0  0  0  0  0  0  0  0  0  0  0  # atno 17371 bound_to 10713
  140.7230  133.9124  155.8159 LP  0  0  0  0  0  0  0  0  0  0  0  0  # atno 17394 bound_to 11000
  141.0213  134.0885  157.4117 LP  0  0  0  0  0  0  0  0  0  0  0  0  # atno 17395 bound_to 11000

$$$$
