AV-unprocessed.smi:719|AV-procd|sdf|3494|dock1
  -GOLD-   22720 0493D 1   1.00000     0.00000
 Structure written by MMmdl.
 41 43  0  0  0  0  0  0  0  0  1 V2000
  146.2568  138.3408  152.3139 C   0  0  0  0  0  0  0  0  0  0  0  0
  146.7027  139.8071  152.3108 C   0  0  0  0  0  0  0  0  0  0  0  0
  147.4689  140.1717  153.5484 C   0  0  0  0  0  0  0  0  0  0  0  0
  148.5034  139.3380  153.9843 N   0  0  0  0  0  0  0  0  0  0  0  0
  149.0885  139.7817  155.0985 C   0  0  0  0  0  0  0  0  0  0  0  0
  150.2372  139.0938  155.7562 C   0  0  0  0  0  0  0  0  0  0  0  0
  151.4893  139.9832  155.8252 C   0  0  0  0  0  0  0  0  0  0  0  0
  151.4014  140.9616  156.9033 N   0  0  0  0  0  0  0  0  0  0  0  0
  152.1638  140.9651  158.0074 C   0  0  0  0  0  0  0  0  0  0  0  0
  153.0422  140.1278  158.2187 O   0  0  0  0  0  0  0  0  0  0  0  0
  151.8528  142.0776  158.9547 C   0  0  2  0  0  0  0  0  0  0  0  0
  152.7542  143.2985  158.9166 C   0  0  1  0  0  0  0  0  0  0  0  0
  152.3115  144.6453  159.4402 C   0  0  0  0  0  0  0  0  0  0  0  0
  151.7846  144.3882  160.8628 C   0  0  0  0  0  0  0  0  0  0  0  0
  152.4637  143.0896  161.3316 C   0  0  0  0  0  0  0  0  0  0  0  0
  152.8462  142.3480  160.0713 C   0  0  1  0  0  0  0  0  0  0  0  0
  148.4168  141.3007  155.6736 S   0  0  0  0  0  0  0  0  0  0  0  0
  147.2891  141.2810  154.3418 C   0  0  0  0  0  0  0  0  0  0  0  0
  146.2930  142.3791  154.1677 C   0  0  0  0  0  0  0  0  0  0  0  0
  145.7095  138.0994  151.4026 H   0  0  0  0  0  0  0  0  0  0  0  0
  145.6032  138.1293  153.1607 H   0  0  0  0  0  0  0  0  0  0  0  0
  147.1141  137.6698  152.3755 H   0  0  0  0  0  0  0  0  0  0  0  0
  147.3052  139.9970  151.4222 H   0  0  0  0  0  0  0  0  0  0  0  0
  145.8249  140.4471  152.2142 H   0  0  0  0  0  0  0  0  0  0  0  0
  149.9275  138.7919  156.7573 H   0  0  0  0  0  0  0  0  0  0  0  0
  150.4564  138.1770  155.2079 H   0  0  0  0  0  0  0  0  0  0  0  0
  152.3713  139.3669  156.0013 H   0  0  0  0  0  0  0  0  0  0  0  0
  151.6506  140.4917  154.8730 H   0  0  0  0  0  0  0  0  0  0  0  0
  150.7054  141.6867  156.8054 H   0  0  0  0  0  0  0  0  0  0  0  0
  150.7993  142.2461  159.1734 H   0  0  0  0  0  0  0  0  0  0  0  0
  153.5660  143.3128  158.1911 H   0  0  0  0  0  0  0  0  0  0  0  0
  153.1750  145.3106  159.4700 H   0  0  0  0  0  0  0  0  0  0  0  0
  151.5588  145.0907  158.7892 H   0  0  0  0  0  0  0  0  0  0  0  0
  151.9723  145.2254  161.5356 H   0  0  0  0  0  0  0  0  0  0  0  0
  150.7051  144.2365  160.8249 H   0  0  0  0  0  0  0  0  0  0  0  0
  153.3707  143.3173  161.8927 H   0  0  0  0  0  0  0  0  0  0  0  0
  151.8147  142.4813  161.9623 H   0  0  0  0  0  0  0  0  0  0  0  0
  153.7232  141.7069  160.1452 H   0  0  0  0  0  0  0  0  0  0  0  0
  146.3479  142.7951  153.1614 H   0  0  0  0  0  0  0  0  0  0  0  0
  146.4698  143.1900  154.8749 H   0  0  0  0  0  0  0  0  0  0  0  0
  145.2799  142.0097  154.3264 H   0  0  0  0  0  0  0  0  0  0  0  0
  1  2  1  0  0  0  0
  1 20  1  0  0  0  0
  1 21  1  0  0  0  0
  1 22  1  0  0  0  0
  2  3  1  0  0  0  0
  2 23  1  0  0  0  0
  2 24  1  0  0  0  0
  3 18  2  0  0  0  0
  3  4  1  0  0  0  0
  4  5  2  0  0  0  0
  5  6  1  0  0  0  0
  5 17  1  0  0  0  0
  6  7  1  0  0  0  0
  6 25  1  0  0  0  0
  6 26  1  0  0  0  0
  7  8  1  0  0  0  0
  7 27  1  0  0  0  0
  7 28  1  0  0  0  0
  8  9  1  0  0  0  0
  8 29  1  0  0  0  0
  9 10  2  0  0  0  0
  9 11  1  0  0  0  0
 11 16  1  0  0  0  0
 11 12  1  0  0  0  0
 11 30  1  0  0  0  0
 12 16  1  0  0  0  0
 12 13  1  0  0  0  0
 12 31  1  0  0  0  0
 13 14  1  0  0  0  0
 13 32  1  0  0  0  0
 13 33  1  0  0  0  0
 14 15  1  0  0  0  0
 14 34  1  0  0  0  0
 14 35  1  0  0  0  0
 15 16  1  0  0  0  0
 15 36  1  0  0  0  0
 15 37  1  0  0  0  0
 16 38  1  0  0  0  0
 17 18  1  0  0  0  0
 18 19  1  0  0  0  0
 19 39  1  0  0  0  0
 19 40  1  0  0  0  0
 19 41  1  0  0  0  0
M  END
> <s_m_source_file>
AV-unprocessed.smi

> <i_m_source_file_index>
719

> <i_lp_mmshare_version>
43012

> <i_f3d_flags>
0

> <s_epik_input>
W0NIM11bQ0gyXWMxbmMoc2MxW0NIM10pW0NIMl1bQ0gyXVtOSF1DKD1PKVtDQEhdMltDQEhdKFtDQEBIXTIzKVtDSDJdW0NIMl1bQ0gyXTM=

> <s_epik_cmdline>
J2VwaWtfcHl0aG9uJywgJy1waCcsICc3LjAnLCAnLXRuJywgJzgnLCAnLW1hJywgJzIwMCcsICctbWV0YWxfYmluZGluZycsICctaW1hZScsICc8aW5maWxlLm1hZT4nLCAnLW9tYWUnLCAnPG91dGZpbGUubWFlPic=

> <r_epik_Ionization_Penalty>
0.00247473

> <r_epik_Ionization_Penalty_Charging>
0

> <r_epik_Ionization_Penalty_Neutral>
0.00247473

> <r_epik_State_Penalty>
0.00171502

> <r_epik_Charging_Adjusted_Penalty>
0.00171502

> <i_epik_Tot_Q>
0

> <i_epik_Tot_abs_Q>
0

> <r_epik_Metal_State_Penalty>
-0

> <b_epik_Metal_Only>
0

> <s_lp_Force_Field>
OPLS_2005

> <r_lp_Energy>
19.4586

> <b_lp_Chiralities_Consistent>
1

> <s_lp_Variant>
AV-unprocessed.smi:719-2

> <Gold.Version>
5.8.1

> <Gold.Id.Protein>
6NUR|6NUR_protein|mol2

> <Gold.PLP.Fitness>
46.0649

> <Gold.PLP.PLP>
-44.3613

> <Gold.PLP.part.hbond>
-1.0000

> <Gold.PLP.part.metal>
0.0000

> <Gold.PLP.part.buried>
-0.3202

> <Gold.PLP.part.nonpolar>
-44.5684

> <Gold.PLP.part.repulsive>
1.6842

> <Gold.PLP.ligand.clash>
0.0000

> <Gold.PLP.ligand.torsion>
0.6912

> <Gold.PLP.Chemscore.Hbond>
0.9920

> <Gold.PLP.Chemscore.CHOScore>
0.0000

> <Gold.PLP.Chemscore.Metal>
0.0000

> <Gold.Chemscore.Hbonds>
donor molecule, donor type, donor heavy atom, donor atom, acceptor molecule, acceptor atom, score
      P1  H  7997  8009       L1    10  0.99

> <Gold.PLP.Chemscore.Internal.Correction>
0.1100

> <Gold.Rescore>
     Score         DG    S(hbond)    S(metal)    S(lipo)     H(rot)  DE(clash)    DE(int)     intcor
     19.26     -20.15       0.90        0.00     130.66       1.42       0.20       0.70       ----

> <Gold.Chemscore.Fitness>
19.2558

> <Gold.Chemscore.DG>
-20.1504

> <Gold.Chemscore.ZeroCoef>
-5.4800

> <Gold.Chemscore.Hbond>
0.9044

> <Gold.Chemscore.Metal>
0.0000

> <Gold.Chemscore.Lipo>
130.6598

> <Gold.Chemscore.Internal_Hbond>
0.0000

> <Gold.Chemscore.DEClash>
0.1977

> <Gold.Chemscore.DEInternal>
0.6969

> <Gold.Chemscore.Rot>
1.4209

> <Gold.Chemscore.Internal.Correction>
   9.000000E+99

> <Gold.Chemscore.Hbonds>
donor molecule, donor type, donor heavy atom, donor atom, acceptor molecule, acceptor atom, score
      P1  H  7997  8009       L1    10  0.90

> <Gold.Chemscore.Hbond.Weighted>
-3.0207

> <Gold.Chemscore.Metal.Weighted>
-0.0000

> <Gold.Chemscore.Lipo.Weighted>
-15.2872

> <Gold.Chemscore.Internal_Hbond.Weighted>
0.0000

> <Gold.Chemscore.DEClash.Weighted>
0.1977

> <Gold.Chemscore.DEInternal.Weighted>
0.6969

> <Gold.Chemscore.Rot.Weighted>
3.6376

> <Gold.Chemscore.Internal.Correction.Weighted>
   9.000000E+99

> <Gold.Protein.RotatedTorsions>
[ 6907 6896 6895 6894 ] final  -23.20 input  -60.11 | X-H torsion
[ 7974 7965 7964 7962 ] final  146.79 input  175.53 | X-H torsion
[ 8008 7997 7996 7995 ] final  151.37 input   59.86 | X-H torsion
[ 10167 10162 10161 10158 ] final -161.11 input  -65.29 | X-H torsion
[ 10718 10713 10712 10709 ] final  121.68 input   66.30 | X-H torsion
[ 10763 10752 10751 10750 ] final  -28.46 input  -60.55 | X-H torsion
[ 11005 11000 10999 10996 ] final  110.53 input  -57.11 | X-H torsion

> <Gold.Protein.ActiveResidues>
 VAL166  LYS551  ARG553  GLY616  TRP617  ASP618  TYR619  PRO620  LYS621  CYS622 
 ASP623  PHE694  ASN695  SER759  ASP760  ASP761  ALA762  ILE779  LEU786  VAL792 
 PHE793  MET794  SER795  GLU796  ALA797  LYS798  CYS799  TRP800  GLU811  SER814 

> <Gold.Protein.RotatedAtoms>
  151.2074  135.0467  159.8897 H   0  0  0  0  0  0  0  0  0  0  0  0  # atno 6907 bound_to 6896
  152.5427  134.0782  159.8234 H   0  0  0  0  0  0  0  0  0  0  0  0  # atno 6908 bound_to 6896
  151.0931  133.5253  159.2646 H   0  0  0  0  0  0  0  0  0  0  0  0  # atno 6909 bound_to 6896
  144.8642  139.5949  143.5916 H   0  0  0  0  0  0  0  0  0  0  0  0  # atno 7974 bound_to 7965
  156.2676  140.2049  156.6165 H   0  0  0  0  0  0  0  0  0  0  0  0  # atno 8008 bound_to 7997
  154.6790  140.0542  157.0270 H   0  0  0  0  0  0  0  0  0  0  0  0  # atno 8009 bound_to 7997
  155.1027  140.3207  155.4545 H   0  0  0  0  0  0  0  0  0  0  0  0  # atno 8010 bound_to 7997
  139.6489  144.0120  152.2147 H   0  0  0  0  0  0  0  0  0  0  0  0  # atno 10167 bound_to 10162
  157.5800  131.1076  150.8206 H   0  0  0  0  0  0  0  0  0  0  0  0  # atno 10718 bound_to 10713
  153.7487  135.6927  153.4950 H   0  0  0  0  0  0  0  0  0  0  0  0  # atno 10763 bound_to 10752
  153.2018  135.4434  155.0274 H   0  0  0  0  0  0  0  0  0  0  0  0  # atno 10764 bound_to 10752
  154.8195  135.3415  154.7009 H   0  0  0  0  0  0  0  0  0  0  0  0  # atno 10765 bound_to 10752
  139.8884  134.9486  156.6294 H   0  0  0  0  0  0  0  0  0  0  0  0  # atno 11005 bound_to 11000
  146.2884  139.7068  142.9179 LP  0  0  0  0  0  0  0  0  0  0  0  0  # atno 17320 bound_to 7965
  145.4253  141.0410  143.2941 LP  0  0  0  0  0  0  0  0  0  0  0  0  # atno 17321 bound_to 7965
  139.9829  144.6416  150.7884 LP  0  0  0  0  0  0  0  0  0  0  0  0  # atno 17342 bound_to 10162
  140.7528  143.2997  151.3112 LP  0  0  0  0  0  0  0  0  0  0  0  0  # atno 17343 bound_to 10162
  156.8655  130.5128  149.5300 LP  0  0  0  0  0  0  0  0  0  0  0  0  # atno 17370 bound_to 10713
  156.0845  130.5847  150.9623 LP  0  0  0  0  0  0  0  0  0  0  0  0  # atno 17371 bound_to 10713
  140.7678  133.8763  155.8468 LP  0  0  0  0  0  0  0  0  0  0  0  0  # atno 17394 bound_to 11000
  140.9867  134.1333  157.4445 LP  0  0  0  0  0  0  0  0  0  0  0  0  # atno 17395 bound_to 11000

$$$$
