AV-unprocessed.smi:1776|AV-procd|sdf|7174|dock4
  -GOLD-   22720 8413D 1   1.00000     0.00000
 Structure written by MMmdl.
 31 32  0  0  0  0  0  0  0  0  1 V2000
  152.2015  139.7239  158.3610 O   0  0  0  0  0  0  0  0  0  0  0  0
  153.2592  139.4882  158.9448 C   0  0  0  0  0  0  0  0  0  0  0  0
  153.7956  140.2533  159.9174 N   0  0  0  0  0  0  0  0  0  0  0  0
  153.3269  141.4440  160.5001 C   0  0  0  0  0  0  0  0  0  0  0  0
  152.4325  142.2982  159.9357 C   0  0  0  0  0  0  0  0  0  0  0  0
  151.9910  143.5090  160.6076 C   0  0  0  0  0  0  0  0  0  0  0  0
  151.0460  144.4913  159.9329 C   0  0  0  0  0  0  0  0  0  0  0  0
  150.7098  144.0807  158.7092 F   0  0  0  0  0  0  0  0  0  0  0  0
  149.9290  144.6435  160.6447 F   0  0  0  0  0  0  0  0  0  0  0  0
  151.6333  145.6822  159.8249 F   0  0  0  0  0  0  0  0  0  0  0  0
  152.5239  143.7521  161.8192 C   0  0  0  0  0  0  0  0  0  0  0  0
  153.4310  142.8726  162.4135 N   0  0  0  0  0  0  0  0  0  0  0  0
  153.8712  141.7314  161.8381 C   0  0  0  0  0  0  0  0  0  0  0  0
  154.6737  141.0092  162.4287 O   0  0  0  0  0  0  0  0  0  0  0  0
  154.0685  138.2329  158.5855 C   0  0  1  0  0  0  0  0  0  0  0  0
  153.4795  137.4469  157.3907 C   0  0  0  0  0  0  0  0  0  0  0  0
  154.3121  136.3298  157.1061 O   0  0  0  0  0  0  0  0  0  0  0  0
  155.6323  136.7386  156.7765 C   0  0  0  0  0  0  0  0  0  0  0  0
  156.2258  137.5097  157.9666 C   0  0  0  0  0  0  0  0  0  0  0  0
  155.3974  138.6282  158.2535 O   0  0  0  0  0  0  0  0  0  0  0  0
  153.7752  143.1189  163.3304 H   0  0  0  0  0  0  0  0  0  0  0  0
  154.6859  139.9391  160.2770 H   0  0  0  0  0  0  0  0  0  0  0  0
  152.0030  142.1033  158.9679 H   0  0  0  0  0  0  0  0  0  0  0  0
  152.3060  144.6249  162.4169 H   0  0  0  0  0  0  0  0  0  0  0  0
  154.0935  137.5927  159.4692 H   0  0  0  0  0  0  0  0  0  0  0  0
  152.4804  137.0785  157.6263 H   0  0  0  0  0  0  0  0  0  0  0  0
  153.3898  138.0789  156.5051 H   0  0  0  0  0  0  0  0  0  0  0  0
  156.2348  135.8573  156.5564 H   0  0  0  0  0  0  0  0  0  0  0  0
  155.6238  137.3561  155.8768 H   0  0  0  0  0  0  0  0  0  0  0  0
  156.3108  136.8672  158.8445 H   0  0  0  0  0  0  0  0  0  0  0  0
  157.2290  137.8624  157.7271 H   0  0  0  0  0  0  0  0  0  0  0  0
  1  2  2  0  0  0  0
  2  3  1  0  0  0  0
  2 15  1  0  0  0  0
  3  4  1  0  0  0  0
  3 22  1  0  0  0  0
  4 13  1  0  0  0  0
  4  5  2  0  0  0  0
  5  6  1  0  0  0  0
  5 23  1  0  0  0  0
  6  7  1  0  0  0  0
  6 11  2  0  0  0  0
  7  8  1  0  0  0  0
  7  9  1  0  0  0  0
  7 10  1  0  0  0  0
 11 12  1  0  0  0  0
 11 24  1  0  0  0  0
 12 21  1  0  0  0  0
 12 13  1  0  0  0  0
 13 14  2  0  0  0  0
 15 20  1  0  0  0  0
 15 16  1  0  0  0  0
 15 25  1  0  0  0  0
 16 17  1  0  0  0  0
 16 26  1  0  0  0  0
 16 27  1  0  0  0  0
 17 18  1  0  0  0  0
 18 19  1  0  0  0  0
 18 28  1  0  0  0  0
 18 29  1  0  0  0  0
 19 20  1  0  0  0  0
 19 30  1  0  0  0  0
 19 31  1  0  0  0  0
M  END
> <s_m_source_file>
AV-unprocessed.smi

> <i_m_source_file_index>
1776

> <i_lp_mmshare_version>
43012

> <i_f3d_flags>
0

> <s_epik_input>
TzFbQ0gyXVtDSDJdT1tDSDJdW0NASF0xQyg9TylbTkhdYzJbY0hdYyhDKEYpKEYpRilbY0hdW25IXWMyPU8=

> <s_epik_cmdline>
J2VwaWtfcHl0aG9uJywgJy1waCcsICc3LjAnLCAnLXRuJywgJzgnLCAnLW1hJywgJzIwMCcsICctbWV0YWxfYmluZGluZycsICctaW1hZScsICc8aW5maWxlLm1hZT4nLCAnLW9tYWUnLCAnPG91dGZpbGUubWFlPic=

> <r_lp_tautomer_probability>
0.999

> <r_epik_Ionization_Penalty>
0.0100875

> <r_epik_Ionization_Penalty_Charging>
0.0100873

> <r_epik_Ionization_Penalty_Neutral>
1.79075e-07

> <r_epik_State_Penalty>
0.00769562

> <r_epik_Charging_Adjusted_Penalty>
0.017783

> <i_epik_Tot_Q>
0

> <i_epik_Tot_abs_Q>
0

> <r_epik_Metal_State_Penalty>
0.325451

> <b_epik_Metal_Only>
0

> <s_lp_Force_Field>
OPLS_2005

> <r_lp_Energy>
23.697

> <b_lp_Chiralities_Consistent>
1

> <s_lp_Variant>
AV-unprocessed.smi:1776-2

> <Gold.Version>
5.8.1

> <Gold.Id.Protein>
6NUR|6NUR_protein|mol2

> <Gold.PLP.Fitness>
44.1783

> <Gold.PLP.PLP>
-38.5208

> <Gold.PLP.part.hbond>
-2.4015

> <Gold.PLP.part.metal>
0.0000

> <Gold.PLP.part.buried>
-4.3298

> <Gold.PLP.part.nonpolar>
-31.7780

> <Gold.PLP.part.repulsive>
0.1507

> <Gold.PLP.ligand.clash>
0.0000

> <Gold.PLP.ligand.torsion>
0.1748

> <Gold.PLP.Chemscore.Hbond>
1.9920

> <Gold.PLP.Chemscore.CHOScore>
0.0000

> <Gold.PLP.Chemscore.Metal>
0.0000

> <Gold.Chemscore.Hbonds>
donor molecule, donor type, donor heavy atom, donor atom, acceptor molecule, acceptor atom, score
      P1  H  7997  8010       L1    20  0.86
      P1  H 10752 10763       L1    17  0.37

> <Gold.PLP.Chemscore.Internal.Correction>
0.0311

> <Gold.Rescore>
     Score         DG    S(hbond)    S(metal)    S(lipo)     H(rot)  DE(clash)    DE(int)     intcor
     12.86     -13.99       0.92        0.00      68.43       1.00       0.02       1.11       ----

> <Gold.Chemscore.Fitness>
12.8610

> <Gold.Chemscore.DG>
-13.9896

> <Gold.Chemscore.ZeroCoef>
-5.4800

> <Gold.Chemscore.Hbond>
0.9170

> <Gold.Chemscore.Metal>
0.0000

> <Gold.Chemscore.Lipo>
68.4336

> <Gold.Chemscore.Internal_Hbond>
0.0000

> <Gold.Chemscore.DEClash>
0.0219

> <Gold.Chemscore.DEInternal>
1.1067

> <Gold.Chemscore.Rot>
1.0000

> <Gold.Chemscore.Internal.Correction>
   9.000000E+99

> <Gold.Chemscore.Hbonds>
donor molecule, donor type, donor heavy atom, donor atom, acceptor molecule, acceptor atom, score
      P1  H  7997  8010       L1    20  0.78
      P1  H 10752 10763       L1    17  0.01

> <Gold.Chemscore.Hbond.Weighted>
-3.0629

> <Gold.Chemscore.Metal.Weighted>
-0.0000

> <Gold.Chemscore.Lipo.Weighted>
-8.0067

> <Gold.Chemscore.Internal_Hbond.Weighted>
0.0000

> <Gold.Chemscore.DEClash.Weighted>
0.0219

> <Gold.Chemscore.DEInternal.Weighted>
1.1067

> <Gold.Chemscore.Rot.Weighted>
2.5600

> <Gold.Chemscore.Internal.Correction.Weighted>
   9.000000E+99

> <Gold.Protein.RotatedTorsions>
[ 6907 6896 6895 6894 ] final -155.27 input  -60.11 | X-H torsion
[ 7974 7965 7964 7962 ] final -159.96 input  175.53 | X-H torsion
[ 8008 7997 7996 7995 ] final  -31.19 input   59.86 | X-H torsion
[ 10167 10162 10161 10158 ] final -131.48 input  -65.29 | X-H torsion
[ 10718 10713 10712 10709 ] final -134.82 input   66.30 | X-H torsion
[ 10763 10752 10751 10750 ] final  162.27 input  -60.55 | X-H torsion
[ 11005 11000 10999 10996 ] final  -68.34 input  -57.11 | X-H torsion

> <Gold.Protein.ActiveResidues>
 VAL166  LYS551  ARG553  GLY616  TRP617  ASP618  TYR619  PRO620  LYS621  CYS622 
 ASP623  PHE694  ASN695  SER759  ASP760  ASP761  ALA762  ILE779  LEU786  VAL792 
 PHE793  MET794  SER795  GLU796  ALA797  LYS798  CYS799  TRP800  GLU811  SER814 

> <Gold.Protein.RotatedAtoms>
  151.2699  133.4260  159.2620 H   0  0  0  0  0  0  0  0  0  0  0  0  # atno 6907 bound_to 6896
  151.0454  134.9637  159.8194 H   0  0  0  0  0  0  0  0  0  0  0  0  # atno 6908 bound_to 6896
  152.5373  134.2656  159.9004 H   0  0  0  0  0  0  0  0  0  0  0  0  # atno 6909 bound_to 6896
  144.7445  140.3610  143.6096 H   0  0  0  0  0  0  0  0  0  0  0  0  # atno 7974 bound_to 7965
  154.4222  140.1771  156.1528 H   0  0  0  0  0  0  0  0  0  0  0  0  # atno 8008 bound_to 7997
  155.9901  140.3369  155.6721 H   0  0  0  0  0  0  0  0  0  0  0  0  # atno 8009 bound_to 7997
  155.6383  140.0677  157.2617 H   0  0  0  0  0  0  0  0  0  0  0  0  # atno 8010 bound_to 7997
  139.9185  143.6410  152.2559 H   0  0  0  0  0  0  0  0  0  0  0  0  # atno 10167 bound_to 10162
  156.2595  130.7201  151.1130 H   0  0  0  0  0  0  0  0  0  0  0  0  # atno 10718 bound_to 10713
  154.2758  135.2764  155.2718 H   0  0  0  0  0  0  0  0  0  0  0  0  # atno 10763 bound_to 10752
  154.5262  135.5742  153.6724 H   0  0  0  0  0  0  0  0  0  0  0  0  # atno 10764 bound_to 10752
  152.9937  135.6216  154.2915 H   0  0  0  0  0  0  0  0  0  0  0  0  # atno 10765 bound_to 10752
  141.1529  133.6738  156.6431 H   0  0  0  0  0  0  0  0  0  0  0  0  # atno 11005 bound_to 11000
  145.7177  139.1701  143.2502 LP  0  0  0  0  0  0  0  0  0  0  0  0  # atno 17320 bound_to 7965
  146.1300  140.7197  142.9416 LP  0  0  0  0  0  0  0  0  0  0  0  0  # atno 17321 bound_to 7965
  139.6882  144.7649  151.1486 LP  0  0  0  0  0  0  0  0  0  0  0  0  # atno 17342 bound_to 10162
  140.7668  143.5627  150.9081 LP  0  0  0  0  0  0  0  0  0  0  0  0  # atno 17343 bound_to 10162
  157.7245  131.0659  150.5992 LP  0  0  0  0  0  0  0  0  0  0  0  0  # atno 17370 bound_to 10713
  156.6079  130.4372  149.5871 LP  0  0  0  0  0  0  0  0  0  0  0  0  # atno 17371 bound_to 10713
  140.3378  134.7874  157.4375 LP  0  0  0  0  0  0  0  0  0  0  0  0  # atno 17394 bound_to 11000
  140.0963  134.5533  155.8395 LP  0  0  0  0  0  0  0  0  0  0  0  0  # atno 17395 bound_to 11000

$$$$
