AV-unprocessed.smi:81|AV-procd|sdf|788|dock7
  -GOLD-   2262017163D 1   1.00000     0.00000
 Structure written by MMmdl.
 64 67  0  0  0  0  0  0  0  0  2 V2000
  140.2850  137.3031  153.6467 C   0  0  0  0  0  0  0  0  0  0  0  0
  141.6836  136.7566  153.9782 C   0  0  0  0  0  0  0  0  0  0  0  0
  142.0137  136.9873  155.4593 C   0  0  0  0  0  0  0  0  0  0  0  0
  142.7741  137.3831  153.0797 C   0  0  0  0  0  0  0  0  0  0  0  0
  144.0766  136.7167  153.1692 N   0  0  0  0  0  0  0  0  0  0  0  0
  145.1406  137.5569  153.2150 C   0  0  0  0  0  0  0  0  0  0  0  0
  145.7424  137.9572  152.0639 N   0  0  0  0  0  0  0  0  0  0  0  0
  146.7796  138.7988  152.1094 C   0  0  0  0  0  0  0  0  0  0  0  0
  147.3589  139.3521  153.1769 N   0  0  0  0  0  0  0  0  0  0  0  0
  146.7480  138.9611  154.3320 C   0  0  0  0  0  0  0  0  0  0  0  0
  145.6440  138.0711  154.4393 C   0  0  0  0  0  0  0  0  0  0  0  0
  145.2910  137.9053  155.7724 N   0  0  0  0  0  0  0  0  0  0  0  0
  146.1390  138.6580  156.4186 C   0  0  0  0  0  0  0  0  0  0  0  0
  147.0438  139.3343  155.6311 N   0  0  0  0  0  0  0  0  0  0  0  0
  148.0834  140.2441  156.0850 C   0  0  0  0  0  0  0  0  0  0  0  0
  149.4989  139.6198  156.0561 C   0  0  1  0  0  0  0  0  0  0  0  0
  149.6706  138.8340  157.2246 O   0  0  0  0  0  0  0  0  0  0  0  0
  149.7679  138.7439  154.8414 C   0  0  0  0  0  0  0  0  0  0  0  0
  151.2881  138.7706  154.7445 C   0  0  0  0  0  0  0  0  0  0  0  0
  151.6588  140.0821  155.1507 O   0  0  0  0  0  0  0  0  0  0  0  0
  150.6223  140.6721  155.9347 C   0  0  2  0  0  0  0  0  0  0  0  0
  151.1804  141.2389  157.2499 C   0  0  0  0  0  0  0  0  0  0  0  0
  144.2449  135.4971  152.3658 C   0  0  2  0  0  0  0  0  0  0  0  0
  144.5716  135.7677  150.8819 C   0  0  0  0  0  0  0  0  0  0  0  0
  144.8199  134.4520  150.1270 C   0  0  0  0  0  0  0  0  0  0  0  0
  143.6516  133.5443  150.2439 N   0  3  1  0  0  0  0  0  0  0  0  0
  143.8034  132.3225  149.4250 C   0  0  0  0  0  0  0  0  0  0  0  0
  143.3241  133.2386  151.6588 C   0  0  0  0  0  0  0  0  0  0  0  0
  143.0482  134.5252  152.4546 C   0  0  0  0  0  0  0  0  0  0  0  0
  140.2389  138.3836  153.7862 H   0  0  0  0  0  0  0  0  0  0  0  0
  139.5260  136.8524  154.2867 H   0  0  0  0  0  0  0  0  0  0  0  0
  140.0063  137.0897  152.6148 H   0  0  0  0  0  0  0  0  0  0  0  0
  141.6679  135.6769  153.8245 H   0  0  0  0  0  0  0  0  0  0  0  0
  142.0449  138.0510  155.6979 H   0  0  0  0  0  0  0  0  0  0  0  0
  142.9833  136.5594  155.7166 H   0  0  0  0  0  0  0  0  0  0  0  0
  141.2685  136.5222  156.1052 H   0  0  0  0  0  0  0  0  0  0  0  0
  142.4370  137.3621  152.0425 H   0  0  0  0  0  0  0  0  0  0  0  0
  142.8946  138.4371  153.3330 H   0  0  0  0  0  0  0  0  0  0  0  0
  147.2041  139.0711  151.1543 H   0  0  0  0  0  0  0  0  0  0  0  0
  146.1220  138.7477  157.4951 H   0  0  0  0  0  0  0  0  0  0  0  0
  148.0492  141.1320  155.4522 H   0  0  0  0  0  0  0  0  0  0  0  0
  147.8374  140.5788  157.0936 H   0  0  0  0  0  0  0  0  0  0  0  0
  148.8173  138.6152  157.5667 H   0  0  0  0  0  0  0  0  0  0  0  0
  149.3613  137.7349  154.9264 H   0  0  0  0  0  0  0  0  0  0  0  0
  149.3437  139.2017  153.9467 H   0  0  0  0  0  0  0  0  0  0  0  0
  151.7286  138.0498  155.4344 H   0  0  0  0  0  0  0  0  0  0  0  0
  151.6493  138.5443  153.7411 H   0  0  0  0  0  0  0  0  0  0  0  0
  150.2513  141.5063  155.3376 H   0  0  0  0  0  0  0  0  0  0  0  0
  150.3876  141.6807  157.8539 H   0  0  0  0  0  0  0  0  0  0  0  0
  151.9183  142.0163  157.0515 H   0  0  0  0  0  0  0  0  0  0  0  0
  151.6702  140.4685  157.8460 H   0  0  0  0  0  0  0  0  0  0  0  0
  145.1113  134.9855  152.7875 H   0  0  0  0  0  0  0  0  0  0  0  0
  143.7533  136.3020  150.3972 H   0  0  0  0  0  0  0  0  0  0  0  0
  145.4536  136.4040  150.8028 H   0  0  0  0  0  0  0  0  0  0  0  0
  145.0122  134.6681  149.0753 H   0  0  0  0  0  0  0  0  0  0  0  0
  145.7105  133.9565  150.5171 H   0  0  0  0  0  0  0  0  0  0  0  0
  144.6403  131.7170  149.7756 H   0  0  0  0  0  0  0  0  0  0  0  0
  143.9795  132.5785  148.3797 H   0  0  0  0  0  0  0  0  0  0  0  0
  142.8991  131.7148  149.4695 H   0  0  0  0  0  0  0  0  0  0  0  0
  142.4463  132.5924  151.6989 H   0  0  0  0  0  0  0  0  0  0  0  0
  144.1468  132.6849  152.1139 H   0  0  0  0  0  0  0  0  0  0  0  0
  142.8409  134.2670  153.4933 H   0  0  0  0  0  0  0  0  0  0  0  0
  142.1452  134.9953  152.0647 H   0  0  0  0  0  0  0  0  0  0  0  0
  142.8595  134.0448  149.8664 H   0  0  0  0  0  0  0  0  0  0  0  0
  1  2  1  0  0  0  0
  1 30  1  0  0  0  0
  1 31  1  0  0  0  0
  1 32  1  0  0  0  0
  2  3  1  0  0  0  0
  2  4  1  0  0  0  0
  2 33  1  0  0  0  0
  3 34  1  0  0  0  0
  3 35  1  0  0  0  0
  3 36  1  0  0  0  0
  4  5  1  0  0  0  0
  4 37  1  0  0  0  0
  4 38  1  0  0  0  0
  5  6  1  0  0  0  0
  5 23  1  0  0  0  0
  6 11  1  0  0  0  0
  6  7  2  0  0  0  0
  7  8  1  0  0  0  0
  8  9  2  0  0  0  0
  8 39  1  0  0  0  0
  9 10  1  0  0  0  0
 10 14  1  0  0  0  0
 10 11  2  0  0  0  0
 11 12  1  0  0  0  0
 12 13  2  0  0  0  0
 13 14  1  0  0  0  0
 13 40  1  0  0  0  0
 14 15  1  0  0  0  0
 15 16  1  0  0  0  0
 15 41  1  0  0  0  0
 15 42  1  0  0  0  0
 16 21  1  0  0  0  0
 16 17  1  0  0  0  0
 16 18  1  0  0  0  0
 17 43  1  0  0  0  0
 18 19  1  0  0  0  0
 18 44  1  0  0  0  0
 18 45  1  0  0  0  0
 19 20  1  0  0  0  0
 19 46  1  0  0  0  0
 19 47  1  0  0  0  0
 20 21  1  0  0  0  0
 21 22  1  0  0  0  0
 21 48  1  0  0  0  0
 22 49  1  0  0  0  0
 22 50  1  0  0  0  0
 22 51  1  0  0  0  0
 23 29  1  0  0  0  0
 23 24  1  0  0  0  0
 23 52  1  0  0  0  0
 24 25  1  0  0  0  0
 24 53  1  0  0  0  0
 24 54  1  0  0  0  0
 25 26  1  0  0  0  0
 25 55  1  0  0  0  0
 25 56  1  0  0  0  0
 26 27  1  0  0  0  0
 26 28  1  0  0  0  0
 26 64  1  0  0  0  0
 27 57  1  0  0  0  0
 27 58  1  0  0  0  0
 27 59  1  0  0  0  0
 28 29  1  0  0  0  0
 28 60  1  0  0  0  0
 28 61  1  0  0  0  0
 29 62  1  0  0  0  0
 29 63  1  0  0  0  0
M  CHG  1  26   1
M  END
> <s_m_source_file>
AV-unprocessed.smi

> <i_m_source_file_index>
81

> <i_lp_mmshare_version>
43012

> <i_f3d_flags>
0

> <s_epik_input>
W0NIMl0xW0NIMl1OKFtDSDNdKVtDSDJdW0NIMl1bQ0hdMU4oW0NIMl1bQ0hdKFtDSDNdKVtDSDNdKWMobltjSF1uMiljKGMyMyluW2NIXW4zW0NIMl1bQ0BAXTQoW09IXSlbQ0gyXVtDSDJdT1tDQEhdNFtDSDNd

> <s_epik_cmdline>
J2VwaWtfcHl0aG9uJywgJy1waCcsICc3LjAnLCAnLXRuJywgJzgnLCAnLW1hJywgJzIwMCcsICctbWV0YWxfYmluZGluZycsICctaW1hZScsICc8aW5maWxlLm1hZT4nLCAnLW9tYWUnLCAnPG91dGZpbGUubWFlPic=

> <r_lp_tautomer_probability>
1

> <r_epik_Ionization_Penalty>
0.00272708

> <r_epik_Ionization_Penalty_Charging>
0.00158983

> <r_epik_Ionization_Penalty_Neutral>
0.00113725

> <r_epik_State_Penalty>
-0

> <r_epik_Charging_Adjusted_Penalty>
0.00158983

> <i_epik_Tot_Q>
1

> <i_epik_Tot_abs_Q>
1

> <r_epik_Metal_State_Penalty>
-0

> <b_epik_Metal_Only>
0

> <s_lp_Force_Field>
OPLS_2005

> <r_lp_Energy>
45.229

> <b_lp_Chiralities_Consistent>
1

> <s_lp_Variant>
AV-unprocessed.smi:81-3

> <Gold.Version>
5.8.1

> <Gold.Id.Protein>
6NUR|6NUR_protein|mol2

> <Gold.PLP.Fitness>
47.7200

> <Gold.PLP.PLP>
-39.0382

> <Gold.PLP.part.hbond>
-2.0000

> <Gold.PLP.part.metal>
0.0000

> <Gold.PLP.part.buried>
-4.3361

> <Gold.PLP.part.nonpolar>
-35.1085

> <Gold.PLP.part.repulsive>
2.3519

> <Gold.PLP.ligand.clash>
0.0034

> <Gold.PLP.ligand.torsion>
1.6335

> <Gold.PLP.Chemscore.Hbond>
2.9760

> <Gold.PLP.Chemscore.CHOScore>
0.7430

> <Gold.PLP.Chemscore.Metal>
0.0000

> <Gold.Chemscore.Hbonds>
donor molecule, donor type, donor heavy atom, donor atom, acceptor molecule, acceptor atom, score
      L1  H    26    64       P1 10186  2.00
      P1  H  7989  7998       L1    20  0.88
      L1  C     8    39       P1  7957  0.76

> <Gold.PLP.Chemscore.Internal.Correction>
0.7954

> <Gold.Rescore>
     Score         DG    S(hbond)    S(metal)    S(lipo)     H(rot)  DE(clash)    DE(int)     intcor
      8.07     -13.39       1.11        0.00      92.39       2.58       1.33       3.99       ----

> <Gold.Chemscore.Fitness>
8.0705

> <Gold.Chemscore.DG>
-13.3914

> <Gold.Chemscore.ZeroCoef>
-5.4800

> <Gold.Chemscore.Hbond>
1.1079

> <Gold.Chemscore.Metal>
0.0000

> <Gold.Chemscore.Lipo>
92.3867

> <Gold.Chemscore.Internal_Hbond>
0.0000

> <Gold.Chemscore.DEClash>
1.3265

> <Gold.Chemscore.DEInternal>
3.9944

> <Gold.Chemscore.Rot>
2.5774

> <Gold.Chemscore.Internal.Correction>
   9.000000E+99

> <Gold.Chemscore.Hbonds>
donor molecule, donor type, donor heavy atom, donor atom, acceptor molecule, acceptor atom, score
      L1  H    26    64       P1 10186  0.98
      P1  H  7989  7998       L1    20  0.11

> <Gold.Chemscore.Hbond.Weighted>
-3.7004

> <Gold.Chemscore.Metal.Weighted>
-0.0000

> <Gold.Chemscore.Lipo.Weighted>
-10.8092

> <Gold.Chemscore.Internal_Hbond.Weighted>
0.0000

> <Gold.Chemscore.DEClash.Weighted>
1.3265

> <Gold.Chemscore.DEInternal.Weighted>
3.9944

> <Gold.Chemscore.Rot.Weighted>
6.5982

> <Gold.Chemscore.Internal.Correction.Weighted>
   9.000000E+99

> <Gold.Protein.RotatedTorsions>
[ 6907 6896 6895 6894 ] final  113.64 input  -60.11 | X-H torsion
[ 7974 7965 7964 7962 ] final  -34.65 input  175.53 | X-H torsion
[ 8008 7997 7996 7995 ] final   91.75 input   59.86 | X-H torsion
[ 10167 10162 10161 10158 ] final   59.26 input  -65.29 | X-H torsion
[ 10718 10713 10712 10709 ] final -113.45 input   66.30 | X-H torsion
[ 10763 10752 10751 10750 ] final  -96.42 input  -60.55 | X-H torsion
[ 11005 11000 10999 10996 ] final  123.06 input  -57.11 | X-H torsion

> <Gold.Protein.ActiveResidues>
 VAL166  LYS551  ARG553  GLY616  TRP617  ASP618  TYR619  PRO620  LYS621  CYS622 
 ASP623  PHE694  ASN695  SER759  ASP760  ASP761  ALA762  ILE779  LEU786  VAL792 
 PHE793  MET794  SER795  GLU796  ALA797  LYS798  CYS799  TRP800  GLU811  SER814 

> <Gold.Protein.RotatedAtoms>
  152.4849  133.8348  159.7121 H   0  0  0  0  0  0  0  0  0  0  0  0  # atno 6907 bound_to 6896
  150.8928  133.7212  159.2906 H   0  0  0  0  0  0  0  0  0  0  0  0  # atno 6908 bound_to 6896
  151.4679  135.1047  159.9795 H   0  0  0  0  0  0  0  0  0  0  0  0  # atno 6909 bound_to 6896
  146.0812  140.6064  142.8907 H   0  0  0  0  0  0  0  0  0  0  0  0  # atno 7974 bound_to 7965
  156.0274  140.3334  155.7103 H   0  0  0  0  0  0  0  0  0  0  0  0  # atno 8008 bound_to 7997
  155.5934  140.0648  157.2770 H   0  0  0  0  0  0  0  0  0  0  0  0  # atno 8009 bound_to 7997
  154.4339  140.1823  156.1086 H   0  0  0  0  0  0  0  0  0  0  0  0  # atno 8010 bound_to 7997
  140.1783  144.4207  150.6627 H   0  0  0  0  0  0  0  0  0  0  0  0  # atno 10167 bound_to 10162
  156.0767  130.5974  150.8644 H   0  0  0  0  0  0  0  0  0  0  0  0  # atno 10718 bound_to 10713
  154.7238  135.5084  153.8853 H   0  0  0  0  0  0  0  0  0  0  0  0  # atno 10763 bound_to 10752
  153.0886  135.6652  153.9908 H   0  0  0  0  0  0  0  0  0  0  0  0  # atno 10764 bound_to 10752
  153.9725  135.3037  155.3405 H   0  0  0  0  0  0  0  0  0  0  0  0  # atno 10765 bound_to 10752
  139.9296  134.9641  156.8203 H   0  0  0  0  0  0  0  0  0  0  0  0  # atno 11005 bound_to 11000
  144.7295  140.4627  143.6948 LP  0  0  0  0  0  0  0  0  0  0  0  0  # atno 17320 bound_to 7965
  145.6214  139.1524  143.3020 LP  0  0  0  0  0  0  0  0  0  0  0  0  # atno 17321 bound_to 7965
  140.6536  143.2231  151.6020 LP  0  0  0  0  0  0  0  0  0  0  0  0  # atno 17342 bound_to 10162
  139.5307  144.2925  152.1141 LP  0  0  0  0  0  0  0  0  0  0  0  0  # atno 17343 bound_to 10162
  157.5866  131.0945  150.9186 LP  0  0  0  0  0  0  0  0  0  0  0  0  # atno 17370 bound_to 10713
  156.9370  130.5370  149.5279 LP  0  0  0  0  0  0  0  0  0  0  0  0  # atno 17371 bound_to 10713
  140.6240  133.9968  155.7631 LP  0  0  0  0  0  0  0  0  0  0  0  0  # atno 17394 bound_to 11000
  141.0876  133.9966  157.3289 LP  0  0  0  0  0  0  0  0  0  0  0  0  # atno 17395 bound_to 11000

$$$$
