AV-unprocessed.smi:2465|AV-procd|sdf|9723|dock2
  -GOLD-   2272013363D 1   1.00000     0.00000
 Structure written by MMmdl.
 41 42  0  0  0  0  0  0  0  0  2 V2000
  153.5596  141.6385  159.9651 C   0  0  0  0  0  0  0  0  0  0  0  0
  152.6374  142.4214  159.0459 C   0  0  0  0  0  0  0  0  0  0  0  0
  152.7523  143.8279  158.9814 C   0  0  0  0  0  0  0  0  0  0  0  0
  151.8958  144.5541  158.1320 C   0  0  0  0  0  0  0  0  0  0  0  0
  150.9740  143.9013  157.3946 N   0  3  0  0  0  0  0  0  0  0  0  0
  150.8271  142.5594  157.4227 C   0  0  0  0  0  0  0  0  0  0  0  0
  151.6646  141.7656  158.2476 C   0  0  0  0  0  0  0  0  0  0  0  0
  151.5587  140.3471  158.3358 N   0  0  0  0  0  0  0  0  0  0  0  0
  150.4957  139.5579  158.1005 C   0  0  0  0  0  0  0  0  0  0  0  0
  149.3802  139.9465  157.7556 O   0  0  0  0  0  0  0  0  0  0  0  0
  150.8049  138.2655  158.2786 N   0  0  0  0  0  0  0  0  0  0  0  0
  149.8798  137.1503  158.1116 C   0  0  0  0  0  0  0  0  0  0  0  0
  148.9745  136.9685  159.3406 C   0  0  0  0  0  0  0  0  0  0  0  0
  148.1331  135.6842  159.2590 C   0  0  0  0  0  0  0  0  0  0  0  0
  147.7321  135.2160  160.5830 N   0  0  0  0  0  0  0  0  0  0  0  0
  147.5001  133.8024  160.8289 C   0  0  0  0  0  0  0  0  0  0  0  0
  147.2896  133.6899  162.3457 C   0  0  0  0  0  0  0  0  0  0  0  0
  147.0766  135.1232  162.8451 C   0  0  0  0  0  0  0  0  0  0  0  0
  147.4913  135.9759  161.6580 C   0  0  0  0  0  0  0  0  0  0  0  0
  147.5805  137.2016  161.7156 O   0  0  0  0  0  0  0  0  0  0  0  0
  154.2354  142.2994  160.5088 H   0  0  0  0  0  0  0  0  0  0  0  0
  154.1648  140.9369  159.3900 H   0  0  0  0  0  0  0  0  0  0  0  0
  152.9796  141.0756  160.6970 H   0  0  0  0  0  0  0  0  0  0  0  0
  153.4879  144.3492  159.5768 H   0  0  0  0  0  0  0  0  0  0  0  0
  151.9162  145.6289  158.0245 H   0  0  0  0  0  0  0  0  0  0  0  0
  150.0369  142.1860  156.7900 H   0  0  0  0  0  0  0  0  0  0  0  0
  152.4176  139.8666  158.5605 H   0  0  0  0  0  0  0  0  0  0  0  0
  151.7470  138.0333  158.5577 H   0  0  0  0  0  0  0  0  0  0  0  0
  149.2708  137.3483  157.2290 H   0  0  0  0  0  0  0  0  0  0  0  0
  150.4349  136.2331  157.9067 H   0  0  0  0  0  0  0  0  0  0  0  0
  149.5842  136.9412  160.2448 H   0  0  0  0  0  0  0  0  0  0  0  0
  148.3171  137.8337  159.4376 H   0  0  0  0  0  0  0  0  0  0  0  0
  147.2433  135.8546  158.6509 H   0  0  0  0  0  0  0  0  0  0  0  0
  148.7013  134.8995  158.7576 H   0  0  0  0  0  0  0  0  0  0  0  0
  146.6099  133.4828  160.2854 H   0  0  0  0  0  0  0  0  0  0  0  0
  148.3429  133.1975  160.4917 H   0  0  0  0  0  0  0  0  0  0  0  0
  146.4458  133.0432  162.5884 H   0  0  0  0  0  0  0  0  0  0  0  0
  148.1761  133.2618  162.8157 H   0  0  0  0  0  0  0  0  0  0  0  0
  146.0287  135.3122  163.0800 H   0  0  0  0  0  0  0  0  0  0  0  0
  147.6796  135.3462  163.7257 H   0  0  0  0  0  0  0  0  0  0  0  0
  150.3579  144.4456  156.7902 H   0  0  0  0  0  0  0  0  0  0  0  0
  1  2  1  0  0  0  0
  1 21  1  0  0  0  0
  1 22  1  0  0  0  0
  1 23  1  0  0  0  0
  2  7  1  0  0  0  0
  2  3  2  0  0  0  0
  3  4  1  0  0  0  0
  3 24  1  0  0  0  0
  4  5  2  0  0  0  0
  4 25  1  0  0  0  0
  5  6  1  0  0  0  0
  5 41  1  0  0  0  0
  6  7  2  0  0  0  0
  6 26  1  0  0  0  0
  7  8  1  0  0  0  0
  8  9  1  0  0  0  0
  8 27  1  0  0  0  0
  9 10  2  0  0  0  0
  9 11  1  0  0  0  0
 11 12  1  0  0  0  0
 11 28  1  0  0  0  0
 12 13  1  0  0  0  0
 12 29  1  0  0  0  0
 12 30  1  0  0  0  0
 13 14  1  0  0  0  0
 13 31  1  0  0  0  0
 13 32  1  0  0  0  0
 14 15  1  0  0  0  0
 14 33  1  0  0  0  0
 14 34  1  0  0  0  0
 15 19  1  0  0  0  0
 15 16  1  0  0  0  0
 16 17  1  0  0  0  0
 16 35  1  0  0  0  0
 16 36  1  0  0  0  0
 17 18  1  0  0  0  0
 17 37  1  0  0  0  0
 17 38  1  0  0  0  0
 18 19  1  0  0  0  0
 18 39  1  0  0  0  0
 18 40  1  0  0  0  0
 19 20  2  0  0  0  0
M  CHG  1   5   1
M  END
> <s_m_source_file>
AV-unprocessed.smi

> <i_m_source_file_index>
2465

> <i_lp_mmshare_version>
43012

> <i_f3d_flags>
0

> <s_epik_input>
W0NIM11jMVtjSF1bY0hdbltjSF1jMVtOSF1DKD1PKVtOSF1bQ0gyXVtDSDJdW0NIMl1OMltDSDJdW0NIMl1bQ0gyXUMyPU8=

> <s_epik_cmdline>
J2VwaWtfcHl0aG9uJywgJy1waCcsICc3LjAnLCAnLXRuJywgJzgnLCAnLW1hJywgJzIwMCcsICctbWV0YWxfYmluZGluZycsICctaW1hZScsICc8aW5maWxlLm1hZT4nLCAnLW9tYWUnLCAnPG91dGZpbGUubWFlPic=

> <r_epik_Ionization_Penalty>
1.98477

> <r_epik_Ionization_Penalty_Charging>
1.98474

> <r_epik_Ionization_Penalty_Neutral>
2.19328e-05

> <r_epik_State_Penalty>
2.1123

> <r_epik_Charging_Adjusted_Penalty>
4.09705

> <i_epik_Tot_Q>
1

> <i_epik_Tot_abs_Q>
1

> <r_epik_Metal_State_Penalty>
2.13405

> <b_epik_Metal_Only>
0

> <s_lp_Force_Field>
OPLS_2005

> <r_lp_Energy>
26.0932

> <b_lp_Chiralities_Consistent>
1

> <s_lp_Variant>
AV-unprocessed.smi:2465-2

> <Gold.Version>
5.8.1

> <Gold.Id.Protein>
6NUR|6NUR_protein|mol2

> <Gold.PLP.Fitness>
55.9419

> <Gold.PLP.PLP>
-46.2013

> <Gold.PLP.part.hbond>
-3.0000

> <Gold.PLP.part.metal>
0.0000

> <Gold.PLP.part.buried>
-5.7325

> <Gold.PLP.part.nonpolar>
-38.1682

> <Gold.PLP.part.repulsive>
0.2079

> <Gold.PLP.ligand.clash>
0.0000

> <Gold.PLP.ligand.torsion>
0.8031

> <Gold.PLP.Chemscore.Hbond>
3.7600

> <Gold.PLP.Chemscore.CHOScore>
0.0000

> <Gold.PLP.Chemscore.Metal>
0.0000

> <Gold.Chemscore.Hbonds>
donor molecule, donor type, donor heavy atom, donor atom, acceptor molecule, acceptor atom, score
      L1  H     5    41       P1  8028  2.00
      P1  H  6931  6943       L1    20  0.98
      P1  H  6934  6947       L1    20  0.75

> <Gold.PLP.Chemscore.Internal.Correction>
0.0668

> <Gold.Rescore>
     Score         DG    S(hbond)    S(metal)    S(lipo)     H(rot)  DE(clash)    DE(int)     intcor
     18.99     -22.16       2.75        0.00     103.12       1.78       0.01       3.16       ----

> <Gold.Chemscore.Fitness>
18.9868

> <Gold.Chemscore.DG>
-22.1596

> <Gold.Chemscore.ZeroCoef>
-5.4800

> <Gold.Chemscore.Hbond>
2.7492

> <Gold.Chemscore.Metal>
0.0000

> <Gold.Chemscore.Lipo>
103.1155

> <Gold.Chemscore.Internal_Hbond>
0.0000

> <Gold.Chemscore.DEClash>
0.0096

> <Gold.Chemscore.DEInternal>
3.1632

> <Gold.Chemscore.Rot>
1.7841

> <Gold.Chemscore.Internal.Correction>
   9.000000E+99

> <Gold.Chemscore.Hbonds>
donor molecule, donor type, donor heavy atom, donor atom, acceptor molecule, acceptor atom, score
      L1  H     5    41       P1  8028  0.92
      P1  H  6931  6943       L1    20  0.93
      P1  H  6934  6947       L1    20  0.70

> <Gold.Chemscore.Hbond.Weighted>
-9.1824

> <Gold.Chemscore.Metal.Weighted>
-0.0000

> <Gold.Chemscore.Lipo.Weighted>
-12.0645

> <Gold.Chemscore.Internal_Hbond.Weighted>
0.0000

> <Gold.Chemscore.DEClash.Weighted>
0.0096

> <Gold.Chemscore.DEInternal.Weighted>
3.1632

> <Gold.Chemscore.Rot.Weighted>
4.5673

> <Gold.Chemscore.Internal.Correction.Weighted>
   9.000000E+99

> <Gold.Protein.RotatedTorsions>
[ 6907 6896 6895 6894 ] final  -12.56 input  -60.11 | X-H torsion
[ 7974 7965 7964 7962 ] final  121.82 input  175.53 | X-H torsion
[ 8008 7997 7996 7995 ] final  -20.29 input   59.86 | X-H torsion
[ 10167 10162 10161 10158 ] final -166.89 input  -65.29 | X-H torsion
[ 10718 10713 10712 10709 ] final   74.24 input   66.30 | X-H torsion
[ 10763 10752 10751 10750 ] final -117.87 input  -60.55 | X-H torsion
[ 11005 11000 10999 10996 ] final -170.27 input  -57.11 | X-H torsion

> <Gold.Protein.ActiveResidues>
 VAL166  LYS551  ARG553  GLY616  TRP617  ASP618  TYR619  PRO620  LYS621  CYS622 
 ASP623  PHE694  ASN695  SER759  ASP760  ASP761  ALA762  ILE779  LEU786  VAL792 
 PHE793  MET794  SER795  GLU796  ALA797  LYS798  CYS799  TRP800  GLU811  SER814 

> <Gold.Protein.RotatedAtoms>
  151.3686  135.0918  159.9457 H   0  0  0  0  0  0  0  0  0  0  0  0  # atno 6907 bound_to 6896
  152.5142  133.9187  159.7534 H   0  0  0  0  0  0  0  0  0  0  0  0  # atno 6908 bound_to 6896
  150.9596  133.6405  159.2786 H   0  0  0  0  0  0  0  0  0  0  0  0  # atno 6909 bound_to 6896
  145.1148  139.3428  143.4744 H   0  0  0  0  0  0  0  0  0  0  0  0  # atno 7974 bound_to 7965
  154.4779  140.2066  155.9833 H   0  0  0  0  0  0  0  0  0  0  0  0  # atno 8008 bound_to 7997
  156.1119  140.3227  155.8054 H   0  0  0  0  0  0  0  0  0  0  0  0  # atno 8009 bound_to 7997
  155.4620  140.0525  157.2980 H   0  0  0  0  0  0  0  0  0  0  0  0  # atno 8010 bound_to 7997
  139.6085  144.0864  152.1817 H   0  0  0  0  0  0  0  0  0  0  0  0  # atno 10167 bound_to 10162
  157.6584  130.9668  150.1183 H   0  0  0  0  0  0  0  0  0  0  0  0  # atno 10718 bound_to 10713
  154.8569  135.4294  154.2048 H   0  0  0  0  0  0  0  0  0  0  0  0  # atno 10763 bound_to 10752
  153.3087  135.6974  153.7142 H   0  0  0  0  0  0  0  0  0  0  0  0  # atno 10764 bound_to 10752
  153.6243  135.3496  155.2995 H   0  0  0  0  0  0  0  0  0  0  0  0  # atno 10765 bound_to 10752
  140.5213  134.5706  157.5048 H   0  0  0  0  0  0  0  0  0  0  0  0  # atno 11005 bound_to 11000
  146.3524  140.1082  142.8605 LP  0  0  0  0  0  0  0  0  0  0  0  0  # atno 17320 bound_to 7965
  145.0806  140.9218  143.4827 LP  0  0  0  0  0  0  0  0  0  0  0  0  # atno 17321 bound_to 7965
  140.0477  144.5958  150.7361 LP  0  0  0  0  0  0  0  0  0  0  0  0  # atno 17342 bound_to 10162
  140.7302  143.2681  151.3979 LP  0  0  0  0  0  0  0  0  0  0  0  0  # atno 17343 bound_to 10162
  156.2061  130.3663  149.8727 LP  0  0  0  0  0  0  0  0  0  0  0  0  # atno 17370 bound_to 10713
  156.6618  130.8785  151.3548 LP  0  0  0  0  0  0  0  0  0  0  0  0  # atno 17371 bound_to 10713
  139.9604  134.7462  156.0249 LP  0  0  0  0  0  0  0  0  0  0  0  0  # atno 17394 bound_to 11000
  141.1332  133.6581  156.3522 LP  0  0  0  0  0  0  0  0  0  0  0  0  # atno 17395 bound_to 11000

$$$$
