AV-unprocessed.smi:2311|AV-procd|sdf|9261|dock6
  -GOLD-   2272012483D 1   1.00000     0.00000
 Structure written by MMmdl.
 40 41  0  0  0  0  0  0  0  0  1 V2000
  144.9956  132.3655  149.5121 C   0  0  0  0  0  0  0  0  0  0  0  0
  144.6734  133.3286  150.6351 C   0  0  0  0  0  0  0  0  0  0  0  0
  143.4431  133.2605  151.3181 C   0  0  0  0  0  0  0  0  0  0  0  0
  143.2056  134.1865  152.3496 C   0  0  0  0  0  0  0  0  0  0  0  0
  144.2003  135.1361  152.6528 C   0  0  0  0  0  0  0  0  0  0  0  0
  145.4077  135.1372  151.9185 C   0  0  0  0  0  0  0  0  0  0  0  0
  146.3448  136.1337  152.3011 N   0  0  0  0  0  0  0  0  0  0  0  0
  146.1148  137.2796  152.9668 C   0  0  0  0  0  0  0  0  0  0  0  0
  145.0149  137.6641  153.3654 O   0  0  0  0  0  0  0  0  0  0  0  0
  147.2500  137.9694  153.1521 N   0  0  0  0  0  0  0  0  0  0  0  0
  147.3510  139.2533  153.8406 C   0  0  2  0  0  0  0  0  0  0  0  0
  147.0917  140.3947  152.8502 C   0  0  0  0  0  0  0  0  0  0  0  0
  147.3095  141.7556  153.5256 C   0  0  0  0  0  0  0  0  0  0  0  0
  148.6228  141.8348  154.0764 O   0  0  0  0  0  0  0  0  0  0  0  0
  148.9594  140.8467  155.0562 C   0  0  0  0  0  0  0  0  0  0  0  0
  150.4519  141.0660  155.3539 C   0  0  0  0  0  0  0  0  0  0  0  0
  148.1542  141.0649  156.3554 C   0  0  0  0  0  0  0  0  0  0  0  0
  148.7481  139.4330  154.4622 C   0  0  0  0  0  0  0  0  0  0  0  0
  145.6273  134.2393  150.9256 N   0  0  0  0  0  0  0  0  0  0  0  0
  144.2474  131.5753  149.4423 H   0  0  0  0  0  0  0  0  0  0  0  0
  145.9673  131.8989  149.6759 H   0  0  0  0  0  0  0  0  0  0  0  0
  145.0243  132.8938  148.5588 H   0  0  0  0  0  0  0  0  0  0  0  0
  142.6994  132.5206  151.0603 H   0  0  0  0  0  0  0  0  0  0  0  0
  142.2761  134.1700  152.8994 H   0  0  0  0  0  0  0  0  0  0  0  0
  144.0330  135.8547  153.4421 H   0  0  0  0  0  0  0  0  0  0  0  0
  147.3021  135.9514  152.0395 H   0  0  0  0  0  0  0  0  0  0  0  0
  148.1082  137.5789  152.7920 H   0  0  0  0  0  0  0  0  0  0  0  0
  146.5917  139.2952  154.6231 H   0  0  0  0  0  0  0  0  0  0  0  0
  147.7653  140.3072  151.9963 H   0  0  0  0  0  0  0  0  0  0  0  0
  146.0767  140.3324  152.4561 H   0  0  0  0  0  0  0  0  0  0  0  0
  147.1970  142.5530  152.7910 H   0  0  0  0  0  0  0  0  0  0  0  0
  146.5550  141.9372  154.2907 H   0  0  0  0  0  0  0  0  0  0  0  0
  150.8211  140.3452  156.0844 H   0  0  0  0  0  0  0  0  0  0  0  0
  150.6325  142.0646  155.7533 H   0  0  0  0  0  0  0  0  0  0  0  0
  151.0559  140.9614  154.4520 H   0  0  0  0  0  0  0  0  0  0  0  0
  148.4820  140.3781  157.1364 H   0  0  0  0  0  0  0  0  0  0  0  0
  147.0852  140.9053  156.2220 H   0  0  0  0  0  0  0  0  0  0  0  0
  148.2883  142.0789  156.7331 H   0  0  0  0  0  0  0  0  0  0  0  0
  148.9238  138.6765  155.2284 H   0  0  0  0  0  0  0  0  0  0  0  0
  149.4963  139.2570  153.6875 H   0  0  0  0  0  0  0  0  0  0  0  0
  1  2  1  0  0  0  0
  1 20  1  0  0  0  0
  1 21  1  0  0  0  0
  1 22  1  0  0  0  0
  2 19  1  0  0  0  0
  2  3  2  0  0  0  0
  3  4  1  0  0  0  0
  3 23  1  0  0  0  0
  4  5  2  0  0  0  0
  4 24  1  0  0  0  0
  5  6  1  0  0  0  0
  5 25  1  0  0  0  0
  6  7  1  0  0  0  0
  6 19  2  0  0  0  0
  7  8  1  0  0  0  0
  7 26  1  0  0  0  0
  8  9  2  0  0  0  0
  8 10  1  0  0  0  0
 10 11  1  0  0  0  0
 10 27  1  0  0  0  0
 11 18  1  0  0  0  0
 11 12  1  0  0  0  0
 11 28  1  0  0  0  0
 12 13  1  0  0  0  0
 12 29  1  0  0  0  0
 12 30  1  0  0  0  0
 13 14  1  0  0  0  0
 13 31  1  0  0  0  0
 13 32  1  0  0  0  0
 14 15  1  0  0  0  0
 15 16  1  0  0  0  0
 15 17  1  0  0  0  0
 15 18  1  0  0  0  0
 16 33  1  0  0  0  0
 16 34  1  0  0  0  0
 16 35  1  0  0  0  0
 17 36  1  0  0  0  0
 17 37  1  0  0  0  0
 17 38  1  0  0  0  0
 18 39  1  0  0  0  0
 18 40  1  0  0  0  0
M  END
> <s_m_source_file>
AV-unprocessed.smi

> <i_m_source_file_index>
2311

> <i_lp_mmshare_version>
43012

> <i_f3d_flags>
0

> <s_epik_input>
W0NIM11jMVtjSF1bY0hdW2NIXWMobjEpW05IXUMoPU8pW05IXVtDQEBIXShbQ0gyXTIpW0NIMl1bQ0gyXU9DMihbQ0gzXSlbQ0gzXQ==

> <s_epik_cmdline>
J2VwaWtfcHl0aG9uJywgJy1waCcsICc3LjAnLCAnLXRuJywgJzgnLCAnLW1hJywgJzIwMCcsICctbWV0YWxfYmluZGluZycsICctaW1hZScsICc8aW5maWxlLm1hZT4nLCAnLW9tYWUnLCAnPG91dGZpbGUubWFlPic=

> <r_lp_tautomer_probability>
1

> <r_epik_Ionization_Penalty>
8.54628e-05

> <r_epik_Ionization_Penalty_Charging>
0

> <r_epik_Ionization_Penalty_Neutral>
8.54628e-05

> <r_epik_State_Penalty>
-0

> <r_epik_Charging_Adjusted_Penalty>
0

> <i_epik_Tot_Q>
0

> <i_epik_Tot_abs_Q>
0

> <r_epik_Metal_State_Penalty>
-0

> <b_epik_Metal_Only>
0

> <s_lp_Force_Field>
OPLS_2005

> <r_lp_Energy>
12.4956

> <b_lp_Chiralities_Consistent>
1

> <s_lp_Variant>
AV-unprocessed.smi:2311-1

> <Gold.Version>
5.8.1

> <Gold.Id.Protein>
6NUR|6NUR_protein|mol2

> <Gold.PLP.Fitness>
36.1861

> <Gold.PLP.PLP>
-30.2651

> <Gold.PLP.part.hbond>
-3.0000

> <Gold.PLP.part.metal>
0.0000

> <Gold.PLP.part.buried>
-2.8137

> <Gold.PLP.part.nonpolar>
-23.5046

> <Gold.PLP.part.repulsive>
0.5927

> <Gold.PLP.ligand.clash>
0.0039

> <Gold.PLP.ligand.torsion>
0.4609

> <Gold.PLP.Chemscore.Hbond>
2.2822

> <Gold.PLP.Chemscore.CHOScore>
0.0000

> <Gold.PLP.Chemscore.Metal>
0.0000

> <Gold.Chemscore.Hbonds>
donor molecule, donor type, donor heavy atom, donor atom, acceptor molecule, acceptor atom, score
      L1  H     7    26       P1  7948  1.00
      L1  H    10    27       P1  7948  0.99
      P1  H  8011  8017       L1    14  0.31

> <Gold.PLP.Chemscore.Internal.Correction>
0.0002

> <Gold.Rescore>
     Score         DG    S(hbond)    S(metal)    S(lipo)     H(rot)  DE(clash)    DE(int)     intcor
     16.78     -18.85       2.02        0.00      78.60       1.00       0.15       1.91       ----

> <Gold.Chemscore.Fitness>
16.7834

> <Gold.Chemscore.DG>
-18.8471

> <Gold.Chemscore.ZeroCoef>
-5.4800

> <Gold.Chemscore.Hbond>
2.0151

> <Gold.Chemscore.Metal>
0.0000

> <Gold.Chemscore.Lipo>
78.6036

> <Gold.Chemscore.Internal_Hbond>
0.0000

> <Gold.Chemscore.DEClash>
0.1523

> <Gold.Chemscore.DEInternal>
1.9115

> <Gold.Chemscore.Rot>
1.0000

> <Gold.Chemscore.Internal.Correction>
   9.000000E+99

> <Gold.Chemscore.Hbonds>
donor molecule, donor type, donor heavy atom, donor atom, acceptor molecule, acceptor atom, score
      L1  H     7    26       P1  7948  0.99
      L1  H    10    27       P1  7948  0.93
      P1  H  8011  8017       L1    14  0.09

> <Gold.Chemscore.Hbond.Weighted>
-6.7305

> <Gold.Chemscore.Metal.Weighted>
-0.0000

> <Gold.Chemscore.Lipo.Weighted>
-9.1966

> <Gold.Chemscore.Internal_Hbond.Weighted>
0.0000

> <Gold.Chemscore.DEClash.Weighted>
0.1523

> <Gold.Chemscore.DEInternal.Weighted>
1.9115

> <Gold.Chemscore.Rot.Weighted>
2.5600

> <Gold.Chemscore.Internal.Correction.Weighted>
   9.000000E+99

> <Gold.Protein.RotatedTorsions>
[ 6907 6896 6895 6894 ] final  -51.67 input  -60.11 | X-H torsion
[ 7974 7965 7964 7962 ] final  111.30 input  175.53 | X-H torsion
[ 8008 7997 7996 7995 ] final  -21.49 input   59.86 | X-H torsion
[ 10167 10162 10161 10158 ] final  -51.41 input  -65.29 | X-H torsion
[ 10718 10713 10712 10709 ] final -169.16 input   66.30 | X-H torsion
[ 10763 10752 10751 10750 ] final   97.40 input  -60.55 | X-H torsion
[ 11005 11000 10999 10996 ] final -103.08 input  -57.11 | X-H torsion

> <Gold.Protein.ActiveResidues>
 VAL166  LYS551  ARG553  GLY616  TRP617  ASP618  TYR619  PRO620  LYS621  CYS622 
 ASP623  PHE694  ASN695  SER759  ASP760  ASP761  ALA762  ILE779  LEU786  VAL792 
 PHE793  MET794  SER795  GLU796  ALA797  LYS798  CYS799  TRP800  GLU811  SER814 

> <Gold.Protein.RotatedAtoms>
  150.8589  134.7936  159.7067 H   0  0  0  0  0  0  0  0  0  0  0  0  # atno 6907 bound_to 6896
  152.4632  134.5132  159.9770 H   0  0  0  0  0  0  0  0  0  0  0  0  # atno 6908 bound_to 6896
  151.5239  133.3423  159.2942 H   0  0  0  0  0  0  0  0  0  0  0  0  # atno 6909 bound_to 6896
  145.2440  139.2767  143.4103 H   0  0  0  0  0  0  0  0  0  0  0  0  # atno 7974 bound_to 7965
  154.4702  140.2033  156.0013 H   0  0  0  0  0  0  0  0  0  0  0  0  # atno 8008 bound_to 7997
  156.0998  140.3245  155.7897 H   0  0  0  0  0  0  0  0  0  0  0  0  # atno 8009 bound_to 7997
  155.4816  140.0539  157.2957 H   0  0  0  0  0  0  0  0  0  0  0  0  # atno 8010 bound_to 7997
  140.6590  143.2621  151.4499 H   0  0  0  0  0  0  0  0  0  0  0  0  # atno 10167 bound_to 10162
  156.7075  130.9220  151.3086 H   0  0  0  0  0  0  0  0  0  0  0  0  # atno 10718 bound_to 10713
  153.2764  135.4185  155.1037 H   0  0  0  0  0  0  0  0  0  0  0  0  # atno 10763 bound_to 10752
  154.8474  135.3484  154.6172 H   0  0  0  0  0  0  0  0  0  0  0  0  # atno 10764 bound_to 10752
  153.6593  135.7049  153.5240 H   0  0  0  0  0  0  0  0  0  0  0  0  # atno 10765 bound_to 10752
  141.1161  133.8611  157.1441 H   0  0  0  0  0  0  0  0  0  0  0  0  # atno 11005 bound_to 11000
  146.3321  140.2811  142.8610 LP  0  0  0  0  0  0  0  0  0  0  0  0  # atno 17320 bound_to 7965
  144.9563  140.8230  143.5541 LP  0  0  0  0  0  0  0  0  0  0  0  0  # atno 17321 bound_to 7965
  139.5819  144.1691  152.1979 LP  0  0  0  0  0  0  0  0  0  0  0  0  # atno 17342 bound_to 10162
  140.1019  144.5532  150.6983 LP  0  0  0  0  0  0  0  0  0  0  0  0  # atno 17343 bound_to 10162
  157.6949  130.9271  150.0616 LP  0  0  0  0  0  0  0  0  0  0  0  0  # atno 17370 bound_to 10713
  156.1684  130.3645  149.9199 LP  0  0  0  0  0  0  0  0  0  0  0  0  # atno 17371 bound_to 10713
  140.0085  134.9998  157.0344 LP  0  0  0  0  0  0  0  0  0  0  0  0  # atno 17394 bound_to 11000
  140.4640  134.1454  155.7195 LP  0  0  0  0  0  0  0  0  0  0  0  0  # atno 17395 bound_to 11000

$$$$
