AV-unprocessed.smi:2552|AV-procd|sdf|10015|dock9
  -GOLD-   2272014 63D 1   1.00000     0.00000
 Structure written by MMmdl.
 34 36  0  0  0  0  0  0  0  0  1 V2000
  148.7410  136.0907  158.8501 C   0  0  0  0  0  0  0  0  0  0  0  0
  149.1770  136.8340  157.6702 N   0  0  0  0  0  0  0  0  0  0  0  0
  149.1781  136.0973  156.4795 N   0  0  0  0  0  0  0  0  0  0  0  0
  149.5433  136.6325  155.3564 C   0  0  0  0  0  0  0  0  0  0  0  0
  149.9580  138.0319  155.3609 C   0  0  0  0  0  0  0  0  0  0  0  0
  150.4171  138.9524  154.3789 C   0  0  0  0  0  0  0  0  0  0  0  0
  150.6797  140.1490  154.9009 N   0  0  0  0  0  0  0  0  0  0  0  0
  150.4046  140.0422  156.2269 N   0  0  0  0  0  0  0  0  0  0  0  0
  150.6080  141.1853  157.1037 C   0  0  0  0  0  0  0  0  0  0  0  0
  152.0882  141.3693  157.4952 C   0  0  2  0  0  0  0  0  0  0  0  0
  152.6582  140.0889  157.6802 O   0  0  0  0  0  0  0  0  0  0  0  0
  152.2575  142.2614  158.7200 C   0  0  0  0  0  0  0  0  0  0  0  0
  152.6732  141.7092  159.9521 C   0  0  0  0  0  0  0  0  0  0  0  0
  152.8115  142.5279  161.0893 C   0  0  0  0  0  0  0  0  0  0  0  0
  152.5333  143.9050  161.0035 C   0  0  0  0  0  0  0  0  0  0  0  0
  152.1139  144.4618  159.7804 C   0  0  0  0  0  0  0  0  0  0  0  0
  151.9734  143.6444  158.6418 C   0  0  0  0  0  0  0  0  0  0  0  0
  151.5553  144.1956  157.4767 F   0  0  0  0  0  0  0  0  0  0  0  0
  149.9636  138.7642  156.5016 C   0  0  0  0  0  0  0  0  0  0  0  0
  149.5425  138.1465  157.7806 C   0  0  0  0  0  0  0  0  0  0  0  0
  149.5314  138.7808  158.8357 O   0  0  0  0  0  0  0  0  0  0  0  0
  147.8593  136.5559  159.2934 H   0  0  0  0  0  0  0  0  0  0  0  0
  149.5306  136.0675  159.6027 H   0  0  0  0  0  0  0  0  0  0  0  0
  148.4836  135.0577  158.6103 H   0  0  0  0  0  0  0  0  0  0  0  0
  149.5433  136.0575  154.4306 H   0  0  0  0  0  0  0  0  0  0  0  0
  150.5687  138.7959  153.3212 H   0  0  0  0  0  0  0  0  0  0  0  0
  150.2291  142.0827  156.6114 H   0  0  0  0  0  0  0  0  0  0  0  0
  149.9938  141.0422  157.9933 H   0  0  0  0  0  0  0  0  0  0  0  0
  152.6254  141.8154  156.6585 H   0  0  0  0  0  0  0  0  0  0  0  0
  151.9936  139.4385  157.5113 H   0  0  0  0  0  0  0  0  0  0  0  0
  152.8823  140.6523  160.0308 H   0  0  0  0  0  0  0  0  0  0  0  0
  153.1287  142.0985  162.0282 H   0  0  0  0  0  0  0  0  0  0  0  0
  152.6385  144.5331  161.8756 H   0  0  0  0  0  0  0  0  0  0  0  0
  151.8960  145.5174  159.7157 H   0  0  0  0  0  0  0  0  0  0  0  0
  1  2  1  0  0  0  0
  1 22  1  0  0  0  0
  1 23  1  0  0  0  0
  1 24  1  0  0  0  0
  2 20  1  0  0  0  0
  2  3  1  0  0  0  0
  3  4  2  0  0  0  0
  4  5  1  0  0  0  0
  4 25  1  0  0  0  0
  5 19  2  0  0  0  0
  5  6  1  0  0  0  0
  6  7  2  0  0  0  0
  6 26  1  0  0  0  0
  7  8  1  0  0  0  0
  8  9  1  0  0  0  0
  8 19  1  0  0  0  0
  9 10  1  0  0  0  0
  9 27  1  0  0  0  0
  9 28  1  0  0  0  0
 10 11  1  0  0  0  0
 10 12  1  0  0  0  0
 10 29  1  0  0  0  0
 11 30  1  0  0  0  0
 12 17  1  0  0  0  0
 12 13  2  0  0  0  0
 13 14  1  0  0  0  0
 13 31  1  0  0  0  0
 14 15  2  0  0  0  0
 14 32  1  0  0  0  0
 15 16  1  0  0  0  0
 15 33  1  0  0  0  0
 16 17  2  0  0  0  0
 16 34  1  0  0  0  0
 17 18  1  0  0  0  0
 19 20  1  0  0  0  0
 20 21  2  0  0  0  0
M  END
> <s_m_source_file>
AV-unprocessed.smi

> <i_m_source_file_index>
2552

> <i_lp_mmshare_version>
43012

> <i_f3d_flags>
0

> <s_epik_input>
W2NIXTFubihbQ0gzXSljKD1PKWMoYzEyKW4obltjSF0yKVtDSDJdW0NASF0oW09IXSljM1tjSF1bY0hdW2NIXVtjSF1jM0Y=

> <s_epik_cmdline>
J2VwaWtfcHl0aG9uJywgJy1waCcsICc3LjAnLCAnLXRuJywgJzgnLCAnLW1hJywgJzIwMCcsICctbWV0YWxfYmluZGluZycsICctaW1hZScsICc8aW5maWxlLm1hZT4nLCAnLW9tYWUnLCAnPG91dGZpbGUubWFlPic=

> <r_lp_tautomer_probability>
1

> <r_epik_Ionization_Penalty>
6.28011e-06

> <r_epik_Ionization_Penalty_Charging>
1.65421e-10

> <r_epik_Ionization_Penalty_Neutral>
6.27995e-06

> <r_epik_State_Penalty>
-0

> <r_epik_Charging_Adjusted_Penalty>
1.65421e-10

> <i_epik_Tot_Q>
0

> <i_epik_Tot_abs_Q>
0

> <r_epik_Metal_State_Penalty>
-0

> <b_epik_Metal_Only>
0

> <s_lp_Force_Field>
OPLS_2005

> <r_lp_Energy>
28.555

> <b_lp_Chiralities_Consistent>
1

> <s_lp_Variant>
AV-unprocessed.smi:2552-1

> <Gold.Version>
5.8.1

> <Gold.Id.Protein>
6NUR|6NUR_protein|mol2

> <Gold.PLP.Fitness>
47.6368

> <Gold.PLP.PLP>
-37.7077

> <Gold.PLP.part.hbond>
-2.6585

> <Gold.PLP.part.metal>
0.0000

> <Gold.PLP.part.buried>
-5.9278

> <Gold.PLP.part.nonpolar>
-30.1163

> <Gold.PLP.part.repulsive>
0.0874

> <Gold.PLP.ligand.clash>
0.0000

> <Gold.PLP.ligand.torsion>
0.6980

> <Gold.PLP.Chemscore.Hbond>
1.8500

> <Gold.PLP.Chemscore.CHOScore>
1.9199

> <Gold.PLP.Chemscore.Metal>
0.0000

> <Gold.Chemscore.Hbonds>
donor molecule, donor type, donor heavy atom, donor atom, acceptor molecule, acceptor atom, score
      P1  H  7989  7998       L1     7  0.95
      P1  H  7997  8010       L1    11  1.00
      L1  C     4    25       P1  7948  0.79
      L1  C     6    26       P1  7957  0.69

> <Gold.PLP.Chemscore.Internal.Correction>
0.0154

> <Gold.Rescore>
     Score         DG    S(hbond)    S(metal)    S(lipo)     H(rot)  DE(clash)    DE(int)     intcor
     15.68     -17.31       1.54        0.00     101.23       2.02       1.13       0.50       ----

> <Gold.Chemscore.Fitness>
15.6849

> <Gold.Chemscore.DG>
-17.3147

> <Gold.Chemscore.ZeroCoef>
-5.4800

> <Gold.Chemscore.Hbond>
1.5442

> <Gold.Chemscore.Metal>
0.0000

> <Gold.Chemscore.Lipo>
101.2257

> <Gold.Chemscore.Internal_Hbond>
0.0000

> <Gold.Chemscore.DEClash>
1.1336

> <Gold.Chemscore.DEInternal>
0.4961

> <Gold.Chemscore.Rot>
2.0181

> <Gold.Chemscore.Internal.Correction>
   9.000000E+99

> <Gold.Chemscore.Hbonds>
donor molecule, donor type, donor heavy atom, donor atom, acceptor molecule, acceptor atom, score
      P1  H  7989  7998       L1     7  0.22
      P1  H  7997  8010       L1    11  0.57

> <Gold.Chemscore.Hbond.Weighted>
-5.1576

> <Gold.Chemscore.Metal.Weighted>
-0.0000

> <Gold.Chemscore.Lipo.Weighted>
-11.8434

> <Gold.Chemscore.Internal_Hbond.Weighted>
0.0000

> <Gold.Chemscore.DEClash.Weighted>
1.1336

> <Gold.Chemscore.DEInternal.Weighted>
0.4961

> <Gold.Chemscore.Rot.Weighted>
5.1663

> <Gold.Chemscore.Internal.Correction.Weighted>
   9.000000E+99

> <Gold.Protein.RotatedTorsions>
[ 6907 6896 6895 6894 ] final   -9.54 input  -60.11 | X-H torsion
[ 7974 7965 7964 7962 ] final -170.69 input  175.53 | X-H torsion
[ 8008 7997 7996 7995 ] final   53.10 input   59.86 | X-H torsion
[ 10167 10162 10161 10158 ] final  -86.96 input  -65.29 | X-H torsion
[ 10718 10713 10712 10709 ] final   58.39 input   66.30 | X-H torsion
[ 10763 10752 10751 10750 ] final  162.11 input  -60.55 | X-H torsion
[ 11005 11000 10999 10996 ] final  122.69 input  -57.11 | X-H torsion

> <Gold.Protein.ActiveResidues>
 VAL166  LYS551  ARG553  GLY616  TRP617  ASP618  TYR619  PRO620  LYS621  CYS622 
 ASP623  PHE694  ASN695  SER759  ASP760  ASP761  ALA762  ILE779  LEU786  VAL792 
 PHE793  MET794  SER795  GLU796  ALA797  LYS798  CYS799  TRP800  GLU811  SER814 

> <Gold.Protein.RotatedAtoms>
  151.4161  135.0991  159.9599 H   0  0  0  0  0  0  0  0  0  0  0  0  # atno 6907 bound_to 6896
  152.5004  133.8751  159.7328 H   0  0  0  0  0  0  0  0  0  0  0  0  # atno 6908 bound_to 6896
  150.9257  133.6769  159.2850 H   0  0  0  0  0  0  0  0  0  0  0  0  # atno 6909 bound_to 6896
  144.7166  140.2033  143.6336 H   0  0  0  0  0  0  0  0  0  0  0  0  # atno 7974 bound_to 7965
  155.4627  140.3462  155.4315 H   0  0  0  0  0  0  0  0  0  0  0  0  # atno 8008 bound_to 7997
  156.1150  140.1471  156.9314 H   0  0  0  0  0  0  0  0  0  0  0  0  # atno 8009 bound_to 7997
  154.4783  140.0878  156.7294 H   0  0  0  0  0  0  0  0  0  0  0  0  # atno 8010 bound_to 7997
  140.3891  143.2713  151.9287 H   0  0  0  0  0  0  0  0  0  0  0  0  # atno 10167 bound_to 10162
  157.5592  130.8823  149.9084 H   0  0  0  0  0  0  0  0  0  0  0  0  # atno 10718 bound_to 10713
  154.2734  135.2765  155.2728 H   0  0  0  0  0  0  0  0  0  0  0  0  # atno 10763 bound_to 10752
  154.5282  135.5737  153.6740 H   0  0  0  0  0  0  0  0  0  0  0  0  # atno 10764 bound_to 10752
  152.9941  135.6221  154.2889 H   0  0  0  0  0  0  0  0  0  0  0  0  # atno 10765 bound_to 10752
  139.9279  134.9641  156.8147 H   0  0  0  0  0  0  0  0  0  0  0  0  # atno 11005 bound_to 11000
  145.8659  139.2247  143.1689 LP  0  0  0  0  0  0  0  0  0  0  0  0  # atno 17320 bound_to 7965
  146.0130  140.8418  142.9961 LP  0  0  0  0  0  0  0  0  0  0  0  0  # atno 17321 bound_to 7965
  139.4790  144.5745  151.8034 LP  0  0  0  0  0  0  0  0  0  0  0  0  # atno 17342 bound_to 10162
  140.4859  144.1382  150.5941 LP  0  0  0  0  0  0  0  0  0  0  0  0  # atno 17343 bound_to 10162
  156.0647  130.3694  150.0905 LP  0  0  0  0  0  0  0  0  0  0  0  0  # atno 17370 bound_to 10713
  156.9071  130.9639  151.3568 LP  0  0  0  0  0  0  0  0  0  0  0  0  # atno 17371 bound_to 10713
  140.6283  133.9930  155.7650 LP  0  0  0  0  0  0  0  0  0  0  0  0  # atno 17394 bound_to 11000
  141.0850  134.0005  157.3328 LP  0  0  0  0  0  0  0  0  0  0  0  0  # atno 17395 bound_to 11000

$$$$
