AV-unprocessed.smi:737|AV-procd|sdf|3536|dock3
  -GOLD-   22720 0533D 1   1.00000     0.00000
 Structure written by MMmdl.
 45 47  0  0  0  0  0  0  0  0  1 V2000
  148.8376  133.1386  153.9865 C   0  0  0  0  0  0  0  0  0  0  0  0
  148.0606  133.9873  153.0974 N   0  0  0  0  0  0  0  0  0  0  0  0
  147.0296  133.4495  152.3146 C   0  0  0  0  0  0  0  0  0  0  0  0
  147.0509  132.1388  151.9786 N   0  0  0  0  0  0  0  0  0  0  0  0
  146.0485  131.6684  151.2252 C   0  0  0  0  0  0  0  0  0  0  0  0
  144.9849  132.3202  150.7300 N   0  0  0  0  0  0  0  0  0  0  0  0
  144.9533  133.6189  151.0583 C   0  0  0  0  0  0  0  0  0  0  0  0
  143.9775  134.5275  150.6855 N   0  0  0  0  0  0  0  0  0  0  0  0
  144.4133  135.6446  151.2623 C   0  0  0  0  0  0  0  0  0  0  0  0
  145.5595  135.5744  151.9671 N   0  0  0  0  0  0  0  0  0  0  0  0
  146.2057  136.6672  152.6733 C   0  0  0  0  0  0  0  0  0  0  0  0
  146.0983  138.0071  151.9163 C   0  0  2  0  0  0  0  0  0  0  0  0
  146.3322  137.8556  150.5301 O   0  0  0  0  0  0  0  0  0  0  0  0
  147.0364  139.0941  152.4624 C   0  0  0  0  0  0  0  0  0  0  0  0
  147.0624  139.0351  153.8821 O   0  0  0  0  0  0  0  0  0  0  0  0
  148.0971  139.7347  154.4461 C   0  0  0  0  0  0  0  0  0  0  0  0
  149.1597  139.0535  155.0872 C   0  0  0  0  0  0  0  0  0  0  0  0
  149.1776  137.5381  155.1719 C   0  0  0  0  0  0  0  0  0  0  0  0
  150.2161  139.7897  155.6620 C   0  0  0  0  0  0  0  0  0  0  0  0
  150.2103  141.1959  155.6120 C   0  0  0  0  0  0  0  0  0  0  0  0
  149.1445  141.8740  154.9922 C   0  0  0  0  0  0  0  0  0  0  0  0
  148.0833  141.1484  154.4132 C   0  0  0  0  0  0  0  0  0  0  0  0
  146.9339  141.8911  153.7580 C   0  0  0  0  0  0  0  0  0  0  0  0
  145.9579  134.2431  151.8577 C   0  0  0  0  0  0  0  0  0  0  0  0
  149.5944  133.7325  154.4985 H   0  0  0  0  0  0  0  0  0  0  0  0
  149.3432  132.3512  153.4266 H   0  0  0  0  0  0  0  0  0  0  0  0
  148.1969  132.6793  154.7399 H   0  0  0  0  0  0  0  0  0  0  0  0
  148.3131  134.9607  153.0025 H   0  0  0  0  0  0  0  0  0  0  0  0
  146.1045  130.6179  150.9818 H   0  0  0  0  0  0  0  0  0  0  0  0
  143.8657  136.5711  151.1670 H   0  0  0  0  0  0  0  0  0  0  0  0
  145.7446  136.7607  153.6575 H   0  0  0  0  0  0  0  0  0  0  0  0
  147.2454  136.3978  152.8547 H   0  0  0  0  0  0  0  0  0  0  0  0
  145.0748  138.3722  152.0092 H   0  0  0  0  0  0  0  0  0  0  0  0
  145.4998  137.7595  150.0931 H   0  0  0  0  0  0  0  0  0  0  0  0
  148.0371  138.9854  152.0420 H   0  0  0  0  0  0  0  0  0  0  0  0
  146.6686  140.0737  152.1531 H   0  0  0  0  0  0  0  0  0  0  0  0
  149.7319  137.2045  156.0495 H   0  0  0  0  0  0  0  0  0  0  0  0
  149.6550  137.1162  154.2878 H   0  0  0  0  0  0  0  0  0  0  0  0
  148.1674  137.1343  155.2446 H   0  0  0  0  0  0  0  0  0  0  0  0
  151.0337  139.2772  156.1475 H   0  0  0  0  0  0  0  0  0  0  0  0
  151.0212  141.7552  156.0553 H   0  0  0  0  0  0  0  0  0  0  0  0
  149.1442  142.9537  154.9653 H   0  0  0  0  0  0  0  0  0  0  0  0
  146.9249  142.9415  154.0502 H   0  0  0  0  0  0  0  0  0  0  0  0
  145.9774  141.4550  154.0477 H   0  0  0  0  0  0  0  0  0  0  0  0
  147.0208  141.8399  152.6728 H   0  0  0  0  0  0  0  0  0  0  0  0
  1  2  1  0  0  0  0
  1 25  1  0  0  0  0
  1 26  1  0  0  0  0
  1 27  1  0  0  0  0
  2  3  1  0  0  0  0
  2 28  1  0  0  0  0
  3 24  1  0  0  0  0
  3  4  2  0  0  0  0
  4  5  1  0  0  0  0
  5  6  2  0  0  0  0
  5 29  1  0  0  0  0
  6  7  1  0  0  0  0
  7 24  2  0  0  0  0
  7  8  1  0  0  0  0
  8  9  2  0  0  0  0
  9 10  1  0  0  0  0
  9 30  1  0  0  0  0
 10 11  1  0  0  0  0
 10 24  1  0  0  0  0
 11 12  1  0  0  0  0
 11 31  1  0  0  0  0
 11 32  1  0  0  0  0
 12 13  1  0  0  0  0
 12 14  1  0  0  0  0
 12 33  1  0  0  0  0
 13 34  1  0  0  0  0
 14 15  1  0  0  0  0
 14 35  1  0  0  0  0
 14 36  1  0  0  0  0
 15 16  1  0  0  0  0
 16 22  1  0  0  0  0
 16 17  2  0  0  0  0
 17 18  1  0  0  0  0
 17 19  1  0  0  0  0
 18 37  1  0  0  0  0
 18 38  1  0  0  0  0
 18 39  1  0  0  0  0
 19 20  2  0  0  0  0
 19 40  1  0  0  0  0
 20 21  1  0  0  0  0
 20 41  1  0  0  0  0
 21 22  2  0  0  0  0
 21 42  1  0  0  0  0
 22 23  1  0  0  0  0
 23 43  1  0  0  0  0
 23 44  1  0  0  0  0
 23 45  1  0  0  0  0
M  END
> <s_m_source_file>
AV-unprocessed.smi

> <i_m_source_file_index>
737

> <i_lp_mmshare_version>
43012

> <i_f3d_flags>
0

> <s_epik_input>
bjFbY0hdbmMoW05IXVtDSDNdKWMoYzEyKW4oW2NIXW4yKVtDSDJdW0NASF0oW09IXSlbQ0gyXU9jM2MoW0NIM10pW2NIXVtjSF1bY0hdYzNbQ0gzXQ==

> <s_epik_cmdline>
J2VwaWtfcHl0aG9uJywgJy1waCcsICc3LjAnLCAnLXRuJywgJzgnLCAnLW1hJywgJzIwMCcsICctbWV0YWxfYmluZGluZycsICctaW1hZScsICc8aW5maWxlLm1hZT4nLCAnLW9tYWUnLCAnPG91dGZpbGUubWFlPic=

> <r_lp_tautomer_probability>
1

> <r_epik_Ionization_Penalty>
0.0070961

> <r_epik_Ionization_Penalty_Charging>
0

> <r_epik_Ionization_Penalty_Neutral>
0.0070961

> <r_epik_State_Penalty>
-0

> <r_epik_Charging_Adjusted_Penalty>
0

> <i_epik_Tot_Q>
0

> <i_epik_Tot_abs_Q>
0

> <r_epik_Metal_State_Penalty>
-0

> <b_epik_Metal_Only>
0

> <s_lp_Force_Field>
OPLS_2005

> <r_lp_Energy>
18.2803

> <b_lp_Chiralities_Consistent>
1

> <s_lp_Variant>
AV-unprocessed.smi:737-1

> <Gold.Version>
5.8.1

> <Gold.Id.Protein>
6NUR|6NUR_protein|mol2

> <Gold.PLP.Fitness>
49.3866

> <Gold.PLP.PLP>
-39.0609

> <Gold.PLP.part.hbond>
-3.2091

> <Gold.PLP.part.metal>
0.0000

> <Gold.PLP.part.buried>
-1.2614

> <Gold.PLP.part.nonpolar>
-36.4359

> <Gold.PLP.part.repulsive>
2.1166

> <Gold.PLP.ligand.clash>
0.0000

> <Gold.PLP.ligand.torsion>
0.8568

> <Gold.PLP.Chemscore.Hbond>
2.9680

> <Gold.PLP.Chemscore.CHOScore>
1.0000

> <Gold.PLP.Chemscore.Metal>
0.0000

> <Gold.Chemscore.Hbonds>
donor molecule, donor type, donor heavy atom, donor atom, acceptor molecule, acceptor atom, score
      L1  H     2    28       P1  7948  0.86
      L1  H    13    34       P1 10171  0.86
      P1  H  7954  7966       L1    13  0.93
      L1  C     9    30       P1 10171  1.00

> <Gold.PLP.Chemscore.Internal.Correction>
0.1353

> <Gold.Rescore>
     Score         DG    S(hbond)    S(metal)    S(lipo)     H(rot)  DE(clash)    DE(int)     intcor
     10.10     -14.05       2.36        0.00      69.41       2.91       2.34       1.61       ----

> <Gold.Chemscore.Fitness>
10.0955

> <Gold.Chemscore.DG>
-14.0498

> <Gold.Chemscore.ZeroCoef>
-5.4800

> <Gold.Chemscore.Hbond>
2.3622

> <Gold.Chemscore.Metal>
0.0000

> <Gold.Chemscore.Lipo>
69.4122

> <Gold.Chemscore.Internal_Hbond>
0.0000

> <Gold.Chemscore.DEClash>
2.3425

> <Gold.Chemscore.DEInternal>
1.6119

> <Gold.Chemscore.Rot>
2.9067

> <Gold.Chemscore.Internal.Correction>
   9.000000E+99

> <Gold.Chemscore.Hbonds>
donor molecule, donor type, donor heavy atom, donor atom, acceptor molecule, acceptor atom, score
      L1  H     2    28       P1  7948  0.70
      L1  H    13    34       P1 10171  0.87
      P1  H  7954  7966       L1    13  0.86

> <Gold.Chemscore.Hbond.Weighted>
-7.8897

> <Gold.Chemscore.Metal.Weighted>
-0.0000

> <Gold.Chemscore.Lipo.Weighted>
-8.1212

> <Gold.Chemscore.Internal_Hbond.Weighted>
0.0000

> <Gold.Chemscore.DEClash.Weighted>
2.3425

> <Gold.Chemscore.DEInternal.Weighted>
1.6119

> <Gold.Chemscore.Rot.Weighted>
7.4412

> <Gold.Chemscore.Internal.Correction.Weighted>
   9.000000E+99

> <Gold.Protein.RotatedTorsions>
[ 6907 6896 6895 6894 ] final -177.35 input  -60.11 | X-H torsion
[ 7974 7965 7964 7962 ] final  115.07 input  175.53 | X-H torsion
[ 8008 7997 7996 7995 ] final -101.49 input   59.86 | X-H torsion
[ 10167 10162 10161 10158 ] final -138.61 input  -65.29 | X-H torsion
[ 10718 10713 10712 10709 ] final -177.41 input   66.30 | X-H torsion
[ 10763 10752 10751 10750 ] final -128.35 input  -60.55 | X-H torsion
[ 11005 11000 10999 10996 ] final   46.39 input  -57.11 | X-H torsion

> <Gold.Protein.ActiveResidues>
 VAL166  LYS551  ARG553  GLY616  TRP617  ASP618  TYR619  PRO620  LYS621  CYS622 
 ASP623  PHE694  ASN695  SER759  ASP760  ASP761  ALA762  ILE779  LEU786  VAL792 
 PHE793  MET794  SER795  GLU796  ALA797  LYS798  CYS799  TRP800  GLU811  SER814 

> <Gold.Protein.RotatedAtoms>
  151.6195  133.3340  159.3084 H   0  0  0  0  0  0  0  0  0  0  0  0  # atno 6907 bound_to 6896
  150.8113  134.7273  159.6702 H   0  0  0  0  0  0  0  0  0  0  0  0  # atno 6908 bound_to 6896
  152.4210  134.5960  160.0039 H   0  0  0  0  0  0  0  0  0  0  0  0  # atno 6909 bound_to 6896
  145.1965  139.2974  143.4341 H   0  0  0  0  0  0  0  0  0  0  0  0  # atno 7974 bound_to 7965
  154.8433  140.0434  157.1556 H   0  0  0  0  0  0  0  0  0  0  0  0  # atno 8008 bound_to 7997
  154.9022  140.3002  155.5291 H   0  0  0  0  0  0  0  0  0  0  0  0  # atno 8009 bound_to 7997
  156.2993  140.2373  156.4052 H   0  0  0  0  0  0  0  0  0  0  0  0  # atno 8010 bound_to 7997
  139.8461  143.7259  152.2661 H   0  0  0  0  0  0  0  0  0  0  0  0  # atno 10167 bound_to 10162
  156.8290  130.9646  151.3107 H   0  0  0  0  0  0  0  0  0  0  0  0  # atno 10718 bound_to 10713
  154.8756  135.3931  154.3743 H   0  0  0  0  0  0  0  0  0  0  0  0  # atno 10763 bound_to 10752
  153.4498  135.7028  153.6121 H   0  0  0  0  0  0  0  0  0  0  0  0  # atno 10764 bound_to 10752
  153.4666  135.3800  155.2336 H   0  0  0  0  0  0  0  0  0  0  0  0  # atno 10765 bound_to 10752
  140.1373  134.4629  155.8476 H   0  0  0  0  0  0  0  0  0  0  0  0  # atno 11005 bound_to 11000
  146.3426  140.2195  142.8591 LP  0  0  0  0  0  0  0  0  0  0  0  0  # atno 17320 bound_to 7965
  144.9990  140.8615  143.5293 LP  0  0  0  0  0  0  0  0  0  0  0  0  # atno 17321 bound_to 7965
  139.7511  144.7534  151.0505 LP  0  0  0  0  0  0  0  0  0  0  0  0  # atno 17342 bound_to 10162
  140.7793  143.4859  150.9957 LP  0  0  0  0  0  0  0  0  0  0  0  0  # atno 17343 bound_to 10162
  157.6417  130.8811  149.9460 LP  0  0  0  0  0  0  0  0  0  0  0  0  # atno 17370 bound_to 10713
  156.0945  130.3660  150.0333 LP  0  0  0  0  0  0  0  0  0  0  0  0  # atno 17371 bound_to 10713
  141.2180  133.6819  156.7181 LP  0  0  0  0  0  0  0  0  0  0  0  0  # atno 17394 bound_to 11000
  140.2767  134.8349  157.3896 LP  0  0  0  0  0  0  0  0  0  0  0  0  # atno 17395 bound_to 11000

$$$$
