AV-unprocessed.smi:2215|AV-procd|sdf|8962|dock1
  -GOLD-   2272012183D 1   1.00000     0.00000
 Structure written by MMmdl.
 40 41  0  0  0  0  0  0  0  0  1 V2000
  153.0226  142.8905  162.2624 C   0  0  0  0  0  0  0  0  0  0  0  0
  152.3379  142.8652  160.9120 C   0  0  0  0  0  0  0  0  0  0  0  0
  151.7861  144.0326  160.3512 C   0  0  0  0  0  0  0  0  0  0  0  0
  151.1579  143.9496  159.0937 C   0  0  0  0  0  0  0  0  0  0  0  0
  151.0965  142.7052  158.4270 C   0  0  0  0  0  0  0  0  0  0  0  0
  150.4357  142.7298  157.1698 N   0  0  0  0  0  0  0  0  0  0  0  0
  150.2089  141.7060  156.3282 C   0  0  0  0  0  0  0  0  0  0  0  0
  150.5708  140.5424  156.5058 O   0  0  0  0  0  0  0  0  0  0  0  0
  149.5288  142.1112  155.2461 N   0  0  0  0  0  0  0  0  0  0  0  0
  149.1211  141.2518  154.1387 C   0  0  0  0  0  0  0  0  0  0  0  0
  148.2146  140.0836  154.5908 C   0  0  2  0  0  0  0  0  0  0  0  0
  148.9701  138.7401  154.7149 C   0  0  0  0  0  0  0  0  0  0  0  0
  148.0457  137.6164  155.2106 C   0  0  0  0  0  0  0  0  0  0  0  0
  146.8131  137.4620  154.3075 C   0  0  0  0  0  0  0  0  0  0  0  0
  146.0510  138.7915  154.1709 C   0  0  0  0  0  0  0  0  0  0  0  0
  146.9633  139.9369  153.6910 C   0  0  2  0  0  0  0  0  0  0  0  0
  147.3279  139.7052  152.3430 O   0  0  0  0  0  0  0  0  0  0  0  0
  151.6349  141.5867  158.9737 N   0  0  0  0  0  0  0  0  0  0  0  0
  152.2363  141.6669  160.1792 C   0  0  0  0  0  0  0  0  0  0  0  0
  152.8697  143.8457  162.7656 H   0  0  0  0  0  0  0  0  0  0  0  0
  154.0947  142.7328  162.1446 H   0  0  0  0  0  0  0  0  0  0  0  0
  152.6269  142.1020  162.9030 H   0  0  0  0  0  0  0  0  0  0  0  0
  151.8397  144.9772  160.8723 H   0  0  0  0  0  0  0  0  0  0  0  0
  150.7269  144.8354  158.6502 H   0  0  0  0  0  0  0  0  0  0  0  0
  150.0829  143.6309  156.8840 H   0  0  0  0  0  0  0  0  0  0  0  0
  149.2724  143.0855  155.1816 H   0  0  0  0  0  0  0  0  0  0  0  0
  148.6158  141.8506  153.3789 H   0  0  0  0  0  0  0  0  0  0  0  0
  150.0271  140.8664  153.6706 H   0  0  0  0  0  0  0  0  0  0  0  0
  147.8481  140.3333  155.5880 H   0  0  0  0  0  0  0  0  0  0  0  0
  149.4007  138.4638  153.7518 H   0  0  0  0  0  0  0  0  0  0  0  0
  149.8066  138.8373  155.4071 H   0  0  0  0  0  0  0  0  0  0  0  0
  148.5951  136.6755  155.2529 H   0  0  0  0  0  0  0  0  0  0  0  0
  147.7251  137.8322  156.2306 H   0  0  0  0  0  0  0  0  0  0  0  0
  147.1227  137.1097  153.3229 H   0  0  0  0  0  0  0  0  0  0  0  0
  146.1511  136.6960  154.7122 H   0  0  0  0  0  0  0  0  0  0  0  0
  145.2053  138.6711  153.4928 H   0  0  0  0  0  0  0  0  0  0  0  0
  145.6264  139.0575  155.1397 H   0  0  0  0  0  0  0  0  0  0  0  0
  146.3960  140.8681  153.7129 H   0  0  0  0  0  0  0  0  0  0  0  0
  148.2105  140.0173  152.2150 H   0  0  0  0  0  0  0  0  0  0  0  0
  152.6467  140.7473  160.5697 H   0  0  0  0  0  0  0  0  0  0  0  0
  1  2  1  0  0  0  0
  1 20  1  0  0  0  0
  1 21  1  0  0  0  0
  1 22  1  0  0  0  0
  2 19  1  0  0  0  0
  2  3  2  0  0  0  0
  3  4  1  0  0  0  0
  3 23  1  0  0  0  0
  4  5  2  0  0  0  0
  4 24  1  0  0  0  0
  5  6  1  0  0  0  0
  5 18  1  0  0  0  0
  6  7  1  0  0  0  0
  6 25  1  0  0  0  0
  7  8  2  0  0  0  0
  7  9  1  0  0  0  0
  9 10  1  0  0  0  0
  9 26  1  0  0  0  0
 10 11  1  0  0  0  0
 10 27  1  0  0  0  0
 10 28  1  0  0  0  0
 11 16  1  0  0  0  0
 11 12  1  0  0  0  0
 11 29  1  0  0  0  0
 12 13  1  0  0  0  0
 12 30  1  0  0  0  0
 12 31  1  0  0  0  0
 13 14  1  0  0  0  0
 13 32  1  0  0  0  0
 13 33  1  0  0  0  0
 14 15  1  0  0  0  0
 14 34  1  0  0  0  0
 14 35  1  0  0  0  0
 15 16  1  0  0  0  0
 15 36  1  0  0  0  0
 15 37  1  0  0  0  0
 16 17  1  0  0  0  0
 16 38  1  0  0  0  0
 17 39  1  0  0  0  0
 18 19  2  0  0  0  0
 19 40  1  0  0  0  0
M  END
> <s_m_source_file>
AV-unprocessed.smi

> <i_m_source_file_index>
2215

> <i_lp_mmshare_version>
43012

> <i_f3d_flags>
0

> <s_epik_input>
W0NIM11jMVtjSF1bY0hdYyhuW2NIXTEpW05IXUMoPU8pW05IXVtDSDJdW0NAQEhdMltDSDJdW0NIMl1bQ0gyXVtDSDJdW0NASF0yW09IXQ==

> <s_epik_cmdline>
J2VwaWtfcHl0aG9uJywgJy1waCcsICc3LjAnLCAnLXRuJywgJzgnLCAnLW1hJywgJzIwMCcsICctbWV0YWxfYmluZGluZycsICctaW1hZScsICc8aW5maWxlLm1hZT4nLCAnLW9tYWUnLCAnPG91dGZpbGUubWFlPic=

> <r_lp_tautomer_probability>
1

> <r_epik_Ionization_Penalty>
6.08491e-05

> <r_epik_Ionization_Penalty_Charging>
0

> <r_epik_Ionization_Penalty_Neutral>
6.08491e-05

> <r_epik_State_Penalty>
-0

> <r_epik_Charging_Adjusted_Penalty>
0

> <i_epik_Tot_Q>
0

> <i_epik_Tot_abs_Q>
0

> <r_epik_Metal_State_Penalty>
-0

> <b_epik_Metal_Only>
0

> <s_lp_Force_Field>
OPLS_2005

> <r_lp_Energy>
16.4092

> <b_lp_Chiralities_Consistent>
1

> <s_lp_Variant>
AV-unprocessed.smi:2215-3

> <Gold.Version>
5.8.1

> <Gold.Id.Protein>
6NUR|6NUR_protein|mol2

> <Gold.PLP.Fitness>
42.0810

> <Gold.PLP.PLP>
-34.6363

> <Gold.PLP.part.hbond>
-2.9164

> <Gold.PLP.part.metal>
0.0000

> <Gold.PLP.part.buried>
-4.4476

> <Gold.PLP.part.nonpolar>
-27.5664

> <Gold.PLP.part.repulsive>
0.2394

> <Gold.PLP.ligand.clash>
0.0000

> <Gold.PLP.ligand.torsion>
0.6283

> <Gold.PLP.Chemscore.Hbond>
2.8960

> <Gold.PLP.Chemscore.CHOScore>
0.0000

> <Gold.PLP.Chemscore.Metal>
0.0000

> <Gold.Chemscore.Hbonds>
donor molecule, donor type, donor heavy atom, donor atom, acceptor molecule, acceptor atom, score
      L1  H     6    25       P1  8028  0.99
      L1  H     9    26       P1  8028  1.00
      L1  H    17    39       P1  7957  0.90

> <Gold.PLP.Chemscore.Internal.Correction>
0.0133

> <Gold.Rescore>
     Score         DG    S(hbond)    S(metal)    S(lipo)     H(rot)  DE(clash)    DE(int)     intcor
     18.40     -20.83       2.95        0.00      84.91       1.73       0.45       1.98       ----

> <Gold.Chemscore.Fitness>
18.4021

> <Gold.Chemscore.DG>
-20.8270

> <Gold.Chemscore.ZeroCoef>
-5.4800

> <Gold.Chemscore.Hbond>
2.9495

> <Gold.Chemscore.Metal>
0.0000

> <Gold.Chemscore.Lipo>
84.9077

> <Gold.Chemscore.Internal_Hbond>
0.0000

> <Gold.Chemscore.DEClash>
0.4453

> <Gold.Chemscore.DEInternal>
1.9796

> <Gold.Chemscore.Rot>
1.7339

> <Gold.Chemscore.Internal.Correction>
   9.000000E+99

> <Gold.Chemscore.Hbonds>
donor molecule, donor type, donor heavy atom, donor atom, acceptor molecule, acceptor atom, score
      L1  H     6    25       P1  8028  0.89
      L1  H     9    26       P1  8028  1.00
      L1  H    17    39       P1  7957  0.88

> <Gold.Chemscore.Hbond.Weighted>
-9.8514

> <Gold.Chemscore.Metal.Weighted>
-0.0000

> <Gold.Chemscore.Lipo.Weighted>
-9.9342

> <Gold.Chemscore.Internal_Hbond.Weighted>
0.0000

> <Gold.Chemscore.DEClash.Weighted>
0.4453

> <Gold.Chemscore.DEInternal.Weighted>
1.9796

> <Gold.Chemscore.Rot.Weighted>
4.4387

> <Gold.Chemscore.Internal.Correction.Weighted>
   9.000000E+99

> <Gold.Protein.RotatedTorsions>
[ 6907 6896 6895 6894 ] final -151.38 input  -60.11 | X-H torsion
[ 7974 7965 7964 7962 ] final  122.32 input  175.53 | X-H torsion
[ 8008 7997 7996 7995 ] final  119.68 input   59.86 | X-H torsion
[ 10167 10162 10161 10158 ] final   59.23 input  -65.29 | X-H torsion
[ 10718 10713 10712 10709 ] final -160.70 input   66.30 | X-H torsion
[ 10763 10752 10751 10750 ] final    4.79 input  -60.55 | X-H torsion
[ 11005 11000 10999 10996 ] final  -57.18 input  -57.11 | X-H torsion

> <Gold.Protein.ActiveResidues>
 VAL166  LYS551  ARG553  GLY616  TRP617  ASP618  TYR619  PRO620  LYS621  CYS622 
 ASP623  PHE694  ASN695  SER759  ASP760  ASP761  ALA762  ILE779  LEU786  VAL792 
 PHE793  MET794  SER795  GLU796  ALA797  LYS798  CYS799  TRP800  GLU811  SER814 

> <Gold.Protein.RotatedAtoms>
  151.2122  133.4549  159.2598 H   0  0  0  0  0  0  0  0  0  0  0  0  # atno 6907 bound_to 6896
  151.0965  134.9947  159.8438 H   0  0  0  0  0  0  0  0  0  0  0  0  # atno 6908 bound_to 6896
  152.5439  134.2052  159.8781 H   0  0  0  0  0  0  0  0  0  0  0  0  # atno 6909 bound_to 6896
  145.1089  139.3466  143.4773 H   0  0  0  0  0  0  0  0  0  0  0  0  # atno 7974 bound_to 7965
  156.2607  140.2847  156.1030 H   0  0  0  0  0  0  0  0  0  0  0  0  # atno 8008 bound_to 7997
  155.1340  140.0394  157.2799 H   0  0  0  0  0  0  0  0  0  0  0  0  # atno 8009 bound_to 7997
  154.6579  140.2559  155.7148 H   0  0  0  0  0  0  0  0  0  0  0  0  # atno 8010 bound_to 7997
  140.1787  144.4204  150.6626 H   0  0  0  0  0  0  0  0  0  0  0  0  # atno 10167 bound_to 10162
  156.5858  130.8749  151.2877 H   0  0  0  0  0  0  0  0  0  0  0  0  # atno 10718 bound_to 10713
  153.2671  135.6928  153.7518 H   0  0  0  0  0  0  0  0  0  0  0  0  # atno 10763 bound_to 10752
  153.6556  135.3369  155.3113 H   0  0  0  0  0  0  0  0  0  0  0  0  # atno 10764 bound_to 10752
  154.8451  135.4465  154.1681 H   0  0  0  0  0  0  0  0  0  0  0  0  # atno 10765 bound_to 10752
  141.1153  133.6610  156.4731 H   0  0  0  0  0  0  0  0  0  0  0  0  # atno 11005 bound_to 11000
  146.3527  140.0999  142.8608 LP  0  0  0  0  0  0  0  0  0  0  0  0  # atno 17320 bound_to 7965
  145.0870  140.9259  143.4792 LP  0  0  0  0  0  0  0  0  0  0  0  0  # atno 17321 bound_to 7965
  140.6534  143.2231  151.6024 LP  0  0  0  0  0  0  0  0  0  0  0  0  # atno 17342 bound_to 10162
  139.5306  144.2928  152.1138 LP  0  0  0  0  0  0  0  0  0  0  0  0  # atno 17343 bound_to 10162
  157.7315  130.9702  150.1885 LP  0  0  0  0  0  0  0  0  0  0  0  0  # atno 17370 bound_to 10713
  156.2592  130.3709  149.8149 LP  0  0  0  0  0  0  0  0  0  0  0  0  # atno 17371 bound_to 10713
  140.4662  134.6796  157.5108 LP  0  0  0  0  0  0  0  0  0  0  0  0  # atno 17394 bound_to 11000
  140.0072  134.6746  155.9437 LP  0  0  0  0  0  0  0  0  0  0  0  0  # atno 17395 bound_to 11000

$$$$
