AV-unprocessed.smi:3348|AV-procd|sdf|12917|dock6
  -GOLD-   2272019333D 1   1.00000     0.00000
 Structure written by MMmdl.
 47 48  0  0  0  0  0  0  0  0  2 V2000
  143.1441  137.0202  152.7535 C   0  0  0  0  0  0  0  0  0  0  0  0
  144.6708  137.0563  152.5992 C   0  0  2  0  0  0  0  0  0  0  0  0
  145.2736  135.6694  152.9202 C   0  0  0  0  0  0  0  0  0  0  0  0
  144.9036  134.6353  151.9709 N   0  0  0  0  0  0  0  0  0  0  0  0
  144.0097  133.5985  152.1396 C   0  0  0  0  0  0  0  0  0  0  0  0
  143.9786  132.8946  150.9700 C   0  0  0  0  0  0  0  0  0  0  0  0
  144.8907  133.5931  150.1303 C   0  0  0  0  0  0  0  0  0  0  0  0
  145.4387  134.6376  150.7306 N   0  0  0  0  0  0  0  0  0  0  0  0
  145.2192  138.1137  153.4805 N   0  3  0  0  0  0  0  0  0  0  0  0
  146.6908  138.1269  153.6242 C   0  0  0  0  0  0  0  0  0  0  0  0
  147.1118  138.8926  154.8814 C   0  0  0  0  0  0  0  0  0  0  0  0
  148.5038  138.6992  155.0784 O   0  0  0  0  0  0  0  0  0  0  0  0
  149.3356  139.3551  154.1270 C   0  0  1  0  0  0  0  0  0  0  0  0
  149.1025  140.8807  154.1729 C   0  0  0  0  0  0  0  0  0  0  0  0
  149.5247  141.4787  155.5250 C   0  0  0  0  0  0  0  0  0  0  0  0
  150.9865  141.1377  155.8515 C   0  0  0  0  0  0  0  0  0  0  0  0
  151.2313  139.6208  155.8066 C   0  0  0  0  0  0  0  0  0  0  0  0
  150.8082  139.0180  154.4516 C   0  0  1  0  0  0  0  0  0  0  0  0
  151.0818  137.5071  154.3863 C   0  0  0  0  0  0  0  0  0  0  0  0
  142.6990  136.2853  152.0821 H   0  0  0  0  0  0  0  0  0  0  0  0
  142.7013  137.9886  152.5173 H   0  0  0  0  0  0  0  0  0  0  0  0
  142.8525  136.7596  153.7716 H   0  0  0  0  0  0  0  0  0  0  0  0
  144.8776  137.3151  151.5596 H   0  0  0  0  0  0  0  0  0  0  0  0
  146.3619  135.7294  152.9663 H   0  0  0  0  0  0  0  0  0  0  0  0
  144.9428  135.3391  153.9060 H   0  0  0  0  0  0  0  0  0  0  0  0
  143.4776  133.4473  153.0674 H   0  0  0  0  0  0  0  0  0  0  0  0
  143.3897  132.0174  150.7465 H   0  0  0  0  0  0  0  0  0  0  0  0
  145.1673  133.3749  149.1092 H   0  0  0  0  0  0  0  0  0  0  0  0
  144.9647  139.0033  153.0748 H   0  0  0  0  0  0  0  0  0  0  0  0
  147.0651  137.1067  153.6871 H   0  0  0  0  0  0  0  0  0  0  0  0
  147.1468  138.5822  152.7442 H   0  0  0  0  0  0  0  0  0  0  0  0
  146.8819  139.9542  154.7785 H   0  0  0  0  0  0  0  0  0  0  0  0
  146.5502  138.5170  155.7367 H   0  0  0  0  0  0  0  0  0  0  0  0
  149.1130  138.9846  153.1246 H   0  0  0  0  0  0  0  0  0  0  0  0
  149.6799  141.3545  153.3781 H   0  0  0  0  0  0  0  0  0  0  0  0
  148.0603  141.1238  153.9685 H   0  0  0  0  0  0  0  0  0  0  0  0
  149.3908  142.5607  155.5111 H   0  0  0  0  0  0  0  0  0  0  0  0
  148.8749  141.0984  156.3141 H   0  0  0  0  0  0  0  0  0  0  0  0
  151.6451  141.6352  155.1384 H   0  0  0  0  0  0  0  0  0  0  0  0
  151.2470  141.5277  156.8358 H   0  0  0  0  0  0  0  0  0  0  0  0
  152.2870  139.4188  155.9914 H   0  0  0  0  0  0  0  0  0  0  0  0
  150.6810  139.1389  156.6160 H   0  0  0  0  0  0  0  0  0  0  0  0
  151.4254  139.4836  153.6815 H   0  0  0  0  0  0  0  0  0  0  0  0
  150.5208  136.9649  155.1480 H   0  0  0  0  0  0  0  0  0  0  0  0
  152.1401  137.2945  154.5412 H   0  0  0  0  0  0  0  0  0  0  0  0
  150.8038  137.0994  153.4140 H   0  0  0  0  0  0  0  0  0  0  0  0
  144.7868  138.0459  154.3906 H   0  0  0  0  0  0  0  0  0  0  0  0
  1  2  1  0  0  0  0
  1 20  1  0  0  0  0
  1 21  1  0  0  0  0
  1 22  1  0  0  0  0
  2  3  1  0  0  0  0
  2  9  1  0  0  0  0
  2 23  1  0  0  0  0
  3  4  1  0  0  0  0
  3 24  1  0  0  0  0
  3 25  1  0  0  0  0
  4  8  1  0  0  0  0
  4  5  1  0  0  0  0
  5  6  2  0  0  0  0
  5 26  1  0  0  0  0
  6  7  1  0  0  0  0
  6 27  1  0  0  0  0
  7  8  2  0  0  0  0
  7 28  1  0  0  0  0
  9 10  1  0  0  0  0
  9 29  1  0  0  0  0
  9 47  1  0  0  0  0
 10 11  1  0  0  0  0
 10 30  1  0  0  0  0
 10 31  1  0  0  0  0
 11 12  1  0  0  0  0
 11 32  1  0  0  0  0
 11 33  1  0  0  0  0
 12 13  1  0  0  0  0
 13 18  1  0  0  0  0
 13 14  1  0  0  0  0
 13 34  1  0  0  0  0
 14 15  1  0  0  0  0
 14 35  1  0  0  0  0
 14 36  1  0  0  0  0
 15 16  1  0  0  0  0
 15 37  1  0  0  0  0
 15 38  1  0  0  0  0
 16 17  1  0  0  0  0
 16 39  1  0  0  0  0
 16 40  1  0  0  0  0
 17 18  1  0  0  0  0
 17 41  1  0  0  0  0
 17 42  1  0  0  0  0
 18 19  1  0  0  0  0
 18 43  1  0  0  0  0
 19 44  1  0  0  0  0
 19 45  1  0  0  0  0
 19 46  1  0  0  0  0
M  CHG  1   9   1
M  END
> <s_m_source_file>
AV-unprocessed.smi

> <i_m_source_file_index>
3348

> <i_lp_mmshare_version>
43012

> <i_f3d_flags>
0

> <s_epik_input>
bjFbY0hdW2NIXVtjSF1uMVtDSDJdW0NAQEhdKFtDSDNdKVtOSF1bQ0gyXVtDSDJdT1tDQEBIXTJbQ0gyXVtDSDJdW0NIMl1bQ0gyXVtDQEhdMltDSDNd

> <s_epik_cmdline>
J2VwaWtfcHl0aG9uJywgJy1waCcsICc3LjAnLCAnLXRuJywgJzgnLCAnLW1hJywgJzIwMCcsICctbWV0YWxfYmluZGluZycsICctaW1hZScsICc8aW5maWxlLm1hZT4nLCAnLW9tYWUnLCAnPG91dGZpbGUubWFlPic=

> <r_lp_tautomer_probability>
1

> <r_epik_Ionization_Penalty>
0.00925088

> <r_epik_Ionization_Penalty_Charging>
0.00924645

> <r_epik_Ionization_Penalty_Neutral>
4.42413e-06

> <r_epik_State_Penalty>
0.0070118

> <r_epik_Charging_Adjusted_Penalty>
0.0162583

> <i_epik_Tot_Q>
1

> <i_epik_Tot_abs_Q>
1

> <r_epik_Metal_State_Penalty>
0.00701222

> <b_epik_Metal_Only>
0

> <s_lp_Force_Field>
OPLS_2005

> <r_lp_Energy>
17.627

> <b_lp_Chiralities_Consistent>
1

> <s_lp_Variant>
AV-unprocessed.smi:3348-3

> <Gold.Version>
5.8.1

> <Gold.Id.Protein>
6NUR|6NUR_protein|mol2

> <Gold.PLP.Fitness>
44.7336

> <Gold.PLP.PLP>
-33.3300

> <Gold.PLP.part.hbond>
-1.0000

> <Gold.PLP.part.metal>
0.0000

> <Gold.PLP.part.buried>
-1.5988

> <Gold.PLP.part.nonpolar>
-30.8187

> <Gold.PLP.part.repulsive>
0.2867

> <Gold.PLP.ligand.clash>
0.0000

> <Gold.PLP.ligand.torsion>
0.3778

> <Gold.PLP.Chemscore.Hbond>
2.0000

> <Gold.PLP.Chemscore.CHOScore>
2.0000

> <Gold.PLP.Chemscore.Metal>
0.0000

> <Gold.Chemscore.Hbonds>
donor molecule, donor type, donor heavy atom, donor atom, acceptor molecule, acceptor atom, score
      L1  H     9    29       P1 10175  1.95
      L1  C     5    26       P1 10957  1.00
      L1  C     7    28       P1  7921  0.94

> <Gold.PLP.Chemscore.Internal.Correction>
0.1593

> <Gold.Rescore>
     Score         DG    S(hbond)    S(metal)    S(lipo)     H(rot)  DE(clash)    DE(int)     intcor
     13.65     -14.28       0.99        0.00      86.66       1.82       0.16       0.48       ----

> <Gold.Chemscore.Fitness>
13.6473

> <Gold.Chemscore.DG>
-14.2799

> <Gold.Chemscore.ZeroCoef>
-5.4800

> <Gold.Chemscore.Hbond>
0.9912

> <Gold.Chemscore.Metal>
0.0000

> <Gold.Chemscore.Lipo>
86.6585

> <Gold.Chemscore.Internal_Hbond>
0.0000

> <Gold.Chemscore.DEClash>
0.1559

> <Gold.Chemscore.DEInternal>
0.4767

> <Gold.Chemscore.Rot>
1.8163

> <Gold.Chemscore.Internal.Correction>
   9.000000E+99

> <Gold.Chemscore.Hbonds>
donor molecule, donor type, donor heavy atom, donor atom, acceptor molecule, acceptor atom, score
      L1  H     9    29       P1 10175  0.91

> <Gold.Chemscore.Hbond.Weighted>
-3.3106

> <Gold.Chemscore.Metal.Weighted>
-0.0000

> <Gold.Chemscore.Lipo.Weighted>
-10.1390

> <Gold.Chemscore.Internal_Hbond.Weighted>
0.0000

> <Gold.Chemscore.DEClash.Weighted>
0.1559

> <Gold.Chemscore.DEInternal.Weighted>
0.4767

> <Gold.Chemscore.Rot.Weighted>
4.6497

> <Gold.Chemscore.Internal.Correction.Weighted>
   9.000000E+99

> <Gold.Protein.RotatedTorsions>
[ 6907 6896 6895 6894 ] final   34.91 input  -60.11 | X-H torsion
[ 7974 7965 7964 7962 ] final  -72.21 input  175.53 | X-H torsion
[ 8008 7997 7996 7995 ] final -133.76 input   59.86 | X-H torsion
[ 10167 10162 10161 10158 ] final  -41.22 input  -65.29 | X-H torsion
[ 10718 10713 10712 10709 ] final -159.84 input   66.30 | X-H torsion
[ 10763 10752 10751 10750 ] final -171.74 input  -60.55 | X-H torsion
[ 11005 11000 10999 10996 ] final  -38.41 input  -57.11 | X-H torsion

> <Gold.Protein.ActiveResidues>
 VAL166  LYS551  ARG553  GLY616  TRP617  ASP618  TYR619  PRO620  LYS621  CYS622 
 ASP623  PHE694  ASN695  SER759  ASP760  ASP761  ALA762  ILE779  LEU786  VAL792 
 PHE793  MET794  SER795  GLU796  ALA797  LYS798  CYS799  TRP800  GLU811  SER814 

> <Gold.Protein.RotatedAtoms>
  152.1089  134.9289  160.0567 H   0  0  0  0  0  0  0  0  0  0  0  0  # atno 6907 bound_to 6896
  152.0474  133.3999  159.4371 H   0  0  0  0  0  0  0  0  0  0  0  0  # atno 6908 bound_to 6896
  150.6842  134.3267  159.4853 H   0  0  0  0  0  0  0  0  0  0  0  0  # atno 6909 bound_to 6896
  145.6681  140.9230  143.0898 H   0  0  0  0  0  0  0  0  0  0  0  0  # atno 7974 bound_to 7965
  155.3509  140.0477  157.3046 H   0  0  0  0  0  0  0  0  0  0  0  0  # atno 8008 bound_to 7997
  154.5228  140.2230  155.8909 H   0  0  0  0  0  0  0  0  0  0  0  0  # atno 8009 bound_to 7997
  156.1707  140.3096  155.8975 H   0  0  0  0  0  0  0  0  0  0  0  0  # atno 8010 bound_to 7997
  140.7009  143.3107  151.3035 H   0  0  0  0  0  0  0  0  0  0  0  0  # atno 10167 bound_to 10162
  156.5738  130.8700  151.2845 H   0  0  0  0  0  0  0  0  0  0  0  0  # atno 10718 bound_to 10713
  154.6271  135.2882  155.0259 H   0  0  0  0  0  0  0  0  0  0  0  0  # atno 10763 bound_to 10752
  154.1433  135.6515  153.4951 H   0  0  0  0  0  0  0  0  0  0  0  0  # atno 10764 bound_to 10752
  153.0262  135.5338  154.7084 H   0  0  0  0  0  0  0  0  0  0  0  0  # atno 10765 bound_to 10752
  141.0026  133.6948  156.2050 H   0  0  0  0  0  0  0  0  0  0  0  0  # atno 11005 bound_to 11000
  144.7066  139.8536  143.7428 LP  0  0  0  0  0  0  0  0  0  0  0  0  # atno 17320 bound_to 7965
  146.1069  139.4069  143.0312 LP  0  0  0  0  0  0  0  0  0  0  0  0  # atno 17321 bound_to 7965
  139.6529  144.0329  152.2639 LP  0  0  0  0  0  0  0  0  0  0  0  0  # atno 17342 bound_to 10162
  139.9871  144.6387  150.7847 LP  0  0  0  0  0  0  0  0  0  0  0  0  # atno 17343 bound_to 10162
  157.7342  130.9743  150.2018 LP  0  0  0  0  0  0  0  0  0  0  0  0  # atno 17370 bound_to 10713
  156.2691  130.3719  149.8050 LP  0  0  0  0  0  0  0  0  0  0  0  0  # atno 17371 bound_to 10713
  140.6865  134.4712  157.5589 LP  0  0  0  0  0  0  0  0  0  0  0  0  # atno 17394 bound_to 11000
  139.9046  134.8477  156.1756 LP  0  0  0  0  0  0  0  0  0  0  0  0  # atno 17395 bound_to 11000

$$$$
