AV-unprocessed.smi:667|AV-procd|sdf|3258|dock3
  -GOLD-   22720 0213D 1   1.00000     0.00000
 Structure written by MMmdl.
 48 49  0  0  0  0  0  0  0  0  1 V2000
  151.1476  144.9190  158.7022 C   0  0  0  0  0  0  0  0  0  0  0  0
  151.8567  143.8487  159.4824 C   0  0  0  0  0  0  0  0  0  0  0  0
  152.1874  144.0728  160.7432 N   0  0  0  0  0  0  0  0  0  0  0  0
  152.7911  142.9371  161.1479 N   0  0  0  0  0  0  0  0  0  0  0  0
  153.2853  142.8396  162.5075 C   0  0  0  0  0  0  0  0  0  0  0  0
  152.8398  141.9926  160.1412 C   0  0  0  0  0  0  0  0  0  0  0  0
  153.4543  140.6447  160.3403 C   0  0  0  0  0  0  0  0  0  0  0  0
  152.2429  142.5487  159.0415 C   0  0  0  0  0  0  0  0  0  0  0  0
  152.0293  141.9437  157.6745 C   0  0  0  0  0  0  0  0  0  0  0  0
  150.5593  142.0241  157.2478 C   0  0  0  0  0  0  0  0  0  0  0  0
  149.6724  141.8932  158.0905 O   0  0  0  0  0  0  0  0  0  0  0  0
  150.3086  142.2016  155.9404 N   0  0  0  0  0  0  0  0  0  0  0  0
  148.9861  142.2068  155.3274 C   0  0  0  0  0  0  0  0  0  0  0  0
  148.4058  140.7826  155.2047 C   0  0  1  0  0  0  0  0  0  0  0  0
  147.0230  140.7636  154.5567 C   0  0  0  0  0  0  0  0  0  0  0  0
  147.2382  140.0425  153.2309 C   0  0  0  0  0  0  0  0  0  0  0  0
  148.2887  139.1393  153.5222 O   0  0  0  0  0  0  0  0  0  0  0  0
  149.2426  139.8475  154.3020 C   0  0  2  0  0  0  0  0  0  0  0  0
  150.1948  138.8688  155.0284 C   0  0  0  0  0  0  0  0  0  0  0  0
  151.1297  138.1707  154.0287 C   0  0  0  0  0  0  0  0  0  0  0  0
  149.4591  137.8311  155.8961 C   0  0  0  0  0  0  0  0  0  0  0  0
  150.2558  144.5212  158.2179 H   0  0  0  0  0  0  0  0  0  0  0  0
  151.7934  145.3255  157.9241 H   0  0  0  0  0  0  0  0  0  0  0  0
  150.8338  145.7460  159.3399 H   0  0  0  0  0  0  0  0  0  0  0  0
  154.3329  142.5384  162.4977 H   0  0  0  0  0  0  0  0  0  0  0  0
  152.7055  142.0961  163.0548 H   0  0  0  0  0  0  0  0  0  0  0  0
  153.2011  143.8002  163.0176 H   0  0  0  0  0  0  0  0  0  0  0  0
  153.3191  140.0154  159.4607 H   0  0  0  0  0  0  0  0  0  0  0  0
  153.0002  140.1320  161.1885 H   0  0  0  0  0  0  0  0  0  0  0  0
  154.5245  140.7317  160.5288 H   0  0  0  0  0  0  0  0  0  0  0  0
  152.6281  142.4525  156.9186 H   0  0  0  0  0  0  0  0  0  0  0  0
  152.3477  140.9008  157.6549 H   0  0  0  0  0  0  0  0  0  0  0  0
  151.0984  142.3084  155.3201 H   0  0  0  0  0  0  0  0  0  0  0  0
  148.3120  142.8444  155.9019 H   0  0  0  0  0  0  0  0  0  0  0  0
  149.0725  142.6634  154.3408 H   0  0  0  0  0  0  0  0  0  0  0  0
  148.3065  140.3658  156.2064 H   0  0  0  0  0  0  0  0  0  0  0  0
  146.3372  140.1870  155.1790 H   0  0  0  0  0  0  0  0  0  0  0  0
  146.5887  141.7546  154.4203 H   0  0  0  0  0  0  0  0  0  0  0  0
  146.3446  139.5247  152.8819 H   0  0  0  0  0  0  0  0  0  0  0  0
  147.5591  140.7395  152.4549 H   0  0  0  0  0  0  0  0  0  0  0  0
  149.8232  140.4609  153.6100 H   0  0  0  0  0  0  0  0  0  0  0  0
  150.8306  139.4543  155.6924 H   0  0  0  0  0  0  0  0  0  0  0  0
  150.5687  137.5526  153.3271 H   0  0  0  0  0  0  0  0  0  0  0  0
  151.8446  137.5269  154.5418 H   0  0  0  0  0  0  0  0  0  0  0  0
  151.7014  138.8960  153.4491 H   0  0  0  0  0  0  0  0  0  0  0  0
  148.7970  137.2065  155.2957 H   0  0  0  0  0  0  0  0  0  0  0  0
  148.8584  138.2989  156.6750 H   0  0  0  0  0  0  0  0  0  0  0  0
  150.1685  137.1705  156.3953 H   0  0  0  0  0  0  0  0  0  0  0  0
  1  2  1  0  0  0  0
  1 22  1  0  0  0  0
  1 23  1  0  0  0  0
  1 24  1  0  0  0  0
  2  8  1  0  0  0  0
  2  3  2  0  0  0  0
  3  4  1  0  0  0  0
  4  5  1  0  0  0  0
  4  6  1  0  0  0  0
  5 25  1  0  0  0  0
  5 26  1  0  0  0  0
  5 27  1  0  0  0  0
  6  7  1  0  0  0  0
  6  8  2  0  0  0  0
  7 28  1  0  0  0  0
  7 29  1  0  0  0  0
  7 30  1  0  0  0  0
  8  9  1  0  0  0  0
  9 10  1  0  0  0  0
  9 31  1  0  0  0  0
  9 32  1  0  0  0  0
 10 11  2  0  0  0  0
 10 12  1  0  0  0  0
 12 13  1  0  0  0  0
 12 33  1  0  0  0  0
 13 14  1  0  0  0  0
 13 34  1  0  0  0  0
 13 35  1  0  0  0  0
 14 18  1  0  0  0  0
 14 15  1  0  0  0  0
 14 36  1  0  0  0  0
 15 16  1  0  0  0  0
 15 37  1  0  0  0  0
 15 38  1  0  0  0  0
 16 17  1  0  0  0  0
 16 39  1  0  0  0  0
 16 40  1  0  0  0  0
 17 18  1  0  0  0  0
 18 19  1  0  0  0  0
 18 41  1  0  0  0  0
 19 20  1  0  0  0  0
 19 21  1  0  0  0  0
 19 42  1  0  0  0  0
 20 43  1  0  0  0  0
 20 44  1  0  0  0  0
 20 45  1  0  0  0  0
 21 46  1  0  0  0  0
 21 47  1  0  0  0  0
 21 48  1  0  0  0  0
M  END
> <s_m_source_file>
AV-unprocessed.smi

> <i_m_source_file_index>
667

> <i_lp_mmshare_version>
43012

> <i_f3d_flags>
0

> <s_epik_input>
W0NIM11jMW5uKFtDSDNdKWMoW0NIM10pYzFbQ0gyXUMoPU8pW05IXVtDSDJdW0NAQEhdMltDSDJdW0NIMl1PW0NASF0yW0NIXShbQ0gzXSlbQ0gzXQ==

> <s_epik_cmdline>
J2VwaWtfcHl0aG9uJywgJy1waCcsICc3LjAnLCAnLXRuJywgJzgnLCAnLW1hJywgJzIwMCcsICctbWV0YWxfYmluZGluZycsICctaW1hZScsICc8aW5maWxlLm1hZT4nLCAnLW9tYWUnLCAnPG91dGZpbGUubWFlPic=

> <r_lp_tautomer_probability>
1

> <r_epik_Ionization_Penalty>
0.00315488

> <r_epik_Ionization_Penalty_Charging>
0

> <r_epik_Ionization_Penalty_Neutral>
0.00315488

> <r_epik_State_Penalty>
0.00222269

> <r_epik_Charging_Adjusted_Penalty>
0.00222269

> <i_epik_Tot_Q>
0

> <i_epik_Tot_abs_Q>
0

> <r_epik_Metal_State_Penalty>
-0

> <b_epik_Metal_Only>
0

> <s_lp_Force_Field>
OPLS_2005

> <r_lp_Energy>
15.0171

> <b_lp_Chiralities_Consistent>
1

> <s_lp_Variant>
AV-unprocessed.smi:667-4

> <Gold.Version>
5.8.1

> <Gold.Id.Protein>
6NUR|6NUR_protein|mol2

> <Gold.PLP.Fitness>
39.4821

> <Gold.PLP.PLP>
-40.5453

> <Gold.PLP.part.hbond>
-1.0000

> <Gold.PLP.part.metal>
0.0000

> <Gold.PLP.part.buried>
-2.5920

> <Gold.PLP.part.nonpolar>
-37.5080

> <Gold.PLP.part.repulsive>
1.7876

> <Gold.PLP.ligand.clash>
0.0000

> <Gold.PLP.ligand.torsion>
0.5552

> <Gold.PLP.Chemscore.Hbond>
0.0000

> <Gold.PLP.Chemscore.CHOScore>
0.0000

> <Gold.PLP.Chemscore.Metal>
0.0000

> <Gold.PLP.Chemscore.Internal.Correction>
0.0473

> <Gold.Rescore>
     Score         DG    S(hbond)    S(metal)    S(lipo)     H(rot)  DE(clash)    DE(int)     intcor
     12.97     -15.48       0.00        0.00     118.76       1.52       2.01       0.51       ----

> <Gold.Chemscore.Fitness>
12.9668

> <Gold.Chemscore.DG>
-15.4807

> <Gold.Chemscore.ZeroCoef>
-5.4800

> <Gold.Chemscore.Hbond>
0.0000

> <Gold.Chemscore.Metal>
0.0000

> <Gold.Chemscore.Lipo>
118.7625

> <Gold.Chemscore.Internal_Hbond>
0.0000

> <Gold.Chemscore.DEClash>
2.0052

> <Gold.Chemscore.DEInternal>
0.5087

> <Gold.Chemscore.Rot>
1.5213

> <Gold.Chemscore.Internal.Correction>
   9.000000E+99

> <Gold.Chemscore.Hbond.Weighted>
-0.0000

> <Gold.Chemscore.Metal.Weighted>
-0.0000

> <Gold.Chemscore.Lipo.Weighted>
-13.8952

> <Gold.Chemscore.Internal_Hbond.Weighted>
0.0000

> <Gold.Chemscore.DEClash.Weighted>
2.0052

> <Gold.Chemscore.DEInternal.Weighted>
0.5087

> <Gold.Chemscore.Rot.Weighted>
3.8945

> <Gold.Chemscore.Internal.Correction.Weighted>
   9.000000E+99

> <Gold.Protein.RotatedTorsions>
[ 6907 6896 6895 6894 ] final  -20.71 input  -60.11 | X-H torsion
[ 7974 7965 7964 7962 ] final    3.74 input  175.53 | X-H torsion
[ 8008 7997 7996 7995 ] final -156.07 input   59.86 | X-H torsion
[ 10167 10162 10161 10158 ] final  106.03 input  -65.29 | X-H torsion
[ 10718 10713 10712 10709 ] final -156.66 input   66.30 | X-H torsion
[ 10763 10752 10751 10750 ] final  142.16 input  -60.55 | X-H torsion
[ 11005 11000 10999 10996 ] final   49.24 input  -57.11 | X-H torsion

> <Gold.Protein.ActiveResidues>
 VAL166  LYS551  ARG553  GLY616  TRP617  ASP618  TYR619  PRO620  LYS621  CYS622 
 ASP623  PHE694  ASN695  SER759  ASP760  ASP761  ALA762  ILE779  LEU786  VAL792 
 PHE793  MET794  SER795  GLU796  ALA797  LYS798  CYS799  TRP800  GLU811  SER814 

> <Gold.Protein.RotatedAtoms>
  151.2441  135.0599  159.9036 H   0  0  0  0  0  0  0  0  0  0  0  0  # atno 6907 bound_to 6896
  152.5389  134.0402  159.8074 H   0  0  0  0  0  0  0  0  0  0  0  0  # atno 6908 bound_to 6896
  151.0600  133.5503  159.2666 H   0  0  0  0  0  0  0  0  0  0  0  0  # atno 6909 bound_to 6896
  146.2445  140.0639  142.8366 H   0  0  0  0  0  0  0  0  0  0  0  0  # atno 7974 bound_to 7965
  155.7116  140.0779  157.2369 H   0  0  0  0  0  0  0  0  0  0  0  0  # atno 8008 bound_to 7997
  154.4058  140.1629  156.2356 H   0  0  0  0  0  0  0  0  0  0  0  0  # atno 8009 bound_to 7997
  155.9278  140.3393  155.6227 H   0  0  0  0  0  0  0  0  0  0  0  0  # atno 8010 bound_to 7997
  139.7043  144.7089  151.1132 H   0  0  0  0  0  0  0  0  0  0  0  0  # atno 10167 bound_to 10162
  156.5295  130.8514  151.2711 H   0  0  0  0  0  0  0  0  0  0  0  0  # atno 10718 bound_to 10713
  153.9512  135.2970  155.3438 H   0  0  0  0  0  0  0  0  0  0  0  0  # atno 10763 bound_to 10752
  154.7425  135.5018  153.9151 H   0  0  0  0  0  0  0  0  0  0  0  0  # atno 10764 bound_to 10752
  153.0993  135.6730  153.9811 H   0  0  0  0  0  0  0  0  0  0  0  0  # atno 10765 bound_to 10752
  140.1120  134.4942  155.8669 H   0  0  0  0  0  0  0  0  0  0  0  0  # atno 11005 bound_to 11000
  145.0875  140.9262  143.4788 LP  0  0  0  0  0  0  0  0  0  0  0  0  # atno 17320 bound_to 7965
  145.0805  139.2963  143.5786 LP  0  0  0  0  0  0  0  0  0  0  0  0  # atno 17321 bound_to 7965
  140.7718  143.5380  150.9346 LP  0  0  0  0  0  0  0  0  0  0  0  0  # atno 17342 bound_to 10162
  139.9063  143.6775  152.3123 LP  0  0  0  0  0  0  0  0  0  0  0  0  # atno 17343 bound_to 10162
  157.7424  130.9889  150.2513 LP  0  0  0  0  0  0  0  0  0  0  0  0  # atno 17370 bound_to 10713
  156.3073  130.3767  149.7694 LP  0  0  0  0  0  0  0  0  0  0  0  0  # atno 17371 bound_to 10713
  141.2132  133.6730  156.6723 LP  0  0  0  0  0  0  0  0  0  0  0  0  # atno 17394 bound_to 11000
  140.3078  134.8111  157.4151 LP  0  0  0  0  0  0  0  0  0  0  0  0  # atno 17395 bound_to 11000

$$$$
