AV-unprocessed.smi:1925|AV-procd|sdf|7792|dock7
  -GOLD-   22720 9533D 1   1.00000     0.00000
 Structure written by MMmdl.
 31 32  0  0  0  0  0  0  0  0  1 V2000
  144.5421  136.8008  152.2042 O   0  0  0  0  0  0  0  0  0  0  0  0
  145.7469  136.5528  152.1461 C   0  0  0  0  0  0  0  0  0  0  0  0
  146.6988  137.4281  152.5005 N   0  0  0  0  0  0  0  0  0  0  0  0
  146.4541  138.7789  152.9953 C   0  0  0  0  0  0  0  0  0  0  0  0
  147.7410  139.6254  153.0385 C   0  0  2  0  0  0  0  0  0  0  0  0
  148.7533  139.1984  154.0915 C   0  0  0  0  0  0  0  0  0  0  0  0
  149.4651  140.5016  154.4716 C   0  0  0  0  0  0  0  0  0  0  0  0
  148.8026  141.5395  153.7575 O   0  0  0  0  0  0  0  0  0  0  0  0
  147.5060  141.0865  153.4059 C   0  0  0  0  0  0  0  0  0  0  0  0
  146.2843  135.3926  151.7294 N   0  0  0  0  0  0  0  0  0  0  0  0
  145.6133  134.2328  151.2583 C   0  0  0  0  0  0  0  0  0  0  0  0
  146.4576  133.1612  150.8891 C   0  0  0  0  0  0  0  0  0  0  0  0
  145.8902  131.9659  150.4069 C   0  0  0  0  0  0  0  0  0  0  0  0
  144.4907  131.8728  150.3053 C   0  0  0  0  0  0  0  0  0  0  0  0
  143.7224  132.9861  150.6930 C   0  0  0  0  0  0  0  0  0  0  0  0
  144.2643  134.1323  151.1559 N   0  0  0  0  0  0  0  0  0  0  0  0
  147.6634  137.1411  152.4226 H   0  0  0  0  0  0  0  0  0  0  0  0
  145.7002  139.2694  152.3774 H   0  0  0  0  0  0  0  0  0  0  0  0
  146.0258  138.6982  153.9948 H   0  0  0  0  0  0  0  0  0  0  0  0
  148.2278  139.6008  152.0622 H   0  0  0  0  0  0  0  0  0  0  0  0
  148.2520  138.7838  154.9672 H   0  0  0  0  0  0  0  0  0  0  0  0
  149.4422  138.4427  153.7125 H   0  0  0  0  0  0  0  0  0  0  0  0
  149.3896  140.6849  155.5439 H   0  0  0  0  0  0  0  0  0  0  0  0
  150.5220  140.4840  154.2046 H   0  0  0  0  0  0  0  0  0  0  0  0
  147.0879  141.6670  152.5831 H   0  0  0  0  0  0  0  0  0  0  0  0
  146.8423  141.1780  154.2674 H   0  0  0  0  0  0  0  0  0  0  0  0
  147.2915  135.3328  151.7483 H   0  0  0  0  0  0  0  0  0  0  0  0
  147.5311  133.2495  150.9733 H   0  0  0  0  0  0  0  0  0  0  0  0
  146.5185  131.1355  150.1203 H   0  0  0  0  0  0  0  0  0  0  0  0
  144.0185  130.9728  149.9400 H   0  0  0  0  0  0  0  0  0  0  0  0
  142.6446  132.9565  150.6300 H   0  0  0  0  0  0  0  0  0  0  0  0
  1  2  2  0  0  0  0
  2  3  1  0  0  0  0
  2 10  1  0  0  0  0
  3  4  1  0  0  0  0
  3 17  1  0  0  0  0
  4  5  1  0  0  0  0
  4 18  1  0  0  0  0
  4 19  1  0  0  0  0
  5  9  1  0  0  0  0
  5  6  1  0  0  0  0
  5 20  1  0  0  0  0
  6  7  1  0  0  0  0
  6 21  1  0  0  0  0
  6 22  1  0  0  0  0
  7  8  1  0  0  0  0
  7 23  1  0  0  0  0
  7 24  1  0  0  0  0
  8  9  1  0  0  0  0
  9 25  1  0  0  0  0
  9 26  1  0  0  0  0
 10 11  1  0  0  0  0
 10 27  1  0  0  0  0
 11 16  1  0  0  0  0
 11 12  2  0  0  0  0
 12 13  1  0  0  0  0
 12 28  1  0  0  0  0
 13 14  2  0  0  0  0
 13 29  1  0  0  0  0
 14 15  1  0  0  0  0
 14 30  1  0  0  0  0
 15 16  2  0  0  0  0
 15 31  1  0  0  0  0
M  END
> <s_m_source_file>
AV-unprocessed.smi

> <i_m_source_file_index>
1925

> <i_lp_mmshare_version>
43012

> <i_f3d_flags>
0

> <s_epik_input>
bjFbY0hdW2NIXVtjSF1bY0hdYzFbTkhdQyg9TylbTkhdW0NIMl1bQ0BASF0yW0NIMl1bQ0gyXU9bQ0gyXTI=

> <s_epik_cmdline>
J2VwaWtfcHl0aG9uJywgJy1waCcsICc3LjAnLCAnLXRuJywgJzgnLCAnLW1hJywgJzIwMCcsICctbWV0YWxfYmluZGluZycsICctaW1hZScsICc8aW5maWxlLm1hZT4nLCAnLW9tYWUnLCAnPG91dGZpbGUubWFlPic=

> <r_lp_tautomer_probability>
1

> <r_epik_Ionization_Penalty>
4.81143e-05

> <r_epik_Ionization_Penalty_Charging>
0

> <r_epik_Ionization_Penalty_Neutral>
4.81143e-05

> <r_epik_State_Penalty>
-0

> <r_epik_Charging_Adjusted_Penalty>
0

> <i_epik_Tot_Q>
0

> <i_epik_Tot_abs_Q>
0

> <r_epik_Metal_State_Penalty>
-0

> <b_epik_Metal_Only>
0

> <s_lp_Force_Field>
OPLS_2005

> <r_lp_Energy>
20.9741

> <b_lp_Chiralities_Consistent>
1

> <s_lp_Variant>
AV-unprocessed.smi:1925-1

> <Gold.Version>
5.8.1

> <Gold.Id.Protein>
6NUR|6NUR_protein|mol2

> <Gold.PLP.Fitness>
40.6729

> <Gold.PLP.PLP>
-29.7463

> <Gold.PLP.part.hbond>
-3.0000

> <Gold.PLP.part.metal>
0.0000

> <Gold.PLP.part.buried>
-0.8807

> <Gold.PLP.part.nonpolar>
-26.4481

> <Gold.PLP.part.repulsive>
0.6328

> <Gold.PLP.ligand.clash>
0.0000

> <Gold.PLP.ligand.torsion>
0.0941

> <Gold.PLP.Chemscore.Hbond>
2.7040

> <Gold.PLP.Chemscore.CHOScore>
1.0000

> <Gold.PLP.Chemscore.Metal>
0.0000

> <Gold.Chemscore.Hbonds>
donor molecule, donor type, donor heavy atom, donor atom, acceptor molecule, acceptor atom, score
      L1  H     3    17       P1  7948  1.00
      L1  H    10    27       P1  7948  0.99
      P1  H  8011  8017       L1     8  0.70
      L1  C    15    31       P1 10186  1.00

> <Gold.PLP.Chemscore.Internal.Correction>
0.0027

> <Gold.Rescore>
     Score         DG    S(hbond)    S(metal)    S(lipo)     H(rot)  DE(clash)    DE(int)     intcor
     16.12     -19.25       2.54        0.00      72.85       1.27       1.76       1.37       ----

> <Gold.Chemscore.Fitness>
16.1184

> <Gold.Chemscore.DG>
-19.2503

> <Gold.Chemscore.ZeroCoef>
-5.4800

> <Gold.Chemscore.Hbond>
2.5427

> <Gold.Chemscore.Metal>
0.0000

> <Gold.Chemscore.Lipo>
72.8483

> <Gold.Chemscore.Internal_Hbond>
0.0000

> <Gold.Chemscore.DEClash>
1.7572

> <Gold.Chemscore.DEInternal>
1.3747

> <Gold.Chemscore.Rot>
1.2678

> <Gold.Chemscore.Internal.Correction>
   9.000000E+99

> <Gold.Chemscore.Hbonds>
donor molecule, donor type, donor heavy atom, donor atom, acceptor molecule, acceptor atom, score
      L1  H     3    17       P1  7948  0.98
      L1  H    10    27       P1  7948  0.91
      P1  H  8011  8017       L1     8  0.60

> <Gold.Chemscore.Hbond.Weighted>
-8.4925

> <Gold.Chemscore.Metal.Weighted>
-0.0000

> <Gold.Chemscore.Lipo.Weighted>
-8.5233

> <Gold.Chemscore.Internal_Hbond.Weighted>
0.0000

> <Gold.Chemscore.DEClash.Weighted>
1.7572

> <Gold.Chemscore.DEInternal.Weighted>
1.3747

> <Gold.Chemscore.Rot.Weighted>
3.2455

> <Gold.Chemscore.Internal.Correction.Weighted>
   9.000000E+99

> <Gold.Protein.RotatedTorsions>
[ 6907 6896 6895 6894 ] final  -51.17 input  -60.11 | X-H torsion
[ 7974 7965 7964 7962 ] final  124.43 input  175.53 | X-H torsion
[ 8008 7997 7996 7995 ] final   75.58 input   59.86 | X-H torsion
[ 10167 10162 10161 10158 ] final  -68.46 input  -65.29 | X-H torsion
[ 10718 10713 10712 10709 ] final   99.68 input   66.30 | X-H torsion
[ 10763 10752 10751 10750 ] final -168.24 input  -60.55 | X-H torsion
[ 11005 11000 10999 10996 ] final  -71.79 input  -57.11 | X-H torsion

> <Gold.Protein.ActiveResidues>
 VAL166  LYS551  ARG553  GLY616  TRP617  ASP618  TYR619  PRO620  LYS621  CYS622 
 ASP623  PHE694  ASN695  SER759  ASP760  ASP761  ALA762  ILE779  LEU786  VAL792 
 PHE793  MET794  SER795  GLU796  ALA797  LYS798  CYS799  TRP800  GLU811  SER814 

> <Gold.Protein.RotatedAtoms>
  150.8637  134.7995  159.7102 H   0  0  0  0  0  0  0  0  0  0  0  0  # atno 6907 bound_to 6896
  152.4666  134.5058  159.9748 H   0  0  0  0  0  0  0  0  0  0  0  0  # atno 6908 bound_to 6896
  151.5158  133.3437  159.2928 H   0  0  0  0  0  0  0  0  0  0  0  0  # atno 6909 bound_to 6896
  145.0845  139.3633  143.4892 H   0  0  0  0  0  0  0  0  0  0  0  0  # atno 7974 bound_to 7965
  155.8150  140.3472  155.5480 H   0  0  0  0  0  0  0  0  0  0  0  0  # atno 8008 bound_to 7997
  155.8402  140.0940  157.1759 H   0  0  0  0  0  0  0  0  0  0  0  0  # atno 8009 bound_to 7997
  154.4005  140.1396  156.3706 H   0  0  0  0  0  0  0  0  0  0  0  0  # atno 8010 bound_to 7997
  140.5505  143.2312  151.6920 H   0  0  0  0  0  0  0  0  0  0  0  0  # atno 10167 bound_to 10162
  157.6871  131.0677  150.4986 H   0  0  0  0  0  0  0  0  0  0  0  0  # atno 10718 bound_to 10713
  154.6649  135.2930  154.9818 H   0  0  0  0  0  0  0  0  0  0  0  0  # atno 10763 bound_to 10752
  154.0865  135.6597  153.4849 H   0  0  0  0  0  0  0  0  0  0  0  0  # atno 10764 bound_to 10752
  153.0452  135.5209  154.7618 H   0  0  0  0  0  0  0  0  0  0  0  0  # atno 10765 bound_to 10752
  141.1598  133.6828  156.6960 H   0  0  0  0  0  0  0  0  0  0  0  0  # atno 11005 bound_to 11000
  146.3531  140.0650  142.8627 LP  0  0  0  0  0  0  0  0  0  0  0  0  # atno 17320 bound_to 7965
  145.1139  140.9422  143.4640 LP  0  0  0  0  0  0  0  0  0  0  0  0  # atno 17321 bound_to 7965
  139.5025  144.3825  152.0362 LP  0  0  0  0  0  0  0  0  0  0  0  0  # atno 17342 bound_to 10162
  140.2942  144.3720  150.6079 LP  0  0  0  0  0  0  0  0  0  0  0  0  # atno 17343 bound_to 10162
  156.5308  130.4184  149.6202 LP  0  0  0  0  0  0  0  0  0  0  0  0  # atno 17370 bound_to 10713
  156.3071  130.7208  151.2093 LP  0  0  0  0  0  0  0  0  0  0  0  0  # atno 17371 bound_to 10713
  140.2995  134.8175  157.4085 LP  0  0  0  0  0  0  0  0  0  0  0  0  # atno 17394 bound_to 11000
  140.1275  134.5139  155.8133 LP  0  0  0  0  0  0  0  0  0  0  0  0  # atno 17395 bound_to 11000

$$$$
