#       Name:                AV-unprocessed.smi:113
#       Creating user name   scv26
#       Creation time:       Thu Mar 26 18:21:07 2020


#       File generated by GOLD software.
#

@<TRIPOS>MOLECULE
AV-unprocessed.smi:113
    63    66     1
SMALL
NO_CHARGES


@<TRIPOS>ATOM
      1 ****        -1.5553  -0.9426   3.6896 C.3            1 S1                 0.0000
      2 ****        -1.9039  -1.6415   2.3926 C.ar           1 S1                 0.0000
      3 ****        -1.6180  -1.0738   1.1361 C.ar           1 S1                 0.0000
      4 ****        -1.9640  -1.7685  -0.0496 C.ar           1 S1                 0.0000
      5 ****        -1.6686  -1.1739  -1.4308 C.3            1 S1                 0.0000
      6 ****        -1.0456   0.1418  -1.4617 N.am           1 S1                 0.0000
      7 ****        -1.8947   1.2738  -1.4503 C.2            1 S1                 0.0000
      8 ****        -3.1214   1.1581  -1.4035 O.2            1 S1                 0.0000
      9 ****        -1.2074   2.5663  -1.4795 C.2            1 S1                 0.0000
     10 ****        -2.0586   3.8265  -1.5117 C.3            1 S1                 0.0000
     11 ****         0.1474   2.6108  -1.4833 C.2            1 S1                 0.0000
     12 ****         0.9589   1.4849  -1.4580 N.am           1 S1                 0.0000
     13 ****         2.4753   1.5471  -1.4181 C.3            1 S1                 0.0000
     14 ****         3.0889   2.9446  -1.4214 C.3            1 S1                 0.0000
     15 ****         4.4807   2.6174  -0.9207 C.3            1 S1                 0.0000
     16 ****         5.1036   3.7617  -0.3707 O.3            1 S1                 0.0000
     17 ****         4.2294   1.4565   0.0706 C.3            1 S1                 0.0000
     18 ****         4.2764   1.8092   1.5697 C.3            1 S1                 0.0000
     19 ****         5.6118   1.9175   2.0171 O.3            1 S1                 0.0000
     20 ****         2.9056   0.9994  -0.2129 O.3            1 S1                 0.0000
     21 ****         0.3655   0.2046  -1.4533 C.2            1 S1                 0.0000
     22 ****         1.0597  -0.8151  -1.4290 O.2            1 S1                 0.0000
     23 ****        -2.5948  -3.0372   0.0725 C.ar           1 S1                 0.0000
     24 ****        -2.9735  -3.8029  -1.0563 C.2            1 S1                 0.0000
     25 ****        -3.5967  -5.0559  -0.8942 C.2            1 S1                 0.0000
     26 ****        -3.8501  -5.5618   0.3946 C.2            1 S1                 0.0000
     27 ****        -3.4799  -4.8140   1.5276 C.2            1 S1                 0.0000
     28 ****        -2.8564  -3.5603   1.3678 C.ar           1 S1                 0.0000
     29 ****        -2.5033  -2.8478   2.4585 N.pl3          1 S1                 1.0000
     30 ****        -1.4761   0.1347   3.5404 H              1 S1                 0.0000
     31 ****        -0.6007  -1.3070   4.0696 H              1 S1                 0.0000
     32 ****        -2.3200  -1.1236   4.4457 H              1 S1                 0.0000
     33 ****        -1.1352  -0.1087   1.0990 H              1 S1                 0.0000
     34 ****        -1.0322  -1.8510  -2.0027 H              1 S1                 0.0000
     35 ****        -2.5866  -1.1098  -2.0173 H              1 S1                 0.0000
     36 ****        -1.4492   4.7305  -1.5295 H              1 S1                 0.0000
     37 ****        -2.7003   3.8759  -0.6312 H              1 S1                 0.0000
     38 ****        -2.6927   3.8356  -2.3989 H              1 S1                 0.0000
     39 ****         0.5915   3.5918  -1.5238 H              1 S1                 0.0000
     40 ****         2.8155   0.9466  -2.2649 H              1 S1                 0.0000
     41 ****         3.0605   3.4028  -2.4105 H              1 S1                 0.0000
     42 ****         2.5886   3.5812  -0.6908 H              1 S1                 0.0000
     43 ****         5.0865   2.2553  -1.7528 H              1 S1                 0.0000
     44 ****         5.9330   3.5027   0.0023 H              1 S1                 0.0000
     45 ****         4.9196   0.6378  -0.1382 H              1 S1                 0.0000
     46 ****         3.7316   2.7304   1.7786 H              1 S1                 0.0000
     47 ****         3.7999   1.0202   2.1520 H              1 S1                 0.0000
     48 ****         6.0384   1.0828   1.8969 H              1 S1                 0.0000
     49 ****        -2.7951  -3.4482  -2.0602 H              1 S1                 0.0000
     50 ****        -3.8813  -5.6312  -1.7632 H              1 S1                 0.0000
     51 ****        -4.3281  -6.5233   0.5135 H              1 S1                 0.0000
     52 ****        -3.6765  -5.2078   2.5144 H              1 S1                 0.0000
     53 ****        -2.7000  -3.2418   3.3784 H              1 S1                 0.0000
     54 ****        -3.5371   0.2491  -1.3725 LP             1 S1                 0.0000
     55 ****        -3.7006   1.9732  -1.3964 LP             1 S1                 0.0000
     56 ****         4.5210   4.1530   0.3417 LP             1 S1                 0.0000
     57 ****         5.2543   4.4413  -1.0886 LP             1 S1                 0.0000
     58 ****         5.6235   2.1655   2.9858 LP             1 S1                 0.0000
     59 ****         6.0887   2.6190   1.4876 LP             1 S1                 0.0000
     60 ****         2.9045   0.0017  -0.2806 LP             1 S1                 0.0000
     61 ****         2.2898   1.2843   0.5217 LP             1 S1                 0.0000
     62 ****         0.6251  -1.7156  -1.4146 LP             1 S1                 0.0000
     63 ****         2.0569  -0.7411  -1.4236 LP             1 S1                 0.0000
@<TRIPOS>BOND
    1    1    2 1     
    2    1   30 1     
    3    1   31 1     
    4    1   32 1     
    5    2   29 ar    
    6    2    3 ar    
    7    3    4 ar    
    8    3   33 1     
    9    4    5 1     
   10    4   23 ar    
   11    5    6 1     
   12    5   34 1     
   13    5   35 1     
   14    6   21 am    
   15    6    7 am    
   16    7    8 2     
   17    7    9 1     
   18    9   10 1     
   19    9   11 2     
   20   10   36 1     
   21   10   37 1     
   22   10   38 1     
   23   11   12 1     
   24   11   39 1     
   25   12   13 1     
   26   12   21 am    
   27   13   20 1     
   28   13   14 1     
   29   13   40 1     
   30   14   15 1     
   31   14   41 1     
   32   14   42 1     
   33   15   16 1     
   34   15   17 1     
   35   15   43 1     
   36   16   44 1     
   37   17   18 1     
   38   17   20 1     
   39   17   45 1     
   40   18   19 1     
   41   18   46 1     
   42   18   47 1     
   43   19   48 1     
   44   21   22 2     
   45   23   28 ar    
   46   23   24 1     
   47   24   25 2     
   48   24   49 1     
   49   25   26 1     
   50   25   50 1     
   51   26   27 2     
   52   26   51 1     
   53   27   28 1     
   54   27   52 1     
   55   28   29 ar    
   56   29   53 1     
   57    8   54 1     
   58    8   55 1     
   59   16   56 1     
   60   16   57 1     
   61   19   58 1     
   62   19   59 1     
   63   20   60 1     
   64   20   61 1     
   65   22   62 1     
   66   22   63 1     
@<TRIPOS>SUBSTRUCTURE
      1 S1             1
@<TRIPOS>SET
LONE_PAIRS      STATIC     ATOMS    <user>   **** ""
10 54 55 56 57 58 59 60 61 62 63
DONOR_HYDROGENS      STATIC     ATOMS    <user>   **** ""
3 44 48 53
ATOM$BLUE        STATIC     ATOMS    COLORGROUP SYSTEM
10 54 55 56 57 58 59 60 61 62 63
ATOM$RED        STATIC     ATOMS    COLORGROUP SYSTEM
3 44 48 53
