#       Name:                AV-unprocessed.smi:2473
#       Creating user name   scv26
#       Creation time:       Fri Mar 27 13:38:37 2020


#       File generated by GOLD software.
#

@<TRIPOS>MOLECULE
AV-unprocessed.smi:2473
    50    51     1
SMALL
NO_CHARGES


@<TRIPOS>ATOM
      1 ****        -2.8202  -1.1823   1.8473 C.3            1 S1                 0.0000
      2 ****        -2.3059  -0.8239   0.4457 C.3            1 S1                 0.0000
      3 ****        -0.7757  -0.6677   0.4374 C.3            1 S1                 0.0000
      4 ****        -0.2517  -0.3021  -0.9645 C.3            1 S1                 0.0000
      5 ****         1.2753  -0.1555  -0.9406 C.2            1 S1                 0.0000
      6 ****         1.9962  -1.1439  -0.8014 O.2            1 S1                 0.0000
      7 ****         1.7563   1.0917  -1.0530 N.am           1 S1                 0.0000
      8 ****         3.1677   1.4569  -0.9821 C.3            1 S1                 0.0000
      9 ****         3.7416   1.3598   0.4463 C.3            1 S1                 0.0000
     10 ****         2.9054   2.0447   1.4888 C.2            1 S1                 0.0000
     11 ****         2.6784   3.3624   1.5488 N.pl3          1 S1                 1.0000
     12 ****         1.8680   3.6608   2.6096 C.2            1 S1                 0.0000
     13 ****         1.5885   2.4713   3.2291 C.2            1 S1                 0.0000
     14 ****         2.2419   1.4952   2.5214 N.pl3          1 S1                 0.0000
     15 ****         2.2409   0.0619   2.8220 C.3            1 S1                 0.0000
     16 ****        -0.6999  -1.3600  -1.9984 C.3            1 S1                 0.0000
     17 ****        -2.2331  -1.5788  -2.0321 C.3            1 S1                 0.0000
     18 ****        -2.9546  -0.3559  -2.6399 C.3            1 S1                 0.0000
     19 ****        -2.5403  -2.7960  -2.9265 C.3            1 S1                 0.0000
     20 ****        -2.7454  -1.8710  -0.5989 C.3            1 S1                 0.0000
     21 ****        -2.4156  -2.1360   2.1874 H              1 S1                 0.0000
     22 ****        -3.9077  -1.2594   1.8584 H              1 S1                 0.0000
     23 ****        -2.5374  -0.4220   2.5760 H              1 S1                 0.0000
     24 ****        -2.7466   0.1375   0.1816 H              1 S1                 0.0000
     25 ****        -0.4845   0.1025   1.1534 H              1 S1                 0.0000
     26 ****        -0.3138  -1.5960   0.7787 H              1 S1                 0.0000
     27 ****        -0.6734   0.6629  -1.2478 H              1 S1                 0.0000
     28 ****         1.0939   1.8442  -1.1750 H              1 S1                 0.0000
     29 ****         3.7523   0.8449  -1.6707 H              1 S1                 0.0000
     30 ****         3.2519   2.4845  -1.3367 H              1 S1                 0.0000
     31 ****         3.8621   0.3174   0.7390 H              1 S1                 0.0000
     32 ****         4.7320   1.8136   0.4897 H              1 S1                 0.0000
     33 ****         1.5598   4.6705   2.8387 H              1 S1                 0.0000
     34 ****         0.9898   2.2534   4.1018 H              1 S1                 0.0000
     35 ****         1.5767  -0.1347   3.6639 H              1 S1                 0.0000
     36 ****         3.2526  -0.2525   3.0792 H              1 S1                 0.0000
     37 ****         1.8902  -0.4945   1.9539 H              1 S1                 0.0000
     38 ****        -0.3450  -1.0806  -2.9917 H              1 S1                 0.0000
     39 ****        -0.2161  -2.3105  -1.7663 H              1 S1                 0.0000
     40 ****        -4.0315  -0.5198  -2.6907 H              1 S1                 0.0000
     41 ****        -2.6078  -0.1592  -3.6551 H              1 S1                 0.0000
     42 ****        -2.7972   0.5555  -2.0651 H              1 S1                 0.0000
     43 ****        -3.6121  -2.9910  -2.9787 H              1 S1                 0.0000
     44 ****        -2.0623  -3.7010  -2.5499 H              1 S1                 0.0000
     45 ****        -2.1852  -2.6399  -3.9457 H              1 S1                 0.0000
     46 ****        -2.3788  -2.8484  -0.2809 H              1 S1                 0.0000
     47 ****        -3.8335  -1.9497  -0.6049 H              1 S1                 0.0000
     48 ****         3.0545   4.0407   0.8983 H              1 S1                 0.0000
     49 ****         1.5873  -2.0511  -0.7028 LP             1 S1                 0.0000
     50 ****         2.9906  -1.0394  -0.7869 LP             1 S1                 0.0000
@<TRIPOS>BOND
    1    1    2 1     
    2    1   21 1     
    3    1   22 1     
    4    1   23 1     
    5    2   20 1     
    6    2    3 1     
    7    2   24 1     
    8    3    4 1     
    9    3   25 1     
   10    3   26 1     
   11    4    5 1     
   12    4   16 1     
   13    4   27 1     
   14    5    6 2     
   15    5    7 am    
   16    7    8 1     
   17    7   28 1     
   18    8    9 1     
   19    8   29 1     
   20    8   30 1     
   21    9   10 1     
   22    9   31 1     
   23    9   32 1     
   24   10   14 1     
   25   10   11 2     
   26   11   12 1     
   27   11   48 1     
   28   12   13 2     
   29   12   33 1     
   30   13   14 1     
   31   13   34 1     
   32   14   15 1     
   33   15   35 1     
   34   15   36 1     
   35   15   37 1     
   36   16   17 1     
   37   16   38 1     
   38   16   39 1     
   39   17   18 1     
   40   17   19 1     
   41   17   20 1     
   42   18   40 1     
   43   18   41 1     
   44   18   42 1     
   45   19   43 1     
   46   19   44 1     
   47   19   45 1     
   48   20   46 1     
   49   20   47 1     
   50    6   49 1     
   51    6   50 1     
@<TRIPOS>SUBSTRUCTURE
      1 S1             1
@<TRIPOS>SET
LONE_PAIRS      STATIC     ATOMS    <user>   **** ""
2 49 50
DONOR_HYDROGENS      STATIC     ATOMS    <user>   **** ""
2 28 48
ATOM$BLUE        STATIC     ATOMS    COLORGROUP SYSTEM
2 49 50
ATOM$RED        STATIC     ATOMS    COLORGROUP SYSTEM
2 28 48
