#       Name:                AV-unprocessed.smi:993
#       Creating user name   scv26
#       Creation time:       Fri Mar 27 02:23:43 2020


#       File generated by GOLD software.
#

@<TRIPOS>MOLECULE
AV-unprocessed.smi:993
    38    39     1
SMALL
NO_CHARGES


@<TRIPOS>ATOM
      1 ****         2.5893   1.6536   1.2173 C.3            1 S1                 0.0000
      2 ****         1.7434   0.5839   0.5493 C.2            1 S1                 0.0000
      3 ****         0.3571   0.7626   0.6395 N.2            1 S1                 0.0000
      4 ****        -0.4449  -0.0958   0.0947 C.2            1 S1                 0.0000
      5 ****        -1.8359  -0.0269   0.1108 N.pl3          1 S1                 0.0000
      6 ****        -2.5909   1.0214   0.7838 C.3            1 S1                 0.0000
      7 ****        -4.0496   0.5636   0.7870 C.3            1 S1                 0.0000
      8 ****        -4.1409  -0.3087  -0.4584 C.3            1 S1                 0.0000
      9 ****        -2.7579  -0.9564  -0.5334 C.3            1 S1                 0.0000
     10 ****         0.0636  -1.2101  -0.5804 N.am           1 S1                 0.0000
     11 ****         1.3816  -1.4737  -0.7188 C.2            1 S1                 0.0000
     12 ****         1.7524  -2.4771  -1.3262 O.2            1 S1                 0.0000
     13 ****         2.2823  -0.4863  -0.1006 C.2            1 S1                 0.0000
     14 ****         3.7904  -0.7138  -0.2237 C.3            1 S1                 0.0000
     15 ****         4.4672   0.0519  -1.3673 C.2            1 S1                 0.0000
     16 ****         5.7161   0.0069  -1.4031 O.co2          1 S1                 0.0000
     17 ****         3.7447   0.6647  -2.1849 O.co2          1 S1                -1.0000
     18 ****        -0.5869  -1.8609  -0.9946 H              1 S1                 0.0000
     19 ****         3.1530   1.2302   2.0487 H              1 S1                 0.0000
     20 ****         1.9698   2.4613   1.6091 H              1 S1                 0.0000
     21 ****         3.2922   2.0886   0.5064 H              1 S1                 0.0000
     22 ****        -2.2265   1.1941   1.7973 H              1 S1                 0.0000
     23 ****        -2.4806   1.9494   0.2215 H              1 S1                 0.0000
     24 ****        -4.2440  -0.0409   1.6738 H              1 S1                 0.0000
     25 ****        -4.7561   1.3940   0.7816 H              1 S1                 0.0000
     26 ****        -4.9504  -1.0376  -0.4134 H              1 S1                 0.0000
     27 ****        -4.3007   0.3204  -1.3351 H              1 S1                 0.0000
     28 ****        -2.4746  -1.1602  -1.5667 H              1 S1                 0.0000
     29 ****        -2.7463  -1.8994   0.0147 H              1 S1                 0.0000
     30 ****         4.2721  -0.4233   0.7099 H              1 S1                 0.0000
     31 ****         4.0108  -1.7757  -0.3383 H              1 S1                 0.0000
     32 ****        -0.0138   1.5541   1.1252 LP             1 S1                 0.0000
     33 ****         1.0775  -3.1013  -1.7198 LP             1 S1                 0.0000
     34 ****         2.7288  -2.6686  -1.4264 LP             1 S1                 0.0000
     35 ****         6.2131   0.4856  -2.1269 LP             1 S1                 0.0000
     36 ****         6.2180  -0.5078  -0.7080 LP             1 S1                 0.0000
     37 ****         4.1620   1.1700  -2.9403 LP             1 S1                 0.0000
     38 ****         2.7500   0.6491  -2.0829 LP             1 S1                 0.0000
@<TRIPOS>BOND
    1    1    2 1     
    2    1   19 1     
    3    1   20 1     
    4    1   21 1     
    5    2   13 2     
    6    2    3 1     
    7    3    4 2     
    8    4    5 1     
    9    4   10 1     
   10    5    9 1     
   11    5    6 1     
   12    6    7 1     
   13    6   22 1     
   14    6   23 1     
   15    7    8 1     
   16    7   24 1     
   17    7   25 1     
   18    8    9 1     
   19    8   26 1     
   20    8   27 1     
   21    9   28 1     
   22    9   29 1     
   23   10   18 1     
   24   10   11 am    
   25   11   12 2     
   26   11   13 1     
   27   13   14 1     
   28   14   15 1     
   29   14   30 1     
   30   14   31 1     
   31   15   16 ar    
   32   15   17 ar    
   33    3   32 1     
   34   12   33 1     
   35   12   34 1     
   36   16   35 1     
   37   16   36 1     
   38   17   37 1     
   39   17   38 1     
@<TRIPOS>SUBSTRUCTURE
      1 S1             1
@<TRIPOS>SET
LONE_PAIRS      STATIC     ATOMS    <user>   **** ""
7 32 33 34 35 36 37 38
DONOR_HYDROGENS      STATIC     ATOMS    <user>   **** ""
1 18
ATOM$BLUE        STATIC     ATOMS    COLORGROUP SYSTEM
7 32 33 34 35 36 37 38
ATOM$RED        STATIC     ATOMS    COLORGROUP SYSTEM
1 18
