AV-unprocessed.smi:1|AV-procd|sdf|11|dock6
  -GOLD-   2262015103D 1   1.00000     0.00000
 Structure written by MMmdl.
 57 62  0  0  0  0  0  0  0  0  1 V2000
  151.0163  142.7599  156.4883 O   0  0  0  0  0  0  0  0  0  0  0  0
  150.7525  142.2640  157.5872 C   0  0  0  0  0  0  0  0  0  0  0  0
  149.9444  141.1725  157.8787 N   0  0  0  0  0  0  0  0  0  0  0  0
  149.3997  140.4904  156.9169 C   0  0  0  0  0  0  0  0  0  0  0  0
  149.4482  140.6172  155.5221 N   0  0  0  0  0  0  0  0  0  0  0  0
  148.7840  139.7973  154.5966 C   0  0  0  0  0  0  0  0  0  0  0  0
  148.0169  138.7872  154.9091 N   0  0  0  0  0  0  0  0  0  0  0  0
  147.9384  138.6162  156.2837 C   0  0  0  0  0  0  0  0  0  0  0  0
  148.5412  139.3439  157.2866 C   0  0  0  0  0  0  0  0  0  0  0  0
  148.2064  138.8331  158.5367 N   0  0  0  0  0  0  0  0  0  0  0  0
  147.4069  137.8140  158.2305 C   0  0  0  0  0  0  0  0  0  0  0  0
  147.1973  137.6232  156.9135 N   0  0  0  0  0  0  0  0  0  0  0  0
  146.3573  136.5759  156.2575 C   0  0  2  0  0  0  0  0  0  0  0  0
  145.6020  135.9303  157.2329 O   0  0  0  0  0  0  0  0  0  0  0  0
  145.2930  134.6355  156.7425 C   0  0  2  0  0  0  0  0  0  0  0  0
  144.7554  133.7254  157.8546 C   0  0  0  0  0  0  0  0  0  0  0  0
  145.1408  134.2601  159.1099 O   0  0  0  0  0  0  0  0  0  0  0  0
  146.1075  133.6637  159.8321 C   0  0  0  0  0  0  0  0  0  0  0  0
  146.4941  132.5099  159.6352 O   0  0  0  0  0  0  0  0  0  0  0  0
  146.6631  134.5492  160.8960 C   0  0  0  0  0  0  0  0  0  0  0  0
  146.9599  135.8980  160.5904 C   0  0  0  0  0  0  0  0  0  0  0  0
  147.4844  136.7578  161.5749 C   0  0  0  0  0  0  0  0  0  0  0  0
  147.7204  136.2789  162.8768 C   0  0  0  0  0  0  0  0  0  0  0  0
  147.4309  134.9389  163.1931 C   0  0  0  0  0  0  0  0  0  0  0  0
  146.9049  134.0777  162.2103 C   0  0  0  0  0  0  0  0  0  0  0  0
  146.6101  134.1883  156.1025 C   0  0  2  0  0  0  0  0  0  0  0  0
  147.4834  133.6609  157.0872 O   0  0  0  0  0  0  0  0  0  0  0  0
  148.9861  134.3677  156.9241 S   0  0  0  0  0  0  0  0  0  0  0  0
  149.3487  134.9818  158.2102 O   0  0  0  0  0  0  0  0  0  0  0  0
  149.8657  133.4184  156.2252 O   0  0  0  0  0  0  0  0  0  0  0  0
  148.5820  135.5845  155.8543 O   0  0  0  0  0  0  0  0  0  0  0  0
  147.1989  135.4968  155.5475 C   0  0  2  0  0  0  0  0  0  0  0  0
  151.3840  142.8724  158.7966 C   0  0  0  0  0  0  0  0  0  0  0  0
  151.9995  142.0493  159.7634 C   0  0  0  0  0  0  0  0  0  0  0  0
  152.5930  142.6237  160.9046 C   0  0  0  0  0  0  0  0  0  0  0  0
  152.5702  144.0205  161.0837 C   0  0  0  0  0  0  0  0  0  0  0  0
  151.9526  144.8439  160.1223 C   0  0  0  0  0  0  0  0  0  0  0  0
  151.3596  144.2712  158.9802 C   0  0  0  0  0  0  0  0  0  0  0  0
  148.9585  140.0724  153.5555 H   0  0  0  0  0  0  0  0  0  0  0  0
  146.9637  137.1850  158.9887 H   0  0  0  0  0  0  0  0  0  0  0  0
  145.7005  137.1205  155.5774 H   0  0  0  0  0  0  0  0  0  0  0  0
  144.5329  134.7473  155.9666 H   0  0  0  0  0  0  0  0  0  0  0  0
  143.6697  133.6390  157.7940 H   0  0  0  0  0  0  0  0  0  0  0  0
  145.1692  132.7222  157.7447 H   0  0  0  0  0  0  0  0  0  0  0  0
  146.7873  136.2889  159.5979 H   0  0  0  0  0  0  0  0  0  0  0  0
  147.7056  137.7863  161.3302 H   0  0  0  0  0  0  0  0  0  0  0  0
  148.1231  136.9382  163.6315 H   0  0  0  0  0  0  0  0  0  0  0  0
  147.6123  134.5701  164.1918 H   0  0  0  0  0  0  0  0  0  0  0  0
  146.6945  133.0549  162.4874 H   0  0  0  0  0  0  0  0  0  0  0  0
  146.4577  133.4385  155.3258 H   0  0  0  0  0  0  0  0  0  0  0  0
  147.0455  135.5848  154.4718 H   0  0  0  0  0  0  0  0  0  0  0  0
  152.0198  140.9769  159.6335 H   0  0  0  0  0  0  0  0  0  0  0  0
  153.0655  141.9925  161.6426 H   0  0  0  0  0  0  0  0  0  0  0  0
  153.0249  144.4600  161.9593 H   0  0  0  0  0  0  0  0  0  0  0  0
  151.9333  145.9149  160.2610 H   0  0  0  0  0  0  0  0  0  0  0  0
  150.8867  144.9091  158.2472 H   0  0  0  0  0  0  0  0  0  0  0  0
  150.0106  141.3693  155.1506 H   0  0  0  0  0  0  0  0  0  0  0  0
  1  2  2  0  0  0  0
  2  3  1  0  0  0  0
  2 33  1  0  0  0  0
  3  4  2  0  0  0  0
  4  9  1  0  0  0  0
  4  5  1  0  0  0  0
  5  6  1  0  0  0  0
  5 57  1  0  0  0  0
  6  7  2  0  0  0  0
  6 39  1  0  0  0  0
  7  8  1  0  0  0  0
  8 12  1  0  0  0  0
  8  9  2  0  0  0  0
  9 10  1  0  0  0  0
 10 11  2  0  0  0  0
 11 12  1  0  0  0  0
 11 40  1  0  0  0  0
 12 13  1  0  0  0  0
 13 32  1  0  0  0  0
 13 14  1  0  0  0  0
 13 41  1  0  0  0  0
 14 15  1  0  0  0  0
 15 16  1  0  0  0  0
 15 26  1  0  0  0  0
 15 42  1  0  0  0  0
 16 17  1  0  0  0  0
 16 43  1  0  0  0  0
 16 44  1  0  0  0  0
 17 18  1  0  0  0  0
 18 19  2  0  0  0  0
 18 20  1  0  0  0  0
 20 25  1  0  0  0  0
 20 21  2  0  0  0  0
 21 22  1  0  0  0  0
 21 45  1  0  0  0  0
 22 23  2  0  0  0  0
 22 46  1  0  0  0  0
 23 24  1  0  0  0  0
 23 47  1  0  0  0  0
 24 25  2  0  0  0  0
 24 48  1  0  0  0  0
 25 49  1  0  0  0  0
 26 32  1  0  0  0  0
 26 27  1  0  0  0  0
 26 50  1  0  0  0  0
 27 28  1  0  0  0  0
 28 29  2  0  0  0  0
 28 30  2  0  0  0  0
 28 31  1  0  0  0  0
 31 32  1  0  0  0  0
 32 51  1  0  0  0  0
 33 38  1  0  0  0  0
 33 34  2  0  0  0  0
 34 35  1  0  0  0  0
 34 52  1  0  0  0  0
 35 36  2  0  0  0  0
 35 53  1  0  0  0  0
 36 37  1  0  0  0  0
 36 54  1  0  0  0  0
 37 38  2  0  0  0  0
 37 55  1  0  0  0  0
 38 56  1  0  0  0  0
M  END
> <s_m_source_file>
AV-unprocessed.smi

> <i_m_source_file_index>
1

> <i_lp_mmshare_version>
43012

> <i_f3d_flags>
0

> <s_epik_input>
W2NIXTFbY0hdW2NIXVtjSF1bY0hdYzFDKD1PKVtOSF1jKG5bY0hdbjIpYyhjMjMpbltjSF1uM1tDQEBIXShbQ0BIXShbQ0BIXTQ1KU9TKE81KSg9Tyk9TylPW0NASF00W0NIMl1PQyg9TyljNltjSF1bY0hdW2NIXVtjSF1bY0hdNg==

> <s_epik_cmdline>
J2VwaWtfcHl0aG9uJywgJy1waCcsICc3LjAnLCAnLXRuJywgJzgnLCAnLW1hJywgJzIwMCcsICctbWV0YWxfYmluZGluZycsICctaW1hZScsICc8aW5maWxlLm1hZT4nLCAnLW9tYWUnLCAnPG91dGZpbGUubWFlPic=

> <r_epik_Ionization_Penalty>
0.122545

> <r_epik_Ionization_Penalty_Charging>
0.122545

> <r_epik_Ionization_Penalty_Neutral>
7.8935e-16

> <r_epik_State_Penalty>
2.69178

> <r_epik_Charging_Adjusted_Penalty>
2.81433

> <i_epik_Tot_Q>
0

> <i_epik_Tot_abs_Q>
0

> <r_epik_Metal_State_Penalty>
3.02665

> <b_epik_Metal_Only>
0

> <s_epik_Chemistry_Notes>
This compound has an ester and may undergo hydrolysis at high or low pH. This compound contains an acetal/aminal-like group ( X-CH(R)-Y where X, Y are N, S, or O) that may be acid/base labile, releasing an aldehyde.

> <s_lp_Force_Field>
OPLS_2005

> <r_lp_Energy>
59.7171

> <b_lp_Chiralities_Consistent>
1

> <s_lp_Variant>
AV-unprocessed.smi:1-11

> <Gold.Version>
5.8.1

> <Gold.Id.Protein>
6NUR|6NUR_protein|mol2

> <Gold.PLP.Fitness>
46.4113

> <Gold.PLP.PLP>
-45.9009

> <Gold.PLP.part.hbond>
-2.0000

> <Gold.PLP.part.metal>
0.0000

> <Gold.PLP.part.buried>
-7.0374

> <Gold.PLP.part.nonpolar>
-38.1337

> <Gold.PLP.part.repulsive>
0.5047

> <Gold.PLP.ligand.clash>
0.0000

> <Gold.PLP.ligand.torsion>
2.8642

> <Gold.PLP.Chemscore.Hbond>
1.0000

> <Gold.PLP.Chemscore.CHOScore>
1.0000

> <Gold.PLP.Chemscore.Metal>
0.0000

> <Gold.Chemscore.Hbonds>
donor molecule, donor type, donor heavy atom, donor atom, acceptor molecule, acceptor atom, score
      P1  H  6896  6909       L1    29  1.00
      L1  C     6    39       P1  7957  1.00

> <Gold.PLP.Chemscore.Internal.Correction>
0.2389

> <Gold.Rescore>
     Score         DG    S(hbond)    S(metal)    S(lipo)     H(rot)  DE(clash)    DE(int)     intcor
     13.44     -16.36       0.88        0.00     114.56       2.13       0.14       2.78       ----

> <Gold.Chemscore.Fitness>
13.4369

> <Gold.Chemscore.DG>
-16.3557

> <Gold.Chemscore.ZeroCoef>
-5.4800

> <Gold.Chemscore.Hbond>
0.8785

> <Gold.Chemscore.Metal>
0.0000

> <Gold.Chemscore.Lipo>
114.5554

> <Gold.Chemscore.Internal_Hbond>
0.0000

> <Gold.Chemscore.DEClash>
0.1372

> <Gold.Chemscore.DEInternal>
2.7816

> <Gold.Chemscore.Rot>
2.1333

> <Gold.Chemscore.Internal.Correction>
   9.000000E+99

> <Gold.Chemscore.Hbonds>
donor molecule, donor type, donor heavy atom, donor atom, acceptor molecule, acceptor atom, score
      P1  H  6896  6909       L1    29  0.91

> <Gold.Chemscore.Hbond.Weighted>
-2.9341

> <Gold.Chemscore.Metal.Weighted>
-0.0000

> <Gold.Chemscore.Lipo.Weighted>
-13.4030

> <Gold.Chemscore.Internal_Hbond.Weighted>
0.0000

> <Gold.Chemscore.DEClash.Weighted>
0.1372

> <Gold.Chemscore.DEInternal.Weighted>
2.7816

> <Gold.Chemscore.Rot.Weighted>
5.4614

> <Gold.Chemscore.Internal.Correction.Weighted>
   9.000000E+99

> <Gold.Protein.RotatedTorsions>
[ 6907 6896 6895 6894 ] final   18.28 input  -60.11 | X-H torsion
[ 7974 7965 7964 7962 ] final    7.42 input  175.53 | X-H torsion
[ 8008 7997 7996 7995 ] final  -33.25 input   59.86 | X-H torsion
[ 10167 10162 10161 10158 ] final  112.55 input  -65.29 | X-H torsion
[ 10718 10713 10712 10709 ] final   83.45 input   66.30 | X-H torsion
[ 10763 10752 10751 10750 ] final  -82.03 input  -60.55 | X-H torsion
[ 11005 11000 10999 10996 ] final   14.63 input  -57.11 | X-H torsion

> <Gold.Protein.ActiveResidues>
 VAL166  LYS551  ARG553  GLY616  TRP617  ASP618  TYR619  PRO620  LYS621  CYS622 
 ASP623  PHE694  ASN695  SER759  ASP760  ASP761  ALA762  ILE779  LEU786  VAL792 
 PHE793  MET794  SER795  GLU796  ALA797  LYS798  CYS799  TRP800  GLU811  SER814 

> <Gold.Protein.RotatedAtoms>
  151.8628  135.0518  160.0470 H   0  0  0  0  0  0  0  0  0  0  0  0  # atno 6907 bound_to 6896
  152.2650  133.5326  159.5413 H   0  0  0  0  0  0  0  0  0  0  0  0  # atno 6908 bound_to 6896
  150.7130  134.0694  159.3901 H   0  0  0  0  0  0  0  0  0  0  0  0  # atno 6909 bound_to 6896
  146.2427  140.0086  142.8409 H   0  0  0  0  0  0  0  0  0  0  0  0  # atno 7974 bound_to 7965
  154.4154  140.1715  156.1858 H   0  0  0  0  0  0  0  0  0  0  0  0  # atno 8008 bound_to 7997
  155.9644  140.3391  155.6495 H   0  0  0  0  0  0  0  0  0  0  0  0  # atno 8009 bound_to 7997
  155.6707  140.0711  157.2512 H   0  0  0  0  0  0  0  0  0  0  0  0  # atno 8010 bound_to 7997
  139.6527  144.7128  151.2017 H   0  0  0  0  0  0  0  0  0  0  0  0  # atno 10167 bound_to 10162
  157.6879  131.0091  150.2526 H   0  0  0  0  0  0  0  0  0  0  0  0  # atno 10718 bound_to 10713
  154.5707  135.5606  153.7093 H   0  0  0  0  0  0  0  0  0  0  0  0  # atno 10763 bound_to 10752
  153.0048  135.6296  154.2117 H   0  0  0  0  0  0  0  0  0  0  0  0  # atno 10764 bound_to 10752
  154.2057  135.2876  155.2955 H   0  0  0  0  0  0  0  0  0  0  0  0  # atno 10765 bound_to 10752
  140.4674  134.1066  155.7726 H   0  0  0  0  0  0  0  0  0  0  0  0  # atno 11005 bound_to 11000
  145.1348  140.9538  143.4523 LP  0  0  0  0  0  0  0  0  0  0  0  0  # atno 17320 bound_to 7965
  145.0352  139.3306  143.6004 LP  0  0  0  0  0  0  0  0  0  0  0  0  # atno 17321 bound_to 7965
  140.7545  143.6123  150.8593 LP  0  0  0  0  0  0  0  0  0  0  0  0  # atno 17342 bound_to 10162
  139.9773  143.5990  152.2954 LP  0  0  0  0  0  0  0  0  0  0  0  0  # atno 17343 bound_to 10162
  156.3120  130.3773  149.7653 LP  0  0  0  0  0  0  0  0  0  0  0  0  # atno 17370 bound_to 10713
  156.5250  130.8232  151.3217 LP  0  0  0  0  0  0  0  0  0  0  0  0  # atno 17371 bound_to 10713
  141.1593  133.8823  157.1892 LP  0  0  0  0  0  0  0  0  0  0  0  0  # atno 17394 bound_to 11000
  139.9907  135.0065  156.9968 LP  0  0  0  0  0  0  0  0  0  0  0  0  # atno 17395 bound_to 11000

$$$$
