AV-unprocessed.smi:100|AV-procd|sdf|905|dock10
  -GOLD-   2262017403D 1   1.00000     0.00000
 Structure written by MMmdl.
 31 33  0  0  0  0  0  0  0  0  1 V2000
  145.7410  140.7083  155.6018 N   0  0  0  0  0  0  0  0  0  0  0  0
  147.0498  140.9529  155.4508 C   0  0  0  0  0  0  0  0  0  0  0  0
  147.5981  140.7925  154.2230 N   0  0  0  0  0  0  0  0  0  0  0  0
  148.9023  141.0320  154.0469 C   0  0  0  0  0  0  0  0  0  0  0  0
  149.8089  141.4292  154.9449 N   0  0  0  0  0  0  0  0  0  0  0  0
  149.2508  141.5880  156.1806 C   0  0  0  0  0  0  0  0  0  0  0  0
  147.8862  141.3731  156.5153 C   0  0  0  0  0  0  0  0  0  0  0  0
  147.6841  141.6370  157.8634 N   0  0  0  0  0  0  0  0  0  0  0  0
  148.8658  141.9893  158.2960 C   0  0  0  0  0  0  0  0  0  0  0  0
  149.8663  141.9891  157.3455 N   0  0  0  0  0  0  0  0  0  0  0  0
  151.3187  142.3314  157.4917 C   0  0  2  0  0  0  0  0  0  0  0  0
  151.8200  141.6558  158.6091 O   0  0  0  0  0  0  0  0  0  0  0  0
  151.9600  142.5655  159.6957 C   0  0  1  0  0  0  0  0  0  0  0  0
  152.9588  142.0200  160.7260 C   0  0  0  0  0  0  0  0  0  0  0  0
  152.9632  142.8444  161.8716 O   0  0  0  0  0  0  0  0  0  0  0  0
  152.4499  143.8092  158.9603 C   0  0  2  0  0  0  0  0  0  0  0  0
  152.3994  144.9267  159.6879 F   0  0  0  0  0  0  0  0  0  0  0  0
  151.5513  143.8430  157.7337 C   0  0  2  0  0  0  0  0  0  0  0  0
  150.3625  144.5739  157.9924 O   0  0  0  0  0  0  0  0  0  0  0  0
  145.3110  140.8227  156.5085 H   0  0  0  0  0  0  0  0  0  0  0  0
  145.1880  140.4129  154.8105 H   0  0  0  0  0  0  0  0  0  0  0  0
  149.2721  140.8847  153.0428 H   0  0  0  0  0  0  0  0  0  0  0  0
  149.0354  142.2588  159.3282 H   0  0  0  0  0  0  0  0  0  0  0  0
  151.7883  141.9509  156.5836 H   0  0  0  0  0  0  0  0  0  0  0  0
  150.9894  142.7663  160.1534 H   0  0  0  0  0  0  0  0  0  0  0  0
  152.7266  140.9900  160.9988 H   0  0  0  0  0  0  0  0  0  0  0  0
  153.9674  142.0281  160.3118 H   0  0  0  0  0  0  0  0  0  0  0  0
  153.7699  142.7008  162.3427 H   0  0  0  0  0  0  0  0  0  0  0  0
  153.4884  143.6753  158.6533 H   0  0  0  0  0  0  0  0  0  0  0  0
  152.0575  144.2829  156.8739 H   0  0  0  0  0  0  0  0  0  0  0  0
  149.8262  144.5561  157.2142 H   0  0  0  0  0  0  0  0  0  0  0  0
  1  2  1  0  0  0  0
  1 20  1  0  0  0  0
  1 21  1  0  0  0  0
  2  7  1  0  0  0  0
  2  3  2  0  0  0  0
  3  4  1  0  0  0  0
  4  5  2  0  0  0  0
  4 22  1  0  0  0  0
  5  6  1  0  0  0  0
  6 10  1  0  0  0  0
  6  7  2  0  0  0  0
  7  8  1  0  0  0  0
  8  9  2  0  0  0  0
  9 10  1  0  0  0  0
  9 23  1  0  0  0  0
 10 11  1  0  0  0  0
 11 18  1  0  0  0  0
 11 12  1  0  0  0  0
 11 24  1  0  0  0  0
 12 13  1  0  0  0  0
 13 14  1  0  0  0  0
 13 16  1  0  0  0  0
 13 25  1  0  0  0  0
 14 15  1  0  0  0  0
 14 26  1  0  0  0  0
 14 27  1  0  0  0  0
 15 28  1  0  0  0  0
 16 17  1  0  0  0  0
 16 18  1  0  0  0  0
 16 29  1  0  0  0  0
 18 19  1  0  0  0  0
 18 30  1  0  0  0  0
 19 31  1  0  0  0  0
M  END
> <s_m_source_file>
AV-unprocessed.smi

> <i_m_source_file_index>
100

> <i_lp_mmshare_version>
43012

> <i_f3d_flags>
0

> <s_epik_input>
bjFbY0hdbmMoW05IMl0pYyhjMTIpbltjSF1uMltDQEBIXTNPW0NAQEhdKFtDSDJdW09IXSlbQ0BIXShGKVtDQEhdM1tPSF0=

> <s_epik_cmdline>
J2VwaWtfcHl0aG9uJywgJy1waCcsICc3LjAnLCAnLXRuJywgJzgnLCAnLW1hJywgJzIwMCcsICctbWV0YWxfYmluZGluZycsICctaW1hZScsICc8aW5maWxlLm1hZT4nLCAnLW9tYWUnLCAnPG91dGZpbGUubWFlPic=

> <r_lp_tautomer_probability>
1

> <r_epik_Ionization_Penalty>
0.000750324

> <r_epik_Ionization_Penalty_Charging>
0

> <r_epik_Ionization_Penalty_Neutral>
0.000750324

> <r_epik_State_Penalty>
-0

> <r_epik_Charging_Adjusted_Penalty>
0

> <i_epik_Tot_Q>
0

> <i_epik_Tot_abs_Q>
0

> <r_epik_Metal_State_Penalty>
-0

> <b_epik_Metal_Only>
0

> <s_epik_Chemistry_Notes>
This compound contains an acetal/aminal-like group ( X-CH(R)-Y where X, Y are N, S, or O) that may be acid/base labile, releasing an aldehyde.

> <s_lp_Force_Field>
OPLS_2005

> <r_lp_Energy>
36.1234

> <b_lp_Chiralities_Consistent>
1

> <s_lp_Variant>
AV-unprocessed.smi:100-9

> <Gold.Version>
5.8.1

> <Gold.Id.Protein>
6NUR|6NUR_protein|mol2

> <Gold.PLP.Fitness>
37.9171

> <Gold.PLP.PLP>
-32.3069

> <Gold.PLP.part.hbond>
-2.9044

> <Gold.PLP.part.metal>
0.0000

> <Gold.PLP.part.buried>
-3.1592

> <Gold.PLP.part.nonpolar>
-25.6198

> <Gold.PLP.part.repulsive>
0.3537

> <Gold.PLP.ligand.clash>
0.0000

> <Gold.PLP.ligand.torsion>
0.2835

> <Gold.PLP.Chemscore.Hbond>
1.0484

> <Gold.PLP.Chemscore.CHOScore>
1.0000

> <Gold.PLP.Chemscore.Metal>
0.0000

> <Gold.Chemscore.Hbonds>
donor molecule, donor type, donor heavy atom, donor atom, acceptor molecule, acceptor atom, score
      L1  H    19    31       P1  8028  0.95
      P1  H  7989  7998       L1     5  0.04
      L1  C     4    22       P1  7957  1.00

> <Gold.PLP.Chemscore.Internal.Correction>
0.0321

> <Gold.Rescore>
     Score         DG    S(hbond)    S(metal)    S(lipo)     H(rot)  DE(clash)    DE(int)     intcor
      4.27      -5.81       0.95        0.00      45.48       3.19       0.16       1.37       ----

> <Gold.Chemscore.Fitness>
4.2698

> <Gold.Chemscore.DG>
-5.8062

> <Gold.Chemscore.ZeroCoef>
-5.4800

> <Gold.Chemscore.Hbond>
0.9497

> <Gold.Chemscore.Metal>
0.0000

> <Gold.Chemscore.Lipo>
45.4774

> <Gold.Chemscore.Internal_Hbond>
0.0000

> <Gold.Chemscore.DEClash>
0.1620

> <Gold.Chemscore.DEInternal>
1.3744

> <Gold.Chemscore.Rot>
3.1901

> <Gold.Chemscore.Internal.Correction>
   9.000000E+99

> <Gold.Chemscore.Hbonds>
donor molecule, donor type, donor heavy atom, donor atom, acceptor molecule, acceptor atom, score
      L1  H    19    31       P1  8028  0.22

> <Gold.Chemscore.Hbond.Weighted>
-3.1720

> <Gold.Chemscore.Metal.Weighted>
-0.0000

> <Gold.Chemscore.Lipo.Weighted>
-5.3209

> <Gold.Chemscore.Internal_Hbond.Weighted>
0.0000

> <Gold.Chemscore.DEClash.Weighted>
0.1620

> <Gold.Chemscore.DEInternal.Weighted>
1.3744

> <Gold.Chemscore.Rot.Weighted>
8.1667

> <Gold.Chemscore.Internal.Correction.Weighted>
   9.000000E+99

> <Gold.Protein.RotatedTorsions>
[ 6907 6896 6895 6894 ] final  -56.39 input  -60.11 | X-H torsion
[ 7974 7965 7964 7962 ] final   75.37 input  175.53 | X-H torsion
[ 8008 7997 7996 7995 ] final   -1.42 input   59.86 | X-H torsion
[ 10167 10162 10161 10158 ] final  -91.90 input  -65.29 | X-H torsion
[ 10718 10713 10712 10709 ] final  114.38 input   66.30 | X-H torsion
[ 10763 10752 10751 10750 ] final  -85.66 input  -60.55 | X-H torsion
[ 11005 11000 10999 10996 ] final  179.83 input  -57.11 | X-H torsion

> <Gold.Protein.ActiveResidues>
 VAL166  LYS551  ARG553  GLY616  TRP617  ASP618  TYR619  PRO620  LYS621  CYS622 
 ASP623  PHE694  ASN695  SER759  ASP760  ASP761  ALA762  ILE779  LEU786  VAL792 
 PHE793  MET794  SER795  GLU796  ALA797  LYS798  CYS799  TRP800  GLU811  SER814 

> <Gold.Protein.RotatedAtoms>
  150.8172  134.7360  159.6739 H   0  0  0  0  0  0  0  0  0  0  0  0  # atno 6907 bound_to 6896
  152.4290  134.5811  159.9958 H   0  0  0  0  0  0  0  0  0  0  0  0  # atno 6908 bound_to 6896
  151.6005  133.3319  159.3082 H   0  0  0  0  0  0  0  0  0  0  0  0  # atno 6909 bound_to 6896
  145.7165  139.2633  143.1620 H   0  0  0  0  0  0  0  0  0  0  0  0  # atno 7974 bound_to 7965
  154.6470  140.2560  155.7257 H   0  0  0  0  0  0  0  0  0  0  0  0  # atno 8008 bound_to 7997
  156.2556  140.2876  156.0808 H   0  0  0  0  0  0  0  0  0  0  0  0  # atno 8009 bound_to 7997
  155.1509  140.0382  157.2811 H   0  0  0  0  0  0  0  0  0  0  0  0  # atno 8010 bound_to 7997
  140.3402  143.2946  151.9843 H   0  0  0  0  0  0  0  0  0  0  0  0  # atno 10167 bound_to 10162
  157.6284  131.0998  150.7177 H   0  0  0  0  0  0  0  0  0  0  0  0  # atno 10718 bound_to 10713
  154.6136  135.5477  153.7499 H   0  0  0  0  0  0  0  0  0  0  0  0  # atno 10763 bound_to 10752
  153.0206  135.6395  154.1542 H   0  0  0  0  0  0  0  0  0  0  0  0  # atno 10764 bound_to 10752
  154.1479  135.2904  155.3123 H   0  0  0  0  0  0  0  0  0  0  0  0  # atno 10765 bound_to 10752
  140.4105  134.6696  157.4611 H   0  0  0  0  0  0  0  0  0  0  0  0  # atno 11005 bound_to 11000
  146.0665  140.7915  142.9709 LP  0  0  0  0  0  0  0  0  0  0  0  0  # atno 17320 bound_to 7965
  144.6928  140.3276  143.7221 LP  0  0  0  0  0  0  0  0  0  0  0  0  # atno 17321 bound_to 7965
  139.4841  144.6162  151.7341 LP  0  0  0  0  0  0  0  0  0  0  0  0  # atno 17342 bound_to 10162
  140.5316  144.0722  150.6055 LP  0  0  0  0  0  0  0  0  0  0  0  0  # atno 17343 bound_to 10162
  156.7521  130.4772  149.5454 LP  0  0  0  0  0  0  0  0  0  0  0  0  # atno 17370 bound_to 10713
  156.1471  130.6285  151.0546 LP  0  0  0  0  0  0  0  0  0  0  0  0  # atno 17371 bound_to 10713
  140.0271  134.6461  155.9158 LP  0  0  0  0  0  0  0  0  0  0  0  0  # atno 17394 bound_to 11000
  141.1823  133.6549  156.5070 LP  0  0  0  0  0  0  0  0  0  0  0  0  # atno 17395 bound_to 11000

$$$$
