AV-unprocessed.smi:3330|AV-procd|sdf|12806|dock1
  -GOLD-   2272019173D 1   1.00000     0.00000
 Structure written by MMmdl.
 38 39  0  0  0  0  0  0  0  0  1 V2000
  153.7536  140.1243  160.4278 C   0  0  0  0  0  0  0  0  0  0  0  0
  153.3226  141.4187  159.7038 C   0  0  1  0  0  0  0  0  0  0  0  0
  151.9444  141.2664  159.2498 N   0  0  0  0  0  0  0  0  0  0  0  0
  151.7781  140.1056  158.3861 C   0  0  0  0  0  0  0  0  0  0  0  0
  151.9157  140.5182  156.9098 C   0  0  0  0  0  0  0  0  0  0  0  0
  150.6501  141.0160  156.3580 N   0  0  0  0  0  0  0  0  0  0  0  0
  150.1553  140.6662  155.1630 C   0  0  0  0  0  0  0  0  0  0  0  0
  150.6432  139.8834  154.3483 O   0  0  0  0  0  0  0  0  0  0  0  0
  148.8549  141.4089  154.9464 C   0  0  0  0  0  0  0  0  0  0  0  0
  148.7993  142.1520  156.1867 N   0  0  0  0  0  0  0  0  0  0  0  0
  149.8515  141.9048  156.9777 C   0  0  0  0  0  0  0  0  0  0  0  0
  150.0425  142.4144  158.0808 O   0  0  0  0  0  0  0  0  0  0  0  0
  153.4022  142.6811  160.6040 C   0  0  2  0  0  0  0  0  0  0  0  0
  153.0837  142.3733  162.0806 C   0  0  0  0  0  0  0  0  0  0  0  0
  152.5439  143.7563  160.1204 N   0  0  0  0  0  0  0  0  0  0  0  0
  152.4848  144.2937  158.8507 C   0  0  0  0  0  0  0  0  0  0  0  0
  151.5289  145.2686  158.8627 C   0  0  0  0  0  0  0  0  0  0  0  0
  151.0502  145.2556  160.2023 C   0  0  0  0  0  0  0  0  0  0  0  0
  151.6579  144.3509  160.9523 N   0  0  0  0  0  0  0  0  0  0  0  0
  154.7975  140.1665  160.7375 H   0  0  0  0  0  0  0  0  0  0  0  0
  153.6561  139.2456  159.7913 H   0  0  0  0  0  0  0  0  0  0  0  0
  153.1503  139.9528  161.3201 H   0  0  0  0  0  0  0  0  0  0  0  0
  153.9724  141.5761  158.8415 H   0  0  0  0  0  0  0  0  0  0  0  0
  151.6696  142.0919  158.7364 H   0  0  0  0  0  0  0  0  0  0  0  0
  152.5496  139.3749  158.6314 H   0  0  0  0  0  0  0  0  0  0  0  0
  150.8164  139.6217  158.5538 H   0  0  0  0  0  0  0  0  0  0  0  0
  152.7119  141.2558  156.7933 H   0  0  0  0  0  0  0  0  0  0  0  0
  152.2358  139.6538  156.3258 H   0  0  0  0  0  0  0  0  0  0  0  0
  148.9084  142.0719  154.0823 H   0  0  0  0  0  0  0  0  0  0  0  0
  148.0112  140.7252  154.8479 H   0  0  0  0  0  0  0  0  0  0  0  0
  148.0479  142.7868  156.4151 H   0  0  0  0  0  0  0  0  0  0  0  0
  154.4239  143.0627  160.5614 H   0  0  0  0  0  0  0  0  0  0  0  0
  153.7949  141.6644  162.5044 H   0  0  0  0  0  0  0  0  0  0  0  0
  152.0863  141.9478  162.1954 H   0  0  0  0  0  0  0  0  0  0  0  0
  153.1304  143.2786  162.6866 H   0  0  0  0  0  0  0  0  0  0  0  0
  153.1195  143.9394  158.0517 H   0  0  0  0  0  0  0  0  0  0  0  0
  151.2181  145.8947  158.0396 H   0  0  0  0  0  0  0  0  0  0  0  0
  150.2837  145.8716  160.6487 H   0  0  0  0  0  0  0  0  0  0  0  0
  1  2  1  0  0  0  0
  1 20  1  0  0  0  0
  1 21  1  0  0  0  0
  1 22  1  0  0  0  0
  2  3  1  0  0  0  0
  2 13  1  0  0  0  0
  2 23  1  0  0  0  0
  3  4  1  0  0  0  0
  3 24  1  0  0  0  0
  4  5  1  0  0  0  0
  4 25  1  0  0  0  0
  4 26  1  0  0  0  0
  5  6  1  0  0  0  0
  5 27  1  0  0  0  0
  5 28  1  0  0  0  0
  6 11  1  0  0  0  0
  6  7  1  0  0  0  0
  7  8  2  0  0  0  0
  7  9  1  0  0  0  0
  9 10  1  0  0  0  0
  9 29  1  0  0  0  0
  9 30  1  0  0  0  0
 10 11  1  0  0  0  0
 10 31  1  0  0  0  0
 11 12  2  0  0  0  0
 13 14  1  0  0  0  0
 13 15  1  0  0  0  0
 13 32  1  0  0  0  0
 14 33  1  0  0  0  0
 14 34  1  0  0  0  0
 14 35  1  0  0  0  0
 15 19  1  0  0  0  0
 15 16  1  0  0  0  0
 16 17  2  0  0  0  0
 16 36  1  0  0  0  0
 17 18  1  0  0  0  0
 17 37  1  0  0  0  0
 18 19  2  0  0  0  0
 18 38  1  0  0  0  0
M  END
> <s_m_source_file>
AV-unprocessed.smi

> <i_m_source_file_index>
3330

> <i_lp_mmshare_version>
43012

> <i_f3d_flags>
0

> <s_epik_input>
bjFbY0hdW2NIXVtjSF1uMVtDQEBIXShbQ0gzXSlbQ0BIXShbQ0gzXSlbTkhdW0NIMl1bQ0gyXU4yQyg9TylbQ0gyXVtOSF1DMj1P

> <s_epik_cmdline>
J2VwaWtfcHl0aG9uJywgJy1waCcsICc3LjAnLCAnLXRuJywgJzgnLCAnLW1hJywgJzIwMCcsICctbWV0YWxfYmluZGluZycsICctaW1hZScsICc8aW5maWxlLm1hZT4nLCAnLW9tYWUnLCAnPG91dGZpbGUubWFlPic=

> <r_lp_tautomer_probability>
1

> <r_epik_Ionization_Penalty>
2.2997

> <r_epik_Ionization_Penalty_Charging>
0

> <r_epik_Ionization_Penalty_Neutral>
2.2997

> <r_epik_State_Penalty>
2.44917

> <r_epik_Charging_Adjusted_Penalty>
2.44917

> <i_epik_Tot_Q>
0

> <i_epik_Tot_abs_Q>
0

> <r_epik_Metal_State_Penalty>
2.52438

> <b_epik_Metal_Only>
0

> <s_lp_Force_Field>
OPLS_2005

> <r_lp_Energy>
29.8527

> <b_lp_Chiralities_Consistent>
1

> <s_lp_Variant>
AV-unprocessed.smi:3330-6

> <Gold.Version>
5.8.1

> <Gold.Id.Protein>
6NUR|6NUR_protein|mol2

> <Gold.PLP.Fitness>
47.4037

> <Gold.PLP.PLP>
-46.3053

> <Gold.PLP.part.hbond>
-1.9877

> <Gold.PLP.part.metal>
0.0000

> <Gold.PLP.part.buried>
-5.5317

> <Gold.PLP.part.nonpolar>
-38.9797

> <Gold.PLP.part.repulsive>
0.4697

> <Gold.PLP.ligand.clash>
0.0000

> <Gold.PLP.ligand.torsion>
1.1534

> <Gold.PLP.Chemscore.Hbond>
1.0727

> <Gold.PLP.Chemscore.CHOScore>
0.0000

> <Gold.PLP.Chemscore.Metal>
0.0000

> <Gold.Chemscore.Hbonds>
donor molecule, donor type, donor heavy atom, donor atom, acceptor molecule, acceptor atom, score
      L1  H    10    31       P1  8028  0.02
      P1  H  7989  7998       L1     8  1.00

> <Gold.PLP.Chemscore.Internal.Correction>
0.1870

> <Gold.Rescore>
     Score         DG    S(hbond)    S(metal)    S(lipo)     H(rot)  DE(clash)    DE(int)     intcor
      9.42     -13.63       0.97        0.00      98.77       2.60       0.01       4.20       ----

> <Gold.Chemscore.Fitness>
9.4177

> <Gold.Chemscore.DG>
-13.6303

> <Gold.Chemscore.ZeroCoef>
-5.4800

> <Gold.Chemscore.Hbond>
0.9696

> <Gold.Chemscore.Metal>
0.0000

> <Gold.Chemscore.Lipo>
98.7650

> <Gold.Chemscore.Internal_Hbond>
0.0000

> <Gold.Chemscore.DEClash>
0.0149

> <Gold.Chemscore.DEInternal>
4.1977

> <Gold.Chemscore.Rot>
2.5952

> <Gold.Chemscore.Internal.Correction>
   9.000000E+99

> <Gold.Chemscore.Hbonds>
donor molecule, donor type, donor heavy atom, donor atom, acceptor molecule, acceptor atom, score
      L1  H    10    31       P1  8028  0.02
      P1  H  7989  7998       L1     8  0.35

> <Gold.Chemscore.Hbond.Weighted>
-3.2385

> <Gold.Chemscore.Metal.Weighted>
-0.0000

> <Gold.Chemscore.Lipo.Weighted>
-11.5555

> <Gold.Chemscore.Internal_Hbond.Weighted>
0.0000

> <Gold.Chemscore.DEClash.Weighted>
0.0149

> <Gold.Chemscore.DEInternal.Weighted>
4.1977

> <Gold.Chemscore.Rot.Weighted>
6.6437

> <Gold.Chemscore.Internal.Correction.Weighted>
   9.000000E+99

> <Gold.Protein.RotatedTorsions>
[ 6907 6896 6895 6894 ] final -170.93 input  -60.11 | X-H torsion
[ 7974 7965 7964 7962 ] final   21.20 input  175.53 | X-H torsion
[ 8008 7997 7996 7995 ] final -105.94 input   59.86 | X-H torsion
[ 10167 10162 10161 10158 ] final  -86.81 input  -65.29 | X-H torsion
[ 10718 10713 10712 10709 ] final -165.09 input   66.30 | X-H torsion
[ 10763 10752 10751 10750 ] final   18.11 input  -60.55 | X-H torsion
[ 11005 11000 10999 10996 ] final  -73.36 input  -57.11 | X-H torsion

> <Gold.Protein.ActiveResidues>
 VAL166  LYS551  ARG553  GLY616  TRP617  ASP618  TYR619  PRO620  LYS621  CYS622 
 ASP623  PHE694  ASN695  SER759  ASP760  ASP761  ALA762  ILE779  LEU786  VAL792 
 PHE793  MET794  SER795  GLU796  ALA797  LYS798  CYS799  TRP800  GLU811  SER814 

> <Gold.Protein.RotatedAtoms>
  151.5157  133.3476  159.2892 H   0  0  0  0  0  0  0  0  0  0  0  0  # atno 6907 bound_to 6896
  150.8684  134.8054  159.7147 H   0  0  0  0  0  0  0  0  0  0  0  0  # atno 6908 bound_to 6896
  152.4680  134.5037  159.9784 H   0  0  0  0  0  0  0  0  0  0  0  0  # atno 6909 bound_to 6896
  146.2081  139.8060  142.8710 H   0  0  0  0  0  0  0  0  0  0  0  0  # atno 7974 bound_to 7965
  154.9073  140.0411  157.1926 H   0  0  0  0  0  0  0  0  0  0  0  0  # atno 8008 bound_to 7997
  154.8384  140.2910  155.5654 H   0  0  0  0  0  0  0  0  0  0  0  0  # atno 8009 bound_to 7997
  156.2991  140.2487  156.3322 H   0  0  0  0  0  0  0  0  0  0  0  0  # atno 8010 bound_to 7997
  140.3905  143.2707  151.9270 H   0  0  0  0  0  0  0  0  0  0  0  0  # atno 10167 bound_to 10162
  156.6485  130.8997  151.3009 H   0  0  0  0  0  0  0  0  0  0  0  0  # atno 10718 bound_to 10713
  153.1278  135.6733  153.9227 H   0  0  0  0  0  0  0  0  0  0  0  0  # atno 10763 bound_to 10752
  153.8723  135.3068  155.3444 H   0  0  0  0  0  0  0  0  0  0  0  0  # atno 10764 bound_to 10752
  154.7681  135.4954  153.9674 H   0  0  0  0  0  0  0  0  0  0  0  0  # atno 10765 bound_to 10752
  141.1621  133.6876  156.7200 H   0  0  0  0  0  0  0  0  0  0  0  0  # atno 11005 bound_to 11000
  145.3246  141.0252  143.3481 LP  0  0  0  0  0  0  0  0  0  0  0  0  # atno 17320 bound_to 7965
  144.8842  139.4862  143.6708 LP  0  0  0  0  0  0  0  0  0  0  0  0  # atno 17321 bound_to 7965
  139.4789  144.5732  151.8055 LP  0  0  0  0  0  0  0  0  0  0  0  0  # atno 17342 bound_to 10162
  140.4844  144.1402  150.5938 LP  0  0  0  0  0  0  0  0  0  0  0  0  # atno 17343 bound_to 10162
  157.7148  130.9484  150.1218 LP  0  0  0  0  0  0  0  0  0  0  0  0  # atno 17370 bound_to 10713
  156.2103  130.3666  149.8678 LP  0  0  0  0  0  0  0  0  0  0  0  0  # atno 17371 bound_to 10713
  140.2823  134.8307  157.3944 LP  0  0  0  0  0  0  0  0  0  0  0  0  # atno 17394 bound_to 11000
  140.1422  134.4957  155.8023 LP  0  0  0  0  0  0  0  0  0  0  0  0  # atno 17395 bound_to 11000

$$$$
