AV-unprocessed.smi:2046|AV-procd|sdf|8311|dock6
  -GOLD-   2272010573D 1   1.00000     0.00000
 Structure written by MMmdl.
 30 31  0  0  0  0  0  0  0  0  1 V2000
  150.1372  140.4524  156.7239 O   0  0  0  0  0  0  0  0  0  0  0  0
  149.9066  141.5817  156.2901 C   0  0  0  0  0  0  0  0  0  0  0  0
  150.4782  142.7162  156.7308 N   0  0  0  0  0  0  0  0  0  0  0  0
  151.4442  142.8737  157.7597 C   0  0  0  0  0  0  0  0  0  0  0  0
  151.8799  141.8665  158.5330 N   0  0  0  0  0  0  0  0  0  0  0  0
  152.8226  142.2932  159.4597 N   0  0  0  0  0  0  0  0  0  0  0  0
  153.0605  143.6032  159.3489 C   0  0  0  0  0  0  0  0  0  0  0  0
  152.1562  144.4441  158.1018 S   0  0  0  0  0  0  0  0  0  0  0  0
  149.0373  141.8309  155.2999 N   0  0  0  0  0  0  0  0  0  0  0  0
  148.2198  140.8330  154.6096 C   0  0  2  0  0  0  0  0  0  0  0  0
  147.0672  140.3416  155.5229 C   0  0  0  0  0  0  0  0  0  0  0  0
  146.4977  138.9434  155.2032 C   0  0  0  0  0  0  0  0  0  0  0  0
  146.0478  138.7268  153.7441 C   0  0  0  0  0  0  0  0  0  0  0  0
  147.1003  139.0009  152.6429 C   0  0  0  0  0  0  0  0  0  0  0  0
  148.4881  138.8998  153.0934 N   0  0  0  0  0  0  0  0  0  0  0  0
  149.0798  139.7219  153.9773 C   0  0  0  0  0  0  0  0  0  0  0  0
  150.2615  139.5835  154.2917 O   0  0  0  0  0  0  0  0  0  0  0  0
  150.1863  143.5695  156.2774 H   0  0  0  0  0  0  0  0  0  0  0  0
  153.7737  144.0776  160.0067 H   0  0  0  0  0  0  0  0  0  0  0  0
  148.9083  142.7896  155.0103 H   0  0  0  0  0  0  0  0  0  0  0  0
  147.7657  141.3526  153.7647 H   0  0  0  0  0  0  0  0  0  0  0  0
  147.4091  140.3255  156.5588 H   0  0  0  0  0  0  0  0  0  0  0  0
  146.2584  141.0729  155.4935 H   0  0  0  0  0  0  0  0  0  0  0  0
  147.2333  138.1830  155.4694 H   0  0  0  0  0  0  0  0  0  0  0  0
  145.6489  138.7553  155.8612 H   0  0  0  0  0  0  0  0  0  0  0  0
  145.7195  137.6908  153.6533 H   0  0  0  0  0  0  0  0  0  0  0  0
  145.1619  139.3299  153.5427 H   0  0  0  0  0  0  0  0  0  0  0  0
  146.9551  138.3012  151.8194 H   0  0  0  0  0  0  0  0  0  0  0  0
  146.9383  139.9885  152.2096 H   0  0  0  0  0  0  0  0  0  0  0  0
  149.0467  138.1621  152.6892 H   0  0  0  0  0  0  0  0  0  0  0  0
  1  2  2  0  0  0  0
  2  3  1  0  0  0  0
  2  9  1  0  0  0  0
  3  4  1  0  0  0  0
  3 18  1  0  0  0  0
  4  8  1  0  0  0  0
  4  5  2  0  0  0  0
  5  6  1  0  0  0  0
  6  7  2  0  0  0  0
  7  8  1  0  0  0  0
  7 19  1  0  0  0  0
  9 10  1  0  0  0  0
  9 20  1  0  0  0  0
 10 16  1  0  0  0  0
 10 11  1  0  0  0  0
 10 21  1  0  0  0  0
 11 12  1  0  0  0  0
 11 22  1  0  0  0  0
 11 23  1  0  0  0  0
 12 13  1  0  0  0  0
 12 24  1  0  0  0  0
 12 25  1  0  0  0  0
 13 14  1  0  0  0  0
 13 26  1  0  0  0  0
 13 27  1  0  0  0  0
 14 15  1  0  0  0  0
 14 28  1  0  0  0  0
 14 29  1  0  0  0  0
 15 16  1  0  0  0  0
 15 30  1  0  0  0  0
 16 17  2  0  0  0  0
M  END
> <s_m_source_file>
AV-unprocessed.smi

> <i_m_source_file_index>
2046

> <i_lp_mmshare_version>
43012

> <i_f3d_flags>
0

> <s_epik_input>
czFbY0hdbm5jMVtOSF1DKD1PKVtOSF1bQ0BASF0yW0NIMl1bQ0gyXVtDSDJdW0NIMl1bTkhdQzI9Tw==

> <s_epik_cmdline>
J2VwaWtfcHl0aG9uJywgJy1waCcsICc3LjAnLCAnLXRuJywgJzgnLCAnLW1hJywgJzIwMCcsICctbWV0YWxfYmluZGluZycsICctaW1hZScsICc8aW5maWxlLm1hZT4nLCAnLW9tYWUnLCAnPG91dGZpbGUubWFlPic=

> <r_lp_tautomer_probability>
1

> <r_epik_Ionization_Penalty>
0.000691558

> <r_epik_Ionization_Penalty_Charging>
0

> <r_epik_Ionization_Penalty_Neutral>
0.000691558

> <r_epik_State_Penalty>
-0

> <r_epik_Charging_Adjusted_Penalty>
0

> <i_epik_Tot_Q>
0

> <i_epik_Tot_abs_Q>
0

> <r_epik_Metal_State_Penalty>
0.252698

> <b_epik_Metal_Only>
0

> <s_lp_Force_Field>
OPLS_2005

> <r_lp_Energy>
13.4172

> <b_lp_Chiralities_Consistent>
1

> <s_lp_Variant>
AV-unprocessed.smi:2046-1

> <Gold.Version>
5.8.1

> <Gold.Id.Protein>
6NUR|6NUR_protein|mol2

> <Gold.PLP.Fitness>
38.4852

> <Gold.PLP.PLP>
-27.3376

> <Gold.PLP.part.hbond>
-4.9253

> <Gold.PLP.part.metal>
0.0000

> <Gold.PLP.part.buried>
-2.7066

> <Gold.PLP.part.nonpolar>
-20.8720

> <Gold.PLP.part.repulsive>
0.4538

> <Gold.PLP.ligand.clash>
0.0000

> <Gold.PLP.ligand.torsion>
0.0875

> <Gold.PLP.Chemscore.Hbond>
3.7567

> <Gold.PLP.Chemscore.CHOScore>
0.0000

> <Gold.PLP.Chemscore.Metal>
0.0000

> <Gold.Chemscore.Hbonds>
donor molecule, donor type, donor heavy atom, donor atom, acceptor molecule, acceptor atom, score
      L1  H     3    18       P1  8028  1.00
      L1  H     9    20       P1  8028  0.90
      L1  H    15    30       P1  7948  0.82
      P1  H  7989  7998       L1    17  0.99

> <Gold.PLP.Chemscore.Internal.Correction>
0.0524

> <Gold.Rescore>
     Score         DG    S(hbond)    S(metal)    S(lipo)     H(rot)  DE(clash)    DE(int)     intcor
     13.20     -18.32       3.01        0.00      45.76       1.00       0.08       5.04       ----

> <Gold.Chemscore.Fitness>
13.1977

> <Gold.Chemscore.DG>
-18.3159

> <Gold.Chemscore.ZeroCoef>
-5.4800

> <Gold.Chemscore.Hbond>
3.0066

> <Gold.Chemscore.Metal>
0.0000

> <Gold.Chemscore.Lipo>
45.7594

> <Gold.Chemscore.Internal_Hbond>
0.0000

> <Gold.Chemscore.DEClash>
0.0775

> <Gold.Chemscore.DEInternal>
5.0407

> <Gold.Chemscore.Rot>
1.0000

> <Gold.Chemscore.Internal.Correction>
   9.000000E+99

> <Gold.Chemscore.Hbonds>
donor molecule, donor type, donor heavy atom, donor atom, acceptor molecule, acceptor atom, score
      L1  H     3    18       P1  8028  0.97
      L1  H     9    20       P1  8028  0.82
      L1  H    15    30       P1  7948  0.76
      P1  H  7989  7998       L1    17  0.88

> <Gold.Chemscore.Hbond.Weighted>
-10.0421

> <Gold.Chemscore.Metal.Weighted>
-0.0000

> <Gold.Chemscore.Lipo.Weighted>
-5.3539

> <Gold.Chemscore.Internal_Hbond.Weighted>
0.0000

> <Gold.Chemscore.DEClash.Weighted>
0.0775

> <Gold.Chemscore.DEInternal.Weighted>
5.0407

> <Gold.Chemscore.Rot.Weighted>
2.5600

> <Gold.Chemscore.Internal.Correction.Weighted>
   9.000000E+99

> <Gold.Protein.RotatedTorsions>
[ 6907 6896 6895 6894 ] final  -44.42 input  -60.11 | X-H torsion
[ 7974 7965 7964 7962 ] final  133.80 input  175.53 | X-H torsion
[ 8008 7997 7996 7995 ] final   82.52 input   59.86 | X-H torsion
[ 10167 10162 10161 10158 ] final  -11.89 input  -65.29 | X-H torsion
[ 10718 10713 10712 10709 ] final  -16.89 input   66.30 | X-H torsion
[ 10763 10752 10751 10750 ] final -105.82 input  -60.55 | X-H torsion
[ 11005 11000 10999 10996 ] final   65.51 input  -57.11 | X-H torsion

> <Gold.Protein.ActiveResidues>
 VAL166  LYS551  ARG553  GLY616  TRP617  ASP618  TYR619  PRO620  LYS621  CYS622 
 ASP623  PHE694  ASN695  SER759  ASP760  ASP761  ALA762  ILE779  LEU786  VAL792 
 PHE793  MET794  SER795  GLU796  ALA797  LYS798  CYS799  TRP800  GLU811  SER814 

> <Gold.Protein.RotatedAtoms>
  150.9330  134.8744  159.7563 H   0  0  0  0  0  0  0  0  0  0  0  0  # atno 6907 bound_to 6896
  152.5046  134.4051  159.9440 H   0  0  0  0  0  0  0  0  0  0  0  0  # atno 6908 bound_to 6896
  151.4077  133.3697  159.2775 H   0  0  0  0  0  0  0  0  0  0  0  0  # atno 6909 bound_to 6896
  144.9828  139.4487  143.5378 H   0  0  0  0  0  0  0  0  0  0  0  0  # atno 7974 bound_to 7965
  155.9117  140.3427  155.6103 H   0  0  0  0  0  0  0  0  0  0  0  0  # atno 8008 bound_to 7997
  155.7380  140.0804  157.2277 H   0  0  0  0  0  0  0  0  0  0  0  0  # atno 8009 bound_to 7997
  154.4056  140.1576  156.2571 H   0  0  0  0  0  0  0  0  0  0  0  0  # atno 8010 bound_to 7997
  140.7149  143.5590  150.9216 H   0  0  0  0  0  0  0  0  0  0  0  0  # atno 10167 bound_to 10162
  156.5813  130.4775  149.6319 H   0  0  0  0  0  0  0  0  0  0  0  0  # atno 10718 bound_to 10713
  154.7972  135.4735  154.0188 H   0  0  0  0  0  0  0  0  0  0  0  0  # atno 10763 bound_to 10752
  153.1722  135.6827  153.8599 H   0  0  0  0  0  0  0  0  0  0  0  0  # atno 10764 bound_to 10752
  153.8177  135.3208  155.3385 H   0  0  0  0  0  0  0  0  0  0  0  0  # atno 10765 bound_to 10752
  139.9890  134.6622  156.0124 H   0  0  0  0  0  0  0  0  0  0  0  0  # atno 11005 bound_to 11000
  146.3412  139.9111  142.8780 LP  0  0  0  0  0  0  0  0  0  0  0  0  # atno 17320 bound_to 7965
  145.2396  141.0004  143.3943 LP  0  0  0  0  0  0  0  0  0  0  0  0  # atno 17321 bound_to 7965
  139.9316  143.6487  152.3075 LP  0  0  0  0  0  0  0  0  0  0  0  0  # atno 17342 bound_to 10162
  139.6939  144.7643  151.1390 LP  0  0  0  0  0  0  0  0  0  0  0  0  # atno 17343 bound_to 10162
  156.2629  130.6973  151.1747 LP  0  0  0  0  0  0  0  0  0  0  0  0  # atno 17370 bound_to 10713
  157.7326  131.0598  150.5620 LP  0  0  0  0  0  0  0  0  0  0  0  0  # atno 17371 bound_to 10713
  141.1550  133.6544  156.4131 LP  0  0  0  0  0  0  0  0  0  0  0  0  # atno 17394 bound_to 11000
  140.4945  134.6544  157.5224 LP  0  0  0  0  0  0  0  0  0  0  0  0  # atno 17395 bound_to 11000

$$$$
