AV-unprocessed.smi:290|AV-procd|sdf|2231|dock1
  -GOLD-   2262022 93D 1   1.00000     0.00000
 Structure written by MMmdl.
 59 62  0  0  0  0  0  0  0  0  2 V2000
  149.9141  137.6742  155.1429 C   0  0  0  0  0  0  0  0  0  0  0  0
  150.5461  139.0349  154.8265 C   0  0  2  0  0  0  0  0  0  0  0  0
  151.4286  139.3805  155.8866 O   0  0  0  0  0  0  0  0  0  0  0  0
  151.6598  140.7734  155.8120 C   0  0  0  0  0  0  0  0  0  0  0  0
  150.2574  141.3093  155.5701 C   0  0  0  0  0  0  0  0  0  0  0  0
  149.6106  140.2702  154.6494 C   0  0  1  0  0  0  0  0  0  0  0  0
  149.7641  140.7356  153.3205 O   0  0  0  0  0  0  0  0  0  0  0  0
  148.0977  140.1201  154.9922 C   0  0  0  0  0  0  0  0  0  0  0  0
  147.3501  139.1547  154.1944 N   0  0  0  0  0  0  0  0  0  0  0  0
  147.0376  139.2506  152.8581 C   0  0  0  0  0  0  0  0  0  0  0  0
  146.3751  138.2407  152.3668 N   0  0  0  0  0  0  0  0  0  0  0  0
  146.2567  137.3502  153.4285 C   0  0  0  0  0  0  0  0  0  0  0  0
  145.6742  136.0566  153.5990 C   0  0  0  0  0  0  0  0  0  0  0  0
  145.0396  135.3377  152.6341 N   0  0  0  0  0  0  0  0  0  0  0  0
  144.1883  136.0099  151.6661 C   0  0  0  0  0  0  0  0  0  0  0  0
  144.3831  135.2369  150.3689 C   0  0  0  0  0  0  0  0  0  0  0  0
  144.6953  133.8032  150.8269 C   0  0  1  0  0  0  0  0  0  0  0  0
  145.4260  133.0327  149.7743 N   0  3  1  0  0  0  0  0  0  0  0  0
  146.6514  132.3437  150.2483 C   0  0  0  0  0  0  0  0  0  0  0  0
  144.5441  132.1044  149.0152 C   0  0  0  0  0  0  0  0  0  0  0  0
  143.2450  132.7904  148.5622 C   0  0  0  0  0  0  0  0  0  0  0  0
  143.5497  133.9307  147.7868 O   0  0  0  0  0  0  0  0  0  0  0  0
  145.4820  134.0350  152.1441 C   0  0  2  0  0  0  0  0  0  0  0  0
  145.2201  132.9494  153.2113 C   0  0  0  0  0  0  0  0  0  0  0  0
  145.7699  135.4919  154.8313 N   0  0  0  0  0  0  0  0  0  0  0  0
  146.3933  136.1276  155.8260 C   0  0  0  0  0  0  0  0  0  0  0  0
  146.9799  137.3239  155.8101 N   0  0  0  0  0  0  0  0  0  0  0  0
  146.8775  137.9110  154.5835 C   0  0  0  0  0  0  0  0  0  0  0  0
  143.7558  133.2972  151.0568 H   0  0  0  0  0  0  0  0  0  0  0  0
  146.5437  134.1039  151.9101 H   0  0  0  0  0  0  0  0  0  0  0  0
  149.3305  137.3092  154.2996 H   0  0  0  0  0  0  0  0  0  0  0  0
  149.2776  137.7138  156.0263 H   0  0  0  0  0  0  0  0  0  0  0  0
  150.6886  136.9315  155.3349 H   0  0  0  0  0  0  0  0  0  0  0  0
  151.1712  138.9123  153.9394 H   0  0  0  0  0  0  0  0  0  0  0  0
  152.1090  141.1599  156.7269 H   0  0  0  0  0  0  0  0  0  0  0  0
  152.3210  141.0004  154.9741 H   0  0  0  0  0  0  0  0  0  0  0  0
  149.7341  141.3419  156.5269 H   0  0  0  0  0  0  0  0  0  0  0  0
  150.2543  142.3227  155.1659 H   0  0  0  0  0  0  0  0  0  0  0  0
  149.6704  140.0017  152.7321 H   0  0  0  0  0  0  0  0  0  0  0  0
  147.9635  139.8848  156.0482 H   0  0  0  0  0  0  0  0  0  0  0  0
  147.6063  141.0837  154.8492 H   0  0  0  0  0  0  0  0  0  0  0  0
  147.3148  140.0998  152.2509 H   0  0  0  0  0  0  0  0  0  0  0  0
  143.1535  135.9471  152.0046 H   0  0  0  0  0  0  0  0  0  0  0  0
  144.4434  137.0624  151.5353 H   0  0  0  0  0  0  0  0  0  0  0  0
  143.5091  135.3120  149.7223 H   0  0  0  0  0  0  0  0  0  0  0  0
  145.2361  135.6512  149.8288 H   0  0  0  0  0  0  0  0  0  0  0  0
  146.4195  131.6458  151.0536 H   0  0  0  0  0  0  0  0  0  0  0  0
  147.3981  133.0542  150.6010 H   0  0  0  0  0  0  0  0  0  0  0  0
  147.1224  131.7780  149.4450 H   0  0  0  0  0  0  0  0  0  0  0  0
  145.0852  131.7136  148.1523 H   0  0  0  0  0  0  0  0  0  0  0  0
  144.2761  131.2295  149.6062 H   0  0  0  0  0  0  0  0  0  0  0  0
  142.6038  132.1191  147.9915 H   0  0  0  0  0  0  0  0  0  0  0  0
  142.6733  133.1116  149.4332 H   0  0  0  0  0  0  0  0  0  0  0  0
  144.4900  134.0118  147.7252 H   0  0  0  0  0  0  0  0  0  0  0  0
  145.5598  131.9646  152.8985 H   0  0  0  0  0  0  0  0  0  0  0  0
  144.1561  132.8715  153.4362 H   0  0  0  0  0  0  0  0  0  0  0  0
  145.7287  133.1728  154.1485 H   0  0  0  0  0  0  0  0  0  0  0  0
  146.4276  135.6016  156.7688 H   0  0  0  0  0  0  0  0  0  0  0  0
  145.7339  133.7245  149.1052 H   0  0  0  0  0  0  0  0  0  0  0  0
  1  2  1  0  0  0  0
  1 31  1  0  0  0  0
  1 32  1  0  0  0  0
  1 33  1  0  0  0  0
  2  6  1  0  0  0  0
  2  3  1  0  0  0  0
  2 34  1  0  0  0  0
  3  4  1  0  0  0  0
  4  5  1  0  0  0  0
  4 35  1  0  0  0  0
  4 36  1  0  0  0  0
  5  6  1  0  0  0  0
  5 37  1  0  0  0  0
  5 38  1  0  0  0  0
  6  7  1  0  0  0  0
  6  8  1  0  0  0  0
  7 39  1  0  0  0  0
  8  9  1  0  0  0  0
  8 40  1  0  0  0  0
  8 41  1  0  0  0  0
  9 28  1  0  0  0  0
  9 10  1  0  0  0  0
 10 11  2  0  0  0  0
 10 42  1  0  0  0  0
 11 12  1  0  0  0  0
 12 28  2  0  0  0  0
 12 13  1  0  0  0  0
 13 14  1  0  0  0  0
 13 25  2  0  0  0  0
 14 23  1  0  0  0  0
 14 15  1  0  0  0  0
 15 16  1  0  0  0  0
 15 43  1  0  0  0  0
 15 44  1  0  0  0  0
 16 17  1  0  0  0  0
 16 45  1  0  0  0  0
 16 46  1  0  0  0  0
 17 29  1  0  0  0  0
 17 18  1  0  0  0  0
 17 23  1  0  0  0  0
 18 19  1  0  0  0  0
 18 20  1  0  0  0  0
 18 59  1  0  0  0  0
 19 47  1  0  0  0  0
 19 48  1  0  0  0  0
 19 49  1  0  0  0  0
 20 21  1  0  0  0  0
 20 50  1  0  0  0  0
 20 51  1  0  0  0  0
 21 22  1  0  0  0  0
 21 52  1  0  0  0  0
 21 53  1  0  0  0  0
 22 54  1  0  0  0  0
 23 30  1  0  0  0  0
 23 24  1  0  0  0  0
 24 55  1  0  0  0  0
 24 56  1  0  0  0  0
 24 57  1  0  0  0  0
 25 26  1  0  0  0  0
 26 27  2  0  0  0  0
 26 58  1  0  0  0  0
 27 28  1  0  0  0  0
M  CHG  1  18   1
M  END
> <s_m_source_file>
AV-unprocessed.smi

> <i_m_source_file_index>
290

> <i_lp_mmshare_version>
43012

> <i_f3d_flags>
0

> <s_epik_input>
W0NIMl0xW0NIMl1PW0NAQEhdKFtDSDNdKVtDQEBdMShbT0hdKVtDSDJdbihbY0hdbjIpYyhjMjMpbltjSF1uYzNONFtDSDJdW0NIMl1bQ0BIXShbQ0BIXTRbQ0gzXSlOKFtDSDNdKVtDSDJdW0NIMl1bT0hd

> <s_epik_cmdline>
J2VwaWtfcHl0aG9uJywgJy1waCcsICc3LjAnLCAnLXRuJywgJzgnLCAnLW1hJywgJzIwMCcsICctbWV0YWxfYmluZGluZycsICctaW1hZScsICc8aW5maWxlLm1hZT4nLCAnLW9tYWUnLCAnPG91dGZpbGUubWFlPic=

> <r_lp_tautomer_probability>
1

> <r_epik_Ionization_Penalty>
0.0036983

> <r_epik_Ionization_Penalty_Charging>
0.0032725

> <r_epik_Ionization_Penalty_Neutral>
0.000425798

> <r_epik_State_Penalty>
-0

> <r_epik_Charging_Adjusted_Penalty>
0.0032725

> <i_epik_Tot_Q>
1

> <i_epik_Tot_abs_Q>
1

> <r_epik_Metal_State_Penalty>
-0

> <b_epik_Metal_Only>
0

> <s_lp_Force_Field>
OPLS_2005

> <r_lp_Energy>
63.0436

> <b_lp_Chiralities_Consistent>
1

> <s_lp_Variant>
AV-unprocessed.smi:290-17

> <Gold.Version>
5.8.1

> <Gold.Id.Protein>
6NUR|6NUR_protein|mol2

> <Gold.PLP.Fitness>
51.9296

> <Gold.PLP.PLP>
-39.2975

> <Gold.PLP.part.hbond>
-6.7940

> <Gold.PLP.part.metal>
0.0000

> <Gold.PLP.part.buried>
3.9155

> <Gold.PLP.part.nonpolar>
-33.7897

> <Gold.PLP.part.repulsive>
0.5149

> <Gold.PLP.ligand.clash>
0.0000

> <Gold.PLP.ligand.torsion>
2.2541

> <Gold.PLP.Chemscore.Hbond>
4.8984

> <Gold.PLP.Chemscore.CHOScore>
0.6965

> <Gold.PLP.Chemscore.Metal>
0.0000

> <Gold.Chemscore.Hbonds>
donor molecule, donor type, donor heavy atom, donor atom, acceptor molecule, acceptor atom, score
      L1  H     7    39       P1  7957  0.54
      L1  H    18    59       P1  7921  0.95
      L1  H    22    54       P1  7921  1.00
      P1  H  7989  7998       L1     7  0.21
      P1  H  8011  8017       L1     7  1.00
      P1  H 10192 10197       L1    22  0.91
      L1  C    10    42       P1  7957  0.75

> <Gold.PLP.Chemscore.Internal.Correction>
0.3554

> <Gold.Rescore>
     Score         DG    S(hbond)    S(metal)    S(lipo)     H(rot)  DE(clash)    DE(int)     intcor
     16.32     -22.49       4.06        0.00     102.90       3.35       2.22       3.95       ----

> <Gold.Chemscore.Fitness>
16.3153

> <Gold.Chemscore.DG>
-22.4856

> <Gold.Chemscore.ZeroCoef>
-5.4800

> <Gold.Chemscore.Hbond>
4.0558

> <Gold.Chemscore.Metal>
0.0000

> <Gold.Chemscore.Lipo>
102.9039

> <Gold.Chemscore.Internal_Hbond>
0.0000

> <Gold.Chemscore.DEClash>
2.2176

> <Gold.Chemscore.DEInternal>
3.9527

> <Gold.Chemscore.Rot>
3.3518

> <Gold.Chemscore.Internal.Correction>
   9.000000E+99

> <Gold.Chemscore.Hbonds>
donor molecule, donor type, donor heavy atom, donor atom, acceptor molecule, acceptor atom, score
      L1  H     7    39       P1  7957  0.52
      L1  H    18    59       P1  7921  0.22
      L1  H    22    54       P1  7921  0.99
      P1  H  7989  7998       L1     7  0.01
      P1  H  8011  8017       L1     7  0.73
      P1  H 10192 10197       L1    22  0.87

> <Gold.Chemscore.Hbond.Weighted>
-13.5464

> <Gold.Chemscore.Metal.Weighted>
-0.0000

> <Gold.Chemscore.Lipo.Weighted>
-12.0398

> <Gold.Chemscore.Internal_Hbond.Weighted>
0.0000

> <Gold.Chemscore.DEClash.Weighted>
2.2176

> <Gold.Chemscore.DEInternal.Weighted>
3.9527

> <Gold.Chemscore.Rot.Weighted>
8.5806

> <Gold.Chemscore.Internal.Correction.Weighted>
   9.000000E+99

> <Gold.Protein.RotatedTorsions>
[ 6907 6896 6895 6894 ] final -116.37 input  -60.11 | X-H torsion
[ 7974 7965 7964 7962 ] final  161.89 input  175.53 | X-H torsion
[ 8008 7997 7996 7995 ] final  145.20 input   59.86 | X-H torsion
[ 10167 10162 10161 10158 ] final  171.95 input  -65.29 | X-H torsion
[ 10718 10713 10712 10709 ] final  167.22 input   66.30 | X-H torsion
[ 10763 10752 10751 10750 ] final  147.11 input  -60.55 | X-H torsion
[ 11005 11000 10999 10996 ] final -103.67 input  -57.11 | X-H torsion

> <Gold.Protein.ActiveResidues>
 VAL166  LYS551  ARG553  GLY616  TRP617  ASP618  TYR619  PRO620  LYS621  CYS622 
 ASP623  PHE694  ASN695  SER759  ASP760  ASP761  ALA762  ILE779  LEU786  VAL792 
 PHE793  MET794  SER795  GLU796  ALA797  LYS798  CYS799  TRP800  GLU811  SER814 

> <Gold.Protein.RotatedAtoms>
  150.8051  133.8526  159.3209 H   0  0  0  0  0  0  0  0  0  0  0  0  # atno 6907 bound_to 6896
  151.6327  135.1019  160.0134 H   0  0  0  0  0  0  0  0  0  0  0  0  # atno 6908 bound_to 6896
  152.4141  133.6970  159.6458 H   0  0  0  0  0  0  0  0  0  0  0  0  # atno 6909 bound_to 6896
  144.7663  139.7962  143.6314 H   0  0  0  0  0  0  0  0  0  0  0  0  # atno 7974 bound_to 7965
  156.2889  140.2215  156.5177 H   0  0  0  0  0  0  0  0  0  0  0  0  # atno 8008 bound_to 7997
  154.7555  140.0477  157.0951 H   0  0  0  0  0  0  0  0  0  0  0  0  # atno 8009 bound_to 7997
  155.0056  140.3107  155.4853 H   0  0  0  0  0  0  0  0  0  0  0  0  # atno 8010 bound_to 7997
  139.5062  144.3428  152.0001 H   0  0  0  0  0  0  0  0  0  0  0  0  # atno 10167 bound_to 10162
  157.0547  131.0323  151.2668 H   0  0  0  0  0  0  0  0  0  0  0  0  # atno 10718 bound_to 10713
  154.0329  135.2896  155.3366 H   0  0  0  0  0  0  0  0  0  0  0  0  # atno 10763 bound_to 10752
  154.6977  135.5201  153.8485 H   0  0  0  0  0  0  0  0  0  0  0  0  # atno 10764 bound_to 10752
  153.0632  135.6621  154.0540 H   0  0  0  0  0  0  0  0  0  0  0  0  # atno 10765 bound_to 10752
  141.1135  133.8659  157.1515 H   0  0  0  0  0  0  0  0  0  0  0  0  # atno 11005 bound_to 11000
  146.1773  139.4950  142.9889 LP  0  0  0  0  0  0  0  0  0  0  0  0  # atno 17320 bound_to 7965
  145.6459  141.0274  143.1786 LP  0  0  0  0  0  0  0  0  0  0  0  0  # atno 17321 bound_to 7965
  140.2866  144.3800  150.6102 LP  0  0  0  0  0  0  0  0  0  0  0  0  # atno 17342 bound_to 10162
  140.5978  143.2167  151.7130 LP  0  0  0  0  0  0  0  0  0  0  0  0  # atno 17343 bound_to 10162
  157.5002  130.7875  149.7597 LP  0  0  0  0  0  0  0  0  0  0  0  0  # atno 17370 bound_to 10713
  155.9997  130.3887  150.2655 LP  0  0  0  0  0  0  0  0  0  0  0  0  # atno 17371 bound_to 10713
  140.0043  135.0015  157.0258 LP  0  0  0  0  0  0  0  0  0  0  0  0  # atno 17394 bound_to 11000
  140.4709  134.1387  155.7203 LP  0  0  0  0  0  0  0  0  0  0  0  0  # atno 17395 bound_to 11000

$$$$
