AV-unprocessed.smi:2066|AV-procd|sdf|8421|dock9
  -GOLD-   2272011113D 1   1.00000     0.00000
 Structure written by MMmdl.
 38 39  0  0  0  0  0  0  0  0  2 V2000
  150.3658  135.5045  157.0980 C   0  0  0  0  0  0  0  0  0  0  0  0
  150.2139  135.4768  155.5580 C   0  0  0  0  0  0  0  0  0  0  0  0
  151.1743  134.3861  155.0195 C   0  0  0  0  0  0  0  0  0  0  0  0
  148.7723  134.9810  155.2487 C   0  0  0  0  0  0  0  0  0  0  0  0
  148.5889  134.6563  153.8368 N   0  0  0  0  0  0  0  0  0  0  0  0
  148.1766  133.4747  153.3610 C   0  0  0  0  0  0  0  0  0  0  0  0
  147.9330  132.5506  154.1405 O   0  0  0  0  0  0  0  0  0  0  0  0
  148.0687  133.4375  152.0134 N   0  5  0  0  0  0  0  0  0  0  0  0
  146.9277  133.0198  151.4422 C   0  0  0  0  0  0  0  0  0  0  0  0
  146.3762  133.6262  150.3847 N   0  0  0  0  0  0  0  0  0  0  0  0
  145.1895  133.0279  149.9581 C   0  0  0  0  0  0  0  0  0  0  0  0
  144.8225  131.9470  150.7153 C   0  0  0  0  0  0  0  0  0  0  0  0
  145.9653  131.6452  151.9930 S   0  0  0  0  0  0  0  0  0  0  0  0
  150.4918  136.7948  154.9213 N   0  0  0  0  0  0  0  0  0  0  0  0
  151.8372  137.3286  155.1601 C   0  0  0  0  0  0  0  0  0  0  0  0
  152.0928  138.6249  154.3720 C   0  0  0  0  0  0  0  0  0  0  0  0
  151.1041  139.5921  154.7043 O   0  0  0  0  0  0  0  0  0  0  0  0
  149.7855  139.1343  154.4291 C   0  0  0  0  0  0  0  0  0  0  0  0
  149.5097  137.8441  155.2188 C   0  0  0  0  0  0  0  0  0  0  0  0
  150.1540  134.5251  157.5287 H   0  0  0  0  0  0  0  0  0  0  0  0
  149.6774  136.2077  157.5662 H   0  0  0  0  0  0  0  0  0  0  0  0
  151.3757  135.7716  157.4081 H   0  0  0  0  0  0  0  0  0  0  0  0
  150.8739  133.3904  155.3479 H   0  0  0  0  0  0  0  0  0  0  0  0
  152.1969  134.5246  155.3701 H   0  0  0  0  0  0  0  0  0  0  0  0
  151.1982  134.3740  153.9291 H   0  0  0  0  0  0  0  0  0  0  0  0
  148.5438  134.0896  155.8356 H   0  0  0  0  0  0  0  0  0  0  0  0
  148.0310  135.7210  155.5527 H   0  0  0  0  0  0  0  0  0  0  0  0
  148.7743  135.3919  153.1707 H   0  0  0  0  0  0  0  0  0  0  0  0
  144.6697  133.4396  149.1059 H   0  0  0  0  0  0  0  0  0  0  0  0
  143.9558  131.3137  150.6013 H   0  0  0  0  0  0  0  0  0  0  0  0
  151.9803  137.5290  156.2219 H   0  0  0  0  0  0  0  0  0  0  0  0
  152.5991  136.6084  154.8672 H   0  0  0  0  0  0  0  0  0  0  0  0
  153.0774  139.0259  154.6122 H   0  0  0  0  0  0  0  0  0  0  0  0
  152.0786  138.4329  153.2979 H   0  0  0  0  0  0  0  0  0  0  0  0
  149.0734  139.9101  154.7101 H   0  0  0  0  0  0  0  0  0  0  0  0
  149.6667  138.9633  153.3580 H   0  0  0  0  0  0  0  0  0  0  0  0
  148.5019  137.5162  154.9706 H   0  0  0  0  0  0  0  0  0  0  0  0
  149.5151  138.0751  156.2841 H   0  0  0  0  0  0  0  0  0  0  0  0
  1  2  1  0  0  0  0
  1 20  1  0  0  0  0
  1 21  1  0  0  0  0
  1 22  1  0  0  0  0
  2  3  1  0  0  0  0
  2  4  1  0  0  0  0
  2 14  1  0  0  0  0
  3 23  1  0  0  0  0
  3 24  1  0  0  0  0
  3 25  1  0  0  0  0
  4  5  1  0  0  0  0
  4 26  1  0  0  0  0
  4 27  1  0  0  0  0
  5  6  1  0  0  0  0
  5 28  1  0  0  0  0
  6  7  2  0  0  0  0
  6  8  1  0  0  0  0
  8  9  1  0  0  0  0
  9 13  1  0  0  0  0
  9 10  2  0  0  0  0
 10 11  1  0  0  0  0
 11 12  2  0  0  0  0
 11 29  1  0  0  0  0
 12 13  1  0  0  0  0
 12 30  1  0  0  0  0
 14 19  1  0  0  0  0
 14 15  1  0  0  0  0
 15 16  1  0  0  0  0
 15 31  1  0  0  0  0
 15 32  1  0  0  0  0
 16 17  1  0  0  0  0
 16 33  1  0  0  0  0
 16 34  1  0  0  0  0
 17 18  1  0  0  0  0
 18 19  1  0  0  0  0
 18 35  1  0  0  0  0
 18 36  1  0  0  0  0
 19 37  1  0  0  0  0
 19 38  1  0  0  0  0
M  CHG  1   8  -1
M  END
> <s_m_source_file>
AV-unprocessed.smi

> <i_m_source_file_index>
2066

> <i_lp_mmshare_version>
43012

> <i_f3d_flags>
0

> <s_epik_input>
W0NIMl0xW0NIMl1PW0NIMl1bQ0gyXU4xQyhbQ0gzXSkoW0NIM10pW0NIMl1bTkhdQyg9TylbTkhdYzJuW2NIXVtjSF1zMg==

> <s_epik_cmdline>
J2VwaWtfcHl0aG9uJywgJy1waCcsICc3LjAnLCAnLXRuJywgJzgnLCAnLW1hJywgJzIwMCcsICctbWV0YWxfYmluZGluZycsICctaW1hZScsICc8aW5maWxlLm1hZT4nLCAnLW9tYWUnLCAnPG91dGZpbGUubWFlPic=

> <r_lp_tautomer_probability>
0.999

> <r_epik_Ionization_Penalty>
7.22375

> <r_epik_Ionization_Penalty_Charging>
5.82415

> <r_epik_Ionization_Penalty_Neutral>
1.39959

> <r_epik_State_Penalty>
6.03347

> <r_epik_Charging_Adjusted_Penalty>
11.8576

> <i_epik_Tot_Q>
-1

> <i_epik_Tot_abs_Q>
1

> <r_epik_Metal_State_Penalty>
2.0104

> <b_epik_Metal_Only>
1

> <s_lp_Force_Field>
OPLS_2005

> <r_lp_Energy>
36.7798

> <b_lp_Chiralities_Consistent>
1

> <s_lp_Variant>
AV-unprocessed.smi:2066-3

> <Gold.Version>
5.8.1

> <Gold.Id.Protein>
6NUR|6NUR_protein|mol2

> <Gold.PLP.Fitness>
34.3938

> <Gold.PLP.PLP>
-27.5672

> <Gold.PLP.part.hbond>
-2.0000

> <Gold.PLP.part.metal>
0.0000

> <Gold.PLP.part.buried>
-4.7505

> <Gold.PLP.part.nonpolar>
-21.1438

> <Gold.PLP.part.repulsive>
0.8409

> <Gold.PLP.ligand.clash>
0.0000

> <Gold.PLP.ligand.torsion>
0.9101

> <Gold.PLP.Chemscore.Hbond>
2.0000

> <Gold.PLP.Chemscore.CHOScore>
0.8608

> <Gold.PLP.Chemscore.Metal>
0.0000

> <Gold.Chemscore.Hbonds>
donor molecule, donor type, donor heavy atom, donor atom, acceptor molecule, acceptor atom, score
      L1  H     5    28       P1  7948  1.00
      P1  H  7989  7998       L1    17  0.80
      L1  C    11    29       P1  7921  0.67

> <Gold.PLP.Chemscore.Internal.Correction>
0.0644

> <Gold.Rescore>
     Score         DG    S(hbond)    S(metal)    S(lipo)     H(rot)  DE(clash)    DE(int)     intcor
     13.18     -14.24       1.53        0.00      65.14       1.55       0.07       0.99       ----

> <Gold.Chemscore.Fitness>
13.1755

> <Gold.Chemscore.DG>
-14.2364

> <Gold.Chemscore.ZeroCoef>
-5.4800

> <Gold.Chemscore.Hbond>
1.5274

> <Gold.Chemscore.Metal>
0.0000

> <Gold.Chemscore.Lipo>
65.1405

> <Gold.Chemscore.Internal_Hbond>
0.0000

> <Gold.Chemscore.DEClash>
0.0712

> <Gold.Chemscore.DEInternal>
0.9897

> <Gold.Chemscore.Rot>
1.5495

> <Gold.Chemscore.Internal.Correction>
   9.000000E+99

> <Gold.Chemscore.Hbonds>
donor molecule, donor type, donor heavy atom, donor atom, acceptor molecule, acceptor atom, score
      L1  H     5    28       P1  7948  0.73
      P1  H  7989  7998       L1    17  0.10

> <Gold.Chemscore.Hbond.Weighted>
-5.1016

> <Gold.Chemscore.Metal.Weighted>
-0.0000

> <Gold.Chemscore.Lipo.Weighted>
-7.6214

> <Gold.Chemscore.Internal_Hbond.Weighted>
0.0000

> <Gold.Chemscore.DEClash.Weighted>
0.0712

> <Gold.Chemscore.DEInternal.Weighted>
0.9897

> <Gold.Chemscore.Rot.Weighted>
3.9666

> <Gold.Chemscore.Internal.Correction.Weighted>
   9.000000E+99

> <Gold.Protein.RotatedTorsions>
[ 6907 6896 6895 6894 ] final -108.71 input  -60.11 | X-H torsion
[ 7974 7965 7964 7962 ] final -141.19 input  175.53 | X-H torsion
[ 8008 7997 7996 7995 ] final  -62.17 input   59.86 | X-H torsion
[ 10167 10162 10161 10158 ] final -136.70 input  -65.29 | X-H torsion
[ 10718 10713 10712 10709 ] final   54.68 input   66.30 | X-H torsion
[ 10763 10752 10751 10750 ] final  -56.89 input  -60.55 | X-H torsion
[ 11005 11000 10999 10996 ] final  -15.56 input  -57.11 | X-H torsion

> <Gold.Protein.ActiveResidues>
 VAL166  LYS551  ARG553  GLY616  TRP617  ASP618  TYR619  PRO620  LYS621  CYS622 
 ASP623  PHE694  ASN695  SER759  ASP760  ASP761  ALA762  ILE779  LEU786  VAL792 
 PHE793  MET794  SER795  GLU796  ALA797  LYS798  CYS799  TRP800  GLU811  SER814 

> <Gold.Protein.RotatedAtoms>
  150.7518  133.9638  159.3523 H   0  0  0  0  0  0  0  0  0  0  0  0  # atno 6907 bound_to 6896
  151.7566  135.0818  160.0348 H   0  0  0  0  0  0  0  0  0  0  0  0  # atno 6908 bound_to 6896
  152.3431  133.6053  159.5927 H   0  0  0  0  0  0  0  0  0  0  0  0  # atno 6909 bound_to 6896
  144.8538  140.6109  143.5372 H   0  0  0  0  0  0  0  0  0  0  0  0  # atno 7974 bound_to 7965
  154.4486  140.1002  156.6546 H   0  0  0  0  0  0  0  0  0  0  0  0  # atno 8008 bound_to 7997
  155.5360  140.3482  155.4418 H   0  0  0  0  0  0  0  0  0  0  0  0  # atno 8009 bound_to 7997
  156.0631  140.1331  156.9907 H   0  0  0  0  0  0  0  0  0  0  0  0  # atno 8010 bound_to 7997
  139.8651  143.7028  152.2646 H   0  0  0  0  0  0  0  0  0  0  0  0  # atno 10167 bound_to 10162
  157.5278  130.8609  149.8646 H   0  0  0  0  0  0  0  0  0  0  0  0  # atno 10718 bound_to 10713
  154.2138  135.6390  153.5123 H   0  0  0  0  0  0  0  0  0  0  0  0  # atno 10763 bound_to 10752
  152.9984  135.5480  154.6186 H   0  0  0  0  0  0  0  0  0  0  0  0  # atno 10764 bound_to 10752
  154.5630  135.2910  155.0875 H   0  0  0  0  0  0  0  0  0  0  0  0  # atno 10765 bound_to 10752
  140.7979  133.8237  155.9441 H   0  0  0  0  0  0  0  0  0  0  0  0  # atno 11005 bound_to 11000
  145.4446  139.1531  143.3951 LP  0  0  0  0  0  0  0  0  0  0  0  0  # atno 17320 bound_to 7965
  146.2807  140.4569  142.8777 LP  0  0  0  0  0  0  0  0  0  0  0  0  # atno 17321 bound_to 7965
  139.7337  144.7576  151.0762 LP  0  0  0  0  0  0  0  0  0  0  0  0  # atno 17342 bound_to 10162
  140.7769  143.5057  150.9715 LP  0  0  0  0  0  0  0  0  0  0  0  0  # atno 17343 bound_to 10162
  156.0400  130.3741  150.1460 LP  0  0  0  0  0  0  0  0  0  0  0  0  # atno 17370 bound_to 10713
  156.9646  130.9815  151.3472 LP  0  0  0  0  0  0  0  0  0  0  0  0  # atno 17371 bound_to 10713
  140.9324  134.2004  157.4854 LP  0  0  0  0  0  0  0  0  0  0  0  0  # atno 17394 bound_to 11000
  139.8724  134.9838  156.5214 LP  0  0  0  0  0  0  0  0  0  0  0  0  # atno 17395 bound_to 11000

$$$$
