AV-unprocessed.smi:707|AV-procd|sdf|3454|dock9
  -GOLD-   22720 0443D 1   1.00000     0.00000
 Structure written by MMmdl.
 44 45  0  0  0  0  0  0  0  0  1 V2000
  145.8722  144.6812  152.1655 C   0  0  0  0  0  0  0  0  0  0  0  0
  145.7837  143.9518  153.4667 C   0  0  0  0  0  0  0  0  0  0  0  0
  144.8594  144.2062  154.4003 N   0  0  0  0  0  0  0  0  0  0  0  0
  145.1224  143.3263  155.4321 N   0  0  0  0  0  0  0  0  0  0  0  0
  146.1798  142.6295  155.0172 C   0  0  0  0  0  0  0  0  0  0  0  0
  146.6418  142.9678  153.8039 N   0  0  0  0  0  0  0  0  0  0  0  0
  147.7620  142.4045  153.0733 C   0  0  0  0  0  0  0  0  0  0  0  0
  148.5968  141.4684  153.9574 C   0  0  0  0  0  0  0  0  0  0  0  0
  149.3891  142.2336  154.9090 N   0  0  0  0  0  0  0  0  0  0  0  0
  150.5708  141.8365  155.4026 C   0  0  0  0  0  0  0  0  0  0  0  0
  151.1106  140.7749  155.0927 O   0  0  0  0  0  0  0  0  0  0  0  0
  151.2577  142.7863  156.3820 C   0  0  0  0  0  0  0  0  0  0  0  0
  151.4203  142.1248  157.6297 O   0  0  0  0  0  0  0  0  0  0  0  0
  152.0606  142.9055  158.6312 C   0  0  1  0  0  0  0  0  0  0  0  0
  151.1063  144.0552  158.9962 C   0  0  0  0  0  0  0  0  0  0  0  0
  151.6801  144.9198  160.1287 C   0  0  0  0  0  0  0  0  0  0  0  0
  152.0024  144.0688  161.3670 C   0  0  0  0  0  0  0  0  0  0  0  0
  152.9572  142.9094  161.0230 C   0  0  1  0  0  0  0  0  0  0  0  0
  153.2704  142.0552  162.2600 C   0  0  0  0  0  0  0  0  0  0  0  0
  152.3800  142.0532  159.8782 C   0  0  0  0  0  0  0  0  0  0  0  0
  145.0253  145.3581  152.0496 H   0  0  0  0  0  0  0  0  0  0  0  0
  145.8650  143.9765  151.3342 H   0  0  0  0  0  0  0  0  0  0  0  0
  146.7912  145.2658  152.1248 H   0  0  0  0  0  0  0  0  0  0  0  0
  146.6289  141.8499  155.6148 H   0  0  0  0  0  0  0  0  0  0  0  0
  147.3819  141.8738  152.1998 H   0  0  0  0  0  0  0  0  0  0  0  0
  148.3783  143.2240  152.7007 H   0  0  0  0  0  0  0  0  0  0  0  0
  147.9453  140.7840  154.5031 H   0  0  0  0  0  0  0  0  0  0  0  0
  149.2580  140.8591  153.3391 H   0  0  0  0  0  0  0  0  0  0  0  0
  149.0161  143.1194  155.2181 H   0  0  0  0  0  0  0  0  0  0  0  0
  152.2190  143.0945  155.9706 H   0  0  0  0  0  0  0  0  0  0  0  0
  150.6423  143.6793  156.4997 H   0  0  0  0  0  0  0  0  0  0  0  0
  152.9804  143.3372  158.2319 H   0  0  0  0  0  0  0  0  0  0  0  0
  150.9163  144.6740  158.1188 H   0  0  0  0  0  0  0  0  0  0  0  0
  150.1411  143.6492  159.3028 H   0  0  0  0  0  0  0  0  0  0  0  0
  152.5845  145.4221  159.7835 H   0  0  0  0  0  0  0  0  0  0  0  0
  150.9715  145.7053  160.3926 H   0  0  0  0  0  0  0  0  0  0  0  0
  152.4442  144.7004  162.1386 H   0  0  0  0  0  0  0  0  0  0  0  0
  151.0760  143.6728  161.7855 H   0  0  0  0  0  0  0  0  0  0  0  0
  153.8974  143.3409  160.6762 H   0  0  0  0  0  0  0  0  0  0  0  0
  152.3679  141.5947  162.6632 H   0  0  0  0  0  0  0  0  0  0  0  0
  153.7184  142.6579  163.0505 H   0  0  0  0  0  0  0  0  0  0  0  0
  153.9721  141.2565  162.0181 H   0  0  0  0  0  0  0  0  0  0  0  0
  151.4726  141.5512  160.2168 H   0  0  0  0  0  0  0  0  0  0  0  0
  153.0910  141.2664  159.6273 H   0  0  0  0  0  0  0  0  0  0  0  0
  1  2  1  0  0  0  0
  1 21  1  0  0  0  0
  1 22  1  0  0  0  0
  1 23  1  0  0  0  0
  2  6  1  0  0  0  0
  2  3  2  0  0  0  0
  3  4  1  0  0  0  0
  4  5  2  0  0  0  0
  5  6  1  0  0  0  0
  5 24  1  0  0  0  0
  6  7  1  0  0  0  0
  7  8  1  0  0  0  0
  7 25  1  0  0  0  0
  7 26  1  0  0  0  0
  8  9  1  0  0  0  0
  8 27  1  0  0  0  0
  8 28  1  0  0  0  0
  9 10  1  0  0  0  0
  9 29  1  0  0  0  0
 10 11  2  0  0  0  0
 10 12  1  0  0  0  0
 12 13  1  0  0  0  0
 12 30  1  0  0  0  0
 12 31  1  0  0  0  0
 13 14  1  0  0  0  0
 14 20  1  0  0  0  0
 14 15  1  0  0  0  0
 14 32  1  0  0  0  0
 15 16  1  0  0  0  0
 15 33  1  0  0  0  0
 15 34  1  0  0  0  0
 16 17  1  0  0  0  0
 16 35  1  0  0  0  0
 16 36  1  0  0  0  0
 17 18  1  0  0  0  0
 17 37  1  0  0  0  0
 17 38  1  0  0  0  0
 18 19  1  0  0  0  0
 18 20  1  0  0  0  0
 18 39  1  0  0  0  0
 19 40  1  0  0  0  0
 19 41  1  0  0  0  0
 19 42  1  0  0  0  0
 20 43  1  0  0  0  0
 20 44  1  0  0  0  0
M  END
> <s_m_source_file>
AV-unprocessed.smi

> <i_m_source_file_index>
707

> <i_lp_mmshare_version>
43012

> <i_f3d_flags>
0

> <s_epik_input>
W0NIM11jMW5uW2NIXW4xW0NIMl1bQ0gyXVtOSF1DKD1PKVtDSDJdT1tDQEBIXTJbQ0gyXVtDSDJdW0NIMl1bQ0BASF0oW0NIM10pW0NIMl0y

> <s_epik_cmdline>
J2VwaWtfcHl0aG9uJywgJy1waCcsICc3LjAnLCAnLXRuJywgJzgnLCAnLW1hJywgJzIwMCcsICctbWV0YWxfYmluZGluZycsICctaW1hZScsICc8aW5maWxlLm1hZT4nLCAnLW9tYWUnLCAnPG91dGZpbGUubWFlPic=

> <r_lp_tautomer_probability>
1

> <r_epik_Ionization_Penalty>
0.000271783

> <r_epik_Ionization_Penalty_Charging>
0

> <r_epik_Ionization_Penalty_Neutral>
0.000271783

> <r_epik_State_Penalty>
-0

> <r_epik_Charging_Adjusted_Penalty>
0

> <i_epik_Tot_Q>
0

> <i_epik_Tot_abs_Q>
0

> <r_epik_Metal_State_Penalty>
-0

> <b_epik_Metal_Only>
0

> <s_lp_Force_Field>
OPLS_2005

> <r_lp_Energy>
13.3019

> <b_lp_Chiralities_Consistent>
1

> <s_lp_Variant>
AV-unprocessed.smi:707-2

> <Gold.Version>
5.8.1

> <Gold.Id.Protein>
6NUR|6NUR_protein|mol2

> <Gold.PLP.Fitness>
54.5453

> <Gold.PLP.PLP>
-49.4072

> <Gold.PLP.part.hbond>
-2.0000

> <Gold.PLP.part.metal>
0.0000

> <Gold.PLP.part.buried>
-7.2063

> <Gold.PLP.part.nonpolar>
-39.4277

> <Gold.PLP.part.repulsive>
0.5457

> <Gold.PLP.ligand.clash>
0.0000

> <Gold.PLP.ligand.torsion>
0.3591

> <Gold.PLP.Chemscore.Hbond>
1.9280

> <Gold.PLP.Chemscore.CHOScore>
0.0000

> <Gold.PLP.Chemscore.Metal>
0.0000

> <Gold.Chemscore.Hbonds>
donor molecule, donor type, donor heavy atom, donor atom, acceptor molecule, acceptor atom, score
      L1  H     9    29       P1  8028  1.00
      P1  H  7989  7998       L1    11  0.82

> <Gold.PLP.Chemscore.Internal.Correction>
0.0722

> <Gold.Rescore>
     Score         DG    S(hbond)    S(metal)    S(lipo)     H(rot)  DE(clash)    DE(int)     intcor
     15.82     -16.22       1.37        0.00     105.68       2.42       0.15       0.25       ----

> <Gold.Chemscore.Fitness>
15.8194

> <Gold.Chemscore.DG>
-16.2216

> <Gold.Chemscore.ZeroCoef>
-5.4800

> <Gold.Chemscore.Hbond>
1.3684

> <Gold.Chemscore.Metal>
0.0000

> <Gold.Chemscore.Lipo>
105.6753

> <Gold.Chemscore.Internal_Hbond>
0.0000

> <Gold.Chemscore.DEClash>
0.1490

> <Gold.Chemscore.DEInternal>
0.2531

> <Gold.Chemscore.Rot>
2.4191

> <Gold.Chemscore.Internal.Correction>
   9.000000E+99

> <Gold.Chemscore.Hbonds>
donor molecule, donor type, donor heavy atom, donor atom, acceptor molecule, acceptor atom, score
      L1  H     9    29       P1  8028  1.00
      P1  H  7989  7998       L1    11  0.53

> <Gold.Chemscore.Hbond.Weighted>
-4.5705

> <Gold.Chemscore.Metal.Weighted>
-0.0000

> <Gold.Chemscore.Lipo.Weighted>
-12.3640

> <Gold.Chemscore.Internal_Hbond.Weighted>
0.0000

> <Gold.Chemscore.DEClash.Weighted>
0.1490

> <Gold.Chemscore.DEInternal.Weighted>
0.2531

> <Gold.Chemscore.Rot.Weighted>
6.1929

> <Gold.Chemscore.Internal.Correction.Weighted>
   9.000000E+99

> <Gold.Protein.RotatedTorsions>
[ 6907 6896 6895 6894 ] final  135.57 input  -60.11 | X-H torsion
[ 7974 7965 7964 7962 ] final  134.27 input  175.53 | X-H torsion
[ 8008 7997 7996 7995 ] final   -9.88 input   59.86 | X-H torsion
[ 10167 10162 10161 10158 ] final  -52.09 input  -65.29 | X-H torsion
[ 10718 10713 10712 10709 ] final  157.57 input   66.30 | X-H torsion
[ 10763 10752 10751 10750 ] final -123.53 input  -60.55 | X-H torsion
[ 11005 11000 10999 10996 ] final  154.93 input  -57.11 | X-H torsion

> <Gold.Protein.ActiveResidues>
 VAL166  LYS551  ARG553  GLY616  TRP617  ASP618  TYR619  PRO620  LYS621  CYS622 
 ASP623  PHE694  ASN695  SER759  ASP760  ASP761  ALA762  ILE779  LEU786  VAL792 
 PHE793  MET794  SER795  GLU796  ALA797  LYS798  CYS799  TRP800  GLU811  SER814 

> <Gold.Protein.RotatedAtoms>
  152.2990  133.5636  159.5605 H   0  0  0  0  0  0  0  0  0  0  0  0  # atno 6907 bound_to 6896
  150.7269  134.0319  159.3745 H   0  0  0  0  0  0  0  0  0  0  0  0  # atno 6908 bound_to 6896
  151.8220  135.0649  160.0477 H   0  0  0  0  0  0  0  0  0  0  0  0  # atno 6909 bound_to 6896
  144.9781  139.4534  143.5400 H   0  0  0  0  0  0  0  0  0  0  0  0  # atno 7974 bound_to 7965
  154.5605  140.2343  155.8342 H   0  0  0  0  0  0  0  0  0  0  0  0  # atno 8008 bound_to 7997
  156.2025  140.3048  155.9517 H   0  0  0  0  0  0  0  0  0  0  0  0  # atno 8009 bound_to 7997
  155.2897  140.0426  157.3012 H   0  0  0  0  0  0  0  0  0  0  0  0  # atno 8010 bound_to 7997
  140.6555  143.2596  151.4598 H   0  0  0  0  0  0  0  0  0  0  0  0  # atno 10167 bound_to 10162
  157.1897  131.0651  151.2086 H   0  0  0  0  0  0  0  0  0  0  0  0  # atno 10718 bound_to 10713
  154.8709  135.4095  154.2959 H   0  0  0  0  0  0  0  0  0  0  0  0  # atno 10763 bound_to 10752
  153.3827  135.7012  153.6559 H   0  0  0  0  0  0  0  0  0  0  0  0  # atno 10764 bound_to 10752
  153.5375  135.3655  155.2675 H   0  0  0  0  0  0  0  0  0  0  0  0  # atno 10765 bound_to 10752
  140.1535  134.8659  157.2484 H   0  0  0  0  0  0  0  0  0  0  0  0  # atno 11005 bound_to 11000
  146.3401  139.9036  142.8791 LP  0  0  0  0  0  0  0  0  0  0  0  0  # atno 17320 bound_to 7965
  145.2461  141.0027  143.3908 LP  0  0  0  0  0  0  0  0  0  0  0  0  # atno 17321 bound_to 7965
  139.5777  144.1781  152.1926 LP  0  0  0  0  0  0  0  0  0  0  0  0  # atno 17342 bound_to 10162
  140.1097  144.5468  150.6933 LP  0  0  0  0  0  0  0  0  0  0  0  0  # atno 17343 bound_to 10162
  157.3872  130.7263  149.6672 LP  0  0  0  0  0  0  0  0  0  0  0  0  # atno 17370 bound_to 10713
  155.9713  130.4156  150.4190 LP  0  0  0  0  0  0  0  0  0  0  0  0  # atno 17371 bound_to 10713
  140.2576  134.3609  155.7418 LP  0  0  0  0  0  0  0  0  0  0  0  0  # atno 17394 bound_to 11000
  141.2201  133.7351  156.9031 LP  0  0  0  0  0  0  0  0  0  0  0  0  # atno 17395 bound_to 11000

$$$$
