AV-unprocessed.smi:594|AV-procd|sdf|3017|dock2
  -GOLD-   2262023523D 1   1.00000     0.00000
 Structure written by MMmdl.
 40 41  0  0  0  0  0  0  0  0  3 V2000
  152.5652  141.1034  159.1825 C   0  0  0  0  0  0  0  0  0  0  0  0
  152.0197  142.5037  159.5183 C   0  0  1  0  0  0  0  0  0  0  0  0
  152.4151  142.9055  160.9540 C   0  0  0  0  0  0  0  0  0  0  0  0
  151.8762  144.2938  161.3309 C   0  0  0  0  0  0  0  0  0  0  0  0
  152.3496  145.3566  160.3306 C   0  0  0  0  0  0  0  0  0  0  0  0
  151.9455  144.9796  158.8980 C   0  0  0  0  0  0  0  0  0  0  0  0
  152.4743  143.5861  158.5043 C   0  0  2  0  0  0  0  0  0  0  0  0
  152.0032  143.2676  157.1573 N   0  0  0  0  0  0  0  0  0  0  0  0
  150.7920  142.7848  156.8392 C   0  0  0  0  0  0  0  0  0  0  0  0
  149.9258  142.5176  157.6731 O   0  0  0  0  0  0  0  0  0  0  0  0
  150.5281  142.5650  155.3436 C   0  0  0  0  0  0  0  0  0  0  0  0
  150.4042  141.1412  154.9888 N   0  0  0  0  0  0  0  0  0  0  0  0
  151.3793  140.2632  155.5026 C   0  0  0  0  0  0  0  0  0  0  0  0
  151.3584  138.9406  155.2457 C   0  0  0  0  0  0  0  0  0  0  0  0
  152.3655  138.0533  155.7846 N   0  3  0  0  0  0  0  0  0  0  0  0
  153.2230  138.5191  156.5281 O   0  0  0  0  0  0  0  0  0  0  0  0
  152.3329  136.8634  155.4849 O   0  5  0  0  0  0  0  0  0  0  0  0
  150.2869  138.4327  154.4109 C   0  0  0  0  0  0  0  0  0  0  0  0
  149.3495  139.2666  153.9188 C   0  0  0  0  0  0  0  0  0  0  0  0
  149.3732  140.7056  154.2013 C   0  0  0  0  0  0  0  0  0  0  0  0
  148.5183  141.4723  153.7569 O   0  0  0  0  0  0  0  0  0  0  0  0
  153.6549  141.1032  159.1424 H   0  0  0  0  0  0  0  0  0  0  0  0
  152.1967  140.7464  158.2208 H   0  0  0  0  0  0  0  0  0  0  0  0
  152.2603  140.3736  159.9329 H   0  0  0  0  0  0  0  0  0  0  0  0
  150.9306  142.4445  159.4835 H   0  0  0  0  0  0  0  0  0  0  0  0
  152.0404  142.1674  161.6641 H   0  0  0  0  0  0  0  0  0  0  0  0
  153.5018  142.9003  161.0504 H   0  0  0  0  0  0  0  0  0  0  0  0
  150.7858  144.2707  161.3539 H   0  0  0  0  0  0  0  0  0  0  0  0
  152.2017  144.5589  162.3371 H   0  0  0  0  0  0  0  0  0  0  0  0
  151.9298  146.3280  160.5930 H   0  0  0  0  0  0  0  0  0  0  0  0
  153.4337  145.4605  160.3906 H   0  0  0  0  0  0  0  0  0  0  0  0
  150.8578  145.0002  158.8143 H   0  0  0  0  0  0  0  0  0  0  0  0
  152.3225  145.7314  158.2034 H   0  0  0  0  0  0  0  0  0  0  0  0
  153.5650  143.6324  158.5181 H   0  0  0  0  0  0  0  0  0  0  0  0
  152.6474  143.4503  156.4014 H   0  0  0  0  0  0  0  0  0  0  0  0
  149.6253  143.1019  155.0453 H   0  0  0  0  0  0  0  0  0  0  0  0
  151.3376  143.0355  154.7839 H   0  0  0  0  0  0  0  0  0  0  0  0
  152.1297  140.7373  156.1187 H   0  0  0  0  0  0  0  0  0  0  0  0
  150.2279  137.3805  154.1746 H   0  0  0  0  0  0  0  0  0  0  0  0
  148.5596  138.8669  153.3000 H   0  0  0  0  0  0  0  0  0  0  0  0
  1  2  1  0  0  0  0
  1 22  1  0  0  0  0
  1 23  1  0  0  0  0
  1 24  1  0  0  0  0
  2  7  1  0  0  0  0
  2  3  1  0  0  0  0
  2 25  1  0  0  0  0
  3  4  1  0  0  0  0
  3 26  1  0  0  0  0
  3 27  1  0  0  0  0
  4  5  1  0  0  0  0
  4 28  1  0  0  0  0
  4 29  1  0  0  0  0
  5  6  1  0  0  0  0
  5 30  1  0  0  0  0
  5 31  1  0  0  0  0
  6  7  1  0  0  0  0
  6 32  1  0  0  0  0
  6 33  1  0  0  0  0
  7  8  1  0  0  0  0
  7 34  1  0  0  0  0
  8  9  1  0  0  0  0
  8 35  1  0  0  0  0
  9 10  2  0  0  0  0
  9 11  1  0  0  0  0
 11 12  1  0  0  0  0
 11 36  1  0  0  0  0
 11 37  1  0  0  0  0
 12 20  1  0  0  0  0
 12 13  1  0  0  0  0
 13 14  2  0  0  0  0
 13 38  1  0  0  0  0
 14 15  1  0  0  0  0
 14 18  1  0  0  0  0
 15 16  2  0  0  0  0
 15 17  1  0  0  0  0
 18 19  2  0  0  0  0
 18 39  1  0  0  0  0
 19 20  1  0  0  0  0
 19 40  1  0  0  0  0
 20 21  2  0  0  0  0
M  CHG  1  15   1
M  CHG  1  17  -1
M  END
> <s_m_source_file>
AV-unprocessed.smi

> <i_m_source_file_index>
594

> <i_lp_mmshare_version>
43012

> <i_f3d_flags>
0

> <s_epik_input>
W0NIM11bQ0BASF0xW0NIMl1bQ0gyXVtDSDJdW0NIMl1bQ0BIXTFbTkhdQyg9TylbQ0gyXW4yW2NIXWMoW04rXSg9TylbTy1dKVtjSF1bY0hdYzI9Tw==

> <s_epik_cmdline>
J2VwaWtfcHl0aG9uJywgJy1waCcsICc3LjAnLCAnLXRuJywgJzgnLCAnLW1hJywgJzIwMCcsICctbWV0YWxfYmluZGluZycsICctaW1hZScsICc8aW5maWxlLm1hZT4nLCAnLW9tYWUnLCAnPG91dGZpbGUubWFlPic=

> <r_lp_tautomer_probability>
1

> <r_epik_Ionization_Penalty>
1.91305e-08

> <r_epik_Ionization_Penalty_Charging>
8.35811e-11

> <r_epik_Ionization_Penalty_Neutral>
1.90469e-08

> <r_epik_State_Penalty>
-0

> <r_epik_Charging_Adjusted_Penalty>
8.35811e-11

> <i_epik_Tot_Q>
0

> <i_epik_Tot_abs_Q>
2

> <r_epik_Metal_State_Penalty>
-0

> <b_epik_Metal_Only>
0

> <s_lp_Force_Field>
OPLS_2005

> <r_lp_Energy>
21.4369

> <b_lp_Chiralities_Consistent>
1

> <s_lp_Variant>
AV-unprocessed.smi:594-4

> <Gold.Version>
5.8.1

> <Gold.Id.Protein>
6NUR|6NUR_protein|mol2

> <Gold.PLP.Fitness>
47.8336

> <Gold.PLP.PLP>
-44.2156

> <Gold.PLP.part.hbond>
-2.1292

> <Gold.PLP.part.metal>
0.0000

> <Gold.PLP.part.buried>
3.5989

> <Gold.PLP.part.nonpolar>
-45.7049

> <Gold.PLP.part.repulsive>
0.3382

> <Gold.PLP.ligand.clash>
0.0000

> <Gold.PLP.ligand.torsion>
0.4940

> <Gold.PLP.Chemscore.Hbond>
1.5280

> <Gold.PLP.Chemscore.CHOScore>
0.0000

> <Gold.PLP.Chemscore.Metal>
0.0000

> <Gold.Chemscore.Hbonds>
donor molecule, donor type, donor heavy atom, donor atom, acceptor molecule, acceptor atom, score
      P1  H  7997  8010       L1    16  0.52
      P1  H  8011  8017       L1    21  0.43
      P1  H 10752 10763       L1    17  0.56

> <Gold.PLP.Chemscore.Internal.Correction>
0.0220

> <Gold.Rescore>
     Score         DG    S(hbond)    S(metal)    S(lipo)     H(rot)  DE(clash)    DE(int)     intcor
     15.56     -19.69       1.59        0.00     109.86       1.55       2.18       1.95       ----

> <Gold.Chemscore.Fitness>
15.5584

> <Gold.Chemscore.DG>
-19.6874

> <Gold.Chemscore.ZeroCoef>
-5.4800

> <Gold.Chemscore.Hbond>
1.5935

> <Gold.Chemscore.Metal>
0.0000

> <Gold.Chemscore.Lipo>
109.8648

> <Gold.Chemscore.Internal_Hbond>
0.0000

> <Gold.Chemscore.DEClash>
2.1828

> <Gold.Chemscore.DEInternal>
1.9462

> <Gold.Chemscore.Rot>
1.5505

> <Gold.Chemscore.Internal.Correction>
   9.000000E+99

> <Gold.Chemscore.Hbonds>
donor molecule, donor type, donor heavy atom, donor atom, acceptor molecule, acceptor atom, score
      P1  H  7997  8010       L1    16  0.52
      P1  H  8011  8017       L1    21  0.06
      P1  H 10752 10763       L1    17  0.56

> <Gold.Chemscore.Hbond.Weighted>
-5.3224

> <Gold.Chemscore.Metal.Weighted>
-0.0000

> <Gold.Chemscore.Lipo.Weighted>
-12.8542

> <Gold.Chemscore.Internal_Hbond.Weighted>
0.0000

> <Gold.Chemscore.DEClash.Weighted>
2.1828

> <Gold.Chemscore.DEInternal.Weighted>
1.9462

> <Gold.Chemscore.Rot.Weighted>
3.9692

> <Gold.Chemscore.Internal.Correction.Weighted>
   9.000000E+99

> <Gold.Protein.RotatedTorsions>
[ 6907 6896 6895 6894 ] final  102.83 input  -60.11 | X-H torsion
[ 7974 7965 7964 7962 ] final -153.16 input  175.53 | X-H torsion
[ 8008 7997 7996 7995 ] final   97.98 input   59.86 | X-H torsion
[ 10167 10162 10161 10158 ] final  -71.17 input  -65.29 | X-H torsion
[ 10718 10713 10712 10709 ] final    7.84 input   66.30 | X-H torsion
[ 10763 10752 10751 10750 ] final   45.14 input  -60.55 | X-H torsion
[ 11005 11000 10999 10996 ] final  109.96 input  -57.11 | X-H torsion

> <Gold.Protein.ActiveResidues>
 VAL166  LYS551  ARG553  GLY616  TRP617  ASP618  TYR619  PRO620  LYS621  CYS622 
 ASP623  PHE694  ASN695  SER759  ASP760  ASP761  ALA762  ILE779  LEU786  VAL792 
 PHE793  MET794  SER795  GLU796  ALA797  LYS798  CYS799  TRP800  GLU811  SER814 

> <Gold.Protein.RotatedAtoms>
  152.5313  133.9916  159.7853 H   0  0  0  0  0  0  0  0  0  0  0  0  # atno 6907 bound_to 6896
  151.0151  133.5921  159.2685 H   0  0  0  0  0  0  0  0  0  0  0  0  # atno 6908 bound_to 6896
  151.2981  135.0767  159.9282 H   0  0  0  0  0  0  0  0  0  0  0  0  # atno 6909 bound_to 6896
  144.7755  140.4563  143.5876 H   0  0  0  0  0  0  0  0  0  0  0  0  # atno 7974 bound_to 7965
  156.0958  140.3250  155.7875 H   0  0  0  0  0  0  0  0  0  0  0  0  # atno 8008 bound_to 7997
  155.4921  140.0562  157.2969 H   0  0  0  0  0  0  0  0  0  0  0  0  # atno 8009 bound_to 7997
  154.4665  140.1991  156.0120 H   0  0  0  0  0  0  0  0  0  0  0  0  # atno 8010 bound_to 7997
  140.5294  143.2323  151.7289 H   0  0  0  0  0  0  0  0  0  0  0  0  # atno 10167 bound_to 10162
  156.9429  130.5868  149.5653 H   0  0  0  0  0  0  0  0  0  0  0  0  # atno 10718 bound_to 10713
  152.9829  135.6049  154.3389 H   0  0  0  0  0  0  0  0  0  0  0  0  # atno 10763 bound_to 10752
  154.3087  135.2771  155.2578 H   0  0  0  0  0  0  0  0  0  0  0  0  # atno 10764 bound_to 10752
  154.4797  135.5920  153.6437 H   0  0  0  0  0  0  0  0  0  0  0  0  # atno 10765 bound_to 10752
  139.8872  134.9472  156.6206 H   0  0  0  0  0  0  0  0  0  0  0  0  # atno 11005 bound_to 11000
  145.6198  139.1523  143.3029 LP  0  0  0  0  0  0  0  0  0  0  0  0  # atno 17320 bound_to 7965
  146.1932  140.6309  142.9136 LP  0  0  0  0  0  0  0  0  0  0  0  0  # atno 17321 bound_to 7965
  139.4949  144.4137  152.0053 LP  0  0  0  0  0  0  0  0  0  0  0  0  # atno 17342 bound_to 10162
  140.3238  144.3396  150.6003 LP  0  0  0  0  0  0  0  0  0  0  0  0  # atno 17343 bound_to 10162
  156.0396  130.5480  150.8739 LP  0  0  0  0  0  0  0  0  0  0  0  0  # atno 17370 bound_to 10713
  157.5773  131.0946  150.9326 LP  0  0  0  0  0  0  0  0  0  0  0  0  # atno 17371 bound_to 10713
  140.7742  133.8713  155.8516 LP  0  0  0  0  0  0  0  0  0  0  0  0  # atno 17394 bound_to 11000
  140.9816  134.1398  157.4489 LP  0  0  0  0  0  0  0  0  0  0  0  0  # atno 17395 bound_to 11000

$$$$
