AV-unprocessed.smi:1072|AV-procd|sdf|4684|dock6
  -GOLD-   22720 3203D 1   1.00000     0.00000
 Structure written by MMmdl.
 46 47  0  0  0  0  0  0  0  0  1 V2000
  150.4379  142.6362  157.4282 C   0  0  0  0  0  0  0  0  0  0  0  0
  150.5100  141.4939  156.4369 C   0  0  0  0  0  0  0  0  0  0  0  0
  149.4988  141.0659  155.7551 N   0  0  0  0  0  0  0  0  0  0  0  0
  149.6887  139.9987  154.8662 C   0  0  0  0  0  0  0  0  0  0  0  0
  148.4547  139.5577  154.0974 C   0  0  0  0  0  0  0  0  0  0  0  0
  150.9089  139.4059  154.7096 C   0  0  0  0  0  0  0  0  0  0  0  0
  151.1463  138.2441  153.7457 C   0  0  0  0  0  0  0  0  0  0  0  0
  151.4307  136.8887  154.3975 C   0  0  0  0  0  0  0  0  0  0  0  0
  152.4190  136.7470  155.1171 O   0  0  0  0  0  0  0  0  0  0  0  0
  150.5549  135.9079  154.1136 N   0  0  0  0  0  0  0  0  0  0  0  0
  150.5706  134.4956  154.5199 C   0  0  1  0  0  0  0  0  0  0  0  0
  149.6797  134.4264  155.7788 C   0  0  0  0  0  0  0  0  0  0  0  0
  149.9782  133.6064  153.3923 C   0  0  0  0  0  0  0  0  0  0  0  0
  150.0991  132.0998  153.6829 C   0  0  0  0  0  0  0  0  0  0  0  0
  151.5535  131.6918  153.9789 C   0  0  2  0  0  0  0  0  0  0  0  0
  151.6662  130.1870  154.2623 C   0  0  0  0  0  0  0  0  0  0  0  0
  152.1216  132.5281  155.1402 C   0  0  0  0  0  0  0  0  0  0  0  0
  152.0160  134.0385  154.8606 C   0  0  0  0  0  0  0  0  0  0  0  0
  152.0562  139.9023  155.4942 C   0  0  0  0  0  0  0  0  0  0  0  0
  153.1966  139.4457  155.4294 O   0  0  0  0  0  0  0  0  0  0  0  0
  151.7812  140.9340  156.3234 N   0  0  0  0  0  0  0  0  0  0  0  0
  152.5340  141.3112  156.8803 H   0  0  0  0  0  0  0  0  0  0  0  0
  150.1313  143.5526  156.9236 H   0  0  0  0  0  0  0  0  0  0  0  0
  151.4017  142.8159  157.9067 H   0  0  0  0  0  0  0  0  0  0  0  0
  149.7075  142.4119  158.2060 H   0  0  0  0  0  0  0  0  0  0  0  0
  148.2026  138.5245  154.3371 H   0  0  0  0  0  0  0  0  0  0  0  0
  148.6205  139.6356  153.0228 H   0  0  0  0  0  0  0  0  0  0  0  0
  147.5921  140.1776  154.3449 H   0  0  0  0  0  0  0  0  0  0  0  0
  150.2995  138.1225  153.0696 H   0  0  0  0  0  0  0  0  0  0  0  0
  151.9827  138.5062  153.0968 H   0  0  0  0  0  0  0  0  0  0  0  0
  149.7854  136.1669  153.5133 H   0  0  0  0  0  0  0  0  0  0  0  0
  149.6013  133.4182  156.1826 H   0  0  0  0  0  0  0  0  0  0  0  0
  148.6651  134.7642  155.5637 H   0  0  0  0  0  0  0  0  0  0  0  0
  150.0719  135.0603  156.5750 H   0  0  0  0  0  0  0  0  0  0  0  0
  148.9328  133.8650  153.2189 H   0  0  0  0  0  0  0  0  0  0  0  0
  150.4895  133.7960  152.4488 H   0  0  0  0  0  0  0  0  0  0  0  0
  149.4566  131.8266  154.5203 H   0  0  0  0  0  0  0  0  0  0  0  0
  149.7269  131.5388  152.8250 H   0  0  0  0  0  0  0  0  0  0  0  0
  152.1494  131.9040  153.0899 H   0  0  0  0  0  0  0  0  0  0  0  0
  151.0880  129.9047  155.1428 H   0  0  0  0  0  0  0  0  0  0  0  0
  152.7024  129.8965  154.4374 H   0  0  0  0  0  0  0  0  0  0  0  0
  151.2981  129.6004  153.4201 H   0  0  0  0  0  0  0  0  0  0  0  0
  151.6026  132.2809  156.0664 H   0  0  0  0  0  0  0  0  0  0  0  0
  153.1676  132.2666  155.3044 H   0  0  0  0  0  0  0  0  0  0  0  0
  152.6920  134.2621  154.0362 H   0  0  0  0  0  0  0  0  0  0  0  0
  152.3967  134.5986  155.7158 H   0  0  0  0  0  0  0  0  0  0  0  0
  1  2  1  0  0  0  0
  1 23  1  0  0  0  0
  1 24  1  0  0  0  0
  1 25  1  0  0  0  0
  2 21  1  0  0  0  0
  2  3  2  0  0  0  0
  3  4  1  0  0  0  0
  4  5  1  0  0  0  0
  4  6  2  0  0  0  0
  5 26  1  0  0  0  0
  5 27  1  0  0  0  0
  5 28  1  0  0  0  0
  6  7  1  0  0  0  0
  6 19  1  0  0  0  0
  7  8  1  0  0  0  0
  7 29  1  0  0  0  0
  7 30  1  0  0  0  0
  8  9  2  0  0  0  0
  8 10  1  0  0  0  0
 10 11  1  0  0  0  0
 10 31  1  0  0  0  0
 11 18  1  0  0  0  0
 11 12  1  0  0  0  0
 11 13  1  0  0  0  0
 12 32  1  0  0  0  0
 12 33  1  0  0  0  0
 12 34  1  0  0  0  0
 13 14  1  0  0  0  0
 13 35  1  0  0  0  0
 13 36  1  0  0  0  0
 14 15  1  0  0  0  0
 14 37  1  0  0  0  0
 14 38  1  0  0  0  0
 15 16  1  0  0  0  0
 15 17  1  0  0  0  0
 15 39  1  0  0  0  0
 16 40  1  0  0  0  0
 16 41  1  0  0  0  0
 16 42  1  0  0  0  0
 17 18  1  0  0  0  0
 17 43  1  0  0  0  0
 17 44  1  0  0  0  0
 18 45  1  0  0  0  0
 18 46  1  0  0  0  0
 19 20  2  0  0  0  0
 19 21  1  0  0  0  0
 21 22  1  0  0  0  0
M  END
> <s_m_source_file>
AV-unprocessed.smi

> <i_m_source_file_index>
1072

> <i_lp_mmshare_version>
43012

> <i_f3d_flags>
0

> <s_epik_input>
W0NIM11jMW5jKFtDSDNdKWMoYyg9TylbbkhdMSlbQ0gyXUMoPU8pW05IXVtDQEBdMihbQ0gzXSlbQ0gyXVtDSDJdW0NAQEhdKFtDSDNdKVtDSDJdW0NIMl0y

> <s_epik_cmdline>
J2VwaWtfcHl0aG9uJywgJy1waCcsICc3LjAnLCAnLXRuJywgJzgnLCAnLW1hJywgJzIwMCcsICctbWV0YWxfYmluZGluZycsICctaW1hZScsICc8aW5maWxlLm1hZT4nLCAnLW9tYWUnLCAnPG91dGZpbGUubWFlPic=

> <r_lp_tautomer_probability>
0.839158

> <r_epik_Ionization_Penalty>
0.000352328

> <r_epik_Ionization_Penalty_Charging>
0.000314696

> <r_epik_Ionization_Penalty_Neutral>
3.76315e-05

> <r_epik_State_Penalty>
0.09125

> <r_epik_Charging_Adjusted_Penalty>
0.0915647

> <i_epik_Tot_Q>
0

> <i_epik_Tot_abs_Q>
0

> <r_epik_Metal_State_Penalty>
0.245598

> <b_epik_Metal_Only>
0

> <s_lp_Force_Field>
OPLS_2005

> <r_lp_Energy>
14.8959

> <b_lp_Chiralities_Consistent>
1

> <s_lp_Variant>
AV-unprocessed.smi:1072-2

> <Gold.Version>
5.8.1

> <Gold.Id.Protein>
6NUR|6NUR_protein|mol2

> <Gold.PLP.Fitness>
44.0854

> <Gold.PLP.PLP>
-36.5829

> <Gold.PLP.part.hbond>
-3.2738

> <Gold.PLP.part.metal>
0.0000

> <Gold.PLP.part.buried>
-0.4482

> <Gold.PLP.part.nonpolar>
-33.1189

> <Gold.PLP.part.repulsive>
0.3269

> <Gold.PLP.ligand.clash>
0.0000

> <Gold.PLP.ligand.torsion>
0.6065

> <Gold.PLP.Chemscore.Hbond>
2.9040

> <Gold.PLP.Chemscore.CHOScore>
0.0000

> <Gold.PLP.Chemscore.Metal>
0.0000

> <Gold.Chemscore.Hbonds>
donor molecule, donor type, donor heavy atom, donor atom, acceptor molecule, acceptor atom, score
      L1  H    10    31       P1  7948  0.90
      P1  H  7997  8010       L1    20  0.66
      P1  H 10752 10765       L1     9  0.45

> <Gold.PLP.Chemscore.Internal.Correction>
0.0034

> <Gold.Rescore>
     Score         DG    S(hbond)    S(metal)    S(lipo)     H(rot)  DE(clash)    DE(int)     intcor
     15.43     -18.16       2.30        0.00      74.86       1.47       0.39       2.34       ----

> <Gold.Chemscore.Fitness>
15.4309

> <Gold.Chemscore.DG>
-18.1608

> <Gold.Chemscore.ZeroCoef>
-5.4800

> <Gold.Chemscore.Hbond>
2.3002

> <Gold.Chemscore.Metal>
0.0000

> <Gold.Chemscore.Lipo>
74.8610

> <Gold.Chemscore.Internal_Hbond>
0.0000

> <Gold.Chemscore.DEClash>
0.3871

> <Gold.Chemscore.DEInternal>
2.3428

> <Gold.Chemscore.Rot>
1.4690

> <Gold.Chemscore.Internal.Correction>
   9.000000E+99

> <Gold.Chemscore.Hbonds>
donor molecule, donor type, donor heavy atom, donor atom, acceptor molecule, acceptor atom, score
      L1  H    10    31       P1  7948  0.17
      P1  H  7997  8010       L1    20  0.63
      P1  H 10752 10765       L1     9  0.44

> <Gold.Chemscore.Hbond.Weighted>
-7.6828

> <Gold.Chemscore.Metal.Weighted>
-0.0000

> <Gold.Chemscore.Lipo.Weighted>
-8.7587

> <Gold.Chemscore.Internal_Hbond.Weighted>
0.0000

> <Gold.Chemscore.DEClash.Weighted>
0.3871

> <Gold.Chemscore.DEInternal.Weighted>
2.3428

> <Gold.Chemscore.Rot.Weighted>
3.7607

> <Gold.Chemscore.Internal.Correction.Weighted>
   9.000000E+99

> <Gold.Protein.RotatedTorsions>
[ 6907 6896 6895 6894 ] final  -12.20 input  -60.11 | X-H torsion
[ 7974 7965 7964 7962 ] final   64.85 input  175.53 | X-H torsion
[ 8008 7997 7996 7995 ] final   64.19 input   59.86 | X-H torsion
[ 10167 10162 10161 10158 ] final   37.20 input  -65.29 | X-H torsion
[ 10718 10713 10712 10709 ] final -156.01 input   66.30 | X-H torsion
[ 10763 10752 10751 10750 ] final -145.61 input  -60.55 | X-H torsion
[ 11005 11000 10999 10996 ] final -119.71 input  -57.11 | X-H torsion

> <Gold.Protein.ActiveResidues>
 VAL166  LYS551  ARG553  GLY616  TRP617  ASP618  TYR619  PRO620  LYS621  CYS622 
 ASP623  PHE694  ASN695  SER759  ASP760  ASP761  ALA762  ILE779  LEU786  VAL792 
 PHE793  MET794  SER795  GLU796  ALA797  LYS798  CYS799  TRP800  GLU811  SER814 

> <Gold.Protein.RotatedAtoms>
  151.3742  135.0928  159.9474 H   0  0  0  0  0  0  0  0  0  0  0  0  # atno 6907 bound_to 6896
  152.5127  133.9135  159.7510 H   0  0  0  0  0  0  0  0  0  0  0  0  # atno 6908 bound_to 6896
  150.9555  133.6447  159.2793 H   0  0  0  0  0  0  0  0  0  0  0  0  # atno 6909 bound_to 6896
  145.8454  139.3221  143.0906 H   0  0  0  0  0  0  0  0  0  0  0  0  # atno 7974 bound_to 7965
  155.6420  140.3497  155.4718 H   0  0  0  0  0  0  0  0  0  0  0  0  # atno 8008 bound_to 7997
  155.9918  140.1195  157.0655 H   0  0  0  0  0  0  0  0  0  0  0  0  # atno 8009 bound_to 7997
  154.4221  140.1118  156.5562 H   0  0  0  0  0  0  0  0  0  0  0  0  # atno 8010 bound_to 7997
  140.4055  144.1665  150.6136 H   0  0  0  0  0  0  0  0  0  0  0  0  # atno 10167 bound_to 10162
  156.5207  130.8476  151.2681 H   0  0  0  0  0  0  0  0  0  0  0  0  # atno 10718 bound_to 10713
  154.8375  135.3408  154.6532 H   0  0  0  0  0  0  0  0  0  0  0  0  # atno 10763 bound_to 10752
  153.7145  135.6962  153.5033 H   0  0  0  0  0  0  0  0  0  0  0  0  # atno 10764 bound_to 10752
  153.2427  135.4379  155.0668 H   0  0  0  0  0  0  0  0  0  0  0  0  # atno 10765 bound_to 10752
  141.0196  134.0144  157.3301 H   0  0  0  0  0  0  0  0  0  0  0  0  # atno 11005 bound_to 11000
  145.9418  140.8974  143.0304 LP  0  0  0  0  0  0  0  0  0  0  0  0  # atno 17320 bound_to 7965
  144.6731  140.1559  143.7426 LP  0  0  0  0  0  0  0  0  0  0  0  0  # atno 17321 bound_to 7965
  140.4694  143.2418  151.9110 LP  0  0  0  0  0  0  0  0  0  0  0  0  # atno 17342 bound_to 10162
  139.4783  144.5385  151.8563 LP  0  0  0  0  0  0  0  0  0  0  0  0  # atno 17343 bound_to 10162
  157.7437  130.9918  150.2614 LP  0  0  0  0  0  0  0  0  0  0  0  0  # atno 17370 bound_to 10713
  156.3152  130.3777  149.7625 LP  0  0  0  0  0  0  0  0  0  0  0  0  # atno 17371 bound_to 10713
  139.9138  135.0194  156.7798 LP  0  0  0  0  0  0  0  0  0  0  0  0  # atno 17394 bound_to 11000
  140.6596  133.9657  155.7798 LP  0  0  0  0  0  0  0  0  0  0  0  0  # atno 17395 bound_to 11000

$$$$
