AV-unprocessed.smi:3316|AV-procd|sdf|12753|dock3
  -GOLD-   2272019 93D 1   1.00000     0.00000
 Structure written by MMmdl.
 41 43  0  0  0  0  0  0  0  0  2 V2000
  151.8739  138.1912  155.1128 C   0  0  0  0  0  0  0  0  0  0  0  0
  151.4395  139.6086  155.5177 C   0  0  2  0  0  0  0  0  0  0  0  0
  151.5003  139.8011  157.0452 C   0  0  0  0  0  0  0  0  0  0  0  0
  151.3884  141.2252  157.4213 N   0  3  0  0  0  0  0  0  0  0  0  0
  151.8837  141.5278  158.7778 C   0  0  0  0  0  0  0  0  0  0  0  0
  152.4568  142.9548  158.8571 C   0  0  2  0  0  0  0  0  0  0  0  0
  152.5381  143.5446  160.2998 C   0  0  0  0  0  0  0  0  0  0  0  0
  151.7911  144.8919  160.1673 C   0  0  2  0  0  0  0  0  0  0  0  0
  150.3283  144.5827  159.9331 C   0  0  0  0  0  0  0  0  0  0  0  0
  150.2235  144.0679  158.7071 C   0  0  0  0  0  0  0  0  0  0  0  0
  151.6179  144.0273  158.1130 C   0  0  1  0  0  0  0  0  0  0  0  0
  152.2089  145.2916  158.7482 C   0  0  0  0  0  0  0  0  0  0  0  0
  150.0681  139.9508  154.9480 C   0  0  0  0  0  0  0  0  0  0  0  0
  149.5662  141.2670  155.0315 C   0  0  0  0  0  0  0  0  0  0  0  0
  148.2918  141.5392  154.4944 C   0  0  0  0  0  0  0  0  0  0  0  0
  147.5206  140.6016  153.9046 N   0  0  0  0  0  0  0  0  0  0  0  0
  148.0046  139.3438  153.8261 C   0  0  0  0  0  0  0  0  0  0  0  0
  149.2651  138.9668  154.3312 C   0  0  0  0  0  0  0  0  0  0  0  0
  151.8857  138.0807  154.0281 H   0  0  0  0  0  0  0  0  0  0  0  0
  151.2039  137.4320  155.5178 H   0  0  0  0  0  0  0  0  0  0  0  0
  152.8783  137.9702  155.4747 H   0  0  0  0  0  0  0  0  0  0  0  0
  152.1611  140.2968  155.0749 H   0  0  0  0  0  0  0  0  0  0  0  0
  150.7060  139.2359  157.5347 H   0  0  0  0  0  0  0  0  0  0  0  0
  152.4460  139.4128  157.4262 H   0  0  0  0  0  0  0  0  0  0  0  0
  151.9152  141.7760  156.7585 H   0  0  0  0  0  0  0  0  0  0  0  0
  151.0572  141.4275  159.4824 H   0  0  0  0  0  0  0  0  0  0  0  0
  152.6365  140.7899  159.0577 H   0  0  0  0  0  0  0  0  0  0  0  0
  153.4578  142.9482  158.4211 H   0  0  0  0  0  0  0  0  0  0  0  0
  152.0746  142.9021  161.0501 H   0  0  0  0  0  0  0  0  0  0  0  0
  153.5773  143.6999  160.5929 H   0  0  0  0  0  0  0  0  0  0  0  0
  151.9850  145.6331  160.9430 H   0  0  0  0  0  0  0  0  0  0  0  0
  149.5420  144.7317  160.6583 H   0  0  0  0  0  0  0  0  0  0  0  0
  149.3325  143.7043  158.2166 H   0  0  0  0  0  0  0  0  0  0  0  0
  151.6517  143.9970  157.0237 H   0  0  0  0  0  0  0  0  0  0  0  0
  151.7251  146.2082  158.4038 H   0  0  0  0  0  0  0  0  0  0  0  0
  153.2881  145.3938  158.6168 H   0  0  0  0  0  0  0  0  0  0  0  0
  150.1409  142.0566  155.4930 H   0  0  0  0  0  0  0  0  0  0  0  0
  147.8812  142.5371  154.5421 H   0  0  0  0  0  0  0  0  0  0  0  0
  147.3676  138.6148  153.3474 H   0  0  0  0  0  0  0  0  0  0  0  0
  149.6022  137.9447  154.2406 H   0  0  0  0  0  0  0  0  0  0  0  0
  150.4166  141.4955  157.3656 H   0  0  0  0  0  0  0  0  0  0  0  0
  1  2  1  0  0  0  0
  1 19  1  0  0  0  0
  1 20  1  0  0  0  0
  1 21  1  0  0  0  0
  2  3  1  0  0  0  0
  2 13  1  0  0  0  0
  2 22  1  0  0  0  0
  3  4  1  0  0  0  0
  3 23  1  0  0  0  0
  3 24  1  0  0  0  0
  4  5  1  0  0  0  0
  4 25  1  0  0  0  0
  4 41  1  0  0  0  0
  5  6  1  0  0  0  0
  5 26  1  0  0  0  0
  5 27  1  0  0  0  0
  6 11  1  0  0  0  0
  6  7  1  0  0  0  0
  6 28  1  0  0  0  0
  7  8  1  0  0  0  0
  7 29  1  0  0  0  0
  7 30  1  0  0  0  0
  8 12  1  0  0  0  0
  8  9  1  0  0  0  0
  8 31  1  0  0  0  0
  9 10  2  0  0  0  0
  9 32  1  0  0  0  0
 10 11  1  0  0  0  0
 10 33  1  0  0  0  0
 11 12  1  0  0  0  0
 11 34  1  0  0  0  0
 12 35  1  0  0  0  0
 12 36  1  0  0  0  0
 13 18  1  0  0  0  0
 13 14  2  0  0  0  0
 14 15  1  0  0  0  0
 14 37  1  0  0  0  0
 15 16  2  0  0  0  0
 15 38  1  0  0  0  0
 16 17  1  0  0  0  0
 17 18  2  0  0  0  0
 17 39  1  0  0  0  0
 18 40  1  0  0  0  0
M  CHG  1   4   1
M  END
> <s_m_source_file>
AV-unprocessed.smi

> <i_m_source_file_index>
3316

> <i_lp_mmshare_version>
43012

> <i_f3d_flags>
0

> <s_epik_input>
W2NIXTFbY0hdbltjSF1bY0hdYzFbQ0BIXShbQ0gzXSlbQ0gyXVtOSF1bQ0gyXVtDQEhdKFtDSDJdW0NASF0yMylbQ0BIXShbQ0gyXTMpW0NIXT1bQ0hdMg==

> <s_epik_cmdline>
J2VwaWtfcHl0aG9uJywgJy1waCcsICc3LjAnLCAnLXRuJywgJzgnLCAnLW1hJywgJzIwMCcsICctbWV0YWxfYmluZGluZycsICctaW1hZScsICc8aW5maWxlLm1hZT4nLCAnLW9tYWUnLCAnPG91dGZpbGUubWFlPic=

> <r_lp_tautomer_probability>
1

> <r_epik_Ionization_Penalty>
0.00280406

> <r_epik_Ionization_Penalty_Charging>
0.000446589

> <r_epik_Ionization_Penalty_Neutral>
0.00235747

> <r_epik_State_Penalty>
-0

> <r_epik_Charging_Adjusted_Penalty>
0.000446589

> <i_epik_Tot_Q>
1

> <i_epik_Tot_abs_Q>
1

> <r_epik_Metal_State_Penalty>
-0

> <b_epik_Metal_Only>
0

> <s_lp_Force_Field>
OPLS_2005

> <r_lp_Energy>
65.4585

> <b_lp_Chiralities_Consistent>
1

> <s_lp_Variant>
AV-unprocessed.smi:3316-1

> <Gold.Version>
5.8.1

> <Gold.Id.Protein>
6NUR|6NUR_protein|mol2

> <Gold.PLP.Fitness>
47.9977

> <Gold.PLP.PLP>
-46.1222

> <Gold.PLP.part.hbond>
0.0000

> <Gold.PLP.part.metal>
0.0000

> <Gold.PLP.part.buried>
-2.8823

> <Gold.PLP.part.nonpolar>
-43.5821

> <Gold.PLP.part.repulsive>
0.2176

> <Gold.PLP.ligand.clash>
0.0000

> <Gold.PLP.ligand.torsion>
0.6185

> <Gold.PLP.Chemscore.Hbond>
0.0000

> <Gold.PLP.Chemscore.CHOScore>
0.9968

> <Gold.PLP.Chemscore.Metal>
0.0000

> <Gold.Chemscore.Hbonds>
donor molecule, donor type, donor heavy atom, donor atom, acceptor molecule, acceptor atom, score
      L1  C    15    38       P1  8028  0.78

> <Gold.PLP.Chemscore.Internal.Correction>
0.1221

> <Gold.Rescore>
     Score         DG    S(hbond)    S(metal)    S(lipo)     H(rot)  DE(clash)    DE(int)     intcor
     18.03     -19.04       0.00        0.00     145.76       1.36       0.08       0.93       ----

> <Gold.Chemscore.Fitness>
18.0290

> <Gold.Chemscore.DG>
-19.0416

> <Gold.Chemscore.ZeroCoef>
-5.4800

> <Gold.Chemscore.Hbond>
0.0000

> <Gold.Chemscore.Metal>
0.0000

> <Gold.Chemscore.Lipo>
145.7569

> <Gold.Chemscore.Internal_Hbond>
0.0000

> <Gold.Chemscore.DEClash>
0.0834

> <Gold.Chemscore.DEInternal>
0.9293

> <Gold.Chemscore.Rot>
1.3640

> <Gold.Chemscore.Internal.Correction>
   9.000000E+99

> <Gold.Chemscore.Hbond.Weighted>
-0.0000

> <Gold.Chemscore.Metal.Weighted>
-0.0000

> <Gold.Chemscore.Lipo.Weighted>
-17.0536

> <Gold.Chemscore.Internal_Hbond.Weighted>
0.0000

> <Gold.Chemscore.DEClash.Weighted>
0.0834

> <Gold.Chemscore.DEInternal.Weighted>
0.9293

> <Gold.Chemscore.Rot.Weighted>
3.4919

> <Gold.Chemscore.Internal.Correction.Weighted>
   9.000000E+99

> <Gold.Protein.RotatedTorsions>
[ 6907 6896 6895 6894 ] final  -49.33 input  -60.11 | X-H torsion
[ 7974 7965 7964 7962 ] final -141.25 input  175.53 | X-H torsion
[ 8008 7997 7996 7995 ] final  -61.00 input   59.86 | X-H torsion
[ 10167 10162 10161 10158 ] final  -25.12 input  -65.29 | X-H torsion
[ 10718 10713 10712 10709 ] final  -77.07 input   66.30 | X-H torsion
[ 10763 10752 10751 10750 ] final  112.56 input  -60.55 | X-H torsion
[ 11005 11000 10999 10996 ] final -126.52 input  -57.11 | X-H torsion

> <Gold.Protein.ActiveResidues>
 VAL166  LYS551  ARG553  GLY616  TRP617  ASP618  TYR619  PRO620  LYS621  CYS622 
 ASP623  PHE694  ASN695  SER759  ASP760  ASP761  ALA762  ILE779  LEU786  VAL792 
 PHE793  MET794  SER795  GLU796  ALA797  LYS798  CYS799  TRP800  GLU811  SER814 

> <Gold.Protein.RotatedAtoms>
  150.8815  134.8207  159.7228 H   0  0  0  0  0  0  0  0  0  0  0  0  # atno 6907 bound_to 6896
  152.4781  134.4788  159.9669 H   0  0  0  0  0  0  0  0  0  0  0  0  # atno 6908 bound_to 6896
  151.4862  133.3496  159.2881 H   0  0  0  0  0  0  0  0  0  0  0  0  # atno 6909 bound_to 6896
  144.8534  140.6102  143.5375 H   0  0  0  0  0  0  0  0  0  0  0  0  # atno 7974 bound_to 7965
  154.4426  140.1027  156.6362 H   0  0  0  0  0  0  0  0  0  0  0  0  # atno 8008 bound_to 7997
  155.5551  140.3486  155.4459 H   0  0  0  0  0  0  0  0  0  0  0  0  # atno 8009 bound_to 7997
  156.0501  140.1302  157.0049 H   0  0  0  0  0  0  0  0  0  0  0  0  # atno 8010 bound_to 7997
  140.7287  143.4293  151.0827 H   0  0  0  0  0  0  0  0  0  0  0  0  # atno 10167 bound_to 10162
  156.0156  130.4482  150.3290 H   0  0  0  0  0  0  0  0  0  0  0  0  # atno 10718 bound_to 10713
  153.4796  135.3682  155.2435 H   0  0  0  0  0  0  0  0  0  0  0  0  # atno 10763 bound_to 10752
  154.8755  135.3951  154.3716 H   0  0  0  0  0  0  0  0  0  0  0  0  # atno 10764 bound_to 10752
  153.4317  135.7082  153.6291 H   0  0  0  0  0  0  0  0  0  0  0  0  # atno 10765 bound_to 10752
  140.9675  134.0852  157.3905 H   0  0  0  0  0  0  0  0  0  0  0  0  # atno 11005 bound_to 11000
  145.4455  139.1530  143.3947 LP  0  0  0  0  0  0  0  0  0  0  0  0  # atno 17320 bound_to 7965
  146.2803  140.4578  142.8779 LP  0  0  0  0  0  0  0  0  0  0  0  0  # atno 17321 bound_to 7965
  139.7948  143.8167  152.3156 LP  0  0  0  0  0  0  0  0  0  0  0  0  # atno 17342 bound_to 10162
  139.8164  144.7314  150.9630 LP  0  0  0  0  0  0  0  0  0  0  0  0  # atno 17343 bound_to 10162
  157.1388  131.0291  151.2937 LP  0  0  0  0  0  0  0  0  0  0  0  0  # atno 17370 bound_to 10713
  157.4489  130.7587  149.7134 LP  0  0  0  0  0  0  0  0  0  0  0  0  # atno 17371 bound_to 10713
  139.8900  135.0109  156.6709 LP  0  0  0  0  0  0  0  0  0  0  0  0  # atno 17394 bound_to 11000
  140.7378  133.9003  155.8256 LP  0  0  0  0  0  0  0  0  0  0  0  0  # atno 17395 bound_to 11000

$$$$
