AV-unprocessed.smi:1554|AV-procd|sdf|6252|dock6
  -GOLD-   22720 6433D 1   1.00000     0.00000
 Structure written by MMmdl.
 48 50  0  0  0  0  0  0  0  0  2 V2000
  153.1738  142.6539  161.4452 C   0  0  0  0  0  0  0  0  0  0  0  0
  152.5366  142.2571  160.1242 C   0  0  0  0  0  0  0  0  0  0  0  0
  152.7410  140.9438  159.6443 C   0  0  0  0  0  0  0  0  0  0  0  0
  152.1478  140.6121  158.4318 C   0  0  0  0  0  0  0  0  0  0  0  0
  152.1648  139.4218  157.7017 N   0  3  0  0  0  0  0  0  0  0  0  0
  151.4332  139.5764  156.5638 C   0  0  0  0  0  0  0  0  0  0  0  0
  150.9471  140.8472  156.5571 N   0  0  0  0  0  0  0  0  0  0  0  0
  150.0983  141.5200  155.5630 C   0  0  0  0  0  0  0  0  0  0  0  0
  149.2631  140.5358  154.7209 C   0  0  2  0  0  0  0  0  0  0  0  0
  150.0945  139.9065  153.7663 O   0  0  0  0  0  0  0  0  0  0  0  0
  148.1256  141.2596  153.9732 C   0  0  0  0  0  0  0  0  0  0  0  0
  147.1479  141.9466  154.8196 N   0  0  0  0  0  0  0  0  0  0  0  0
  146.0667  142.5632  154.0523 C   0  0  0  0  0  0  0  0  0  0  0  0
  145.0337  143.2474  154.9640 C   0  0  0  0  0  0  0  0  0  0  0  0
  144.5227  142.3055  155.9011 O   0  0  0  0  0  0  0  0  0  0  0  0
  145.5391  141.7163  156.7074 C   0  0  1  0  0  0  0  0  0  0  0  0
  144.8747  140.7335  157.6774 C   0  0  0  0  0  0  0  0  0  0  0  0
  146.5684  141.0253  155.7919 C   0  0  0  0  0  0  0  0  0  0  0  0
  151.3698  141.5325  157.7027 C   0  0  0  0  0  0  0  0  0  0  0  0
  151.1594  142.8308  158.1617 C   0  0  0  0  0  0  0  0  0  0  0  0
  151.7573  143.1891  159.3911 C   0  0  0  0  0  0  0  0  0  0  0  0
  151.5498  144.6008  159.9129 C   0  0  0  0  0  0  0  0  0  0  0  0
  153.7169  141.8209  161.8926 H   0  0  0  0  0  0  0  0  0  0  0  0
  152.4129  142.9745  162.1572 H   0  0  0  0  0  0  0  0  0  0  0  0
  153.8792  143.4721  161.2989 H   0  0  0  0  0  0  0  0  0  0  0  0
  153.3350  140.2294  160.1955 H   0  0  0  0  0  0  0  0  0  0  0  0
  151.2672  138.8257  155.8045 H   0  0  0  0  0  0  0  0  0  0  0  0
  149.4347  142.1878  156.1138 H   0  0  0  0  0  0  0  0  0  0  0  0
  150.7168  142.1592  154.9325 H   0  0  0  0  0  0  0  0  0  0  0  0
  148.8641  139.7720  155.3869 H   0  0  0  0  0  0  0  0  0  0  0  0
  149.6332  139.8833  152.9413 H   0  0  0  0  0  0  0  0  0  0  0  0
  148.5573  141.9793  153.2758 H   0  0  0  0  0  0  0  0  0  0  0  0
  147.6106  140.5237  153.3536 H   0  0  0  0  0  0  0  0  0  0  0  0
  146.4620  143.3084  153.3638 H   0  0  0  0  0  0  0  0  0  0  0  0
  145.5658  141.8080  153.4444 H   0  0  0  0  0  0  0  0  0  0  0  0
  145.4827  144.0898  155.4922 H   0  0  0  0  0  0  0  0  0  0  0  0
  144.2089  143.6434  154.3714 H   0  0  0  0  0  0  0  0  0  0  0  0
  146.0321  142.5006  157.2849 H   0  0  0  0  0  0  0  0  0  0  0  0
  145.6138  140.2584  158.3228 H   0  0  0  0  0  0  0  0  0  0  0  0
  144.3448  139.9467  157.1395 H   0  0  0  0  0  0  0  0  0  0  0  0
  144.1538  141.2437  158.3167 H   0  0  0  0  0  0  0  0  0  0  0  0
  146.0899  140.1940  155.2714 H   0  0  0  0  0  0  0  0  0  0  0  0
  147.3598  140.5930  156.4055 H   0  0  0  0  0  0  0  0  0  0  0  0
  150.5718  143.5428  157.6012 H   0  0  0  0  0  0  0  0  0  0  0  0
  150.9355  145.1915  159.2324 H   0  0  0  0  0  0  0  0  0  0  0  0
  152.5067  145.1115  160.0257 H   0  0  0  0  0  0  0  0  0  0  0  0
  151.0499  144.5821  160.8817 H   0  0  0  0  0  0  0  0  0  0  0  0
  152.6403  138.5662  157.9585 H   0  0  0  0  0  0  0  0  0  0  0  0
  1  2  1  0  0  0  0
  1 23  1  0  0  0  0
  1 24  1  0  0  0  0
  1 25  1  0  0  0  0
  2 21  1  0  0  0  0
  2  3  2  0  0  0  0
  3  4  1  0  0  0  0
  3 26  1  0  0  0  0
  4 19  2  0  0  0  0
  4  5  1  0  0  0  0
  5  6  2  0  0  0  0
  5 48  1  0  0  0  0
  6  7  1  0  0  0  0
  6 27  1  0  0  0  0
  7  8  1  0  0  0  0
  7 19  1  0  0  0  0
  8  9  1  0  0  0  0
  8 28  1  0  0  0  0
  8 29  1  0  0  0  0
  9 10  1  0  0  0  0
  9 11  1  0  0  0  0
  9 30  1  0  0  0  0
 10 31  1  0  0  0  0
 11 12  1  0  0  0  0
 11 32  1  0  0  0  0
 11 33  1  0  0  0  0
 12 18  1  0  0  0  0
 12 13  1  0  0  0  0
 13 14  1  0  0  0  0
 13 34  1  0  0  0  0
 13 35  1  0  0  0  0
 14 15  1  0  0  0  0
 14 36  1  0  0  0  0
 14 37  1  0  0  0  0
 15 16  1  0  0  0  0
 16 17  1  0  0  0  0
 16 18  1  0  0  0  0
 16 38  1  0  0  0  0
 17 39  1  0  0  0  0
 17 40  1  0  0  0  0
 17 41  1  0  0  0  0
 18 42  1  0  0  0  0
 18 43  1  0  0  0  0
 19 20  1  0  0  0  0
 20 21  2  0  0  0  0
 20 44  1  0  0  0  0
 21 22  1  0  0  0  0
 22 45  1  0  0  0  0
 22 46  1  0  0  0  0
 22 47  1  0  0  0  0
M  CHG  1   5   1
M  END
> <s_m_source_file>
AV-unprocessed.smi

> <i_m_source_file_index>
1554

> <i_lp_mmshare_version>
43012

> <i_f3d_flags>
0

> <s_epik_input>
W0NIM11jKFtjSF0xKWMoW0NIM10pW2NIXWMoYzEyKW4oW2NIXW4yKVtDSDJdW0NASF0oW09IXSlbQ0gyXU4zW0NIMl1bQ0gyXU9bQ0BASF0oW0NIM10pW0NIMl0z

> <s_epik_cmdline>
J2VwaWtfcHl0aG9uJywgJy1waCcsICc3LjAnLCAnLXRuJywgJzgnLCAnLW1hJywgJzIwMCcsICctbWV0YWxfYmluZGluZycsICctaW1hZScsICc8aW5maWxlLm1hZT4nLCAnLW9tYWUnLCAnPG91dGZpbGUubWFlPic=

> <r_epik_Ionization_Penalty>
1.42504

> <r_epik_Ionization_Penalty_Charging>
1.21068

> <r_epik_Ionization_Penalty_Neutral>
0.214359

> <r_epik_State_Penalty>
1.46962

> <r_epik_Charging_Adjusted_Penalty>
2.6803

> <i_epik_Tot_Q>
1

> <i_epik_Tot_abs_Q>
1

> <r_epik_Metal_State_Penalty>
5.48754

> <b_epik_Metal_Only>
0

> <s_lp_Force_Field>
OPLS_2005

> <r_lp_Energy>
34.8696

> <b_lp_Chiralities_Consistent>
1

> <s_lp_Variant>
AV-unprocessed.smi:1554-13

> <Gold.Version>
5.8.1

> <Gold.Id.Protein>
6NUR|6NUR_protein|mol2

> <Gold.PLP.Fitness>
52.3065

> <Gold.PLP.PLP>
-47.5759

> <Gold.PLP.part.hbond>
-2.0000

> <Gold.PLP.part.metal>
0.0000

> <Gold.PLP.part.buried>
-6.8887

> <Gold.PLP.part.nonpolar>
-38.4007

> <Gold.PLP.part.repulsive>
0.3604

> <Gold.PLP.ligand.clash>
0.0000

> <Gold.PLP.ligand.torsion>
0.4621

> <Gold.PLP.Chemscore.Hbond>
1.8640

> <Gold.PLP.Chemscore.CHOScore>
0.0000

> <Gold.PLP.Chemscore.Metal>
0.0000

> <Gold.Chemscore.Hbonds>
donor molecule, donor type, donor heavy atom, donor atom, acceptor molecule, acceptor atom, score
      L1  H    10    31       P1  7957  1.00
      P1  H  7989  7998       L1    10  0.85

> <Gold.PLP.Chemscore.Internal.Correction>
0.0627

> <Gold.Rescore>
     Score         DG    S(hbond)    S(metal)    S(lipo)     H(rot)  DE(clash)    DE(int)     intcor
     16.44     -17.08       0.93        0.00     117.44       2.04       0.15       0.49       ----

> <Gold.Chemscore.Fitness>
16.4410

> <Gold.Chemscore.DG>
-17.0818

> <Gold.Chemscore.ZeroCoef>
-5.4800

> <Gold.Chemscore.Hbond>
0.9254

> <Gold.Chemscore.Metal>
0.0000

> <Gold.Chemscore.Lipo>
117.4389

> <Gold.Chemscore.Internal_Hbond>
0.0000

> <Gold.Chemscore.DEClash>
0.1488

> <Gold.Chemscore.DEInternal>
0.4920

> <Gold.Chemscore.Rot>
2.0427

> <Gold.Chemscore.Internal.Correction>
   9.000000E+99

> <Gold.Chemscore.Hbonds>
donor molecule, donor type, donor heavy atom, donor atom, acceptor molecule, acceptor atom, score
      L1  H    10    31       P1  7957  0.94
      P1  H  7989  7998       L1    10  0.38

> <Gold.Chemscore.Hbond.Weighted>
-3.0909

> <Gold.Chemscore.Metal.Weighted>
-0.0000

> <Gold.Chemscore.Lipo.Weighted>
-13.7403

> <Gold.Chemscore.Internal_Hbond.Weighted>
0.0000

> <Gold.Chemscore.DEClash.Weighted>
0.1488

> <Gold.Chemscore.DEInternal.Weighted>
0.4920

> <Gold.Chemscore.Rot.Weighted>
5.2294

> <Gold.Chemscore.Internal.Correction.Weighted>
   9.000000E+99

> <Gold.Protein.RotatedTorsions>
[ 6907 6896 6895 6894 ] final  -48.32 input  -60.11 | X-H torsion
[ 7974 7965 7964 7962 ] final  103.20 input  175.53 | X-H torsion
[ 8008 7997 7996 7995 ] final -124.88 input   59.86 | X-H torsion
[ 10167 10162 10161 10158 ] final  -90.65 input  -65.29 | X-H torsion
[ 10718 10713 10712 10709 ] final  106.58 input   66.30 | X-H torsion
[ 10763 10752 10751 10750 ] final -110.64 input  -60.55 | X-H torsion
[ 11005 11000 10999 10996 ] final  -98.07 input  -57.11 | X-H torsion

> <Gold.Protein.ActiveResidues>
 VAL166  LYS551  ARG553  GLY616  TRP617  ASP618  TYR619  PRO620  LYS621  CYS622 
 ASP623  PHE694  ASN695  SER759  ASP760  ASP761  ALA762  ILE779  LEU786  VAL792 
 PHE793  MET794  SER795  GLU796  ALA797  LYS798  CYS799  TRP800  GLU811  SER814 

> <Gold.Protein.RotatedAtoms>
  150.8917  134.8321  159.7297 H   0  0  0  0  0  0  0  0  0  0  0  0  # atno 6907 bound_to 6896
  152.4841  134.4638  159.9623 H   0  0  0  0  0  0  0  0  0  0  0  0  # atno 6908 bound_to 6896
  151.4700  133.3532  159.2857 H   0  0  0  0  0  0  0  0  0  0  0  0  # atno 6909 bound_to 6896
  145.3490  139.2444  143.3568 H   0  0  0  0  0  0  0  0  0  0  0  0  # atno 7974 bound_to 7965
  155.2041  140.0417  157.2922 H   0  0  0  0  0  0  0  0  0  0  0  0  # atno 8008 bound_to 7997
  154.6055  140.2463  155.7708 H   0  0  0  0  0  0  0  0  0  0  0  0  # atno 8009 bound_to 7997
  156.2347  140.2925  156.0291 H   0  0  0  0  0  0  0  0  0  0  0  0  # atno 8010 bound_to 7997
  140.3527  143.2882  151.9707 H   0  0  0  0  0  0  0  0  0  0  0  0  # atno 10167 bound_to 10162
  157.6662  131.0854  150.6028 H   0  0  0  0  0  0  0  0  0  0  0  0  # atno 10718 bound_to 10713
  154.8258  135.4557  154.0916 H   0  0  0  0  0  0  0  0  0  0  0  0  # atno 10763 bound_to 10752
  153.2231  135.6896  153.7983 H   0  0  0  0  0  0  0  0  0  0  0  0  # atno 10764 bound_to 10752
  153.7393  135.3315  155.3277 H   0  0  0  0  0  0  0  0  0  0  0  0  # atno 10765 bound_to 10752
  141.1357  133.8218  157.0791 H   0  0  0  0  0  0  0  0  0  0  0  0  # atno 11005 bound_to 11000
  146.2976  140.4103  142.8716 LP  0  0  0  0  0  0  0  0  0  0  0  0  # atno 17320 bound_to 7965
  144.8732  140.7301  143.6034 LP  0  0  0  0  0  0  0  0  0  0  0  0  # atno 17321 bound_to 7965
  139.4824  144.6062  151.7518 LP  0  0  0  0  0  0  0  0  0  0  0  0  # atno 17342 bound_to 10162
  140.5203  144.0889  150.6020 LP  0  0  0  0  0  0  0  0  0  0  0  0  # atno 17343 bound_to 10162
  156.6329  130.4437  149.5780 LP  0  0  0  0  0  0  0  0  0  0  0  0  # atno 17370 bound_to 10713
  156.2268  130.6770  151.1424 LP  0  0  0  0  0  0  0  0  0  0  0  0  # atno 17371 bound_to 10713
  140.0463  134.9829  157.1054 LP  0  0  0  0  0  0  0  0  0  0  0  0  # atno 17394 bound_to 11000
  140.4058  134.2034  155.7163 LP  0  0  0  0  0  0  0  0  0  0  0  0  # atno 17395 bound_to 11000

$$$$
