AV-unprocessed.smi:1|AV-procd|sdf|16|dock1
  -GOLD-   2262015113D 1   1.00000     0.00000
 Structure written by MMmdl.
 57 62  0  0  0  0  0  0  0  0  1 V2000
  152.5877  143.8123  158.4117 O   0  0  0  0  0  0  0  0  0  0  0  0
  152.6254  142.7535  159.0448 C   0  0  0  0  0  0  0  0  0  0  0  0
  152.5106  141.4526  158.5722 N   0  0  0  0  0  0  0  0  0  0  0  0
  151.8121  141.2057  157.5055 C   0  0  0  0  0  0  0  0  0  0  0  0
  151.0896  142.0315  156.6343 N   0  0  0  0  0  0  0  0  0  0  0  0
  150.3903  141.6116  155.4918 C   0  0  0  0  0  0  0  0  0  0  0  0
  150.3094  140.3752  155.0776 N   0  0  0  0  0  0  0  0  0  0  0  0
  151.0012  139.5126  155.9162 C   0  0  0  0  0  0  0  0  0  0  0  0
  151.7201  139.8000  157.0559 C   0  0  0  0  0  0  0  0  0  0  0  0
  152.2557  138.6411  157.6070 N   0  0  0  0  0  0  0  0  0  0  0  0
  151.8309  137.6977  156.7704 C   0  0  0  0  0  0  0  0  0  0  0  0
  151.0756  138.1342  155.7427 N   0  0  0  0  0  0  0  0  0  0  0  0
  150.4518  137.3316  154.6393 C   0  0  1  0  0  0  0  0  0  0  0  0
  151.0017  136.0471  154.6538 O   0  0  0  0  0  0  0  0  0  0  0  0
  150.0927  135.1484  155.2745 C   0  0  2  0  0  0  0  0  0  0  0  0
  150.4101  133.6927  154.9070 C   0  0  0  0  0  0  0  0  0  0  0  0
  149.7571  133.3340  153.6994 O   0  0  0  0  0  0  0  0  0  0  0  0
  149.1178  132.1531  153.6011 C   0  0  0  0  0  0  0  0  0  0  0  0
  149.4248  131.1542  154.2550 O   0  0  0  0  0  0  0  0  0  0  0  0
  147.9952  132.1825  152.6198 C   0  0  0  0  0  0  0  0  0  0  0  0
  147.8278  133.3172  151.7920 C   0  0  0  0  0  0  0  0  0  0  0  0
  146.7792  133.3722  150.8533 C   0  0  0  0  0  0  0  0  0  0  0  0
  145.8841  132.2933  150.7319 C   0  0  0  0  0  0  0  0  0  0  0  0
  146.0389  131.1594  151.5505 C   0  0  0  0  0  0  0  0  0  0  0  0
  147.0876  131.1022  152.4892 C   0  0  0  0  0  0  0  0  0  0  0  0
  148.7198  135.6595  154.8336 C   0  0  1  0  0  0  0  0  0  0  0  0
  147.7026  135.3235  155.7607 O   0  0  0  0  0  0  0  0  0  0  0  0
  147.5068  136.5896  156.8326 S   0  0  0  0  0  0  0  0  0  0  0  0
  146.1181  137.0646  156.7358 O   0  0  0  0  0  0  0  0  0  0  0  0
  148.1284  136.2127  158.1111 O   0  0  0  0  0  0  0  0  0  0  0  0
  148.4960  137.7060  156.0842 O   0  0  0  0  0  0  0  0  0  0  0  0
  148.9263  137.1815  154.8363 C   0  0  1  0  0  0  0  0  0  0  0  0
  152.8747  142.8266  160.5163 C   0  0  0  0  0  0  0  0  0  0  0  0
  152.3430  143.8941  161.2708 C   0  0  0  0  0  0  0  0  0  0  0  0
  152.5833  143.9679  162.6570 C   0  0  0  0  0  0  0  0  0  0  0  0
  153.3566  142.9769  163.2921 C   0  0  0  0  0  0  0  0  0  0  0  0
  153.8917  141.9123  162.5409 C   0  0  0  0  0  0  0  0  0  0  0  0
  153.6519  141.8368  161.1548 C   0  0  0  0  0  0  0  0  0  0  0  0
  149.8996  142.4217  154.9502 H   0  0  0  0  0  0  0  0  0  0  0  0
  152.0804  136.6570  156.9153 H   0  0  0  0  0  0  0  0  0  0  0  0
  150.7310  137.8576  153.7257 H   0  0  0  0  0  0  0  0  0  0  0  0
  150.1959  135.2687  156.3537 H   0  0  0  0  0  0  0  0  0  0  0  0
  151.4872  133.5600  154.7977 H   0  0  0  0  0  0  0  0  0  0  0  0
  150.0792  133.0332  155.7106 H   0  0  0  0  0  0  0  0  0  0  0  0
  148.5028  134.1576  151.8669 H   0  0  0  0  0  0  0  0  0  0  0  0
  146.6621  134.2433  150.2257 H   0  0  0  0  0  0  0  0  0  0  0  0
  145.0799  132.3354  150.0122 H   0  0  0  0  0  0  0  0  0  0  0  0
  145.3524  130.3308  151.4585 H   0  0  0  0  0  0  0  0  0  0  0  0
  147.1773  130.2170  153.1016 H   0  0  0  0  0  0  0  0  0  0  0  0
  148.4631  135.3177  153.8306 H   0  0  0  0  0  0  0  0  0  0  0  0
  148.3884  137.6717  154.0244 H   0  0  0  0  0  0  0  0  0  0  0  0
  151.7509  144.6595  160.7903 H   0  0  0  0  0  0  0  0  0  0  0  0
  152.1754  144.7858  163.2327 H   0  0  0  0  0  0  0  0  0  0  0  0
  153.5410  143.0348  164.3547 H   0  0  0  0  0  0  0  0  0  0  0  0
  154.4869  141.1538  163.0275 H   0  0  0  0  0  0  0  0  0  0  0  0
  154.0676  141.0180  160.5851 H   0  0  0  0  0  0  0  0  0  0  0  0
  151.0766  143.0191  156.8452 H   0  0  0  0  0  0  0  0  0  0  0  0
  1  2  2  0  0  0  0
  2  3  1  0  0  0  0
  2 33  1  0  0  0  0
  3  4  2  0  0  0  0
  4  9  1  0  0  0  0
  4  5  1  0  0  0  0
  5  6  1  0  0  0  0
  5 57  1  0  0  0  0
  6  7  2  0  0  0  0
  6 39  1  0  0  0  0
  7  8  1  0  0  0  0
  8 12  1  0  0  0  0
  8  9  2  0  0  0  0
  9 10  1  0  0  0  0
 10 11  2  0  0  0  0
 11 12  1  0  0  0  0
 11 40  1  0  0  0  0
 12 13  1  0  0  0  0
 13 32  1  0  0  0  0
 13 14  1  0  0  0  0
 13 41  1  0  0  0  0
 14 15  1  0  0  0  0
 15 16  1  0  0  0  0
 15 26  1  0  0  0  0
 15 42  1  0  0  0  0
 16 17  1  0  0  0  0
 16 43  1  0  0  0  0
 16 44  1  0  0  0  0
 17 18  1  0  0  0  0
 18 19  2  0  0  0  0
 18 20  1  0  0  0  0
 20 25  1  0  0  0  0
 20 21  2  0  0  0  0
 21 22  1  0  0  0  0
 21 45  1  0  0  0  0
 22 23  2  0  0  0  0
 22 46  1  0  0  0  0
 23 24  1  0  0  0  0
 23 47  1  0  0  0  0
 24 25  2  0  0  0  0
 24 48  1  0  0  0  0
 25 49  1  0  0  0  0
 26 32  1  0  0  0  0
 26 27  1  0  0  0  0
 26 50  1  0  0  0  0
 27 28  1  0  0  0  0
 28 29  2  0  0  0  0
 28 30  2  0  0  0  0
 28 31  1  0  0  0  0
 31 32  1  0  0  0  0
 32 51  1  0  0  0  0
 33 38  1  0  0  0  0
 33 34  2  0  0  0  0
 34 35  1  0  0  0  0
 34 52  1  0  0  0  0
 35 36  2  0  0  0  0
 35 53  1  0  0  0  0
 36 37  1  0  0  0  0
 36 54  1  0  0  0  0
 37 38  2  0  0  0  0
 37 55  1  0  0  0  0
 38 56  1  0  0  0  0
M  END
> <s_m_source_file>
AV-unprocessed.smi

> <i_m_source_file_index>
1

> <i_lp_mmshare_version>
43012

> <i_f3d_flags>
0

> <s_epik_input>
W2NIXTFbY0hdW2NIXVtjSF1bY0hdYzFDKD1PKVtOSF1jKG5bY0hdbjIpYyhjMjMpbltjSF1uM1tDQEBIXShbQ0BIXShbQ0BIXTQ1KU9TKE81KSg9Tyk9TylPW0NASF00W0NIMl1PQyg9TyljNltjSF1bY0hdW2NIXVtjSF1bY0hdNg==

> <s_epik_cmdline>
J2VwaWtfcHl0aG9uJywgJy1waCcsICc3LjAnLCAnLXRuJywgJzgnLCAnLW1hJywgJzIwMCcsICctbWV0YWxfYmluZGluZycsICctaW1hZScsICc8aW5maWxlLm1hZT4nLCAnLW9tYWUnLCAnPG91dGZpbGUubWFlPic=

> <r_epik_Ionization_Penalty>
0.122545

> <r_epik_Ionization_Penalty_Charging>
0.122545

> <r_epik_Ionization_Penalty_Neutral>
7.8935e-16

> <r_epik_State_Penalty>
2.69178

> <r_epik_Charging_Adjusted_Penalty>
2.81433

> <i_epik_Tot_Q>
0

> <i_epik_Tot_abs_Q>
0

> <r_epik_Metal_State_Penalty>
3.02665

> <b_epik_Metal_Only>
0

> <s_epik_Chemistry_Notes>
This compound has an ester and may undergo hydrolysis at high or low pH. This compound contains an acetal/aminal-like group ( X-CH(R)-Y where X, Y are N, S, or O) that may be acid/base labile, releasing an aldehyde.

> <s_lp_Force_Field>
OPLS_2005

> <r_lp_Energy>
59.1261

> <b_lp_Chiralities_Consistent>
1

> <s_lp_Variant>
AV-unprocessed.smi:1-16

> <Gold.Version>
5.8.1

> <Gold.Id.Protein>
6NUR|6NUR_protein|mol2

> <Gold.PLP.Fitness>
58.5777

> <Gold.PLP.PLP>
-58.6942

> <Gold.PLP.part.hbond>
-0.8503

> <Gold.PLP.part.metal>
0.0000

> <Gold.PLP.part.buried>
-5.3969

> <Gold.PLP.part.nonpolar>
-51.2011

> <Gold.PLP.part.repulsive>
0.5907

> <Gold.PLP.ligand.clash>
0.0000

> <Gold.PLP.ligand.torsion>
2.0368

> <Gold.PLP.Chemscore.Hbond>
0.1235

> <Gold.PLP.Chemscore.CHOScore>
1.0000

> <Gold.PLP.Chemscore.Metal>
0.0000

> <Gold.Chemscore.Hbonds>
donor molecule, donor type, donor heavy atom, donor atom, acceptor molecule, acceptor atom, score
      P1  H  7989  7998       L1     7  0.31
      L1  C     6    39       P1  8028  0.82

> <Gold.PLP.Chemscore.Internal.Correction>
0.5866

> <Gold.Rescore>
     Score         DG    S(hbond)    S(metal)    S(lipo)     H(rot)  DE(clash)    DE(int)     intcor
     13.10     -15.86       0.00        0.00     135.36       2.13       0.41       2.35       ----

> <Gold.Chemscore.Fitness>
13.0983

> <Gold.Chemscore.DG>
-15.8555

> <Gold.Chemscore.ZeroCoef>
-5.4800

> <Gold.Chemscore.Hbond>
0.0000

> <Gold.Chemscore.Metal>
0.0000

> <Gold.Chemscore.Lipo>
135.3576

> <Gold.Chemscore.Internal_Hbond>
0.0000

> <Gold.Chemscore.DEClash>
0.4057

> <Gold.Chemscore.DEInternal>
2.3515

> <Gold.Chemscore.Rot>
2.1333

> <Gold.Chemscore.Internal.Correction>
   9.000000E+99

> <Gold.Chemscore.Hbond.Weighted>
-0.0000

> <Gold.Chemscore.Metal.Weighted>
-0.0000

> <Gold.Chemscore.Lipo.Weighted>
-15.8368

> <Gold.Chemscore.Internal_Hbond.Weighted>
0.0000

> <Gold.Chemscore.DEClash.Weighted>
0.4057

> <Gold.Chemscore.DEInternal.Weighted>
2.3515

> <Gold.Chemscore.Rot.Weighted>
5.4614

> <Gold.Chemscore.Internal.Correction.Weighted>
   9.000000E+99

> <Gold.Protein.RotatedTorsions>
[ 6907 6896 6895 6894 ] final  112.99 input  -60.11 | X-H torsion
[ 7974 7965 7964 7962 ] final -117.19 input  175.53 | X-H torsion
[ 8008 7997 7996 7995 ] final   56.07 input   59.86 | X-H torsion
[ 10167 10162 10161 10158 ] final   50.35 input  -65.29 | X-H torsion
[ 10718 10713 10712 10709 ] final  139.08 input   66.30 | X-H torsion
[ 10763 10752 10751 10750 ] final -126.97 input  -60.55 | X-H torsion
[ 11005 11000 10999 10996 ] final  179.01 input  -57.11 | X-H torsion

> <Gold.Protein.ActiveResidues>
 VAL166  LYS551  ARG553  GLY616  TRP617  ASP618  TYR619  PRO620  LYS621  CYS622 
 ASP623  PHE694  ASN695  SER759  ASP760  ASP761  ALA762  ILE779  LEU786  VAL792 
 PHE793  MET794  SER795  GLU796  ALA797  LYS798  CYS799  TRP800  GLU811  SER814 

> <Gold.Protein.RotatedAtoms>
  152.4886  133.8438  159.7166 H   0  0  0  0  0  0  0  0  0  0  0  0  # atno 6907 bound_to 6896
  150.8994  133.7129  159.2889 H   0  0  0  0  0  0  0  0  0  0  0  0  # atno 6908 bound_to 6896
  151.4575  135.1039  159.9767 H   0  0  0  0  0  0  0  0  0  0  0  0  # atno 6909 bound_to 6896
  145.0881  140.8471  143.3999 H   0  0  0  0  0  0  0  0  0  0  0  0  # atno 7974 bound_to 7965
  155.5114  140.3477  155.4389 H   0  0  0  0  0  0  0  0  0  0  0  0  # atno 8008 bound_to 7997
  156.0847  140.1395  156.9696 H   0  0  0  0  0  0  0  0  0  0  0  0  # atno 8009 bound_to 7997
  154.4599  140.0939  156.6841 H   0  0  0  0  0  0  0  0  0  0  0  0  # atno 8010 bound_to 7997
  140.2733  144.3240  150.6284 H   0  0  0  0  0  0  0  0  0  0  0  0  # atno 10167 bound_to 10162
  157.4183  131.1036  151.0381 H   0  0  0  0  0  0  0  0  0  0  0  0  # atno 10718 bound_to 10713
  154.8749  135.3978  154.3517 H   0  0  0  0  0  0  0  0  0  0  0  0  # atno 10763 bound_to 10752
  153.4301  135.7025  153.6241 H   0  0  0  0  0  0  0  0  0  0  0  0  # atno 10764 bound_to 10752
  153.4866  135.3757  155.2440 H   0  0  0  0  0  0  0  0  0  0  0  0  # atno 10765 bound_to 10752
  140.4014  134.6774  157.4564 H   0  0  0  0  0  0  0  0  0  0  0  0  # atno 11005 bound_to 11000
  145.1099  139.2764  143.5643 LP  0  0  0  0  0  0  0  0  0  0  0  0  # atno 17320 bound_to 7965
  146.3531  140.0691  142.8624 LP  0  0  0  0  0  0  0  0  0  0  0  0  # atno 17321 bound_to 7965
  140.5872  143.2169  151.7321 LP  0  0  0  0  0  0  0  0  0  0  0  0  # atno 17342 bound_to 10162
  139.4983  144.3994  152.0197 LP  0  0  0  0  0  0  0  0  0  0  0  0  # atno 17343 bound_to 10162
  157.1320  130.6106  149.5532 LP  0  0  0  0  0  0  0  0  0  0  0  0  # atno 17370 bound_to 10713
  155.9872  130.4910  150.7115 LP  0  0  0  0  0  0  0  0  0  0  0  0  # atno 17371 bound_to 10713
  140.0333  134.6374  155.9077 LP  0  0  0  0  0  0  0  0  0  0  0  0  # atno 17394 bound_to 11000
  141.1855  133.6555  156.5201 LP  0  0  0  0  0  0  0  0  0  0  0  0  # atno 17395 bound_to 11000

$$$$
