AV-unprocessed.smi:1709|AV-procd|sdf|6894|dock3
  -GOLD-   22720 8103D 1   1.00000     0.00000
 Structure written by MMmdl.
 43 45  0  0  0  0  0  0  0  0  2 V2000
  152.0092  143.6051  160.2850 C   0  0  0  0  0  0  0  0  0  0  0  0
  152.8524  142.3711  160.5649 C   0  0  0  0  0  0  0  0  0  0  0  0
  153.6742  142.3464  161.7117 C   0  0  0  0  0  0  0  0  0  0  0  0
  154.4521  141.2061  161.9739 C   0  0  0  0  0  0  0  0  0  0  0  0
  154.3727  140.1313  161.0733 C   0  0  0  0  0  0  0  0  0  0  0  0
  153.5896  140.1464  159.9752 N   0  0  0  0  0  0  0  0  0  0  0  0
  152.8350  141.2424  159.7016 C   0  0  0  0  0  0  0  0  0  0  0  0
  151.9680  141.3375  158.5689 N   0  0  0  0  0  0  0  0  0  0  0  0
  151.9927  140.7223  157.3674 C   0  0  0  0  0  0  0  0  0  0  0  0
  152.8748  139.9134  157.0853 O   0  0  0  0  0  0  0  0  0  0  0  0
  151.0067  141.0469  156.5149 N   0  0  0  0  0  0  0  0  0  0  0  0
  150.8455  140.5345  155.1563 C   0  0  1  0  0  0  0  0  0  0  0  0
  151.0337  139.0072  155.0709 C   0  0  0  0  0  0  0  0  0  0  0  0
  149.9206  138.5278  154.1337 C   0  0  0  0  0  0  0  0  0  0  0  0
  148.8311  139.4721  154.4067 N   0  3  2  0  0  0  0  0  0  0  0  0
  147.6624  139.4796  153.5037 C   0  0  0  0  0  0  0  0  0  0  0  0
  146.5900  140.4163  154.1005 C   0  0  0  0  0  0  0  0  0  0  0  0
  147.1535  141.8181  154.4261 C   0  0  0  0  0  0  0  0  0  0  0  0
  148.4467  141.7353  155.2650 C   0  0  0  0  0  0  0  0  0  0  0  0
  149.4454  140.8024  154.5560 C   0  0  1  0  0  0  0  0  0  0  0  0
  152.1802  144.3809  161.0317 H   0  0  0  0  0  0  0  0  0  0  0  0
  150.9485  143.3531  160.2998 H   0  0  0  0  0  0  0  0  0  0  0  0
  152.2535  144.0226  159.3077 H   0  0  0  0  0  0  0  0  0  0  0  0
  153.7101  143.1901  162.3852 H   0  0  0  0  0  0  0  0  0  0  0  0
  155.0915  141.1570  162.8430 H   0  0  0  0  0  0  0  0  0  0  0  0
  154.9522  139.2350  161.2373 H   0  0  0  0  0  0  0  0  0  0  0  0
  151.1662  141.9341  158.7130 H   0  0  0  0  0  0  0  0  0  0  0  0
  150.3235  141.7202  156.8329 H   0  0  0  0  0  0  0  0  0  0  0  0
  151.5915  141.0011  154.5096 H   0  0  0  0  0  0  0  0  0  0  0  0
  152.0256  138.7252  154.7165 H   0  0  0  0  0  0  0  0  0  0  0  0
  150.8949  138.5529  156.0533 H   0  0  0  0  0  0  0  0  0  0  0  0
  150.2313  138.6137  153.0913 H   0  0  0  0  0  0  0  0  0  0  0  0
  149.6242  137.4959  154.3242 H   0  0  0  0  0  0  0  0  0  0  0  0
  147.9589  139.8110  152.5074 H   0  0  0  0  0  0  0  0  0  0  0  0
  147.2658  138.4687  153.4053 H   0  0  0  0  0  0  0  0  0  0  0  0
  145.7452  140.5024  153.4166 H   0  0  0  0  0  0  0  0  0  0  0  0
  146.1979  139.9714  155.0159 H   0  0  0  0  0  0  0  0  0  0  0  0
  147.3629  142.3448  153.4942 H   0  0  0  0  0  0  0  0  0  0  0  0
  146.4037  142.4103  154.9512 H   0  0  0  0  0  0  0  0  0  0  0  0
  148.8715  142.7321  155.3854 H   0  0  0  0  0  0  0  0  0  0  0  0
  148.2202  141.3620  156.2648 H   0  0  0  0  0  0  0  0  0  0  0  0
  149.6157  141.1979  153.5521 H   0  0  0  0  0  0  0  0  0  0  0  0
  148.4838  139.2228  155.3220 H   0  0  0  0  0  0  0  0  0  0  0  0
  1  2  1  0  0  0  0
  1 21  1  0  0  0  0
  1 22  1  0  0  0  0
  1 23  1  0  0  0  0
  2  7  1  0  0  0  0
  2  3  2  0  0  0  0
  3  4  1  0  0  0  0
  3 24  1  0  0  0  0
  4  5  2  0  0  0  0
  4 25  1  0  0  0  0
  5  6  1  0  0  0  0
  5 26  1  0  0  0  0
  6  7  2  0  0  0  0
  7  8  1  0  0  0  0
  8  9  1  0  0  0  0
  8 27  1  0  0  0  0
  9 10  2  0  0  0  0
  9 11  1  0  0  0  0
 11 12  1  0  0  0  0
 11 28  1  0  0  0  0
 12 20  1  0  0  0  0
 12 13  1  0  0  0  0
 12 29  1  0  0  0  0
 13 14  1  0  0  0  0
 13 30  1  0  0  0  0
 13 31  1  0  0  0  0
 14 15  1  0  0  0  0
 14 32  1  0  0  0  0
 14 33  1  0  0  0  0
 15 20  1  0  0  0  0
 15 16  1  0  0  0  0
 15 43  1  0  0  0  0
 16 17  1  0  0  0  0
 16 34  1  0  0  0  0
 16 35  1  0  0  0  0
 17 18  1  0  0  0  0
 17 36  1  0  0  0  0
 17 37  1  0  0  0  0
 18 19  1  0  0  0  0
 18 38  1  0  0  0  0
 18 39  1  0  0  0  0
 19 20  1  0  0  0  0
 19 40  1  0  0  0  0
 19 41  1  0  0  0  0
 20 42  1  0  0  0  0
M  CHG  1  15   1
M  END
> <s_m_source_file>
AV-unprocessed.smi

> <i_m_source_file_index>
1709

> <i_lp_mmshare_version>
43012

> <i_f3d_flags>
0

> <s_epik_input>
W0NIM11jMVtjSF1bY0hdW2NIXW5jMVtOSF1DKD1PKVtOSF1bQ0BIXShbQ0gyXVtDSDJdMilbQ0BASF0oTjIzKVtDSDJdW0NIMl1bQ0gyXVtDSDJdMw==

> <s_epik_cmdline>
J2VwaWtfcHl0aG9uJywgJy1waCcsICc3LjAnLCAnLXRuJywgJzgnLCAnLW1hJywgJzIwMCcsICctbWV0YWxfYmluZGluZycsICctaW1hZScsICc8aW5maWxlLm1hZT4nLCAnLW9tYWUnLCAnPG91dGZpbGUubWFlPic=

> <r_epik_Ionization_Penalty>
0.00101524

> <r_epik_Ionization_Penalty_Charging>
0.000974069

> <r_epik_Ionization_Penalty_Neutral>
4.11757e-05

> <r_epik_State_Penalty>
0.000633842

> <r_epik_Charging_Adjusted_Penalty>
0.00160791

> <i_epik_Tot_Q>
1

> <i_epik_Tot_abs_Q>
1

> <r_epik_Metal_State_Penalty>
-0

> <b_epik_Metal_Only>
0

> <s_lp_Force_Field>
OPLS_2005

> <r_lp_Energy>
46.0591

> <b_lp_Chiralities_Consistent>
1

> <s_lp_Variant>
AV-unprocessed.smi:1709-4

> <Gold.Version>
5.8.1

> <Gold.Id.Protein>
6NUR|6NUR_protein|mol2

> <Gold.PLP.Fitness>
40.4445

> <Gold.PLP.PLP>
-38.0578

> <Gold.PLP.part.hbond>
-1.0000

> <Gold.PLP.part.metal>
0.0000

> <Gold.PLP.part.buried>
1.0056

> <Gold.PLP.part.nonpolar>
-37.5322

> <Gold.PLP.part.repulsive>
0.2568

> <Gold.PLP.ligand.clash>
0.0000

> <Gold.PLP.ligand.torsion>
0.3070

> <Gold.PLP.Chemscore.Hbond>
1.0000

> <Gold.PLP.Chemscore.CHOScore>
0.0000

> <Gold.PLP.Chemscore.Metal>
0.0000

> <Gold.Chemscore.Hbonds>
donor molecule, donor type, donor heavy atom, donor atom, acceptor molecule, acceptor atom, score
      P1  H  7997  8008       L1    10  1.00

> <Gold.PLP.Chemscore.Internal.Correction>
0.0006

> <Gold.Rescore>
     Score         DG    S(hbond)    S(metal)    S(lipo)     H(rot)  DE(clash)    DE(int)     intcor
     16.02     -18.38       0.98        0.00     104.25       1.00       0.59       1.76       ----

> <Gold.Chemscore.Fitness>
16.0238

> <Gold.Chemscore.DG>
-18.3755

> <Gold.Chemscore.ZeroCoef>
-5.4800

> <Gold.Chemscore.Hbond>
0.9755

> <Gold.Chemscore.Metal>
0.0000

> <Gold.Chemscore.Lipo>
104.2515

> <Gold.Chemscore.Internal_Hbond>
0.0000

> <Gold.Chemscore.DEClash>
0.5948

> <Gold.Chemscore.DEInternal>
1.7569

> <Gold.Chemscore.Rot>
1.0000

> <Gold.Chemscore.Internal.Correction>
   9.000000E+99

> <Gold.Chemscore.Hbonds>
donor molecule, donor type, donor heavy atom, donor atom, acceptor molecule, acceptor atom, score
      P1  H  7997  8008       L1    10  0.96

> <Gold.Chemscore.Hbond.Weighted>
-3.2580

> <Gold.Chemscore.Metal.Weighted>
-0.0000

> <Gold.Chemscore.Lipo.Weighted>
-12.1974

> <Gold.Chemscore.Internal_Hbond.Weighted>
0.0000

> <Gold.Chemscore.DEClash.Weighted>
0.5948

> <Gold.Chemscore.DEInternal.Weighted>
1.7569

> <Gold.Chemscore.Rot.Weighted>
2.5600

> <Gold.Chemscore.Internal.Correction.Weighted>
   9.000000E+99

> <Gold.Protein.RotatedTorsions>
[ 6907 6896 6895 6894 ] final  166.98 input  -60.11 | X-H torsion
[ 7974 7965 7964 7962 ] final  -43.49 input  175.53 | X-H torsion
[ 8008 7997 7996 7995 ] final  -48.58 input   59.86 | X-H torsion
[ 10167 10162 10161 10158 ] final   33.35 input  -65.29 | X-H torsion
[ 10718 10713 10712 10709 ] final  159.77 input   66.30 | X-H torsion
[ 10763 10752 10751 10750 ] final   82.56 input  -60.55 | X-H torsion
[ 11005 11000 10999 10996 ] final -125.24 input  -57.11 | X-H torsion

> <Gold.Protein.ActiveResidues>
 VAL166  LYS551  ARG553  GLY616  TRP617  ASP618  TYR619  PRO620  LYS621  CYS622 
 ASP623  PHE694  ASN695  SER759  ASP760  ASP761  ALA762  ILE779  LEU786  VAL792 
 PHE793  MET794  SER795  GLU796  ALA797  LYS798  CYS799  TRP800  GLU811  SER814 

> <Gold.Protein.RotatedAtoms>
  151.8704  133.3474  159.3732 H   0  0  0  0  0  0  0  0  0  0  0  0  # atno 6907 bound_to 6896
  150.7154  134.5118  159.5620 H   0  0  0  0  0  0  0  0  0  0  0  0  # atno 6908 bound_to 6896
  152.2650  134.7994  160.0475 H   0  0  0  0  0  0  0  0  0  0  0  0  # atno 6909 bound_to 6896
  146.0014  140.7070  142.9268 H   0  0  0  0  0  0  0  0  0  0  0  0  # atno 7974 bound_to 7965
  154.4031  140.1318  156.4361 H   0  0  0  0  0  0  0  0  0  0  0  0  # atno 8008 bound_to 7997
  155.7504  140.3488  155.5127 H   0  0  0  0  0  0  0  0  0  0  0  0  # atno 8009 bound_to 7997
  155.8955  140.1010  157.1378 H   0  0  0  0  0  0  0  0  0  0  0  0  # atno 8010 bound_to 7997
  140.4415  144.1180  150.6175 H   0  0  0  0  0  0  0  0  0  0  0  0  # atno 10167 bound_to 10162
  157.1597  131.0584  151.2238 H   0  0  0  0  0  0  0  0  0  0  0  0  # atno 10718 bound_to 10713
  153.1214  135.4724  154.9201 H   0  0  0  0  0  0  0  0  0  0  0  0  # atno 10763 bound_to 10752
  154.7578  135.3123  154.8438 H   0  0  0  0  0  0  0  0  0  0  0  0  # atno 10764 bound_to 10752
  153.9002  135.6876  153.4809 H   0  0  0  0  0  0  0  0  0  0  0  0  # atno 10765 bound_to 10752
  140.9778  134.0716  157.3799 H   0  0  0  0  0  0  0  0  0  0  0  0  # atno 11005 bound_to 11000
  144.6921  140.3240  143.7227 LP  0  0  0  0  0  0  0  0  0  0  0  0  # atno 17320 bound_to 7965
  145.7481  139.1785  143.2337 LP  0  0  0  0  0  0  0  0  0  0  0  0  # atno 17321 bound_to 7965
  140.4312  143.2567  151.9592 LP  0  0  0  0  0  0  0  0  0  0  0  0  # atno 17342 bound_to 10162
  139.4790  144.5742  151.8039 LP  0  0  0  0  0  0  0  0  0  0  0  0  # atno 17343 bound_to 10162
  157.4144  130.7403  149.6864 LP  0  0  0  0  0  0  0  0  0  0  0  0  # atno 17370 bound_to 10713
  155.9756  130.4087  150.3838 LP  0  0  0  0  0  0  0  0  0  0  0  0  # atno 17371 bound_to 10713
  139.8937  135.0132  156.6915 LP  0  0  0  0  0  0  0  0  0  0  0  0  # atno 17394 bound_to 11000
  140.7233  133.9122  155.8161 LP  0  0  0  0  0  0  0  0  0  0  0  0  # atno 17395 bound_to 11000

$$$$
