AV-unprocessed.smi:1327|AV-procd|sdf|5477|dock2
  -GOLD-   22720 5 53D 1   1.00000     0.00000
 Structure written by MMmdl.
 40 41  0  0  0  0  0  0  0  0  1 V2000
  151.8777  138.5705  159.1986 O   0  0  0  0  0  0  0  0  0  0  0  0
  152.8848  139.4178  158.5420 S   0  0  0  0  0  0  0  0  0  0  0  0
  154.3176  139.2564  158.8334 O   0  0  0  0  0  0  0  0  0  0  0  0
  152.6780  139.2958  156.8366 N   0  0  0  0  0  0  0  0  0  0  0  0
  151.9086  138.1745  156.3003 C   0  0  0  0  0  0  0  0  0  0  0  0
  151.5782  138.3887  154.8138 C   0  0  0  0  0  0  0  0  0  0  0  0
  150.3753  139.2905  154.5878 C   0  0  0  0  0  0  0  0  0  0  0  0
  149.1590  138.7559  154.1114 C   0  0  0  0  0  0  0  0  0  0  0  0
  148.0750  139.6311  153.9059 C   0  0  0  0  0  0  0  0  0  0  0  0
  148.2477  141.0011  154.1814 C   0  0  0  0  0  0  0  0  0  0  0  0
  149.5018  141.4366  154.6532 C   0  0  0  0  0  0  0  0  0  0  0  0
  150.5472  140.6057  154.8551 N   0  0  0  0  0  0  0  0  0  0  0  0
  152.4388  141.0799  158.7588 N   0  0  0  0  0  0  0  0  0  0  0  0
  152.8974  141.7651  159.9804 C   0  0  0  0  0  0  0  0  0  0  0  0
  153.0753  143.2848  159.7950 C   0  0  0  0  0  0  0  0  0  0  0  0
  151.7487  144.0551  159.7083 C   0  0  0  0  0  0  0  0  0  0  0  0
  151.1229  144.1090  158.3034 C   0  0  0  0  0  0  0  0  0  0  0  0
  151.2781  142.8388  157.4494 C   0  0  0  0  0  0  0  0  0  0  0  0
  151.1353  141.5218  158.2265 C   0  0  0  0  0  0  0  0  0  0  0  0
  153.5514  139.4505  156.3325 H   0  0  0  0  0  0  0  0  0  0  0  0
  152.4726  137.2506  156.4330 H   0  0  0  0  0  0  0  0  0  0  0  0
  150.9896  138.0756  156.8784 H   0  0  0  0  0  0  0  0  0  0  0  0
  152.4420  138.8274  154.3132 H   0  0  0  0  0  0  0  0  0  0  0  0
  151.4059  137.4281  154.3262 H   0  0  0  0  0  0  0  0  0  0  0  0
  149.0580  137.7005  153.9050 H   0  0  0  0  0  0  0  0  0  0  0  0
  147.1287  139.2583  153.5427 H   0  0  0  0  0  0  0  0  0  0  0  0
  147.4389  141.7015  154.0345 H   0  0  0  0  0  0  0  0  0  0  0  0
  149.6695  142.4804  154.8737 H   0  0  0  0  0  0  0  0  0  0  0  0
  152.2096  141.5474  160.7982 H   0  0  0  0  0  0  0  0  0  0  0  0
  153.8602  141.3504  160.2780 H   0  0  0  0  0  0  0  0  0  0  0  0
  153.6173  143.6566  160.6654 H   0  0  0  0  0  0  0  0  0  0  0  0
  153.7122  143.5036  158.9372 H   0  0  0  0  0  0  0  0  0  0  0  0
  151.0361  143.6254  160.4137 H   0  0  0  0  0  0  0  0  0  0  0  0
  151.9070  145.0795  160.0470 H   0  0  0  0  0  0  0  0  0  0  0  0
  150.0630  144.3418  158.4123 H   0  0  0  0  0  0  0  0  0  0  0  0
  151.5513  144.9453  157.7499 H   0  0  0  0  0  0  0  0  0  0  0  0
  150.5262  142.8701  156.6603 H   0  0  0  0  0  0  0  0  0  0  0  0
  152.2383  142.8529  156.9312 H   0  0  0  0  0  0  0  0  0  0  0  0
  150.7523  140.7618  157.5457 H   0  0  0  0  0  0  0  0  0  0  0  0
  150.4001  141.5963  159.0285 H   0  0  0  0  0  0  0  0  0  0  0  0
  1  2  2  0  0  0  0
  2  3  2  0  0  0  0
  2  4  1  0  0  0  0
  2 13  1  0  0  0  0
  4  5  1  0  0  0  0
  4 20  1  0  0  0  0
  5  6  1  0  0  0  0
  5 21  1  0  0  0  0
  5 22  1  0  0  0  0
  6  7  1  0  0  0  0
  6 23  1  0  0  0  0
  6 24  1  0  0  0  0
  7 12  1  0  0  0  0
  7  8  2  0  0  0  0
  8  9  1  0  0  0  0
  8 25  1  0  0  0  0
  9 10  2  0  0  0  0
  9 26  1  0  0  0  0
 10 11  1  0  0  0  0
 10 27  1  0  0  0  0
 11 12  2  0  0  0  0
 11 28  1  0  0  0  0
 13 19  1  0  0  0  0
 13 14  1  0  0  0  0
 14 15  1  0  0  0  0
 14 29  1  0  0  0  0
 14 30  1  0  0  0  0
 15 16  1  0  0  0  0
 15 31  1  0  0  0  0
 15 32  1  0  0  0  0
 16 17  1  0  0  0  0
 16 33  1  0  0  0  0
 16 34  1  0  0  0  0
 17 18  1  0  0  0  0
 17 35  1  0  0  0  0
 17 36  1  0  0  0  0
 18 19  1  0  0  0  0
 18 37  1  0  0  0  0
 18 38  1  0  0  0  0
 19 39  1  0  0  0  0
 19 40  1  0  0  0  0
M  END
> <s_m_source_file>
AV-unprocessed.smi

> <i_m_source_file_index>
1327

> <i_lp_mmshare_version>
43012

> <i_f3d_flags>
0

> <s_epik_input>
W0NIMl0xW0NIMl1bQ0gyXVtDSDJdW0NIMl1bQ0gyXU4xUyg9TykoPU8pW05IXVtDSDJdW0NIMl1jMltjSF1bY0hdW2NIXVtjSF1uMg==

> <s_epik_cmdline>
J2VwaWtfcHl0aG9uJywgJy1waCcsICc3LjAnLCAnLXRuJywgJzgnLCAnLW1hJywgJzIwMCcsICctbWV0YWxfYmluZGluZycsICctaW1hZScsICc8aW5maWxlLm1hZT4nLCAnLW9tYWUnLCAnPG91dGZpbGUubWFlPic=

> <r_lp_tautomer_probability>
1

> <r_epik_Ionization_Penalty>
0.00665037

> <r_epik_Ionization_Penalty_Charging>
0

> <r_epik_Ionization_Penalty_Neutral>
0.00665037

> <r_epik_State_Penalty>
-0

> <r_epik_Charging_Adjusted_Penalty>
0

> <i_epik_Tot_Q>
0

> <i_epik_Tot_abs_Q>
0

> <r_epik_Metal_State_Penalty>
0.361784

> <b_epik_Metal_Only>
0

> <s_lp_Force_Field>
OPLS_2005

> <r_lp_Energy>
15.8899

> <b_lp_Chiralities_Consistent>
1

> <s_lp_Variant>
AV-unprocessed.smi:1327-1

> <Gold.Version>
5.8.1

> <Gold.Id.Protein>
6NUR|6NUR_protein|mol2

> <Gold.PLP.Fitness>
48.8719

> <Gold.PLP.PLP>
-41.5982

> <Gold.PLP.part.hbond>
-3.0000

> <Gold.PLP.part.metal>
0.0000

> <Gold.PLP.part.buried>
-3.5563

> <Gold.PLP.part.nonpolar>
-35.3183

> <Gold.PLP.part.repulsive>
0.0847

> <Gold.PLP.ligand.clash>
0.0000

> <Gold.PLP.ligand.torsion>
1.6097

> <Gold.PLP.Chemscore.Hbond>
1.7808

> <Gold.PLP.Chemscore.CHOScore>
1.0000

> <Gold.PLP.Chemscore.Metal>
0.0000

> <Gold.Chemscore.Hbonds>
donor molecule, donor type, donor heavy atom, donor atom, acceptor molecule, acceptor atom, score
      P1  H  7989  7998       L1    12  0.72
      P1  H  7997  8009       L1     3  1.00
      L1  C    11    28       P1  8028  1.00

> <Gold.PLP.Chemscore.Internal.Correction>
2.1508

> <Gold.Rescore>
     Score         DG    S(hbond)    S(metal)    S(lipo)     H(rot)  DE(clash)    DE(int)     intcor
     17.39     -19.33       1.45        0.00     109.14       1.47       0.15       1.78       ----

> <Gold.Chemscore.Fitness>
17.3918

> <Gold.Chemscore.DG>
-19.3260

> <Gold.Chemscore.ZeroCoef>
-5.4800

> <Gold.Chemscore.Hbond>
1.4511

> <Gold.Chemscore.Metal>
0.0000

> <Gold.Chemscore.Lipo>
109.1384

> <Gold.Chemscore.Internal_Hbond>
0.0000

> <Gold.Chemscore.DEClash>
0.1513

> <Gold.Chemscore.DEInternal>
1.7829

> <Gold.Chemscore.Rot>
1.4725

> <Gold.Chemscore.Internal.Correction>
   9.000000E+99

> <Gold.Chemscore.Hbonds>
donor molecule, donor type, donor heavy atom, donor atom, acceptor molecule, acceptor atom, score
      P1  H  7989  7998       L1    12  0.04
      P1  H  7997  8009       L1     3  0.45

> <Gold.Chemscore.Hbond.Weighted>
-4.8465

> <Gold.Chemscore.Metal.Weighted>
-0.0000

> <Gold.Chemscore.Lipo.Weighted>
-12.7692

> <Gold.Chemscore.Internal_Hbond.Weighted>
0.0000

> <Gold.Chemscore.DEClash.Weighted>
0.1513

> <Gold.Chemscore.DEInternal.Weighted>
1.7829

> <Gold.Chemscore.Rot.Weighted>
3.7697

> <Gold.Chemscore.Internal.Correction.Weighted>
   9.000000E+99

> <Gold.Protein.RotatedTorsions>
[ 6907 6896 6895 6894 ] final   37.93 input  -60.11 | X-H torsion
[ 7974 7965 7964 7962 ] final  -89.42 input  175.53 | X-H torsion
[ 8008 7997 7996 7995 ] final  115.46 input   59.86 | X-H torsion
[ 10167 10162 10161 10158 ] final   34.16 input  -65.29 | X-H torsion
[ 10718 10713 10712 10709 ] final  -39.02 input   66.30 | X-H torsion
[ 10763 10752 10751 10750 ] final  150.32 input  -60.55 | X-H torsion
[ 11005 11000 10999 10996 ] final   -4.36 input  -57.11 | X-H torsion

> <Gold.Protein.ActiveResidues>
 VAL166  LYS551  ARG553  GLY616  TRP617  ASP618  TYR619  PRO620  LYS621  CYS622 
 ASP623  PHE694  ASN695  SER759  ASP760  ASP761  ALA762  ILE779  LEU786  VAL792 
 PHE793  MET794  SER795  GLU796  ALA797  LYS798  CYS799  TRP800  GLU811  SER814 

> <Gold.Protein.RotatedAtoms>
  152.1497  134.8998  160.0548 H   0  0  0  0  0  0  0  0  0  0  0  0  # atno 6907 bound_to 6896
  152.0034  133.3829  159.4199 H   0  0  0  0  0  0  0  0  0  0  0  0  # atno 6908 bound_to 6896
  150.6874  134.3731  159.5045 H   0  0  0  0  0  0  0  0  0  0  0  0  # atno 6909 bound_to 6896
  145.4400  140.9558  143.2080 H   0  0  0  0  0  0  0  0  0  0  0  0  # atno 7974 bound_to 7965
  156.2383  140.2938  156.0372 H   0  0  0  0  0  0  0  0  0  0  0  0  # atno 8008 bound_to 7997
  155.2028  140.0410  157.2937 H   0  0  0  0  0  0  0  0  0  0  0  0  # atno 8009 bound_to 7997
  154.6119  140.2454  155.7665 H   0  0  0  0  0  0  0  0  0  0  0  0  # atno 8010 bound_to 7997
  140.4341  144.1282  150.6163 H   0  0  0  0  0  0  0  0  0  0  0  0  # atno 10167 bound_to 10162
  156.2971  130.4235  149.8180 H   0  0  0  0  0  0  0  0  0  0  0  0  # atno 10718 bound_to 10713
  154.0855  135.2856  155.3282 H   0  0  0  0  0  0  0  0  0  0  0  0  # atno 10763 bound_to 10752
  154.6655  135.5319  153.8075 H   0  0  0  0  0  0  0  0  0  0  0  0  # atno 10764 bound_to 10752
  153.0433  135.6544  154.1027 H   0  0  0  0  0  0  0  0  0  0  0  0  # atno 10765 bound_to 10752
  140.6794  133.9167  155.8545 H   0  0  0  0  0  0  0  0  0  0  0  0  # atno 11005 bound_to 11000
  144.8127  139.5932  143.7022 LP  0  0  0  0  0  0  0  0  0  0  0  0  # atno 17320 bound_to 7965
  146.2561  139.6306  142.9394 LP  0  0  0  0  0  0  0  0  0  0  0  0  # atno 17321 bound_to 7965
  140.4394  143.2533  151.9493 LP  0  0  0  0  0  0  0  0  0  0  0  0  # atno 17342 bound_to 10162
  139.4786  144.5669  151.8150 LP  0  0  0  0  0  0  0  0  0  0  0  0  # atno 17343 bound_to 10162
  156.5571  130.8367  151.3317 LP  0  0  0  0  0  0  0  0  0  0  0  0  # atno 17370 bound_to 10713
  157.7358  130.9768  150.2103 LP  0  0  0  0  0  0  0  0  0  0  0  0  # atno 17371 bound_to 10713
  141.0330  134.0730  157.3992 LP  0  0  0  0  0  0  0  0  0  0  0  0  # atno 17394 bound_to 11000
  139.8956  135.0142  156.7012 LP  0  0  0  0  0  0  0  0  0  0  0  0  # atno 17395 bound_to 11000

$$$$
