AV-unprocessed.smi:1289|AV-procd|sdf|5387|dock8
  -GOLD-   22720 4533D 1   1.00000     0.00000
 Structure written by MMmdl.
 38 40  0  0  0  0  0  0  0  0  2 V2000
  151.5961  130.1077  153.9580 N   0  0  0  0  0  0  0  0  0  0  0  0
  151.4650  131.2416  154.1468 C   0  0  0  0  0  0  0  0  0  0  0  0
  151.3001  132.6660  154.3838 C   0  0  0  0  0  0  0  0  0  0  0  0
  150.4035  133.4155  153.5972 C   0  0  0  0  0  0  0  0  0  0  0  0
  150.2444  134.7950  153.8316 C   0  0  0  0  0  0  0  0  0  0  0  0
  150.9734  135.4443  154.8489 C   0  0  0  0  0  0  0  0  0  0  0  0
  150.7542  136.7954  155.0086 O   0  0  0  0  0  0  0  0  0  0  0  0
  151.5199  137.4938  155.9829 C   0  0  0  0  0  0  0  0  0  0  0  0
  151.1221  138.9790  155.9967 C   0  0  2  0  0  0  0  0  0  0  0  0
  151.3555  139.5357  154.7187 O   0  0  0  0  0  0  0  0  0  0  0  0
  151.8124  139.7927  157.1102 C   0  0  0  0  0  0  0  0  0  0  0  0
  151.2652  141.1499  157.2456 N   0  0  0  0  0  0  0  0  0  0  0  0
  150.4005  141.8212  156.4375 C   0  0  0  0  0  0  0  0  0  0  0  0
  150.1889  143.0480  156.9895 N   0  3  0  0  0  0  0  0  0  0  0  0
  150.9276  143.1625  158.1690 C   0  0  0  0  0  0  0  0  0  0  0  0
  151.0382  144.2119  159.0762 C   0  0  0  0  0  0  0  0  0  0  0  0
  151.8848  144.0038  160.1847 C   0  0  0  0  0  0  0  0  0  0  0  0
  152.5824  142.7908  160.3587 C   0  0  0  0  0  0  0  0  0  0  0  0
  152.4628  141.7335  159.4329 C   0  0  0  0  0  0  0  0  0  0  0  0
  151.6224  141.9462  158.3403 C   0  0  0  0  0  0  0  0  0  0  0  0
  151.8754  134.6835  155.6352 C   0  0  0  0  0  0  0  0  0  0  0  0
  152.0359  133.3035  155.4023 C   0  0  0  0  0  0  0  0  0  0  0  0
  149.8337  132.9390  152.8123 H   0  0  0  0  0  0  0  0  0  0  0  0
  149.5541  135.3615  153.2238 H   0  0  0  0  0  0  0  0  0  0  0  0
  151.3887  137.0565  156.9743 H   0  0  0  0  0  0  0  0  0  0  0  0
  152.5773  137.4177  155.7241 H   0  0  0  0  0  0  0  0  0  0  0  0
  150.0437  139.0293  156.1525 H   0  0  0  0  0  0  0  0  0  0  0  0
  151.0153  138.9424  154.0667 H   0  0  0  0  0  0  0  0  0  0  0  0
  151.6738  139.2944  158.0704 H   0  0  0  0  0  0  0  0  0  0  0  0
  152.8892  139.8568  156.9534 H   0  0  0  0  0  0  0  0  0  0  0  0
  149.9602  141.4477  155.5240 H   0  0  0  0  0  0  0  0  0  0  0  0
  150.5055  145.1423  158.9447 H   0  0  0  0  0  0  0  0  0  0  0  0
  152.0019  144.7906  160.9159 H   0  0  0  0  0  0  0  0  0  0  0  0
  153.2235  142.6685  161.2197 H   0  0  0  0  0  0  0  0  0  0  0  0
  153.0059  140.8104  159.5740 H   0  0  0  0  0  0  0  0  0  0  0  0
  152.4569  135.1345  156.4246 H   0  0  0  0  0  0  0  0  0  0  0  0
  152.7274  132.7389  156.0113 H   0  0  0  0  0  0  0  0  0  0  0  0
  149.5831  143.7530  156.5890 H   0  0  0  0  0  0  0  0  0  0  0  0
  1  2  3  0  0  0  0
  2  3  1  0  0  0  0
  3 22  1  0  0  0  0
  3  4  2  0  0  0  0
  4  5  1  0  0  0  0
  4 23  1  0  0  0  0
  5  6  2  0  0  0  0
  5 24  1  0  0  0  0
  6  7  1  0  0  0  0
  6 21  1  0  0  0  0
  7  8  1  0  0  0  0
  8  9  1  0  0  0  0
  8 25  1  0  0  0  0
  8 26  1  0  0  0  0
  9 10  1  0  0  0  0
  9 11  1  0  0  0  0
  9 27  1  0  0  0  0
 10 28  1  0  0  0  0
 11 12  1  0  0  0  0
 11 29  1  0  0  0  0
 11 30  1  0  0  0  0
 12 20  1  0  0  0  0
 12 13  1  0  0  0  0
 13 14  2  0  0  0  0
 13 31  1  0  0  0  0
 14 15  1  0  0  0  0
 14 38  1  0  0  0  0
 15 20  2  0  0  0  0
 15 16  1  0  0  0  0
 16 17  2  0  0  0  0
 16 32  1  0  0  0  0
 17 18  1  0  0  0  0
 17 33  1  0  0  0  0
 18 19  2  0  0  0  0
 18 34  1  0  0  0  0
 19 20  1  0  0  0  0
 19 35  1  0  0  0  0
 21 22  2  0  0  0  0
 21 36  1  0  0  0  0
 22 37  1  0  0  0  0
M  CHG  1  14   1
M  END
> <s_m_source_file>
AV-unprocessed.smi

> <i_m_source_file_index>
1289

> <i_lp_mmshare_version>
43012

> <i_f3d_flags>
0

> <s_epik_input>
TiNDYzFbY0hdW2NIXWMoW2NIXVtjSF0xKU9bQ0gyXVtDQEhdKFtPSF0pW0NIMl1uKFtjSF1uMiljKGMyMylbY0hdW2NIXVtjSF1bY0hdMw==

> <s_epik_cmdline>
J2VwaWtfcHl0aG9uJywgJy1waCcsICc3LjAnLCAnLXRuJywgJzgnLCAnLW1hJywgJzIwMCcsICctbWV0YWxfYmluZGluZycsICctaW1hZScsICc8aW5maWxlLm1hZT4nLCAnLW9tYWUnLCAnPG91dGZpbGUubWFlPic=

> <r_epik_Ionization_Penalty>
1.39523

> <r_epik_Ionization_Penalty_Charging>
1.39523

> <r_epik_Ionization_Penalty_Neutral>
2.3993e-06

> <r_epik_State_Penalty>
1.47691

> <r_epik_Charging_Adjusted_Penalty>
2.87215

> <i_epik_Tot_Q>
1

> <i_epik_Tot_abs_Q>
1

> <r_epik_Metal_State_Penalty>
5.51858

> <b_epik_Metal_Only>
0

> <s_lp_Force_Field>
OPLS_2005

> <r_lp_Energy>
21.3748

> <b_lp_Chiralities_Consistent>
1

> <s_lp_Variant>
AV-unprocessed.smi:1289-3

> <Gold.Version>
5.8.1

> <Gold.Id.Protein>
6NUR|6NUR_protein|mol2

> <Gold.PLP.Fitness>
52.8643

> <Gold.PLP.PLP>
-44.0406

> <Gold.PLP.part.hbond>
-1.8342

> <Gold.PLP.part.metal>
0.0000

> <Gold.PLP.part.buried>
-5.6639

> <Gold.PLP.part.nonpolar>
-36.1294

> <Gold.PLP.part.repulsive>
0.2147

> <Gold.PLP.ligand.clash>
0.0000

> <Gold.PLP.ligand.torsion>
0.1397

> <Gold.PLP.Chemscore.Hbond>
3.0000

> <Gold.PLP.Chemscore.CHOScore>
0.0000

> <Gold.PLP.Chemscore.Metal>
0.0000

> <Gold.Chemscore.Hbonds>
donor molecule, donor type, donor heavy atom, donor atom, acceptor molecule, acceptor atom, score
      L1  H    14    38       P1  8028  1.85
      P1  H  7989  7998       L1    10  0.65

> <Gold.PLP.Chemscore.Internal.Correction>
0.1031

> <Gold.Rescore>
     Score         DG    S(hbond)    S(metal)    S(lipo)     H(rot)  DE(clash)    DE(int)     intcor
     18.08     -18.51       1.89        0.00     113.97       2.58       0.16       0.27       ----

> <Gold.Chemscore.Fitness>
18.0813

> <Gold.Chemscore.DG>
-18.5076

> <Gold.Chemscore.ZeroCoef>
-5.4800

> <Gold.Chemscore.Hbond>
1.8856

> <Gold.Chemscore.Metal>
0.0000

> <Gold.Chemscore.Lipo>
113.9663

> <Gold.Chemscore.Internal_Hbond>
0.0000

> <Gold.Chemscore.DEClash>
0.1565

> <Gold.Chemscore.DEInternal>
0.2698

> <Gold.Chemscore.Rot>
2.5798

> <Gold.Chemscore.Internal.Correction>
   9.000000E+99

> <Gold.Chemscore.Hbonds>
donor molecule, donor type, donor heavy atom, donor atom, acceptor molecule, acceptor atom, score
      L1  H    14    38       P1  8028  0.88
      P1  H  7989  7998       L1    10  0.06

> <Gold.Chemscore.Hbond.Weighted>
-6.2979

> <Gold.Chemscore.Metal.Weighted>
-0.0000

> <Gold.Chemscore.Lipo.Weighted>
-13.3341

> <Gold.Chemscore.Internal_Hbond.Weighted>
0.0000

> <Gold.Chemscore.DEClash.Weighted>
0.1565

> <Gold.Chemscore.DEInternal.Weighted>
0.2698

> <Gold.Chemscore.Rot.Weighted>
6.6043

> <Gold.Chemscore.Internal.Correction.Weighted>
   9.000000E+99

> <Gold.Protein.RotatedTorsions>
[ 6907 6896 6895 6894 ] final  110.76 input  -60.11 | X-H torsion
[ 7974 7965 7964 7962 ] final  144.80 input  175.53 | X-H torsion
[ 8008 7997 7996 7995 ] final  122.98 input   59.86 | X-H torsion
[ 10167 10162 10161 10158 ] final   60.13 input  -65.29 | X-H torsion
[ 10718 10713 10712 10709 ] final  -34.02 input   66.30 | X-H torsion
[ 10763 10752 10751 10750 ] final  175.47 input  -60.55 | X-H torsion
[ 11005 11000 10999 10996 ] final  172.76 input  -57.11 | X-H torsion

> <Gold.Protein.ActiveResidues>
 VAL166  LYS551  ARG553  GLY616  TRP617  ASP618  TYR619  PRO620  LYS621  CYS622 
 ASP623  PHE694  ASN695  SER759  ASP760  ASP761  ALA762  ILE779  LEU786  VAL792 
 PHE793  MET794  SER795  GLU796  ALA797  LYS798  CYS799  TRP800  GLU811  SER814 

> <Gold.Protein.RotatedAtoms>
  152.5003  133.8754  159.7319 H   0  0  0  0  0  0  0  0  0  0  0  0  # atno 6907 bound_to 6896
  150.9230  133.6849  159.2834 H   0  0  0  0  0  0  0  0  0  0  0  0  # atno 6908 bound_to 6896
  151.4219  135.1003  159.9669 H   0  0  0  0  0  0  0  0  0  0  0  0  # atno 6909 bound_to 6896
  144.8805  139.5706  143.5845 H   0  0  0  0  0  0  0  0  0  0  0  0  # atno 7974 bound_to 7965
  156.2748  140.2773  156.1554 H   0  0  0  0  0  0  0  0  0  0  0  0  # atno 8008 bound_to 7997
  155.0810  140.0388  157.2657 H   0  0  0  0  0  0  0  0  0  0  0  0  # atno 8009 bound_to 7997
  154.6964  140.2640  155.6767 H   0  0  0  0  0  0  0  0  0  0  0  0  # atno 8010 bound_to 7997
  140.1690  144.4296  150.6671 H   0  0  0  0  0  0  0  0  0  0  0  0  # atno 10167 bound_to 10162
  156.3557  130.4315  149.7666 H   0  0  0  0  0  0  0  0  0  0  0  0  # atno 10718 bound_to 10713
  154.4680  135.2770  155.1664 H   0  0  0  0  0  0  0  0  0  0  0  0  # atno 10763 bound_to 10752
  154.3424  135.6167  153.5606 H   0  0  0  0  0  0  0  0  0  0  0  0  # atno 10764 bound_to 10752
  152.9861  135.5791  154.5056 H   0  0  0  0  0  0  0  0  0  0  0  0  # atno 10765 bound_to 10752
  140.3331  134.7340  157.4149 H   0  0  0  0  0  0  0  0  0  0  0  0  # atno 11005 bound_to 11000
  146.2991  139.7371  142.9104 LP  0  0  0  0  0  0  0  0  0  0  0  0  # atno 17320 bound_to 7965
  145.3962  141.0379  143.3096 LP  0  0  0  0  0  0  0  0  0  0  0  0  # atno 17321 bound_to 7965
  140.6594  143.2247  151.5891 LP  0  0  0  0  0  0  0  0  0  0  0  0  # atno 17342 bound_to 10162
  139.5346  144.2816  152.1224 LP  0  0  0  0  0  0  0  0  0  0  0  0  # atno 17343 bound_to 10162
  156.4850  130.8058  151.3071 LP  0  0  0  0  0  0  0  0  0  0  0  0  # atno 17370 bound_to 10713
  157.7467  130.9993  150.2886 LP  0  0  0  0  0  0  0  0  0  0  0  0  # atno 17371 bound_to 10713
  140.0843  134.5687  155.8508 LP  0  0  0  0  0  0  0  0  0  0  0  0  # atno 17394 bound_to 11000
  141.2058  133.6650  156.6203 LP  0  0  0  0  0  0  0  0  0  0  0  0  # atno 17395 bound_to 11000

$$$$
