AV-unprocessed.smi:1555|AV-procd|sdf|6264|dock1
  -GOLD-   22720 6453D 1   1.00000     0.00000
 Structure written by MMmdl.
 42 43  0  0  0  0  0  0  0  0  2 V2000
  148.6404  134.5378  156.3097 C   0  0  0  0  0  0  0  0  0  0  0  0
  149.1460  134.5228  154.8580 C   0  0  2  0  0  0  0  0  0  0  0  0
  150.1827  133.4099  154.5902 C   0  0  0  0  0  0  0  0  0  0  0  0
  149.5767  132.1792  154.0742 N   0  0  0  0  0  0  0  0  0  0  0  0
  149.9909  130.8926  154.3062 C   0  0  0  0  0  0  0  0  0  0  0  0
  149.1228  130.0749  153.6293 C   0  0  0  0  0  0  0  0  0  0  0  0
  148.2143  130.8962  153.0169 N   0  3  0  0  0  0  0  0  0  0  0  0
  148.4898  132.1753  153.2914 C   0  0  0  0  0  0  0  0  0  0  0  0
  149.7131  135.8285  154.5349 N   0  0  0  0  0  0  0  0  0  0  0  0
  150.8107  136.3651  155.0963 C   0  0  0  0  0  0  0  0  0  0  0  0
  151.4577  135.7709  155.9601 O   0  0  0  0  0  0  0  0  0  0  0  0
  151.1451  137.5948  154.6296 N   0  0  0  0  0  0  0  0  0  0  0  0
  150.2954  138.4817  153.8169 C   0  0  0  0  0  0  0  0  0  0  0  0
  149.8036  139.6426  154.7002 C   0  0  0  0  0  0  0  0  0  0  0  0
  150.9900  140.4164  155.3219 C   0  0  0  0  0  0  0  0  0  0  0  0
  150.5262  141.5131  156.2977 C   0  0  0  0  0  0  0  0  0  0  0  0
  149.3711  142.1626  155.8092 O   0  0  0  0  0  0  0  0  0  0  0  0
  151.9737  139.4409  156.0053 C   0  0  0  0  0  0  0  0  0  0  0  0
  152.3649  138.2861  155.0649 C   0  0  0  0  0  0  0  0  0  0  0  0
  148.1262  133.6109  156.5644 H   0  0  0  0  0  0  0  0  0  0  0  0
  147.9337  135.3527  156.4703 H   0  0  0  0  0  0  0  0  0  0  0  0
  149.4627  134.6677  157.0142 H   0  0  0  0  0  0  0  0  0  0  0  0
  148.2801  134.3573  154.2139 H   0  0  0  0  0  0  0  0  0  0  0  0
  150.9209  133.7354  153.8561 H   0  0  0  0  0  0  0  0  0  0  0  0
  150.7314  133.1693  155.5025 H   0  0  0  0  0  0  0  0  0  0  0  0
  150.8508  130.6617  154.9186 H   0  0  0  0  0  0  0  0  0  0  0  0
  149.0841  128.9988  153.5410 H   0  0  0  0  0  0  0  0  0  0  0  0
  147.9436  133.0348  152.9456 H   0  0  0  0  0  0  0  0  0  0  0  0
  149.2361  136.3704  153.8289 H   0  0  0  0  0  0  0  0  0  0  0  0
  150.8816  138.8727  152.9841 H   0  0  0  0  0  0  0  0  0  0  0  0
  149.4437  137.9815  153.3565 H   0  0  0  0  0  0  0  0  0  0  0  0
  149.1845  140.3155  154.1060 H   0  0  0  0  0  0  0  0  0  0  0  0
  149.1620  139.2496  155.4902 H   0  0  0  0  0  0  0  0  0  0  0  0
  151.5329  140.9003  154.5082 H   0  0  0  0  0  0  0  0  0  0  0  0
  150.3182  141.0954  157.2832 H   0  0  0  0  0  0  0  0  0  0  0  0
  151.3079  142.2628  156.4244 H   0  0  0  0  0  0  0  0  0  0  0  0
  149.4445  143.0867  155.9938 H   0  0  0  0  0  0  0  0  0  0  0  0
  152.8692  139.9758  156.3234 H   0  0  0  0  0  0  0  0  0  0  0  0
  151.5211  139.0318  156.9098 H   0  0  0  0  0  0  0  0  0  0  0  0
  153.0710  137.6225  155.5661 H   0  0  0  0  0  0  0  0  0  0  0  0
  152.8937  138.6733  154.1927 H   0  0  0  0  0  0  0  0  0  0  0  0
  147.4429  130.5830  152.4407 H   0  0  0  0  0  0  0  0  0  0  0  0
  1  2  1  0  0  0  0
  1 20  1  0  0  0  0
  1 21  1  0  0  0  0
  1 22  1  0  0  0  0
  2  3  1  0  0  0  0
  2  9  1  0  0  0  0
  2 23  1  0  0  0  0
  3  4  1  0  0  0  0
  3 24  1  0  0  0  0
  3 25  1  0  0  0  0
  4  8  1  0  0  0  0
  4  5  1  0  0  0  0
  5  6  2  0  0  0  0
  5 26  1  0  0  0  0
  6  7  1  0  0  0  0
  6 27  1  0  0  0  0
  7  8  2  0  0  0  0
  7 42  1  0  0  0  0
  8 28  1  0  0  0  0
  9 10  1  0  0  0  0
  9 29  1  0  0  0  0
 10 11  2  0  0  0  0
 10 12  1  0  0  0  0
 12 19  1  0  0  0  0
 12 13  1  0  0  0  0
 13 14  1  0  0  0  0
 13 30  1  0  0  0  0
 13 31  1  0  0  0  0
 14 15  1  0  0  0  0
 14 32  1  0  0  0  0
 14 33  1  0  0  0  0
 15 16  1  0  0  0  0
 15 18  1  0  0  0  0
 15 34  1  0  0  0  0
 16 17  1  0  0  0  0
 16 35  1  0  0  0  0
 16 36  1  0  0  0  0
 17 37  1  0  0  0  0
 18 19  1  0  0  0  0
 18 38  1  0  0  0  0
 18 39  1  0  0  0  0
 19 40  1  0  0  0  0
 19 41  1  0  0  0  0
M  CHG  1   7   1
M  END
> <s_m_source_file>
AV-unprocessed.smi

> <i_m_source_file_index>
1555

> <i_lp_mmshare_version>
43012

> <i_f3d_flags>
0

> <s_epik_input>
W2NIXTFuW2NIXVtjSF1uMVtDSDJdW0NAQEhdKFtDSDNdKVtOSF1DKD1PKU4yW0NIMl1bQ0gyXVtDSF0oW0NIMl1bT0hdKVtDSDJdW0NIMl0y

> <s_epik_cmdline>
J2VwaWtfcHl0aG9uJywgJy1waCcsICc3LjAnLCAnLXRuJywgJzgnLCAnLW1hJywgJzIwMCcsICctbWV0YWxfYmluZGluZycsICctaW1hZScsICc8aW5maWxlLm1hZT4nLCAnLW9tYWUnLCAnPG91dGZpbGUubWFlPic=

> <r_lp_tautomer_probability>
1

> <r_epik_Ionization_Penalty>
0.253261

> <r_epik_Ionization_Penalty_Charging>
0

> <r_epik_Ionization_Penalty_Neutral>
0.253261

> <r_epik_State_Penalty>
0.244619

> <r_epik_Charging_Adjusted_Penalty>
0.244619

> <i_epik_Tot_Q>
1

> <i_epik_Tot_abs_Q>
1

> <r_epik_Metal_State_Penalty>
0.535039

> <b_epik_Metal_Only>
0

> <s_lp_Force_Field>
OPLS_2005

> <r_lp_Energy>
34.4969

> <b_lp_Chiralities_Consistent>
1

> <s_lp_Variant>
AV-unprocessed.smi:1555-1

> <Gold.Version>
5.8.1

> <Gold.Id.Protein>
6NUR|6NUR_protein|mol2

> <Gold.PLP.Fitness>
42.7425

> <Gold.PLP.PLP>
-36.5697

> <Gold.PLP.part.hbond>
-4.0000

> <Gold.PLP.part.metal>
0.0000

> <Gold.PLP.part.buried>
-1.7740

> <Gold.PLP.part.nonpolar>
-31.3585

> <Gold.PLP.part.repulsive>
0.0701

> <Gold.PLP.ligand.clash>
0.0000

> <Gold.PLP.ligand.torsion>
1.0601

> <Gold.PLP.Chemscore.Hbond>
2.7200

> <Gold.PLP.Chemscore.CHOScore>
0.0000

> <Gold.PLP.Chemscore.Metal>
0.0000

> <Gold.Chemscore.Hbonds>
donor molecule, donor type, donor heavy atom, donor atom, acceptor molecule, acceptor atom, score
      L1  H     9    29       P1  7948  0.70
      L1  H    17    37       P1  8028  0.96
      P1  H 10752 10764       L1    11  1.00

> <Gold.PLP.Chemscore.Internal.Correction>
0.1332

> <Gold.Rescore>
     Score         DG    S(hbond)    S(metal)    S(lipo)     H(rot)  DE(clash)    DE(int)     intcor
     10.97     -13.17       1.93        0.00      66.74       2.56       0.24       1.96       ----

> <Gold.Chemscore.Fitness>
10.9655

> <Gold.Chemscore.DG>
-13.1692

> <Gold.Chemscore.ZeroCoef>
-5.4800

> <Gold.Chemscore.Hbond>
1.9286

> <Gold.Chemscore.Metal>
0.0000

> <Gold.Chemscore.Lipo>
66.7422

> <Gold.Chemscore.Internal_Hbond>
0.0000

> <Gold.Chemscore.DEClash>
0.2410

> <Gold.Chemscore.DEInternal>
1.9628

> <Gold.Chemscore.Rot>
2.5630

> <Gold.Chemscore.Internal.Correction>
   9.000000E+99

> <Gold.Chemscore.Hbonds>
donor molecule, donor type, donor heavy atom, donor atom, acceptor molecule, acceptor atom, score
      L1  H     9    29       P1  7948  0.65
      L1  H    17    37       P1  8028  0.92
      P1  H 10752 10764       L1    11  0.34

> <Gold.Chemscore.Hbond.Weighted>
-6.4416

> <Gold.Chemscore.Metal.Weighted>
-0.0000

> <Gold.Chemscore.Lipo.Weighted>
-7.8088

> <Gold.Chemscore.Internal_Hbond.Weighted>
0.0000

> <Gold.Chemscore.DEClash.Weighted>
0.2410

> <Gold.Chemscore.DEInternal.Weighted>
1.9628

> <Gold.Chemscore.Rot.Weighted>
6.5612

> <Gold.Chemscore.Internal.Correction.Weighted>
   9.000000E+99

> <Gold.Protein.RotatedTorsions>
[ 6907 6896 6895 6894 ] final -105.74 input  -60.11 | X-H torsion
[ 7974 7965 7964 7962 ] final -161.60 input  175.53 | X-H torsion
[ 8008 7997 7996 7995 ] final  106.48 input   59.86 | X-H torsion
[ 10167 10162 10161 10158 ] final   42.58 input  -65.29 | X-H torsion
[ 10718 10713 10712 10709 ] final   45.12 input   66.30 | X-H torsion
[ 10763 10752 10751 10750 ] final  -29.32 input  -60.55 | X-H torsion
[ 11005 11000 10999 10996 ] final  127.90 input  -57.11 | X-H torsion

> <Gold.Protein.ActiveResidues>
 VAL166  LYS551  ARG553  GLY616  TRP617  ASP618  TYR619  PRO620  LYS621  CYS622 
 ASP623  PHE694  ASN695  SER759  ASP760  ASP761  ALA762  ILE779  LEU786  VAL792 
 PHE793  MET794  SER795  GLU796  ALA797  LYS798  CYS799  TRP800  GLU811  SER814 

> <Gold.Protein.RotatedAtoms>
  150.7352  134.0081  159.3660 H   0  0  0  0  0  0  0  0  0  0  0  0  # atno 6907 bound_to 6896
  151.8039  135.0698  160.0413 H   0  0  0  0  0  0  0  0  0  0  0  0  # atno 6908 bound_to 6896
  152.3121  133.5727  159.5724 H   0  0  0  0  0  0  0  0  0  0  0  0  # atno 6909 bound_to 6896
  144.7385  140.3374  143.6141 H   0  0  0  0  0  0  0  0  0  0  0  0  # atno 7974 bound_to 7965
  156.1747  140.3112  155.9037 H   0  0  0  0  0  0  0  0  0  0  0  0  # atno 8008 bound_to 7997
  155.3513  140.0471  157.3063 H   0  0  0  0  0  0  0  0  0  0  0  0  # atno 8009 bound_to 7997
  154.5277  140.2220  155.8870 H   0  0  0  0  0  0  0  0  0  0  0  0  # atno 8010 bound_to 7997
  140.3530  144.2326  150.6144 H   0  0  0  0  0  0  0  0  0  0  0  0  # atno 10167 bound_to 10162
  157.4341  130.8042  149.7631 H   0  0  0  0  0  0  0  0  0  0  0  0  # atno 10718 bound_to 10713
  153.7628  135.6918  153.4922 H   0  0  0  0  0  0  0  0  0  0  0  0  # atno 10763 bound_to 10752
  153.1927  135.4465  155.0168 H   0  0  0  0  0  0  0  0  0  0  0  0  # atno 10764 bound_to 10752
  154.8147  135.3393  154.7142 H   0  0  0  0  0  0  0  0  0  0  0  0  # atno 10765 bound_to 10752
  139.9532  134.9618  156.8923 H   0  0  0  0  0  0  0  0  0  0  0  0  # atno 11005 bound_to 11000
  145.7409  139.1764  143.2376 LP  0  0  0  0  0  0  0  0  0  0  0  0  # atno 17320 bound_to 7965
  146.1134  140.7399  142.9492 LP  0  0  0  0  0  0  0  0  0  0  0  0  # atno 17321 bound_to 7965
  140.5201  143.2268  151.8402 LP  0  0  0  0  0  0  0  0  0  0  0  0  # atno 17342 bound_to 10162
  139.4824  144.4847  151.9261 LP  0  0  0  0  0  0  0  0  0  0  0  0  # atno 17343 bound_to 10162
  155.9924  130.3931  150.2943 LP  0  0  0  0  0  0  0  0  0  0  0  0  # atno 17370 bound_to 10713
  157.1103  131.0219  151.3051 LP  0  0  0  0  0  0  0  0  0  0  0  0  # atno 17371 bound_to 10713
  140.5670  134.0479  155.7418 LP  0  0  0  0  0  0  0  0  0  0  0  0  # atno 17394 bound_to 11000
  141.1199  133.9479  157.2751 LP  0  0  0  0  0  0  0  0  0  0  0  0  # atno 17395 bound_to 11000

$$$$
