#       Name:                AV-unprocessed.smi:2133
#       Creating user name   scv26
#       Creation time:       Fri Mar 27 11:45:08 2020


#       File generated by GOLD software.
#

@<TRIPOS>MOLECULE
AV-unprocessed.smi:2133
    54    56     1
SMALL
NO_CHARGES


@<TRIPOS>ATOM
      1 ****        -0.4851   2.2660   5.1640 C.3            1 S1                 0.0000
      2 ****        -0.8475   1.9658   3.7664 N.am           1 S1                 0.0000
      3 ****        -0.6211   0.6992   3.2954 C.2            1 S1                 0.0000
      4 ****        -0.1500  -0.2261   3.9575 O.2            1 S1                 0.0000
      5 ****        -0.9928   0.5138   1.8899 C.2            1 S1                 0.0000
      6 ****        -1.5497   1.4935   1.1365 C.2            1 S1                 0.0000
      7 ****        -1.8095   1.0502  -0.1556 N.2            1 S1                 0.0000
      8 ****        -1.3826  -0.2119  -0.1079 C.2            1 S1                 0.0000
      9 ****        -0.8661  -0.6081   1.0735 N.pl3          1 S1                 0.0000
     10 ****        -0.3156  -1.9212   1.3761 C.3            1 S1                 0.0000
     11 ****         1.2282  -1.9380   1.4357 C.3            1 S1                 0.0000
     12 ****         1.6953  -3.2693   1.4968 O.3            1 S1                 0.0000
     13 ****         1.9459  -1.1903   0.2963 C.3            1 S1                 0.0000
     14 ****         1.3666  -1.5238  -0.9550 O.3            1 S1                 0.0000
     15 ****         1.9055  -0.7695  -2.0269 C.3            1 S1                 0.0000
     16 ****         1.2477  -1.1341  -3.3415 C.ar           1 S1                 0.0000
     17 ****         1.8711  -2.0452  -4.2196 C.ar           1 S1                 0.0000
     18 ****         1.2563  -2.3828  -5.4411 C.ar           1 S1                 0.0000
     19 ****         0.0149  -1.8139  -5.7864 C.ar           1 S1                 0.0000
     20 ****        -0.6108  -0.9054  -4.9108 C.ar           1 S1                 0.0000
     21 ****         0.0050  -0.5652  -3.6906 C.ar           1 S1                 0.0000
     22 ****        -1.7729   2.7607   1.7341 N.am           1 S1                 0.0000
     23 ****        -2.3747   3.8267   0.9278 C.3            1 S1                 0.0000
     24 ****        -1.4048   3.0008   3.0348 C.2            1 S1                 0.0000
     25 ****        -1.5703   4.1178   3.5337 O.2            1 S1                 0.0000
     26 ****         0.0269   1.4582   5.6880 H              1 S1                 0.0000
     27 ****        -1.3799   2.5001   5.7427 H              1 S1                 0.0000
     28 ****         0.1813   3.1289   5.2129 H              1 S1                 0.0000
     29 ****        -1.4352  -0.8675  -0.9648 H              1 S1                 0.0000
     30 ****        -0.7429  -2.2774   2.3138 H              1 S1                 0.0000
     31 ****        -0.6601  -2.6119   0.6048 H              1 S1                 0.0000
     32 ****         1.5435  -1.4738   2.3698 H              1 S1                 0.0000
     33 ****         2.6353  -3.2541   1.5927 H              1 S1                 0.0000
     34 ****         1.8440  -0.1161   0.4603 H              1 S1                 0.0000
     35 ****         3.0148  -1.4101   0.2980 H              1 S1                 0.0000
     36 ****         1.7570   0.2965  -1.8458 H              1 S1                 0.0000
     37 ****         2.9816  -0.9363  -2.0972 H              1 S1                 0.0000
     38 ****         2.8215  -2.4874  -3.9590 H              1 S1                 0.0000
     39 ****         1.7367  -3.0790  -6.1126 H              1 S1                 0.0000
     40 ****        -0.4568  -2.0743  -6.7225 H              1 S1                 0.0000
     41 ****        -1.5628  -0.4692  -5.1754 H              1 S1                 0.0000
     42 ****        -0.4787   0.1333  -3.0236 H              1 S1                 0.0000
     43 ****        -3.1537   4.3534   1.4814 H              1 S1                 0.0000
     44 ****        -2.8401   3.4466   0.0185 H              1 S1                 0.0000
     45 ****        -1.6147   4.5515   0.6342 H              1 S1                 0.0000
     46 ****         0.0983  -0.0799   4.9151 LP             1 S1                 0.0000
     47 ****        -0.0158  -1.1237   3.5376 LP             1 S1                 0.0000
     48 ****        -2.2126   1.5493  -0.9227 LP             1 S1                 0.0000
     49 ****         1.4500  -3.7516   0.6558 LP             1 S1                 0.0000
     50 ****         1.2840  -3.7352   2.2803 LP             1 S1                 0.0000
     51 ****         0.3824  -1.3534  -0.9072 LP             1 S1                 0.0000
     52 ****         1.5286  -2.4943  -1.1338 LP             1 S1                 0.0000
     53 ****        -1.3003   4.2870   4.4816 LP             1 S1                 0.0000
     54 ****        -1.9744   4.8533   2.9900 LP             1 S1                 0.0000
@<TRIPOS>BOND
    1    1    2 1     
    2    1   26 1     
    3    1   27 1     
    4    1   28 1     
    5    2   24 am    
    6    2    3 am    
    7    3    4 2     
    8    3    5 1     
    9    5    9 1     
   10    5    6 2     
   11    6    7 1     
   12    6   22 1     
   13    7    8 2     
   14    8    9 1     
   15    8   29 1     
   16    9   10 1     
   17   10   11 1     
   18   10   30 1     
   19   10   31 1     
   20   11   12 1     
   21   11   13 1     
   22   11   32 1     
   23   12   33 1     
   24   13   14 1     
   25   13   34 1     
   26   13   35 1     
   27   14   15 1     
   28   15   16 1     
   29   15   36 1     
   30   15   37 1     
   31   16   21 ar    
   32   16   17 ar    
   33   17   18 ar    
   34   17   38 1     
   35   18   19 ar    
   36   18   39 1     
   37   19   20 ar    
   38   19   40 1     
   39   20   21 ar    
   40   20   41 1     
   41   21   42 1     
   42   22   23 1     
   43   22   24 am    
   44   23   43 1     
   45   23   44 1     
   46   23   45 1     
   47   24   25 2     
   48    4   46 1     
   49    4   47 1     
   50    7   48 1     
   51   12   49 1     
   52   12   50 1     
   53   14   51 1     
   54   14   52 1     
   55   25   53 1     
   56   25   54 1     
@<TRIPOS>SUBSTRUCTURE
      1 S1             1
@<TRIPOS>SET
LONE_PAIRS      STATIC     ATOMS    <user>   **** ""
9 46 47 48 49 50 51 52 53 54
DONOR_HYDROGENS      STATIC     ATOMS    <user>   **** ""
1 33
ATOM$BLUE        STATIC     ATOMS    COLORGROUP SYSTEM
9 46 47 48 49 50 51 52 53 54
ATOM$RED        STATIC     ATOMS    COLORGROUP SYSTEM
1 33
