AV-unprocessed.smi:3274|AV-procd|sdf|12525|dock4
  -GOLD-   2272018443D 1   1.00000     0.00000
 Structure written by MMmdl.
 43 44  0  0  0  0  0  0  0  0  2 V2000
  154.5742  140.6824  160.8541 C   0  0  0  0  0  0  0  0  0  0  0  0
  153.6402  141.8811  160.8492 C   0  0  0  0  0  0  0  0  0  0  0  0
  153.2817  142.4831  162.0006 C   0  0  0  0  0  0  0  0  0  0  0  0
  152.3988  143.7156  162.0955 C   0  0  0  0  0  0  0  0  0  0  0  0
  151.7839  144.1255  160.7465 C   0  0  0  0  0  0  0  0  0  0  0  0
  152.7694  143.8975  159.5877 C   0  0  2  0  0  0  0  0  0  0  0  0
  152.2729  144.5183  158.2695 C   0  0  0  0  0  0  0  0  0  0  0  0
  153.1668  142.3981  159.4849 C   0  0  2  0  0  0  0  0  0  0  0  0
  152.0447  141.5132  158.8845 C   0  0  0  0  0  0  0  0  0  0  0  0
  152.5685  140.3117  158.2010 N   0  3  0  0  0  0  0  0  0  0  0  0
  151.7006  139.7663  157.1323 C   0  0  2  0  0  0  0  0  0  0  0  0
  152.5108  138.7879  156.2718 C   0  0  0  0  0  0  0  0  0  0  0  0
  151.1070  140.8962  156.2632 C   0  0  0  0  0  0  0  0  0  0  0  0
  150.1090  140.4206  155.3227 N   0  0  0  0  0  0  0  0  0  0  0  0
  148.8076  140.6961  155.2230 C   0  0  0  0  0  0  0  0  0  0  0  0
  148.2099  140.0903  154.2066 N   0  0  0  0  0  0  0  0  0  0  0  0
  149.2719  139.4011  153.6929 C   0  0  0  0  0  0  0  0  0  0  0  0
  150.4348  139.5668  154.3235 N   0  0  0  0  0  0  0  0  0  0  0  0
  155.3865  140.8270  160.1412 H   0  0  0  0  0  0  0  0  0  0  0  0
  154.0469  139.7641  160.6020 H   0  0  0  0  0  0  0  0  0  0  0  0
  155.0205  140.5382  161.8387 H   0  0  0  0  0  0  0  0  0  0  0  0
  153.6560  142.1042  162.9407 H   0  0  0  0  0  0  0  0  0  0  0  0
  151.6126  143.5449  162.8313 H   0  0  0  0  0  0  0  0  0  0  0  0
  153.0160  144.5290  162.4784 H   0  0  0  0  0  0  0  0  0  0  0  0
  150.8709  143.5558  160.5708 H   0  0  0  0  0  0  0  0  0  0  0  0
  151.4815  145.1724  160.7917 H   0  0  0  0  0  0  0  0  0  0  0  0
  153.6810  144.4427  159.8399 H   0  0  0  0  0  0  0  0  0  0  0  0
  151.2815  144.1593  157.9933 H   0  0  0  0  0  0  0  0  0  0  0  0
  152.9550  144.2981  157.4478 H   0  0  0  0  0  0  0  0  0  0  0  0
  152.2055  145.6030  158.3563 H   0  0  0  0  0  0  0  0  0  0  0  0
  154.0221  142.3533  158.8088 H   0  0  0  0  0  0  0  0  0  0  0  0
  151.3471  141.2003  159.6622 H   0  0  0  0  0  0  0  0  0  0  0  0
  151.4662  142.0788  158.1586 H   0  0  0  0  0  0  0  0  0  0  0  0
  153.4698  140.5279  157.7991 H   0  0  0  0  0  0  0  0  0  0  0  0
  150.8854  139.1994  157.5854 H   0  0  0  0  0  0  0  0  0  0  0  0
  151.8926  138.3495  155.4877 H   0  0  0  0  0  0  0  0  0  0  0  0
  152.9046  137.9685  156.8742 H   0  0  0  0  0  0  0  0  0  0  0  0
  153.3550  139.2836  155.7914 H   0  0  0  0  0  0  0  0  0  0  0  0
  150.6621  141.6703  156.8908 H   0  0  0  0  0  0  0  0  0  0  0  0
  151.8985  141.3807  155.6899 H   0  0  0  0  0  0  0  0  0  0  0  0
  148.2897  141.3608  155.8990 H   0  0  0  0  0  0  0  0  0  0  0  0
  149.1871  138.7640  152.8249 H   0  0  0  0  0  0  0  0  0  0  0  0
  152.6950  139.5965  158.9027 H   0  0  0  0  0  0  0  0  0  0  0  0
  1  2  1  0  0  0  0
  1 19  1  0  0  0  0
  1 20  1  0  0  0  0
  1 21  1  0  0  0  0
  2  8  1  0  0  0  0
  2  3  2  0  0  0  0
  3  4  1  0  0  0  0
  3 22  1  0  0  0  0
  4  5  1  0  0  0  0
  4 23  1  0  0  0  0
  4 24  1  0  0  0  0
  5  6  1  0  0  0  0
  5 25  1  0  0  0  0
  5 26  1  0  0  0  0
  6  7  1  0  0  0  0
  6  8  1  0  0  0  0
  6 27  1  0  0  0  0
  7 28  1  0  0  0  0
  7 29  1  0  0  0  0
  7 30  1  0  0  0  0
  8  9  1  0  0  0  0
  8 31  1  0  0  0  0
  9 10  1  0  0  0  0
  9 32  1  0  0  0  0
  9 33  1  0  0  0  0
 10 11  1  0  0  0  0
 10 34  1  0  0  0  0
 10 43  1  0  0  0  0
 11 12  1  0  0  0  0
 11 13  1  0  0  0  0
 11 35  1  0  0  0  0
 12 36  1  0  0  0  0
 12 37  1  0  0  0  0
 12 38  1  0  0  0  0
 13 14  1  0  0  0  0
 13 39  1  0  0  0  0
 13 40  1  0  0  0  0
 14 18  1  0  0  0  0
 14 15  1  0  0  0  0
 15 16  2  0  0  0  0
 15 41  1  0  0  0  0
 16 17  1  0  0  0  0
 17 18  2  0  0  0  0
 17 42  1  0  0  0  0
M  CHG  1  10   1
M  END
> <s_m_source_file>
AV-unprocessed.smi

> <i_m_source_file_index>
3274

> <i_lp_mmshare_version>
43012

> <i_f3d_flags>
0

> <s_epik_input>
W0NIM11DMT1bQ0hdW0NIMl1bQ0gyXVtDQEBIXShbQ0gzXSlbQ0BIXTFbQ0gyXVtOSF1bQ0BIXShbQ0gzXSlbQ0gyXW4yW2NIXW5bY0hdbjI=

> <s_epik_cmdline>
J2VwaWtfcHl0aG9uJywgJy1waCcsICc3LjAnLCAnLXRuJywgJzgnLCAnLW1hJywgJzIwMCcsICctbWV0YWxfYmluZGluZycsICctaW1hZScsICc8aW5maWxlLm1hZT4nLCAnLW9tYWUnLCAnPG91dGZpbGUubWFlPic=

> <r_lp_tautomer_probability>
1

> <r_epik_Ionization_Penalty>
0.0017527

> <r_epik_Ionization_Penalty_Charging>
0.00175191

> <r_epik_Ionization_Penalty_Neutral>
7.94565e-07

> <r_epik_State_Penalty>
0.00118605

> <r_epik_Charging_Adjusted_Penalty>
0.00293796

> <i_epik_Tot_Q>
1

> <i_epik_Tot_abs_Q>
1

> <r_epik_Metal_State_Penalty>
-0

> <b_epik_Metal_Only>
0

> <s_lp_Force_Field>
OPLS_2005

> <r_lp_Energy>
18.1701

> <b_lp_Chiralities_Consistent>
1

> <s_lp_Variant>
AV-unprocessed.smi:3274-4

> <Gold.Version>
5.8.1

> <Gold.Id.Protein>
6NUR|6NUR_protein|mol2

> <Gold.PLP.Fitness>
48.3891

> <Gold.PLP.PLP>
-44.2178

> <Gold.PLP.part.hbond>
-1.0000

> <Gold.PLP.part.metal>
0.0000

> <Gold.PLP.part.buried>
-1.0224

> <Gold.PLP.part.nonpolar>
-43.8195

> <Gold.PLP.part.repulsive>
0.3581

> <Gold.PLP.ligand.clash>
0.0000

> <Gold.PLP.ligand.torsion>
0.5941

> <Gold.PLP.Chemscore.Hbond>
0.5500

> <Gold.PLP.Chemscore.CHOScore>
1.2011

> <Gold.PLP.Chemscore.Metal>
0.0000

> <Gold.Chemscore.Hbonds>
donor molecule, donor type, donor heavy atom, donor atom, acceptor molecule, acceptor atom, score
      P1  H  7989  7998       L1    18  0.65
      L1  C    17    42       P1  7948  0.63
      L1  C    17    42       P1  7957  0.52

> <Gold.PLP.Chemscore.Internal.Correction>
0.1061

> <Gold.Rescore>
     Score         DG    S(hbond)    S(metal)    S(lipo)     H(rot)  DE(clash)    DE(int)     intcor
     13.38     -13.98       0.01        0.00     124.15       2.36       0.00       0.60       ----

> <Gold.Chemscore.Fitness>
13.3777

> <Gold.Chemscore.DG>
-13.9817

> <Gold.Chemscore.ZeroCoef>
-5.4800

> <Gold.Chemscore.Hbond>
0.0065

> <Gold.Chemscore.Metal>
0.0000

> <Gold.Chemscore.Lipo>
124.1498

> <Gold.Chemscore.Internal_Hbond>
0.0000

> <Gold.Chemscore.DEClash>
0.0015

> <Gold.Chemscore.DEInternal>
0.6026

> <Gold.Chemscore.Rot>
2.3615

> <Gold.Chemscore.Internal.Correction>
   9.000000E+99

> <Gold.Chemscore.Hbonds>
donor molecule, donor type, donor heavy atom, donor atom, acceptor molecule, acceptor atom, score
      P1  H  7989  7998       L1    18  0.05

> <Gold.Chemscore.Hbond.Weighted>
-0.0216

> <Gold.Chemscore.Metal.Weighted>
-0.0000

> <Gold.Chemscore.Lipo.Weighted>
-14.5255

> <Gold.Chemscore.Internal_Hbond.Weighted>
0.0000

> <Gold.Chemscore.DEClash.Weighted>
0.0015

> <Gold.Chemscore.DEInternal.Weighted>
0.6026

> <Gold.Chemscore.Rot.Weighted>
6.0454

> <Gold.Chemscore.Internal.Correction.Weighted>
   9.000000E+99

> <Gold.Protein.RotatedTorsions>
[ 6907 6896 6895 6894 ] final -156.00 input  -60.11 | X-H torsion
[ 7974 7965 7964 7962 ] final  -27.25 input  175.53 | X-H torsion
[ 8008 7997 7996 7995 ] final -133.64 input   59.86 | X-H torsion
[ 10167 10162 10161 10158 ] final  130.99 input  -65.29 | X-H torsion
[ 10718 10713 10712 10709 ] final   35.06 input   66.30 | X-H torsion
[ 10763 10752 10751 10750 ] final  -84.26 input  -60.55 | X-H torsion
[ 11005 11000 10999 10996 ] final  176.23 input  -57.11 | X-H torsion

> <Gold.Protein.ActiveResidues>
 VAL166  LYS551  ARG553  GLY616  TRP617  ASP618  TYR619  PRO620  LYS621  CYS622 
 ASP623  PHE694  ASN695  SER759  ASP760  ASP761  ALA762  ILE779  LEU786  VAL792 
 PHE793  MET794  SER795  GLU796  ALA797  LYS798  CYS799  TRP800  GLU811  SER814 

> <Gold.Protein.RotatedAtoms>
  151.2810  133.4209  159.2626 H   0  0  0  0  0  0  0  0  0  0  0  0  # atno 6907 bound_to 6896
  151.0361  134.9574  159.8147 H   0  0  0  0  0  0  0  0  0  0  0  0  # atno 6908 bound_to 6896
  152.5355  134.2770  159.9045 H   0  0  0  0  0  0  0  0  0  0  0  0  # atno 6909 bound_to 6896
  146.1370  140.5127  142.8668 H   0  0  0  0  0  0  0  0  0  0  0  0  # atno 7974 bound_to 7965
  155.3488  140.0476  157.3046 H   0  0  0  0  0  0  0  0  0  0  0  0  # atno 8008 bound_to 7997
  154.5238  140.2234  155.8892 H   0  0  0  0  0  0  0  0  0  0  0  0  # atno 8009 bound_to 7997
  156.1718  140.3094  155.8993 H   0  0  0  0  0  0  0  0  0  0  0  0  # atno 8010 bound_to 7997
  139.5404  144.6725  151.4643 H   0  0  0  0  0  0  0  0  0  0  0  0  # atno 10167 bound_to 10162
  157.3181  130.7434  149.6767 H   0  0  0  0  0  0  0  0  0  0  0  0  # atno 10718 bound_to 10713
  154.5974  135.5527  153.7340 H   0  0  0  0  0  0  0  0  0  0  0  0  # atno 10763 bound_to 10752
  153.0141  135.6358  154.1763 H   0  0  0  0  0  0  0  0  0  0  0  0  # atno 10764 bound_to 10752
  154.1703  135.2892  155.3063 H   0  0  0  0  0  0  0  0  0  0  0  0  # atno 10765 bound_to 10752
  140.3708  134.7031  157.4391 H   0  0  0  0  0  0  0  0  0  0  0  0  # atno 11005 bound_to 11000
  144.7751  140.5722  143.6643 LP  0  0  0  0  0  0  0  0  0  0  0  0  # atno 17320 bound_to 7965
  145.5132  139.1478  143.3593 LP  0  0  0  0  0  0  0  0  0  0  0  0  # atno 17321 bound_to 7965
  140.6632  143.8455  150.6911 LP  0  0  0  0  0  0  0  0  0  0  0  0  # atno 17342 bound_to 10162
  140.1856  143.4079  152.1901 LP  0  0  0  0  0  0  0  0  0  0  0  0  # atno 17343 bound_to 10162
  155.9683  130.4231  150.4548 LP  0  0  0  0  0  0  0  0  0  0  0  0  # atno 17370 bound_to 10713
  157.2559  131.0556  151.2350 LP  0  0  0  0  0  0  0  0  0  0  0  0  # atno 17371 bound_to 10713
  140.0553  134.6072  155.8813 LP  0  0  0  0  0  0  0  0  0  0  0  0  # atno 17394 bound_to 11000
  141.1955  133.6587  156.5645 LP  0  0  0  0  0  0  0  0  0  0  0  0  # atno 17395 bound_to 11000

$$$$
