AV-unprocessed.smi:2492|AV-procd|sdf|9816|dock7
  -GOLD-   2272013443D 1   1.00000     0.00000
 Structure written by MMmdl.
 32 33  0  0  0  0  0  0  0  0  2 V2000
  151.4410  145.6684  159.6233 C   0  0  0  0  0  0  0  0  0  0  0  0
  151.9724  144.1804  158.7361 S   0  0  0  0  0  0  0  0  0  0  0  0
  153.1364  143.4811  159.9429 C   0  0  1  0  0  0  0  0  0  0  0  0
  152.4740  143.0792  161.2595 C   0  0  0  0  0  0  0  0  0  0  0  0
  153.4666  142.1034  161.8924 C   0  0  0  0  0  0  0  0  0  0  0  0
  154.1761  141.3984  160.7215 C   0  0  1  0  0  0  0  0  0  0  0  0
  153.7681  139.9975  160.6422 N   0  0  0  0  0  0  0  0  0  0  0  0
  154.2128  139.1003  159.7502 C   0  0  0  0  0  0  0  0  0  0  0  0
  155.0414  139.4368  158.9010 O   0  0  0  0  0  0  0  0  0  0  0  0
  153.6674  137.8713  159.8957 N   0  5  0  0  0  0  0  0  0  0  0  0
  153.9515  136.9018  159.0105 C   0  0  0  0  0  0  0  0  0  0  0  0
  153.7796  135.5927  159.1987 N   0  0  0  0  0  0  0  0  0  0  0  0
  154.2040  135.0816  158.0121 C   0  0  0  0  0  0  0  0  0  0  0  0
  154.2098  133.6213  157.7151 C   0  0  0  0  0  0  0  0  0  0  0  0
  154.6104  135.9668  157.1145 N   0  0  0  0  0  0  0  0  0  0  0  0
  154.4393  137.1908  157.7758 O   0  0  0  0  0  0  0  0  0  0  0  0
  153.7860  142.1844  159.4522 C   0  0  0  0  0  0  0  0  0  0  0  0
  150.7563  146.2484  159.0048 H   0  0  0  0  0  0  0  0  0  0  0  0
  152.2995  146.2938  159.8681 H   0  0  0  0  0  0  0  0  0  0  0  0
  150.9274  145.4024  160.5470 H   0  0  0  0  0  0  0  0  0  0  0  0
  153.9201  144.2132  160.1429 H   0  0  0  0  0  0  0  0  0  0  0  0
  152.2620  143.9316  161.9050 H   0  0  0  0  0  0  0  0  0  0  0  0
  151.5320  142.5652  161.0625 H   0  0  0  0  0  0  0  0  0  0  0  0
  154.2018  142.6645  162.4709 H   0  0  0  0  0  0  0  0  0  0  0  0
  152.9772  141.4136  162.5814 H   0  0  0  0  0  0  0  0  0  0  0  0
  155.2546  141.4520  160.8819 H   0  0  0  0  0  0  0  0  0  0  0  0
  153.0899  139.6807  161.3194 H   0  0  0  0  0  0  0  0  0  0  0  0
  153.2818  133.3361  157.2196 H   0  0  0  0  0  0  0  0  0  0  0  0
  154.3036  133.0446  158.6356 H   0  0  0  0  0  0  0  0  0  0  0  0
  155.0453  133.3650  157.0631 H   0  0  0  0  0  0  0  0  0  0  0  0
  153.0634  141.6163  158.8637 H   0  0  0  0  0  0  0  0  0  0  0  0
  154.6449  142.3743  158.8076 H   0  0  0  0  0  0  0  0  0  0  0  0
  1  2  1  0  0  0  0
  1 18  1  0  0  0  0
  1 19  1  0  0  0  0
  1 20  1  0  0  0  0
  2  3  1  0  0  0  0
  3 17  1  0  0  0  0
  3  4  1  0  0  0  0
  3 21  1  0  0  0  0
  4  5  1  0  0  0  0
  4 22  1  0  0  0  0
  4 23  1  0  0  0  0
  5  6  1  0  0  0  0
  5 24  1  0  0  0  0
  5 25  1  0  0  0  0
  6  7  1  0  0  0  0
  6 17  1  0  0  0  0
  6 26  1  0  0  0  0
  7  8  1  0  0  0  0
  7 27  1  0  0  0  0
  8  9  2  0  0  0  0
  8 10  1  0  0  0  0
 10 11  1  0  0  0  0
 11 16  1  0  0  0  0
 11 12  2  0  0  0  0
 12 13  1  0  0  0  0
 13 14  1  0  0  0  0
 13 15  2  0  0  0  0
 14 28  1  0  0  0  0
 14 29  1  0  0  0  0
 14 30  1  0  0  0  0
 15 16  1  0  0  0  0
 17 31  1  0  0  0  0
 17 32  1  0  0  0  0
M  CHG  1  10  -1
M  END
> <s_m_source_file>
AV-unprocessed.smi

> <i_m_source_file_index>
2492

> <i_lp_mmshare_version>
43012

> <i_f3d_flags>
0

> <s_epik_input>
W0NIM11TW0NAQEhdMVtDSDJdW0NIMl1bQ0BIXShbQ0gyXTEpW05IXUMoPU8pW05IXWMybmMoW0NIM10pbm8y

> <s_epik_cmdline>
J2VwaWtfcHl0aG9uJywgJy1waCcsICc3LjAnLCAnLXRuJywgJzgnLCAnLW1hJywgJzIwMCcsICctbWV0YWxfYmluZGluZycsICctaW1hZScsICc8aW5maWxlLm1hZT4nLCAnLW9tYWUnLCAnPG91dGZpbGUubWFlPic=

> <r_lp_tautomer_probability>
1

> <r_epik_Ionization_Penalty>
6.26454

> <r_epik_Ionization_Penalty_Charging>
6.26445

> <r_epik_Ionization_Penalty_Neutral>
9.05726e-05

> <r_epik_State_Penalty>
6.26444

> <r_epik_Charging_Adjusted_Penalty>
12.5289

> <i_epik_Tot_Q>
-1

> <i_epik_Tot_abs_Q>
1

> <r_epik_Metal_State_Penalty>
2.20125

> <b_epik_Metal_Only>
1

> <s_lp_Force_Field>
OPLS_2005

> <r_lp_Energy>
11.8534

> <b_lp_Chiralities_Consistent>
1

> <s_lp_Variant>
AV-unprocessed.smi:2492-6

> <Gold.Version>
5.8.1

> <Gold.Id.Protein>
6NUR|6NUR_protein|mol2

> <Gold.PLP.Fitness>
43.2336

> <Gold.PLP.PLP>
-34.4143

> <Gold.PLP.part.hbond>
-3.0000

> <Gold.PLP.part.metal>
0.0000

> <Gold.PLP.part.buried>
-3.8533

> <Gold.PLP.part.nonpolar>
-26.2171

> <Gold.PLP.part.repulsive>
0.0430

> <Gold.PLP.ligand.clash>
0.0000

> <Gold.PLP.ligand.torsion>
0.0934

> <Gold.PLP.Chemscore.Hbond>
3.0000

> <Gold.PLP.Chemscore.CHOScore>
0.0000

> <Gold.PLP.Chemscore.Metal>
0.0000

> <Gold.Chemscore.Hbonds>
donor molecule, donor type, donor heavy atom, donor atom, acceptor molecule, acceptor atom, score
      P1  H  6896  6907       L1    12  0.99
      P1  H  7997  8010       L1     9  1.00
      P1  H 10752 10764       L1    15  1.00

> <Gold.PLP.Chemscore.Internal.Correction>
0.0061

> <Gold.Rescore>
     Score         DG    S(hbond)    S(metal)    S(lipo)     H(rot)  DE(clash)    DE(int)     intcor
     18.93     -21.79       2.89        0.00      84.75       1.27       0.05       2.82       ----

> <Gold.Chemscore.Fitness>
18.9266

> <Gold.Chemscore.DG>
-21.7909

> <Gold.Chemscore.ZeroCoef>
-5.4800

> <Gold.Chemscore.Hbond>
2.8891

> <Gold.Chemscore.Metal>
0.0000

> <Gold.Chemscore.Lipo>
84.7490

> <Gold.Chemscore.Internal_Hbond>
0.0000

> <Gold.Chemscore.DEClash>
0.0456

> <Gold.Chemscore.DEInternal>
2.8187

> <Gold.Chemscore.Rot>
1.2712

> <Gold.Chemscore.Internal.Correction>
   9.000000E+99

> <Gold.Chemscore.Hbonds>
donor molecule, donor type, donor heavy atom, donor atom, acceptor molecule, acceptor atom, score
      P1  H  6896  6907       L1    12  0.70
      P1  H  7997  8010       L1     9  1.00
      P1  H 10752 10764       L1    15  0.70

> <Gold.Chemscore.Hbond.Weighted>
-9.6494

> <Gold.Chemscore.Metal.Weighted>
-0.0000

> <Gold.Chemscore.Lipo.Weighted>
-9.9156

> <Gold.Chemscore.Internal_Hbond.Weighted>
0.0000

> <Gold.Chemscore.DEClash.Weighted>
0.0456

> <Gold.Chemscore.DEInternal.Weighted>
2.8187

> <Gold.Chemscore.Rot.Weighted>
3.2542

> <Gold.Chemscore.Internal.Correction.Weighted>
   9.000000E+99

> <Gold.Protein.RotatedTorsions>
[ 6907 6896 6895 6894 ] final   71.68 input  -60.11 | X-H torsion
[ 7974 7965 7964 7962 ] final   97.66 input  175.53 | X-H torsion
[ 8008 7997 7996 7995 ] final  -12.97 input   59.86 | X-H torsion
[ 10167 10162 10161 10158 ] final   37.02 input  -65.29 | X-H torsion
[ 10718 10713 10712 10709 ] final   61.75 input   66.30 | X-H torsion
[ 10763 10752 10751 10750 ] final   35.97 input  -60.55 | X-H torsion
[ 11005 11000 10999 10996 ] final  107.66 input  -57.11 | X-H torsion

> <Gold.Protein.ActiveResidues>
 VAL166  LYS551  ARG553  GLY616  TRP617  ASP618  TYR619  PRO620  LYS621  CYS622 
 ASP623  PHE694  ASN695  SER759  ASP760  ASP761  ALA762  ILE779  LEU786  VAL792 
 PHE793  MET794  SER795  GLU796  ALA797  LYS798  CYS799  TRP800  GLU811  SER814 

> <Gold.Protein.RotatedAtoms>
  152.4824  134.4684  159.9627 H   0  0  0  0  0  0  0  0  0  0  0  0  # atno 6907 bound_to 6896
  151.4687  133.3568  159.2828 H   0  0  0  0  0  0  0  0  0  0  0  0  # atno 6908 bound_to 6896
  150.8907  134.8336  159.7352 H   0  0  0  0  0  0  0  0  0  0  0  0  # atno 6909 bound_to 6896
  145.4225  139.2320  143.3188 H   0  0  0  0  0  0  0  0  0  0  0  0  # atno 7974 bound_to 7965
  154.5332  140.2262  155.8768 H   0  0  0  0  0  0  0  0  0  0  0  0  # atno 8008 bound_to 7997
  156.1785  140.3105  155.9067 H   0  0  0  0  0  0  0  0  0  0  0  0  # atno 8009 bound_to 7997
  155.3408  140.0450  157.3035 H   0  0  0  0  0  0  0  0  0  0  0  0  # atno 8010 bound_to 7997
  140.4072  144.1642  150.6137 H   0  0  0  0  0  0  0  0  0  0  0  0  # atno 10167 bound_to 10162
  157.5850  130.9012  149.9500 H   0  0  0  0  0  0  0  0  0  0  0  0  # atno 10718 bound_to 10713
  153.0096  135.6318  154.1911 H   0  0  0  0  0  0  0  0  0  0  0  0  # atno 10763 bound_to 10752
  154.1653  135.2821  155.3098 H   0  0  0  0  0  0  0  0  0  0  0  0  # atno 10764 bound_to 10752
  154.5950  135.5605  153.7376 H   0  0  0  0  0  0  0  0  0  0  0  0  # atno 10765 bound_to 10752
  139.8831  134.9407  156.5854 H   0  0  0  0  0  0  0  0  0  0  0  0  # atno 11005 bound_to 11000
  146.2649  140.4952  142.8838 LP  0  0  0  0  0  0  0  0  0  0  0  0  # atno 17320 bound_to 7965
  144.8236  140.6590  143.6337 LP  0  0  0  0  0  0  0  0  0  0  0  0  # atno 17321 bound_to 7965
  140.4676  143.2425  151.9133 LP  0  0  0  0  0  0  0  0  0  0  0  0  # atno 17342 bound_to 10162
  139.4783  144.5403  151.8538 LP  0  0  0  0  0  0  0  0  0  0  0  0  # atno 17343 bound_to 10162
  156.0899  130.3664  150.0415 LP  0  0  0  0  0  0  0  0  0  0  0  0  # atno 17370 bound_to 10713
  156.8548  130.9471  151.3623 LP  0  0  0  0  0  0  0  0  0  0  0  0  # atno 17371 bound_to 10713
  140.7995  133.8516  155.8715 LP  0  0  0  0  0  0  0  0  0  0  0  0  # atno 17394 bound_to 11000
  140.9605  134.1662  157.4658 LP  0  0  0  0  0  0  0  0  0  0  0  0  # atno 17395 bound_to 11000

$$$$
