AV-unprocessed.smi:3141|AV-procd|sdf|11969|dock2
  -GOLD-   2272017363D 1   1.00000     0.00000
 Structure written by MMmdl.
 35 37  0  0  0  0  0  0  0  0  1 V2000
  151.0013  141.9368  158.3605 O   0  0  0  0  0  0  0  0  0  0  0  0
  150.5161  142.8093  157.6401 C   0  0  0  0  0  0  0  0  0  0  0  0
  150.8348  144.1085  157.7083 N   0  0  0  0  0  0  0  0  0  0  0  0
  151.7775  144.6829  158.6123 C   0  0  0  0  0  0  0  0  0  0  0  0
  152.8812  143.7887  159.1345 C   0  0  0  0  0  0  0  0  0  0  0  0
  151.7594  144.2009  160.0469 C   0  0  0  0  0  0  0  0  0  0  0  0
  149.6035  142.5745  156.6875 N   0  0  0  0  0  0  0  0  0  0  0  0
  149.0696  141.2600  156.3424 C   0  0  1  0  0  0  0  0  0  0  0  0
  147.5419  141.3046  156.1301 C   0  0  0  0  0  0  0  0  0  0  0  0
  147.3002  140.9911  154.6509 C   0  0  0  0  0  0  0  0  0  0  0  0
  148.4966  140.1380  154.2401 C   0  0  0  0  0  0  0  0  0  0  0  0
  149.6653  140.7664  155.0070 C   0  0  2  0  0  0  0  0  0  0  0  0
  150.8019  139.8751  155.1799 N   0  0  0  0  0  0  0  0  0  0  0  0
  151.0080  138.6614  154.5363 C   0  0  0  0  0  0  0  0  0  0  0  0
  152.2142  138.1742  154.9858 C   0  0  0  0  0  0  0  0  0  0  0  0
  152.7709  139.0691  155.8956 N   0  0  0  0  0  0  0  0  0  0  0  0
  151.8819  140.0520  155.9562 C   0  0  0  0  0  0  0  0  0  0  0  0
  150.3763  144.7421  157.0703 H   0  0  0  0  0  0  0  0  0  0  0  0
  152.0406  145.7292  158.4630 H   0  0  0  0  0  0  0  0  0  0  0  0
  152.9006  142.7535  158.7993 H   0  0  0  0  0  0  0  0  0  0  0  0
  153.8564  144.2418  159.3007 H   0  0  0  0  0  0  0  0  0  0  0  0
  151.9853  144.9292  160.8229 H   0  0  0  0  0  0  0  0  0  0  0  0
  151.0289  143.4417  160.3200 H   0  0  0  0  0  0  0  0  0  0  0  0
  149.2635  143.3587  156.1506 H   0  0  0  0  0  0  0  0  0  0  0  0
  149.2909  140.5501  157.1420 H   0  0  0  0  0  0  0  0  0  0  0  0
  147.0730  140.5351  156.7447 H   0  0  0  0  0  0  0  0  0  0  0  0
  147.0926  142.2566  156.4168 H   0  0  0  0  0  0  0  0  0  0  0  0
  146.3475  140.4897  154.4788 H   0  0  0  0  0  0  0  0  0  0  0  0
  147.2974  141.9178  154.0753 H   0  0  0  0  0  0  0  0  0  0  0  0
  148.3280  139.1076  154.5553 H   0  0  0  0  0  0  0  0  0  0  0  0
  148.6573  140.1341  153.1616 H   0  0  0  0  0  0  0  0  0  0  0  0
  150.0017  141.6269  154.4248 H   0  0  0  0  0  0  0  0  0  0  0  0
  150.2993  138.2551  153.8299 H   0  0  0  0  0  0  0  0  0  0  0  0
  152.7221  137.2580  154.7228 H   0  0  0  0  0  0  0  0  0  0  0  0
  152.0228  140.9237  156.5786 H   0  0  0  0  0  0  0  0  0  0  0  0
  1  2  2  0  0  0  0
  2  3  1  0  0  0  0
  2  7  1  0  0  0  0
  3  4  1  0  0  0  0
  3 18  1  0  0  0  0
  4  6  1  0  0  0  0
  4  5  1  0  0  0  0
  4 19  1  0  0  0  0
  5  6  1  0  0  0  0
  5 20  1  0  0  0  0
  5 21  1  0  0  0  0
  6 22  1  0  0  0  0
  6 23  1  0  0  0  0
  7  8  1  0  0  0  0
  7 24  1  0  0  0  0
  8 12  1  0  0  0  0
  8  9  1  0  0  0  0
  8 25  1  0  0  0  0
  9 10  1  0  0  0  0
  9 26  1  0  0  0  0
  9 27  1  0  0  0  0
 10 11  1  0  0  0  0
 10 28  1  0  0  0  0
 10 29  1  0  0  0  0
 11 12  1  0  0  0  0
 11 30  1  0  0  0  0
 11 31  1  0  0  0  0
 12 13  1  0  0  0  0
 12 32  1  0  0  0  0
 13 17  1  0  0  0  0
 13 14  1  0  0  0  0
 14 15  2  0  0  0  0
 14 33  1  0  0  0  0
 15 16  1  0  0  0  0
 15 34  1  0  0  0  0
 16 17  2  0  0  0  0
 17 35  1  0  0  0  0
M  END
> <s_m_source_file>
AV-unprocessed.smi

> <i_m_source_file_index>
3141

> <i_lp_mmshare_version>
43012

> <i_f3d_flags>
0

> <s_epik_input>
W0NIMl0xW0NIMl1bQ0hdMVtOSF1DKD1PKVtOSF1bQ0BASF0yW0NIMl1bQ0gyXVtDSDJdW0NASF0ybjNbY0hdW2NIXW5bY0hdMw==

> <s_epik_cmdline>
J2VwaWtfcHl0aG9uJywgJy1waCcsICc3LjAnLCAnLXRuJywgJzgnLCAnLW1hJywgJzIwMCcsICctbWV0YWxfYmluZGluZycsICctaW1hZScsICc8aW5maWxlLm1hZT4nLCAnLW9tYWUnLCAnPG91dGZpbGUubWFlPic=

> <r_lp_tautomer_probability>
1

> <r_epik_Ionization_Penalty>
0.728419

> <r_epik_Ionization_Penalty_Charging>
0.728357

> <r_epik_Ionization_Penalty_Neutral>
6.27871e-05

> <r_epik_State_Penalty>
0.753408

> <r_epik_Charging_Adjusted_Penalty>
1.48176

> <i_epik_Tot_Q>
0

> <i_epik_Tot_abs_Q>
0

> <r_epik_Metal_State_Penalty>
0.332413

> <b_epik_Metal_Only>
0

> <s_lp_Force_Field>
OPLS_2005

> <r_lp_Energy>
34.7591

> <b_lp_Chiralities_Consistent>
1

> <s_lp_Variant>
AV-unprocessed.smi:3141-8

> <Gold.Version>
5.8.1

> <Gold.Id.Protein>
6NUR|6NUR_protein|mol2

> <Gold.PLP.Fitness>
45.5900

> <Gold.PLP.PLP>
-38.4879

> <Gold.PLP.part.hbond>
-2.9737

> <Gold.PLP.part.metal>
0.0000

> <Gold.PLP.part.buried>
-3.6610

> <Gold.PLP.part.nonpolar>
-32.6021

> <Gold.PLP.part.repulsive>
0.0855

> <Gold.PLP.ligand.clash>
0.0000

> <Gold.PLP.ligand.torsion>
0.7424

> <Gold.PLP.Chemscore.Hbond>
2.8480

> <Gold.PLP.Chemscore.CHOScore>
0.0000

> <Gold.PLP.Chemscore.Metal>
0.0000

> <Gold.Chemscore.Hbonds>
donor molecule, donor type, donor heavy atom, donor atom, acceptor molecule, acceptor atom, score
      L1  H     3    18       P1  8028  0.82
      L1  H     7    24       P1  8028  0.91
      P1  H  7997  8009       L1    16  0.80

> <Gold.PLP.Chemscore.Internal.Correction>
0.0429

> <Gold.Rescore>
     Score         DG    S(hbond)    S(metal)    S(lipo)     H(rot)  DE(clash)    DE(int)     intcor
     13.75     -17.03       1.92        0.00      78.28       1.57       0.03       3.26       ----

> <Gold.Chemscore.Fitness>
13.7453

> <Gold.Chemscore.DG>
-17.0331

> <Gold.Chemscore.ZeroCoef>
-5.4800

> <Gold.Chemscore.Hbond>
1.9207

> <Gold.Chemscore.Metal>
0.0000

> <Gold.Chemscore.Lipo>
78.2800

> <Gold.Chemscore.Internal_Hbond>
0.0000

> <Gold.Chemscore.DEClash>
0.0286

> <Gold.Chemscore.DEInternal>
3.2592

> <Gold.Chemscore.Rot>
1.5705

> <Gold.Chemscore.Internal.Correction>
   9.000000E+99

> <Gold.Chemscore.Hbonds>
donor molecule, donor type, donor heavy atom, donor atom, acceptor molecule, acceptor atom, score
      L1  H     3    18       P1  8028  0.43
      L1  H     7    24       P1  8028  0.87
      P1  H  7997  8009       L1    16  0.17

> <Gold.Chemscore.Hbond.Weighted>
-6.4150

> <Gold.Chemscore.Metal.Weighted>
-0.0000

> <Gold.Chemscore.Lipo.Weighted>
-9.1588

> <Gold.Chemscore.Internal_Hbond.Weighted>
0.0000

> <Gold.Chemscore.DEClash.Weighted>
0.0286

> <Gold.Chemscore.DEInternal.Weighted>
3.2592

> <Gold.Chemscore.Rot.Weighted>
4.0206

> <Gold.Chemscore.Internal.Correction.Weighted>
   9.000000E+99

> <Gold.Protein.RotatedTorsions>
[ 6907 6896 6895 6894 ] final -113.73 input  -60.11 | X-H torsion
[ 7974 7965 7964 7962 ] final  -84.67 input  175.53 | X-H torsion
[ 8008 7997 7996 7995 ] final -131.58 input   59.86 | X-H torsion
[ 10167 10162 10161 10158 ] final  -70.44 input  -65.29 | X-H torsion
[ 10718 10713 10712 10709 ] final -170.15 input   66.30 | X-H torsion
[ 10763 10752 10751 10750 ] final   57.89 input  -60.55 | X-H torsion
[ 11005 11000 10999 10996 ] final   85.72 input  -57.11 | X-H torsion

> <Gold.Protein.ActiveResidues>
 VAL166  LYS551  ARG553  GLY616  TRP617  ASP618  TYR619  PRO620  LYS621  CYS622 
 ASP623  PHE694  ASN695  SER759  ASP760  ASP761  ALA762  ILE779  LEU786  VAL792 
 PHE793  MET794  SER795  GLU796  ALA797  LYS798  CYS799  TRP800  GLU811  SER814 

> <Gold.Protein.RotatedAtoms>
  150.7850  133.8903  159.3311 H   0  0  0  0  0  0  0  0  0  0  0  0  # atno 6907 bound_to 6896
  151.6756  135.0967  160.0216 H   0  0  0  0  0  0  0  0  0  0  0  0  # atno 6908 bound_to 6896
  152.3911  133.6642  159.6274 H   0  0  0  0  0  0  0  0  0  0  0  0  # atno 6909 bound_to 6896
  145.5035  140.9545  143.1747 H   0  0  0  0  0  0  0  0  0  0  0  0  # atno 7974 bound_to 7965
  155.3146  140.0459  157.3036 H   0  0  0  0  0  0  0  0  0  0  0  0  # atno 8008 bound_to 7997
  154.5414  140.2289  155.8602 H   0  0  0  0  0  0  0  0  0  0  0  0  # atno 8009 bound_to 7997
  156.1884  140.3057  155.9290 H   0  0  0  0  0  0  0  0  0  0  0  0  # atno 8010 bound_to 7997
  140.5352  143.2318  151.7189 H   0  0  0  0  0  0  0  0  0  0  0  0  # atno 10167 bound_to 10162
  156.7220  130.9274  151.3098 H   0  0  0  0  0  0  0  0  0  0  0  0  # atno 10718 bound_to 10713
  152.9859  135.5626  154.5463 H   0  0  0  0  0  0  0  0  0  0  0  0  # atno 10763 bound_to 10752
  154.4908  135.2792  155.1500 H   0  0  0  0  0  0  0  0  0  0  0  0  # atno 10764 bound_to 10752
  154.2970  135.6315  153.5462 H   0  0  0  0  0  0  0  0  0  0  0  0  # atno 10765 bound_to 10752
  139.8964  134.8306  156.2622 H   0  0  0  0  0  0  0  0  0  0  0  0  # atno 11005 bound_to 11000
  144.7767  139.6615  143.7172 LP  0  0  0  0  0  0  0  0  0  0  0  0  # atno 17320 bound_to 7965
  146.2211  139.5638  142.9617 LP  0  0  0  0  0  0  0  0  0  0  0  0  # atno 17321 bound_to 7965
  139.4968  144.4053  152.0138 LP  0  0  0  0  0  0  0  0  0  0  0  0  # atno 17342 bound_to 10162
  140.3158  144.3485  150.6022 LP  0  0  0  0  0  0  0  0  0  0  0  0  # atno 17343 bound_to 10162
  157.6894  130.9218  150.0473 LP  0  0  0  0  0  0  0  0  0  0  0  0  # atno 17370 bound_to 10713
  156.1588  130.3643  149.9330 LP  0  0  0  0  0  0  0  0  0  0  0  0  # atno 17371 bound_to 10713
  141.0155  133.7071  156.1182 LP  0  0  0  0  0  0  0  0  0  0  0  0  # atno 17394 bound_to 11000
  140.7307  134.4257  157.5566 LP  0  0  0  0  0  0  0  0  0  0  0  0  # atno 17395 bound_to 11000

$$$$
