AV-unprocessed.smi:3267|AV-procd|sdf|12506|dock8
  -GOLD-   2272018413D 1   1.00000     0.00000
 Structure written by MMmdl.
 38 39  0  0  0  0  0  0  0  0  1 V2000
  147.9431  140.4957  153.8684 C   0  0  0  0  0  0  0  0  0  0  0  0
  148.2984  139.1520  154.5205 C   0  0  2  0  0  0  0  0  0  0  0  0
  149.8214  139.0147  154.7675 C   0  0  0  0  0  0  0  0  0  0  0  0
  150.3030  139.9804  155.7372 N   0  0  0  0  0  0  0  0  0  0  0  0
  150.9892  139.7477  156.9101 C   0  0  0  0  0  0  0  0  0  0  0  0
  151.2173  140.9608  157.4939 C   0  0  0  0  0  0  0  0  0  0  0  0
  150.6245  141.8870  156.5906 C   0  0  0  0  0  0  0  0  0  0  0  0
  150.0784  141.2973  155.5393 N   0  0  0  0  0  0  0  0  0  0  0  0
  147.7996  138.0652  153.6813 N   0  0  0  0  0  0  0  0  0  0  0  0
  146.5056  137.8106  153.4391 C   0  0  0  0  0  0  0  0  0  0  0  0
  145.5734  138.4617  153.9112 O   0  0  0  0  0  0  0  0  0  0  0  0
  146.3488  136.7555  152.6287 N   0  0  0  0  0  0  0  0  0  0  0  0
  145.0623  136.2067  152.2164 C   0  0  0  0  0  0  0  0  0  0  0  0
  145.2401  135.0363  151.2352 C   0  0  1  0  0  0  0  0  0  0  0  0
  146.0088  133.8533  151.8222 C   0  0  0  0  0  0  0  0  0  0  0  0
  145.4881  132.7058  150.9878 C   0  0  0  0  0  0  0  0  0  0  0  0
  144.0169  133.0789  150.8381 C   0  0  0  0  0  0  0  0  0  0  0  0
  143.9723  134.5034  150.8553 O   0  0  0  0  0  0  0  0  0  0  0  0
  148.2635  141.3290  154.4945 H   0  0  0  0  0  0  0  0  0  0  0  0
  146.8667  140.5903  153.7222 H   0  0  0  0  0  0  0  0  0  0  0  0
  148.4238  140.6053  152.8957 H   0  0  0  0  0  0  0  0  0  0  0  0
  147.7642  139.1070  155.4722 H   0  0  0  0  0  0  0  0  0  0  0  0
  150.0807  138.0175  155.1264 H   0  0  0  0  0  0  0  0  0  0  0  0
  150.3839  139.1496  153.8423 H   0  0  0  0  0  0  0  0  0  0  0  0
  151.2509  138.7495  157.2296 H   0  0  0  0  0  0  0  0  0  0  0  0
  151.7270  141.1561  158.4255 H   0  0  0  0  0  0  0  0  0  0  0  0
  150.5744  142.9630  156.6676 H   0  0  0  0  0  0  0  0  0  0  0  0
  148.4904  137.4689  153.2497 H   0  0  0  0  0  0  0  0  0  0  0  0
  147.1747  136.2820  152.2930 H   0  0  0  0  0  0  0  0  0  0  0  0
  144.4985  135.8829  153.0928 H   0  0  0  0  0  0  0  0  0  0  0  0
  144.4803  137.0027  151.7513 H   0  0  0  0  0  0  0  0  0  0  0  0
  145.7483  135.3701  150.3289 H   0  0  0  0  0  0  0  0  0  0  0  0
  147.0904  133.9752  151.7562 H   0  0  0  0  0  0  0  0  0  0  0  0
  145.7444  133.7012  152.8698 H   0  0  0  0  0  0  0  0  0  0  0  0
  145.9766  132.6985  150.0125 H   0  0  0  0  0  0  0  0  0  0  0  0
  145.6364  131.7314  151.4541 H   0  0  0  0  0  0  0  0  0  0  0  0
  143.5752  132.6757  149.9266 H   0  0  0  0  0  0  0  0  0  0  0  0
  143.4424  132.7056  151.6868 H   0  0  0  0  0  0  0  0  0  0  0  0
  1  2  1  0  0  0  0
  1 19  1  0  0  0  0
  1 20  1  0  0  0  0
  1 21  1  0  0  0  0
  2  3  1  0  0  0  0
  2  9  1  0  0  0  0
  2 22  1  0  0  0  0
  3  4  1  0  0  0  0
  3 23  1  0  0  0  0
  3 24  1  0  0  0  0
  4  8  1  0  0  0  0
  4  5  1  0  0  0  0
  5  6  2  0  0  0  0
  5 25  1  0  0  0  0
  6  7  1  0  0  0  0
  6 26  1  0  0  0  0
  7  8  2  0  0  0  0
  7 27  1  0  0  0  0
  9 10  1  0  0  0  0
  9 28  1  0  0  0  0
 10 11  2  0  0  0  0
 10 12  1  0  0  0  0
 12 13  1  0  0  0  0
 12 29  1  0  0  0  0
 13 14  1  0  0  0  0
 13 30  1  0  0  0  0
 13 31  1  0  0  0  0
 14 18  1  0  0  0  0
 14 15  1  0  0  0  0
 14 32  1  0  0  0  0
 15 16  1  0  0  0  0
 15 33  1  0  0  0  0
 15 34  1  0  0  0  0
 16 17  1  0  0  0  0
 16 35  1  0  0  0  0
 16 36  1  0  0  0  0
 17 18  1  0  0  0  0
 17 37  1  0  0  0  0
 17 38  1  0  0  0  0
M  END
> <s_m_source_file>
AV-unprocessed.smi

> <i_m_source_file_index>
3267

> <i_lp_mmshare_version>
43012

> <i_f3d_flags>
0

> <s_epik_input>
bjFbY0hdW2NIXVtjSF1uMVtDSDJdW0NAQEhdKFtDSDNdKVtOSF1DKD1PKVtOSF1bQ0gyXVtDQEBIXTJbQ0gyXVtDSDJdW0NIMl1PMg==

> <s_epik_cmdline>
J2VwaWtfcHl0aG9uJywgJy1waCcsICc3LjAnLCAnLXRuJywgJzgnLCAnLW1hJywgJzIwMCcsICctbWV0YWxfYmluZGluZycsICctaW1hZScsICc8aW5maWxlLm1hZT4nLCAnLW9tYWUnLCAnPG91dGZpbGUubWFlPic=

> <r_lp_tautomer_probability>
1

> <r_epik_Ionization_Penalty>
6.24796e-05

> <r_epik_Ionization_Penalty_Charging>
0

> <r_epik_Ionization_Penalty_Neutral>
6.24796e-05

> <r_epik_State_Penalty>
-0

> <r_epik_Charging_Adjusted_Penalty>
0

> <i_epik_Tot_Q>
0

> <i_epik_Tot_abs_Q>
0

> <r_epik_Metal_State_Penalty>
-0

> <b_epik_Metal_Only>
0

> <s_lp_Force_Field>
OPLS_2005

> <r_lp_Energy>
17.3536

> <b_lp_Chiralities_Consistent>
1

> <s_lp_Variant>
AV-unprocessed.smi:3267-3

> <Gold.Version>
5.8.1

> <Gold.Id.Protein>
6NUR|6NUR_protein|mol2

> <Gold.PLP.Fitness>
41.1666

> <Gold.PLP.PLP>
-32.5627

> <Gold.PLP.part.hbond>
-3.0320

> <Gold.PLP.part.metal>
0.0000

> <Gold.PLP.part.buried>
-2.4483

> <Gold.PLP.part.nonpolar>
-27.7183

> <Gold.PLP.part.repulsive>
0.5906

> <Gold.PLP.ligand.clash>
0.0000

> <Gold.PLP.ligand.torsion>
0.0992

> <Gold.PLP.Chemscore.Hbond>
1.9280

> <Gold.PLP.Chemscore.CHOScore>
1.0000

> <Gold.PLP.Chemscore.Metal>
0.0000

> <Gold.Chemscore.Hbonds>
donor molecule, donor type, donor heavy atom, donor atom, acceptor molecule, acceptor atom, score
      L1  H     9    28       P1  7948  0.99
      L1  H    12    29       P1  7948  1.00
      L1  C     7    27       P1  8028  0.75

> <Gold.PLP.Chemscore.Internal.Correction>
0.0182

> <Gold.Rescore>
     Score         DG    S(hbond)    S(metal)    S(lipo)     H(rot)  DE(clash)    DE(int)     intcor
     14.57     -14.89       1.81        0.00      69.79       1.87       0.00       0.32       ----

> <Gold.Chemscore.Fitness>
14.5694

> <Gold.Chemscore.DG>
-14.8942

> <Gold.Chemscore.ZeroCoef>
-5.4800

> <Gold.Chemscore.Hbond>
1.8090

> <Gold.Chemscore.Metal>
0.0000

> <Gold.Chemscore.Lipo>
69.7900

> <Gold.Chemscore.Internal_Hbond>
0.0000

> <Gold.Chemscore.DEClash>
0.0008

> <Gold.Chemscore.DEInternal>
0.3240

> <Gold.Chemscore.Rot>
1.8724

> <Gold.Chemscore.Internal.Correction>
   9.000000E+99

> <Gold.Chemscore.Hbonds>
donor molecule, donor type, donor heavy atom, donor atom, acceptor molecule, acceptor atom, score
      L1  H     9    28       P1  7948  0.94
      L1  H    12    29       P1  7948  0.97

> <Gold.Chemscore.Hbond.Weighted>
-6.0420

> <Gold.Chemscore.Metal.Weighted>
-0.0000

> <Gold.Chemscore.Lipo.Weighted>
-8.1654

> <Gold.Chemscore.Internal_Hbond.Weighted>
0.0000

> <Gold.Chemscore.DEClash.Weighted>
0.0008

> <Gold.Chemscore.DEInternal.Weighted>
0.3240

> <Gold.Chemscore.Rot.Weighted>
4.7933

> <Gold.Chemscore.Internal.Correction.Weighted>
   9.000000E+99

> <Gold.Protein.RotatedTorsions>
[ 6907 6896 6895 6894 ] final -123.20 input  -60.11 | X-H torsion
[ 7974 7965 7964 7962 ] final -139.52 input  175.53 | X-H torsion
[ 8008 7997 7996 7995 ] final   89.98 input   59.86 | X-H torsion
[ 10167 10162 10161 10158 ] final -125.21 input  -65.29 | X-H torsion
[ 10718 10713 10712 10709 ] final -149.61 input   66.30 | X-H torsion
[ 10763 10752 10751 10750 ] final  160.12 input  -60.55 | X-H torsion
[ 11005 11000 10999 10996 ] final  -70.17 input  -57.11 | X-H torsion

> <Gold.Protein.ActiveResidues>
 VAL166  LYS551  ARG553  GLY616  TRP617  ASP618  TYR619  PRO620  LYS621  CYS622 
 ASP623  PHE694  ASN695  SER759  ASP760  ASP761  ALA762  ILE779  LEU786  VAL792 
 PHE793  MET794  SER795  GLU796  ALA797  LYS798  CYS799  TRP800  GLU811  SER814 

> <Gold.Protein.RotatedAtoms>
  150.8648  133.7591  159.2980 H   0  0  0  0  0  0  0  0  0  0  0  0  # atno 6907 bound_to 6896
  151.5222  135.1066  159.9891 H   0  0  0  0  0  0  0  0  0  0  0  0  # atno 6908 bound_to 6896
  152.4653  133.7864  159.6934 H   0  0  0  0  0  0  0  0  0  0  0  0  # atno 6909 bound_to 6896
  144.8670  140.6308  143.5291 H   0  0  0  0  0  0  0  0  0  0  0  0  # atno 7974 bound_to 7965
  156.0064  140.3354  155.6897 H   0  0  0  0  0  0  0  0  0  0  0  0  # atno 8008 bound_to 7997
  155.6218  140.0676  157.2693 H   0  0  0  0  0  0  0  0  0  0  0  0  # atno 8009 bound_to 7997
  154.4266  140.1775  156.1368 H   0  0  0  0  0  0  0  0  0  0  0  0  # atno 8010 bound_to 7997
  139.9845  143.5706  152.2366 H   0  0  0  0  0  0  0  0  0  0  0  0  # atno 10167 bound_to 10162
  156.4354  130.8096  151.2324 H   0  0  0  0  0  0  0  0  0  0  0  0  # atno 10718 bound_to 10713
  154.2424  135.2774  155.2848 H   0  0  0  0  0  0  0  0  0  0  0  0  # atno 10763 bound_to 10752
  154.5534  135.5668  153.6945 H   0  0  0  0  0  0  0  0  0  0  0  0  # atno 10764 bound_to 10752
  152.9997  135.6280  154.2568 H   0  0  0  0  0  0  0  0  0  0  0  0  # atno 10765 bound_to 10752
  141.1569  133.6783  156.6711 H   0  0  0  0  0  0  0  0  0  0  0  0  # atno 11005 bound_to 11000
  145.4203  139.1565  143.4078 LP  0  0  0  0  0  0  0  0  0  0  0  0  # atno 17320 bound_to 7965
  146.2903  140.4313  142.8742 LP  0  0  0  0  0  0  0  0  0  0  0  0  # atno 17321 bound_to 7965
  139.6385  144.7652  151.2388 LP  0  0  0  0  0  0  0  0  0  0  0  0  # atno 17342 bound_to 10162
  140.7477  143.6357  150.8381 LP  0  0  0  0  0  0  0  0  0  0  0  0  # atno 17343 bound_to 10162
  157.7507  131.0185  150.3629 LP  0  0  0  0  0  0  0  0  0  0  0  0  # atno 17370 bound_to 10713
  156.3975  130.3909  149.6984 LP  0  0  0  0  0  0  0  0  0  0  0  0  # atno 17371 bound_to 10713
  140.3174  134.8036  157.4225 LP  0  0  0  0  0  0  0  0  0  0  0  0  # atno 17394 bound_to 11000
  140.1126  134.5325  155.8253 LP  0  0  0  0  0  0  0  0  0  0  0  0  # atno 17395 bound_to 11000

$$$$
