#       Name:                AV-unprocessed.smi:157
#       Creating user name   scv26
#       Creation time:       Thu Mar 26 18:58:20 2020


#       File generated by GOLD software.
#

@<TRIPOS>MOLECULE
AV-unprocessed.smi:157
    45    47     1
SMALL
NO_CHARGES


@<TRIPOS>ATOM
      1 ****        -4.5908   1.4835  -1.5235 O.3            1 S1                 0.0000
      2 ****        -4.2582   0.1129  -1.5802 C.3            1 S1                 0.0000
      3 ****        -2.7372  -0.0635  -1.4600 C.3            1 S1                 0.0000
      4 ****        -2.3546  -0.0465  -0.0882 O.3            1 S1                 0.0000
      5 ****        -1.1573  -0.7470   0.0848 C.3            1 S1                 0.0000
      6 ****        -0.0475   0.2341   0.3221 N.pl3          1 S1                 0.0000
      7 ****        -0.0569   1.5466   0.0497 C.2            1 S1                 0.0000
      8 ****         1.0643   2.1791   0.3526 N.2            1 S1                 0.0000
      9 ****         1.8818   1.1810   0.8789 C.2            1 S1                 0.0000
     10 ****         1.2096  -0.0327   0.8722 C.2            1 S1                 0.0000
     11 ****         1.4964  -1.3325   1.2437 N.2            1 S1                 0.0000
     12 ****         2.4891  -1.5289   2.0530 C.2            1 S1                 0.0000
     13 ****         3.4166  -0.6338   2.5669 N.pl3          1 S1                 0.0000
     14 ****         4.1361   0.3275   1.7487 C.3            1 S1                 0.0000
     15 ****         3.2790   1.5215   1.3102 C.3            1 S1                 0.0000
     16 ****         3.1699   2.4363   2.3818 O.3            1 S1                 0.0000
     17 ****        -0.8979  -1.5275  -1.2096 C.3            1 S1                 0.0000
     18 ****        -2.2408  -1.4387  -1.9077 C.3            1 S1                 0.0000
     19 ****        -2.0911  -1.5293  -3.3098 O.3            1 S1                 0.0000
     20 ****        -2.2006   0.7182  -2.0020 H              1 S1                 0.0000
     21 ****        -1.2017  -1.3628   0.9837 H              1 S1                 0.0000
     22 ****         3.7983   2.0408   0.5041 H              1 S1                 0.0000
     23 ****        -2.9057  -2.2250  -1.5466 H              1 S1                 0.0000
     24 ****        -5.5287   1.5685  -1.6012 H              1 S1                 0.0000
     25 ****        -4.7849  -0.4405  -0.8022 H              1 S1                 0.0000
     26 ****        -4.6059  -0.2684  -2.5408 H              1 S1                 0.0000
     27 ****        -0.9035   2.0562  -0.3861 H              1 S1                 0.0000
     28 ****         2.6715  -2.5429   2.4117 H              1 S1                 0.0000
     29 ****         3.9642  -0.9150   3.3675 H              1 S1                 0.0000
     30 ****         5.0316   0.6639   2.2722 H              1 S1                 0.0000
     31 ****         4.4842  -0.2006   0.8596 H              1 S1                 0.0000
     32 ****         2.6845   3.1888   2.0787 H              1 S1                 0.0000
     33 ****        -0.1183  -1.0324  -1.7921 H              1 S1                 0.0000
     34 ****        -0.5847  -2.5500  -0.9967 H              1 S1                 0.0000
     35 ****        -1.5106  -0.8401  -3.5951 H              1 S1                 0.0000
     36 ****        -4.1448   1.9700  -2.2747 LP             1 S1                 0.0000
     37 ****        -4.2885   1.8680  -0.6513 LP             1 S1                 0.0000
     38 ****        -3.0716  -0.4763   0.4606 LP             1 S1                 0.0000
     39 ****        -2.2299   0.9002   0.2088 LP             1 S1                 0.0000
     40 ****         1.2763   3.1489   0.2319 LP             1 S1                 0.0000
     41 ****         0.9541  -2.0985   0.8983 LP             1 S1                 0.0000
     42 ****         4.0816   2.7190   2.6799 LP             1 S1                 0.0000
     43 ****         2.6876   2.0073   3.1455 LP             1 S1                 0.0000
     44 ****        -2.9821  -1.4242  -3.7515 LP             1 S1                 0.0000
     45 ****        -1.7026  -2.4187  -3.5507 LP             1 S1                 0.0000
@<TRIPOS>BOND
    1    1    2 1     
    2    1   24 1     
    3    2    3 1     
    4    2   25 1     
    5    2   26 1     
    6    3   20 1     
    7    3   18 1     
    8    3    4 1     
    9    4    5 1     
   10    5   21 1     
   11    5    6 1     
   12    5   17 1     
   13    6   10 1     
   14    6    7 1     
   15    7    8 2     
   16    7   27 1     
   17    8    9 1     
   18    9   15 1     
   19    9   10 2     
   20   10   11 1     
   21   11   12 2     
   22   12   13 1     
   23   12   28 1     
   24   13   14 1     
   25   13   29 1     
   26   14   15 1     
   27   14   30 1     
   28   14   31 1     
   29   15   22 1     
   30   15   16 1     
   31   16   32 1     
   32   17   18 1     
   33   17   33 1     
   34   17   34 1     
   35   18   23 1     
   36   18   19 1     
   37   19   35 1     
   38    1   36 1     
   39    1   37 1     
   40    4   38 1     
   41    4   39 1     
   42    8   40 1     
   43   11   41 1     
   44   16   42 1     
   45   16   43 1     
   46   19   44 1     
   47   19   45 1     
@<TRIPOS>SUBSTRUCTURE
      1 S1             1
@<TRIPOS>SET
LONE_PAIRS      STATIC     ATOMS    <user>   **** ""
10 36 37 38 39 40 41 42 43 44 45
DONOR_HYDROGENS      STATIC     ATOMS    <user>   **** ""
4 24 29 32 35
ATOM$BLUE        STATIC     ATOMS    COLORGROUP SYSTEM
10 36 37 38 39 40 41 42 43 44 45
ATOM$RED        STATIC     ATOMS    COLORGROUP SYSTEM
4 24 29 32 35
