AV-unprocessed.smi:740|AV-procd|sdf|3550|dock1
  -GOLD-   22720 0543D 1   1.00000     0.00000
 Structure written by MMmdl.
 45 47  0  0  0  0  0  0  0  0  2 V2000
  152.0963  144.2594  161.2869 C   0  0  0  0  0  0  0  0  0  0  0  0
  152.0070  143.3228  160.0941 C   0  0  0  0  0  0  0  0  0  0  0  0
  151.1970  143.7004  158.9997 C   0  0  0  0  0  0  0  0  0  0  0  0
  151.1349  142.8228  157.9238 C   0  0  0  0  0  0  0  0  0  0  0  0
  150.4346  142.9035  156.7183 N   0  3  0  0  0  0  0  0  0  0  0  0
  150.6852  141.7925  155.9722 C   0  0  0  0  0  0  0  0  0  0  0  0
  151.5381  141.0049  156.6817 N   0  0  0  0  0  0  0  0  0  0  0  0
  152.1167  139.7008  156.3286 C   0  0  0  0  0  0  0  0  0  0  0  0
  151.0938  138.5518  156.4212 C   0  0  2  0  0  0  0  0  0  0  0  0
  151.1751  137.9691  157.7075 O   0  0  0  0  0  0  0  0  0  0  0  0
  151.3679  137.4620  155.3648 C   0  0  0  0  0  0  0  0  0  0  0  0
  150.3600  136.3959  155.3987 N   0  0  0  0  0  0  0  0  0  0  0  0
  149.0814  136.5599  155.0331 C   0  0  0  0  0  0  0  0  0  0  0  0
  148.5697  137.6008  154.6213 O   0  0  0  0  0  0  0  0  0  0  0  0
  148.2955  135.2669  155.1993 C   0  0  0  0  0  0  0  0  0  0  0  0
  149.3443  134.2837  155.7413 C   0  0  1  0  0  0  0  0  0  0  0  0
  149.5461  133.0430  154.8558 C   0  0  0  0  0  0  0  0  0  0  0  0
  150.6044  135.1441  155.8112 C   0  0  0  0  0  0  0  0  0  0  0  0
  151.6868  134.7081  156.2041 O   0  0  0  0  0  0  0  0  0  0  0  0
  151.8451  141.6065  157.9083 C   0  0  0  0  0  0  0  0  0  0  0  0
  152.6468  141.2191  158.9798 C   0  0  0  0  0  0  0  0  0  0  0  0
  152.7208  142.0964  160.0852 C   0  0  0  0  0  0  0  0  0  0  0  0
  153.5824  141.6962  161.2708 C   0  0  0  0  0  0  0  0  0  0  0  0
  151.5174  145.1688  161.1242 H   0  0  0  0  0  0  0  0  0  0  0  0
  153.1308  144.5522  161.4683 H   0  0  0  0  0  0  0  0  0  0  0  0
  151.7103  143.7742  162.1836 H   0  0  0  0  0  0  0  0  0  0  0  0
  150.6479  144.6306  159.0007 H   0  0  0  0  0  0  0  0  0  0  0  0
  150.2796  141.5743  154.9947 H   0  0  0  0  0  0  0  0  0  0  0  0
  152.4828  139.7865  155.3048 H   0  0  0  0  0  0  0  0  0  0  0  0
  152.9923  139.5088  156.9491 H   0  0  0  0  0  0  0  0  0  0  0  0
  150.0927  138.9641  156.2878 H   0  0  0  0  0  0  0  0  0  0  0  0
  150.3561  137.5363  157.8943 H   0  0  0  0  0  0  0  0  0  0  0  0
  151.3510  137.9091  154.3691 H   0  0  0  0  0  0  0  0  0  0  0  0
  152.3769  137.0610  155.4777 H   0  0  0  0  0  0  0  0  0  0  0  0
  147.4730  135.4088  155.9011 H   0  0  0  0  0  0  0  0  0  0  0  0
  147.8830  134.9526  154.2397 H   0  0  0  0  0  0  0  0  0  0  0  0
  149.0780  133.9749  156.7530 H   0  0  0  0  0  0  0  0  0  0  0  0
  150.2959  132.3734  155.2784 H   0  0  0  0  0  0  0  0  0  0  0  0
  149.8704  133.3157  153.8507 H   0  0  0  0  0  0  0  0  0  0  0  0
  148.6181  132.4784  154.7627 H   0  0  0  0  0  0  0  0  0  0  0  0
  153.1882  140.2849  158.9770 H   0  0  0  0  0  0  0  0  0  0  0  0
  154.0360  140.7158  161.1217 H   0  0  0  0  0  0  0  0  0  0  0  0
  152.9849  141.6503  162.1814 H   0  0  0  0  0  0  0  0  0  0  0  0
  154.3872  142.4164  161.4196 H   0  0  0  0  0  0  0  0  0  0  0  0
  149.8281  143.6588  156.4248 H   0  0  0  0  0  0  0  0  0  0  0  0
  1  2  1  0  0  0  0
  1 24  1  0  0  0  0
  1 25  1  0  0  0  0
  1 26  1  0  0  0  0
  2 22  1  0  0  0  0
  2  3  2  0  0  0  0
  3  4  1  0  0  0  0
  3 27  1  0  0  0  0
  4 20  2  0  0  0  0
  4  5  1  0  0  0  0
  5  6  2  0  0  0  0
  5 45  1  0  0  0  0
  6  7  1  0  0  0  0
  6 28  1  0  0  0  0
  7  8  1  0  0  0  0
  7 20  1  0  0  0  0
  8  9  1  0  0  0  0
  8 29  1  0  0  0  0
  8 30  1  0  0  0  0
  9 10  1  0  0  0  0
  9 11  1  0  0  0  0
  9 31  1  0  0  0  0
 10 32  1  0  0  0  0
 11 12  1  0  0  0  0
 11 33  1  0  0  0  0
 11 34  1  0  0  0  0
 12 18  1  0  0  0  0
 12 13  1  0  0  0  0
 13 14  2  0  0  0  0
 13 15  1  0  0  0  0
 15 16  1  0  0  0  0
 15 35  1  0  0  0  0
 15 36  1  0  0  0  0
 16 17  1  0  0  0  0
 16 18  1  0  0  0  0
 16 37  1  0  0  0  0
 17 38  1  0  0  0  0
 17 39  1  0  0  0  0
 17 40  1  0  0  0  0
 18 19  2  0  0  0  0
 20 21  1  0  0  0  0
 21 22  2  0  0  0  0
 21 41  1  0  0  0  0
 22 23  1  0  0  0  0
 23 42  1  0  0  0  0
 23 43  1  0  0  0  0
 23 44  1  0  0  0  0
M  CHG  1   5   1
M  END
> <s_m_source_file>
AV-unprocessed.smi

> <i_m_source_file_index>
740

> <i_lp_mmshare_version>
43012

> <i_f3d_flags>
0

> <s_epik_input>
W0NIM11jKFtjSF0xKWMoW0NIM10pW2NIXWMoYzEyKW4oW2NIXW4yKVtDSDJdW0NASF0oW09IXSlbQ0gyXU4zQyg9TylbQ0gyXVtDQEBIXShbQ0gzXSlDMz1P

> <s_epik_cmdline>
J2VwaWtfcHl0aG9uJywgJy1waCcsICc3LjAnLCAnLXRuJywgJzgnLCAnLW1hJywgJzIwMCcsICctbWV0YWxfYmluZGluZycsICctaW1hZScsICc8aW5maWxlLm1hZT4nLCAnLW9tYWUnLCAnPG91dGZpbGUubWFlPic=

> <r_lp_tautomer_probability>
1

> <r_epik_Ionization_Penalty>
1.08202

> <r_epik_Ionization_Penalty_Charging>
1.08202

> <r_epik_Ionization_Penalty_Neutral>
1.16605e-06

> <r_epik_State_Penalty>
1.13754

> <r_epik_Charging_Adjusted_Penalty>
2.21956

> <i_epik_Tot_Q>
1

> <i_epik_Tot_abs_Q>
1

> <r_epik_Metal_State_Penalty>
5.13645

> <b_epik_Metal_Only>
0

> <s_lp_Force_Field>
OPLS_2005

> <r_lp_Energy>
22.4261

> <b_lp_Chiralities_Consistent>
1

> <s_lp_Variant>
AV-unprocessed.smi:740-5

> <Gold.Version>
5.8.1

> <Gold.Id.Protein>
6NUR|6NUR_protein|mol2

> <Gold.PLP.Fitness>
48.5148

> <Gold.PLP.PLP>
-41.2889

> <Gold.PLP.part.hbond>
-2.0000

> <Gold.PLP.part.metal>
0.0000

> <Gold.PLP.part.buried>
-4.1818

> <Gold.PLP.part.nonpolar>
-34.7223

> <Gold.PLP.part.repulsive>
0.1977

> <Gold.PLP.ligand.clash>
0.0000

> <Gold.PLP.ligand.torsion>
0.6771

> <Gold.PLP.Chemscore.Hbond>
2.8480

> <Gold.PLP.Chemscore.CHOScore>
0.0000

> <Gold.PLP.Chemscore.Metal>
0.0000

> <Gold.Chemscore.Hbonds>
donor molecule, donor type, donor heavy atom, donor atom, acceptor molecule, acceptor atom, score
      L1  H     5    45       P1  8028  2.00
      P1  H 10752 10763       L1    19  0.85

> <Gold.PLP.Chemscore.Internal.Correction>
0.0360

> <Gold.Rescore>
     Score         DG    S(hbond)    S(metal)    S(lipo)     H(rot)  DE(clash)    DE(int)     intcor
     17.60     -18.75       1.81        0.00     113.65       2.37       0.40       0.74       ----

> <Gold.Chemscore.Fitness>
17.6017

> <Gold.Chemscore.DG>
-18.7496

> <Gold.Chemscore.ZeroCoef>
-5.4800

> <Gold.Chemscore.Hbond>
1.8103

> <Gold.Chemscore.Metal>
0.0000

> <Gold.Chemscore.Lipo>
113.6466

> <Gold.Chemscore.Internal_Hbond>
0.0000

> <Gold.Chemscore.DEClash>
0.4042

> <Gold.Chemscore.DEInternal>
0.7437

> <Gold.Chemscore.Rot>
2.3724

> <Gold.Chemscore.Internal.Correction>
   9.000000E+99

> <Gold.Chemscore.Hbonds>
donor molecule, donor type, donor heavy atom, donor atom, acceptor molecule, acceptor atom, score
      L1  H     5    45       P1  8028  0.99
      P1  H 10752 10763       L1    19  0.57

> <Gold.Chemscore.Hbond.Weighted>
-6.0464

> <Gold.Chemscore.Metal.Weighted>
-0.0000

> <Gold.Chemscore.Lipo.Weighted>
-13.2966

> <Gold.Chemscore.Internal_Hbond.Weighted>
0.0000

> <Gold.Chemscore.DEClash.Weighted>
0.4042

> <Gold.Chemscore.DEInternal.Weighted>
0.7437

> <Gold.Chemscore.Rot.Weighted>
6.0734

> <Gold.Chemscore.Internal.Correction.Weighted>
   9.000000E+99

> <Gold.Protein.RotatedTorsions>
[ 6907 6896 6895 6894 ] final -138.56 input  -60.11 | X-H torsion
[ 7974 7965 7964 7962 ] final  169.83 input  175.53 | X-H torsion
[ 8008 7997 7996 7995 ] final  106.01 input   59.86 | X-H torsion
[ 10167 10162 10161 10158 ] final -163.39 input  -65.29 | X-H torsion
[ 10718 10713 10712 10709 ] final  -72.54 input   66.30 | X-H torsion
[ 10763 10752 10751 10750 ] final   88.61 input  -60.55 | X-H torsion
[ 11005 11000 10999 10996 ] final -156.16 input  -57.11 | X-H torsion

> <Gold.Protein.ActiveResidues>
 VAL166  LYS551  ARG553  GLY616  TRP617  ASP618  TYR619  PRO620  LYS621  CYS622 
 ASP623  PHE694  ASN695  SER759  ASP760  ASP761  ALA762  ILE779  LEU786  VAL792 
 PHE793  MET794  SER795  GLU796  ALA797  LYS798  CYS799  TRP800  GLU811  SER814 

> <Gold.Protein.RotatedAtoms>
  151.0366  133.5743  159.2655 H   0  0  0  0  0  0  0  0  0  0  0  0  # atno 6907 bound_to 6896
  151.2805  135.0711  159.9177 H   0  0  0  0  0  0  0  0  0  0  0  0  # atno 6908 bound_to 6896
  152.5356  134.0081  159.7979 H   0  0  0  0  0  0  0  0  0  0  0  0  # atno 6909 bound_to 6896
  144.7342  139.9112  143.6415 H   0  0  0  0  0  0  0  0  0  0  0  0  # atno 7974 bound_to 7965
  156.1707  140.3120  155.8969 H   0  0  0  0  0  0  0  0  0  0  0  0  # atno 8008 bound_to 7997
  155.3592  140.0475  157.3063 H   0  0  0  0  0  0  0  0  0  0  0  0  # atno 8009 bound_to 7997
  154.5238  140.2207  155.8937 H   0  0  0  0  0  0  0  0  0  0  0  0  # atno 8010 bound_to 7997
  139.6324  144.0414  152.2027 H   0  0  0  0  0  0  0  0  0  0  0  0  # atno 10167 bound_to 10162
  156.0316  130.4374  150.2607 H   0  0  0  0  0  0  0  0  0  0  0  0  # atno 10718 bound_to 10713
  153.1786  135.4501  154.9998 H   0  0  0  0  0  0  0  0  0  0  0  0  # atno 10763 bound_to 10752
  154.8015  135.3257  154.7542 H   0  0  0  0  0  0  0  0  0  0  0  0  # atno 10764 bound_to 10752
  153.8009  135.6962  153.4911 H   0  0  0  0  0  0  0  0  0  0  0  0  # atno 10765 bound_to 10752
  140.6786  134.4169  157.5228 H   0  0  0  0  0  0  0  0  0  0  0  0  # atno 11005 bound_to 11000
  146.0999  139.3994  143.0353 LP  0  0  0  0  0  0  0  0  0  0  0  0  # atno 17320 bound_to 7965
  145.7593  140.9942  143.1209 LP  0  0  0  0  0  0  0  0  0  0  0  0  # atno 17321 bound_to 7965
  140.0083  144.6243  150.7670 LP  0  0  0  0  0  0  0  0  0  0  0  0  # atno 17342 bound_to 10162
  140.7446  143.2864  151.3452 LP  0  0  0  0  0  0  0  0  0  0  0  0  # atno 17343 bound_to 10162
  157.0709  131.0116  151.3190 LP  0  0  0  0  0  0  0  0  0  0  0  0  # atno 17370 bound_to 10713
  157.5000  130.7874  149.7595 LP  0  0  0  0  0  0  0  0  0  0  0  0  # atno 17371 bound_to 10713
  139.8959  134.8672  156.2112 LP  0  0  0  0  0  0  0  0  0  0  0  0  # atno 17394 bound_to 11000
  141.0336  133.6975  156.1472 LP  0  0  0  0  0  0  0  0  0  0  0  0  # atno 17395 bound_to 11000

$$$$
