AV-unprocessed.smi:11|AV-procd|sdf|55|dock7
  -GOLD-   2262015173D 1   1.00000     0.00000
 Structure written by MMmdl.
 33 35  0  0  0  0  0  0  0  0  1 V2000
  151.2972  135.5720  156.3675 C   0  0  0  0  0  0  0  0  0  0  0  0
  150.5563  136.8367  155.9021 C   0  0  0  0  0  0  0  0  0  0  0  0
  151.3843  137.8030  155.0189 C   0  0  1  0  0  0  0  0  0  0  0  0
  152.0270  137.0516  154.0076 O   0  0  0  0  0  0  0  0  0  0  0  0
  150.5656  138.9567  154.4191 C   0  0  0  0  0  0  0  0  0  0  0  0
  150.5707  140.0031  155.5316 C   0  0  0  0  0  0  0  0  0  0  0  0
  151.8625  139.8418  156.1832 N   0  0  0  0  0  0  0  0  0  0  0  0
  152.1494  140.4769  157.4085 C   0  0  0  0  0  0  0  0  0  0  0  0
  153.1276  139.9465  158.1872 N   0  0  0  0  0  0  0  0  0  0  0  0
  153.4358  140.5182  159.3546 C   0  0  0  0  0  0  0  0  0  0  0  0
  152.8972  141.5993  159.9225 N   0  0  0  0  0  0  0  0  0  0  0  0
  151.9049  142.1229  159.1493 C   0  0  0  0  0  0  0  0  0  0  0  0
  151.1289  143.2278  159.4302 N   0  0  0  0  0  0  0  0  0  0  0  0
  150.2173  143.4460  158.4125 C   0  0  0  0  0  0  0  0  0  0  0  0
  150.3855  142.4843  157.4490 C   0  0  0  0  0  0  0  0  0  0  0  0
  151.4621  141.6308  157.8871 C   0  0  0  0  0  0  0  0  0  0  0  0
  152.4413  138.5455  155.8570 C   0  0  0  0  0  0  0  0  0  0  0  0
  151.1932  143.8073  160.2548 H   0  0  0  0  0  0  0  0  0  0  0  0
  150.6616  134.9792  157.0252 H   0  0  0  0  0  0  0  0  0  0  0  0
  152.2018  135.8183  156.9236 H   0  0  0  0  0  0  0  0  0  0  0  0
  151.5791  134.9338  155.5310 H   0  0  0  0  0  0  0  0  0  0  0  0
  149.6531  136.5359  155.3700 H   0  0  0  0  0  0  0  0  0  0  0  0
  150.2107  137.3739  156.7863 H   0  0  0  0  0  0  0  0  0  0  0  0
  151.4043  136.8856  153.3163 H   0  0  0  0  0  0  0  0  0  0  0  0
  151.0816  139.3661  153.5491 H   0  0  0  0  0  0  0  0  0  0  0  0
  149.5613  138.6823  154.0993 H   0  0  0  0  0  0  0  0  0  0  0  0
  150.4440  141.0120  155.1383 H   0  0  0  0  0  0  0  0  0  0  0  0
  149.7670  139.8062  156.2423 H   0  0  0  0  0  0  0  0  0  0  0  0
  154.2267  140.0412  159.9141 H   0  0  0  0  0  0  0  0  0  0  0  0
  149.5190  144.2687  158.4585 H   0  0  0  0  0  0  0  0  0  0  0  0
  149.8194  142.3845  156.5354 H   0  0  0  0  0  0  0  0  0  0  0  0
  152.7148  137.9774  156.7467 H   0  0  0  0  0  0  0  0  0  0  0  0
  153.3483  138.7214  155.2772 H   0  0  0  0  0  0  0  0  0  0  0  0
  1  2  1  0  0  0  0
  1 19  1  0  0  0  0
  1 20  1  0  0  0  0
  1 21  1  0  0  0  0
  2  3  1  0  0  0  0
  2 22  1  0  0  0  0
  2 23  1  0  0  0  0
  3 17  1  0  0  0  0
  3  4  1  0  0  0  0
  3  5  1  0  0  0  0
  4 24  1  0  0  0  0
  5  6  1  0  0  0  0
  5 25  1  0  0  0  0
  5 26  1  0  0  0  0
  6  7  1  0  0  0  0
  6 27  1  0  0  0  0
  6 28  1  0  0  0  0
  7  8  1  0  0  0  0
  7 17  1  0  0  0  0
  8 16  1  0  0  0  0
  8  9  2  0  0  0  0
  9 10  1  0  0  0  0
 10 11  2  0  0  0  0
 10 29  1  0  0  0  0
 11 12  1  0  0  0  0
 12 16  2  0  0  0  0
 12 13  1  0  0  0  0
 13 18  1  0  0  0  0
 13 14  1  0  0  0  0
 14 15  2  0  0  0  0
 14 30  1  0  0  0  0
 15 16  1  0  0  0  0
 15 31  1  0  0  0  0
 17 32  1  0  0  0  0
 17 33  1  0  0  0  0
M  END
> <s_m_source_file>
AV-unprocessed.smi

> <i_m_source_file_index>
11

> <i_lp_mmshare_version>
43012

> <i_f3d_flags>
0

> <s_epik_input>
W0NIM11bQ0gyXVtDQEBdMShbT0hdKVtDSDJdW0NIMl1OKFtDSDJdMSljKG5bY0hdbjIpYyhjMjMpW2NIXVtjSF1bbkhdMw==

> <s_epik_cmdline>
J2VwaWtfcHl0aG9uJywgJy1waCcsICc3LjAnLCAnLXRuJywgJzgnLCAnLW1hJywgJzIwMCcsICctbWV0YWxfYmluZGluZycsICctaW1hZScsICc8aW5maWxlLm1hZT4nLCAnLW9tYWUnLCAnPG91dGZpbGUubWFlPic=

> <r_lp_tautomer_probability>
0.999998

> <r_epik_Ionization_Penalty>
0.0511253

> <r_epik_Ionization_Penalty_Charging>
0

> <r_epik_Ionization_Penalty_Neutral>
0.0511253

> <r_epik_State_Penalty>
0.0394181

> <r_epik_Charging_Adjusted_Penalty>
0.0394181

> <i_epik_Tot_Q>
0

> <i_epik_Tot_abs_Q>
0

> <r_epik_Metal_State_Penalty>
0.0367127

> <b_epik_Metal_Only>
0

> <s_lp_Force_Field>
OPLS_2005

> <r_lp_Energy>
27.4132

> <b_lp_Chiralities_Consistent>
1

> <s_lp_Variant>
AV-unprocessed.smi:11-1

> <Gold.Version>
5.8.1

> <Gold.Id.Protein>
6NUR|6NUR_protein|mol2

> <Gold.PLP.Fitness>
41.2287

> <Gold.PLP.PLP>
-30.2132

> <Gold.PLP.part.hbond>
-3.0000

> <Gold.PLP.part.metal>
0.0000

> <Gold.PLP.part.buried>
-2.0022

> <Gold.PLP.part.nonpolar>
-23.8811

> <Gold.PLP.part.repulsive>
0.0744

> <Gold.PLP.ligand.clash>
0.0000

> <Gold.PLP.ligand.torsion>
0.2227

> <Gold.PLP.Chemscore.Hbond>
2.8720

> <Gold.PLP.Chemscore.CHOScore>
0.8678

> <Gold.PLP.Chemscore.Metal>
0.0000

> <Gold.Chemscore.Hbonds>
donor molecule, donor type, donor heavy atom, donor atom, acceptor molecule, acceptor atom, score
      L1  H     4    24       P1  7949  0.83
      P1  H  7997  8009       L1     9  1.00
      P1  H 10752 10764       L1     4  0.94
      L1  C    14    30       P1  8028  0.03
      L1  C    14    30       P1  8029  0.80

> <Gold.PLP.Chemscore.Internal.Correction>
0.2415

> <Gold.Rescore>
     Score         DG    S(hbond)    S(metal)    S(lipo)     H(rot)  DE(clash)    DE(int)     intcor
     14.54     -14.99       1.88        0.00      58.80       1.43       0.24       0.21       ----

> <Gold.Chemscore.Fitness>
14.5407

> <Gold.Chemscore.DG>
-14.9903

> <Gold.Chemscore.ZeroCoef>
-5.4800

> <Gold.Chemscore.Hbond>
1.8825

> <Gold.Chemscore.Metal>
0.0000

> <Gold.Chemscore.Lipo>
58.7990

> <Gold.Chemscore.Internal_Hbond>
0.0000

> <Gold.Chemscore.DEClash>
0.2401

> <Gold.Chemscore.DEInternal>
0.2094

> <Gold.Chemscore.Rot>
1.4283

> <Gold.Chemscore.Internal.Correction>
   9.000000E+99

> <Gold.Chemscore.Hbonds>
donor molecule, donor type, donor heavy atom, donor atom, acceptor molecule, acceptor atom, score
      L1  H     4    24       P1  7949  0.64
      P1  H  7997  8009       L1     9  0.26
      P1  H 10752 10764       L1     4  0.41

> <Gold.Chemscore.Hbond.Weighted>
-6.2874

> <Gold.Chemscore.Metal.Weighted>
-0.0000

> <Gold.Chemscore.Lipo.Weighted>
-6.8795

> <Gold.Chemscore.Internal_Hbond.Weighted>
0.0000

> <Gold.Chemscore.DEClash.Weighted>
0.2401

> <Gold.Chemscore.DEInternal.Weighted>
0.2094

> <Gold.Chemscore.Rot.Weighted>
3.6566

> <Gold.Chemscore.Internal.Correction.Weighted>
   9.000000E+99

> <Gold.Protein.RotatedTorsions>
[ 6907 6896 6895 6894 ] final  164.67 input  -60.11 | X-H torsion
[ 7974 7965 7964 7962 ] final -125.88 input  175.53 | X-H torsion
[ 8008 7997 7996 7995 ] final  144.64 input   59.86 | X-H torsion
[ 10167 10162 10161 10158 ] final   70.86 input  -65.29 | X-H torsion
[ 10718 10713 10712 10709 ] final -152.69 input   66.30 | X-H torsion
[ 10763 10752 10751 10750 ] final -101.69 input  -60.55 | X-H torsion
[ 11005 11000 10999 10996 ] final   11.10 input  -57.11 | X-H torsion

> <Gold.Protein.ActiveResidues>
 VAL166  LYS551  ARG553  GLY616  TRP617  ASP618  TYR619  PRO620  LYS621  CYS622 
 ASP623  PHE694  ASN695  SER759  ASP760  ASP761  ALA762  ILE779  LEU786  VAL792 
 PHE793  MET794  SER795  GLU796  ALA797  LYS798  CYS799  TRP800  GLU811  SER814 

> <Gold.Protein.RotatedAtoms>
  151.9062  133.3550  159.3847 H   0  0  0  0  0  0  0  0  0  0  0  0  # atno 6907 bound_to 6896
  150.7068  134.4778  159.5465 H   0  0  0  0  0  0  0  0  0  0  0  0  # atno 6908 bound_to 6896
  152.2376  134.8261  160.0516 H   0  0  0  0  0  0  0  0  0  0  0  0  # atno 6909 bound_to 6896
  144.9930  140.7750  143.4542 H   0  0  0  0  0  0  0  0  0  0  0  0  # atno 7974 bound_to 7965
  156.2903  140.2230  156.5086 H   0  0  0  0  0  0  0  0  0  0  0  0  # atno 8008 bound_to 7997
  154.7628  140.0472  157.1009 H   0  0  0  0  0  0  0  0  0  0  0  0  # atno 8009 bound_to 7997
  154.9969  140.3097  155.4886 H   0  0  0  0  0  0  0  0  0  0  0  0  # atno 8010 bound_to 7997
  140.0524  144.5301  150.7354 H   0  0  0  0  0  0  0  0  0  0  0  0  # atno 10167 bound_to 10162
  156.4758  130.8280  151.2508 H   0  0  0  0  0  0  0  0  0  0  0  0  # atno 10718 bound_to 10713
  154.7677  135.4888  153.9587 H   0  0  0  0  0  0  0  0  0  0  0  0  # atno 10763 bound_to 10752
  153.1328  135.6756  153.9158 H   0  0  0  0  0  0  0  0  0  0  0  0  # atno 10764 bound_to 10752
  153.8856  135.3127  155.3425 H   0  0  0  0  0  0  0  0  0  0  0  0  # atno 10765 bound_to 10752
  140.5070  134.0689  155.7808 H   0  0  0  0  0  0  0  0  0  0  0  0  # atno 11005 bound_to 11000
  145.2259  139.2137  143.5068 LP  0  0  0  0  0  0  0  0  0  0  0  0  # atno 17320 bound_to 7965
  146.3435  140.2126  142.8590 LP  0  0  0  0  0  0  0  0  0  0  0  0  # atno 17321 bound_to 7965
  140.7210  143.2589  151.4277 LP  0  0  0  0  0  0  0  0  0  0  0  0  # atno 17342 bound_to 10162
  139.5945  144.1428  152.2127 LP  0  0  0  0  0  0  0  0  0  0  0  0  # atno 17343 bound_to 10162
  157.7487  131.0061  150.3139 LP  0  0  0  0  0  0  0  0  0  0  0  0  # atno 17370 bound_to 10713
  156.3571  130.3840  149.7281 LP  0  0  0  0  0  0  0  0  0  0  0  0  # atno 17371 bound_to 10713
  141.1406  133.9145  157.2335 LP  0  0  0  0  0  0  0  0  0  0  0  0  # atno 17394 bound_to 11000
  139.9680  135.0136  156.9439 LP  0  0  0  0  0  0  0  0  0  0  0  0  # atno 17395 bound_to 11000

$$$$
