AV-unprocessed.smi:2061|AV-procd|sdf|8390|dock2
  -GOLD-   2272011 73D 1   1.00000     0.00000
 Structure written by MMmdl.
 45 46  0  0  0  0  0  0  0  0  3 V2000
  153.6953  141.5420  161.3242 C   0  0  0  0  0  0  0  0  0  0  0  0
  152.7119  141.4597  160.2077 C   0  0  0  0  0  0  0  0  0  0  0  0
  152.7572  140.8848  158.9691 C   0  0  0  0  0  0  0  0  0  0  0  0
  151.4792  141.1865  158.4277 C   0  0  0  0  0  0  0  0  0  0  0  0
  151.1236  140.7477  157.1250 N   0  0  0  0  0  0  0  0  0  0  0  0
  151.7542  139.8615  156.3328 C   0  0  0  0  0  0  0  0  0  0  0  0
  152.7729  139.2835  156.7300 O   0  0  0  0  0  0  0  0  0  0  0  0
  151.1363  139.7180  155.1285 N   0  5  0  0  0  0  0  0  0  0  0  0
  151.1062  138.4798  154.3504 C   0  0  0  0  0  0  0  0  0  0  0  0
  150.1030  137.4718  154.9709 C   0  0  2  0  0  0  0  0  0  0  0  0
  150.5822  135.9983  154.9477 C   0  0  0  0  0  0  0  0  0  0  0  0
  148.7451  137.6512  154.3698 N   0  3  1  0  0  0  0  0  0  0  0  0
  147.5999  137.0649  155.1196 C   0  0  0  0  0  0  0  0  0  0  0  0
  146.3070  137.1523  154.2879 C   0  0  2  0  0  0  0  0  0  0  0  0
  146.2726  136.1709  153.1028 C   0  0  0  0  0  0  0  0  0  0  0  0
  146.0776  138.5029  153.8839 O   0  0  0  0  0  0  0  0  0  0  0  0
  147.1469  139.1039  153.1562 C   0  0  1  0  0  0  0  0  0  0  0  0
  146.7387  140.5424  152.8198 C   0  0  0  0  0  0  0  0  0  0  0  0
  148.4395  139.0514  153.9906 C   0  0  0  0  0  0  0  0  0  0  0  0
  150.7218  141.8819  159.2634 N   0  0  0  0  0  0  0  0  0  0  0  0
  151.5077  142.0602  160.4080 O   0  0  0  0  0  0  0  0  0  0  0  0
  154.6764  141.1897  161.0055 H   0  0  0  0  0  0  0  0  0  0  0  0
  153.3735  140.9308  162.1676 H   0  0  0  0  0  0  0  0  0  0  0  0
  153.8021  142.5701  161.6708 H   0  0  0  0  0  0  0  0  0  0  0  0
  153.5739  140.3370  158.5230 H   0  0  0  0  0  0  0  0  0  0  0  0
  150.2890  141.1627  156.7386 H   0  0  0  0  0  0  0  0  0  0  0  0
  150.8071  138.6633  153.3169 H   0  0  0  0  0  0  0  0  0  0  0  0
  152.0911  138.0160  154.2904 H   0  0  0  0  0  0  0  0  0  0  0  0
  150.0163  137.7556  156.0212 H   0  0  0  0  0  0  0  0  0  0  0  0
  151.5000  135.8612  155.5224 H   0  0  0  0  0  0  0  0  0  0  0  0
  150.7759  135.6323  153.9380 H   0  0  0  0  0  0  0  0  0  0  0  0
  149.8366  135.3414  155.3962 H   0  0  0  0  0  0  0  0  0  0  0  0
  147.7965  136.0262  155.3870 H   0  0  0  0  0  0  0  0  0  0  0  0
  147.4561  137.6097  156.0537 H   0  0  0  0  0  0  0  0  0  0  0  0
  145.4743  136.8877  154.9402 H   0  0  0  0  0  0  0  0  0  0  0  0
  146.3213  135.1401  153.4548 H   0  0  0  0  0  0  0  0  0  0  0  0
  147.1081  136.3164  152.4183 H   0  0  0  0  0  0  0  0  0  0  0  0
  145.3496  136.2810  152.5334 H   0  0  0  0  0  0  0  0  0  0  0  0
  147.2970  138.5688  152.2182 H   0  0  0  0  0  0  0  0  0  0  0  0
  147.5194  141.0501  152.2529 H   0  0  0  0  0  0  0  0  0  0  0  0
  146.5509  141.1218  153.7242 H   0  0  0  0  0  0  0  0  0  0  0  0
  145.8292  140.5588  152.2190 H   0  0  0  0  0  0  0  0  0  0  0  0
  148.3430  139.6628  154.8891 H   0  0  0  0  0  0  0  0  0  0  0  0
  149.2592  139.4687  153.4041 H   0  0  0  0  0  0  0  0  0  0  0  0
  148.7927  137.1471  153.4956 H   0  0  0  0  0  0  0  0  0  0  0  0
  1  2  1  0  0  0  0
  1 22  1  0  0  0  0
  1 23  1  0  0  0  0
  1 24  1  0  0  0  0
  2 21  1  0  0  0  0
  2  3  2  0  0  0  0
  3  4  1  0  0  0  0
  3 25  1  0  0  0  0
  4  5  1  0  0  0  0
  4 20  2  0  0  0  0
  5  6  1  0  0  0  0
  5 26  1  0  0  0  0
  6  7  2  0  0  0  0
  6  8  1  0  0  0  0
  8  9  1  0  0  0  0
  9 10  1  0  0  0  0
  9 27  1  0  0  0  0
  9 28  1  0  0  0  0
 10 11  1  0  0  0  0
 10 12  1  0  0  0  0
 10 29  1  0  0  0  0
 11 30  1  0  0  0  0
 11 31  1  0  0  0  0
 11 32  1  0  0  0  0
 12 19  1  0  0  0  0
 12 13  1  0  0  0  0
 12 45  1  0  0  0  0
 13 14  1  0  0  0  0
 13 33  1  0  0  0  0
 13 34  1  0  0  0  0
 14 15  1  0  0  0  0
 14 16  1  0  0  0  0
 14 35  1  0  0  0  0
 15 36  1  0  0  0  0
 15 37  1  0  0  0  0
 15 38  1  0  0  0  0
 16 17  1  0  0  0  0
 17 18  1  0  0  0  0
 17 19  1  0  0  0  0
 17 39  1  0  0  0  0
 18 40  1  0  0  0  0
 18 41  1  0  0  0  0
 18 42  1  0  0  0  0
 19 43  1  0  0  0  0
 19 44  1  0  0  0  0
 20 21  1  0  0  0  0
M  CHG  1   8  -1
M  CHG  1  12   1
M  END
> <s_m_source_file>
AV-unprocessed.smi

> <i_m_source_file_index>
2061

> <i_lp_mmshare_version>
43012

> <i_f3d_flags>
0

> <s_epik_input>
W0NIM11jMVtjSF1jKG5vMSlbTkhdQyg9TylbTkhdW0NIMl1bQ0BIXShbQ0gzXSlOMltDSDJdW0NAQEhdKFtDSDNdKU9bQ0BASF0oW0NIM10pW0NIMl0y

> <s_epik_cmdline>
J2VwaWtfcHl0aG9uJywgJy1waCcsICc3LjAnLCAnLXRuJywgJzgnLCAnLW1hJywgJzIwMCcsICctbWV0YWxfYmluZGluZycsICctaW1hZScsICc8aW5maWxlLm1hZT4nLCAnLW9tYWUnLCAnPG91dGZpbGUubWFlPic=

> <r_epik_Ionization_Penalty>
6.8073

> <r_epik_Ionization_Penalty_Charging>
6.80729

> <r_epik_Ionization_Penalty_Neutral>
5.65391e-06

> <r_epik_State_Penalty>
7.47323

> <r_epik_Charging_Adjusted_Penalty>
14.2805

> <i_epik_Tot_Q>
0

> <i_epik_Tot_abs_Q>
2

> <r_epik_Metal_State_Penalty>
3.40035

> <b_epik_Metal_Only>
1

> <s_lp_Force_Field>
OPLS_2005

> <r_lp_Energy>
19.801

> <b_lp_Chiralities_Consistent>
1

> <s_lp_Variant>
AV-unprocessed.smi:2061-31

> <Gold.Version>
5.8.1

> <Gold.Id.Protein>
6NUR|6NUR_protein|mol2

> <Gold.PLP.Fitness>
41.3513

> <Gold.PLP.PLP>
-31.4781

> <Gold.PLP.part.hbond>
-4.1703

> <Gold.PLP.part.metal>
0.0000

> <Gold.PLP.part.buried>
-1.7045

> <Gold.PLP.part.nonpolar>
-25.0496

> <Gold.PLP.part.repulsive>
0.3323

> <Gold.PLP.ligand.clash>
0.0000

> <Gold.PLP.ligand.torsion>
1.1423

> <Gold.PLP.Chemscore.Hbond>
4.0000

> <Gold.PLP.Chemscore.CHOScore>
0.0000

> <Gold.PLP.Chemscore.Metal>
0.0000

> <Gold.Chemscore.Hbonds>
donor molecule, donor type, donor heavy atom, donor atom, acceptor molecule, acceptor atom, score
      L1  H    12    45       P1  7948  2.00
      P1  H  6933  6945       L1    21  0.01
      P1  H  7989  7998       L1     8  0.61
      P1  H  7997  8009       L1     7  1.00

> <Gold.PLP.Chemscore.Internal.Correction>
0.1578

> <Gold.Rescore>
     Score         DG    S(hbond)    S(metal)    S(lipo)     H(rot)  DE(clash)    DE(int)     intcor
     15.20     -19.21       2.62        0.00      76.59       1.56       0.53       3.48       ----

> <Gold.Chemscore.Fitness>
15.1991

> <Gold.Chemscore.DG>
-19.2103

> <Gold.Chemscore.ZeroCoef>
-5.4800

> <Gold.Chemscore.Hbond>
2.6199

> <Gold.Chemscore.Metal>
0.0000

> <Gold.Chemscore.Lipo>
76.5860

> <Gold.Chemscore.Internal_Hbond>
0.0000

> <Gold.Chemscore.DEClash>
0.5271

> <Gold.Chemscore.DEInternal>
3.4841

> <Gold.Chemscore.Rot>
1.5550

> <Gold.Chemscore.Internal.Correction>
   9.000000E+99

> <Gold.Chemscore.Hbonds>
donor molecule, donor type, donor heavy atom, donor atom, acceptor molecule, acceptor atom, score
      L1  H    12    45       P1  7948  1.00
      P1  H  6933  6945       L1    21  0.01
      P1  H  7989  7998       L1     8  0.05
      P1  H  7997  8009       L1     7  0.96

> <Gold.Chemscore.Hbond.Weighted>
-8.7506

> <Gold.Chemscore.Metal.Weighted>
-0.0000

> <Gold.Chemscore.Lipo.Weighted>
-8.9606

> <Gold.Chemscore.Internal_Hbond.Weighted>
0.0000

> <Gold.Chemscore.DEClash.Weighted>
0.5271

> <Gold.Chemscore.DEInternal.Weighted>
3.4841

> <Gold.Chemscore.Rot.Weighted>
3.9809

> <Gold.Chemscore.Internal.Correction.Weighted>
   9.000000E+99

> <Gold.Protein.RotatedTorsions>
[ 6907 6896 6895 6894 ] final  -37.14 input  -60.11 | X-H torsion
[ 7974 7965 7964 7962 ] final  -82.85 input  175.53 | X-H torsion
[ 8008 7997 7996 7995 ] final -171.84 input   59.86 | X-H torsion
[ 10167 10162 10161 10158 ] final   29.97 input  -65.29 | X-H torsion
[ 10718 10713 10712 10709 ] final  106.17 input   66.30 | X-H torsion
[ 10763 10752 10751 10750 ] final  -71.30 input  -60.55 | X-H torsion
[ 11005 11000 10999 10996 ] final  105.24 input  -57.11 | X-H torsion

> <Gold.Protein.ActiveResidues>
 VAL166  LYS551  ARG553  GLY616  TRP617  ASP618  TYR619  PRO620  LYS621  CYS622 
 ASP623  PHE694  ASN695  SER759  ASP760  ASP761  ALA762  ILE779  LEU786  VAL792 
 PHE793  MET794  SER795  GLU796  ALA797  LYS798  CYS799  TRP800  GLU811  SER814 

> <Gold.Protein.RotatedAtoms>
  151.0184  134.9450  159.8045 H   0  0  0  0  0  0  0  0  0  0  0  0  # atno 6907 bound_to 6896
  152.5319  134.2936  159.9062 H   0  0  0  0  0  0  0  0  0  0  0  0  # atno 6908 bound_to 6896
  151.2943  133.4109  159.2669 H   0  0  0  0  0  0  0  0  0  0  0  0  # atno 6909 bound_to 6896
  145.5279  140.9524  143.1619 H   0  0  0  0  0  0  0  0  0  0  0  0  # atno 7974 bound_to 7965
  155.9368  140.1101  157.1088 H   0  0  0  0  0  0  0  0  0  0  0  0  # atno 8008 bound_to 7997
  154.4081  140.1227  156.4940 H   0  0  0  0  0  0  0  0  0  0  0  0  # atno 8009 bound_to 7997
  155.7011  140.3472  155.4936 H   0  0  0  0  0  0  0  0  0  0  0  0  # atno 8010 bound_to 7997
  140.4719  144.0750  150.6239 H   0  0  0  0  0  0  0  0  0  0  0  0  # atno 10167 bound_to 10162
  157.6678  131.0844  150.5967 H   0  0  0  0  0  0  0  0  0  0  0  0  # atno 10718 bound_to 10713
  154.4298  135.5966  153.6062 H   0  0  0  0  0  0  0  0  0  0  0  0  # atno 10763 bound_to 10752
  152.9798  135.5972  154.3853 H   0  0  0  0  0  0  0  0  0  0  0  0  # atno 10764 bound_to 10752
  154.3689  135.2841  155.2256 H   0  0  0  0  0  0  0  0  0  0  0  0  # atno 10765 bound_to 10752
  139.8800  134.9329  156.5484 H   0  0  0  0  0  0  0  0  0  0  0  0  # atno 11005 bound_to 11000
  144.7641  139.6886  143.7222 LP  0  0  0  0  0  0  0  0  0  0  0  0  # atno 17320 bound_to 7965
  146.2064  139.5390  142.9710 LP  0  0  0  0  0  0  0  0  0  0  0  0  # atno 17321 bound_to 7965
  140.3967  143.2725  151.9997 LP  0  0  0  0  0  0  0  0  0  0  0  0  # atno 17342 bound_to 10162
  139.4820  144.6032  151.7568 LP  0  0  0  0  0  0  0  0  0  0  0  0  # atno 17343 bound_to 10162
  156.6267  130.4421  149.5802 LP  0  0  0  0  0  0  0  0  0  0  0  0  # atno 17370 bound_to 10713
  156.2313  130.6796  151.1466 LP  0  0  0  0  0  0  0  0  0  0  0  0  # atno 17371 bound_to 10713
  140.8258  133.8317  155.8938 LP  0  0  0  0  0  0  0  0  0  0  0  0  # atno 17394 bound_to 11000
  140.9375  134.1943  157.4821 LP  0  0  0  0  0  0  0  0  0  0  0  0  # atno 17395 bound_to 11000

$$$$
