AV-unprocessed.smi:109|AV-procd|sdf|1033|dock7
  -GOLD-   2262018 43D 1   1.00000     0.00000
 Structure written by MMmdl.
 58 61  0  0  0  0  0  0  0  0  1 V2000
  146.1090  142.2258  153.9851 O   0  0  0  0  0  0  0  0  0  0  0  0
  146.9961  141.2100  154.4002 C   0  0  0  0  0  0  0  0  0  0  0  0
  147.4738  140.4012  153.1819 C   0  0  0  0  0  0  0  0  0  0  0  0
  148.3187  139.1538  153.5408 C   0  0  2  0  0  0  0  0  0  0  0  0
  147.6202  138.3698  154.5622 N   0  0  0  0  0  0  0  0  0  0  0  0
  147.3687  137.0496  154.4153 C   0  0  0  0  0  0  0  0  0  0  0  0
  147.9046  136.1259  155.2543 N   0  0  0  0  0  0  0  0  0  0  0  0
  147.6396  134.8286  155.0785 C   0  0  0  0  0  0  0  0  0  0  0  0
  146.8791  134.2528  154.1455 N   0  0  0  0  0  0  0  0  0  0  0  0
  146.3375  135.1745  153.2977 C   0  0  0  0  0  0  0  0  0  0  0  0
  146.5325  136.5823  153.3689 C   0  0  0  0  0  0  0  0  0  0  0  0
  145.8279  137.2080  152.3495 N   0  0  0  0  0  0  0  0  0  0  0  0
  145.2489  136.2233  151.7168 C   0  0  0  0  0  0  0  0  0  0  0  0
  145.4995  134.9656  152.2192 N   0  0  0  0  0  0  0  0  0  0  0  0
  144.9699  133.6627  151.6978 C   0  0  1  0  0  0  0  0  0  0  0  0
  144.3034  133.8832  150.4888 O   0  0  0  0  0  0  0  0  0  0  0  0
  144.9188  133.1467  149.4318 C   0  0  2  0  0  0  0  0  0  0  0  0
  143.8554  132.7381  148.4022 C   0  0  0  0  0  0  0  0  0  0  0  0
  142.7378  132.1828  149.0616 O   0  0  0  0  0  0  0  0  0  0  0  0
  145.5543  131.9645  150.1653 C   0  0  1  0  0  0  0  0  0  0  0  0
  146.5728  131.3259  149.4185 O   0  0  0  0  0  0  0  0  0  0  0  0
  146.0681  132.6116  151.4439 C   0  0  1  0  0  0  0  0  0  0  0  0
  147.3662  133.1663  151.2971 O   0  0  0  0  0  0  0  0  0  0  0  0
  149.7536  139.4919  154.0397 C   0  0  0  0  0  0  0  0  0  0  0  0
  150.6326  138.2356  154.2664 C   0  0  0  0  0  0  0  0  0  0  0  0
  152.0277  138.5805  154.8132 C   0  0  0  0  0  0  0  0  0  0  0  0
  151.9375  139.3963  156.1079 C   0  0  0  0  0  0  0  0  0  0  0  0
  151.1026  140.6627  155.8869 C   0  0  0  0  0  0  0  0  0  0  0  0
  149.7045  140.3181  155.3512 C   0  0  0  0  0  0  0  0  0  0  0  0
  144.2436  133.3412  152.4452 H   0  0  0  0  0  0  0  0  0  0  0  0
  145.7027  133.7475  148.9679 H   0  0  0  0  0  0  0  0  0  0  0  0
  144.7852  131.2326  150.4181 H   0  0  0  0  0  0  0  0  0  0  0  0
  146.0931  131.9022  152.2715 H   0  0  0  0  0  0  0  0  0  0  0  0
  146.2665  142.9954  154.5105 H   0  0  0  0  0  0  0  0  0  0  0  0
  147.8325  141.6754  154.9213 H   0  0  0  0  0  0  0  0  0  0  0  0
  146.4840  140.5632  155.1130 H   0  0  0  0  0  0  0  0  0  0  0  0
  146.5793  140.0999  152.6398 H   0  0  0  0  0  0  0  0  0  0  0  0
  148.0390  141.0470  152.5085 H   0  0  0  0  0  0  0  0  0  0  0  0
  148.4432  138.5701  152.6290 H   0  0  0  0  0  0  0  0  0  0  0  0
  147.3143  138.8906  155.3718 H   0  0  0  0  0  0  0  0  0  0  0  0
  148.1030  134.1562  155.7854 H   0  0  0  0  0  0  0  0  0  0  0  0
  144.6145  136.3894  150.8583 H   0  0  0  0  0  0  0  0  0  0  0  0
  143.5086  133.6119  147.8499 H   0  0  0  0  0  0  0  0  0  0  0  0
  144.2578  132.0327  147.6745 H   0  0  0  0  0  0  0  0  0  0  0  0
  142.0986  132.8664  149.1942 H   0  0  0  0  0  0  0  0  0  0  0  0
  147.3557  131.2909  149.9468 H   0  0  0  0  0  0  0  0  0  0  0  0
  147.9492  132.4830  151.0012 H   0  0  0  0  0  0  0  0  0  0  0  0
  150.2414  140.1016  153.2774 H   0  0  0  0  0  0  0  0  0  0  0  0
  150.1301  137.5539  154.9539 H   0  0  0  0  0  0  0  0  0  0  0  0
  150.7769  137.6891  153.3359 H   0  0  0  0  0  0  0  0  0  0  0  0
  152.5925  137.6649  154.9912 H   0  0  0  0  0  0  0  0  0  0  0  0
  152.5844  139.1448  154.0639 H   0  0  0  0  0  0  0  0  0  0  0  0
  151.4868  138.7902  156.8949 H   0  0  0  0  0  0  0  0  0  0  0  0
  152.9367  139.6625  156.4533 H   0  0  0  0  0  0  0  0  0  0  0  0
  151.0152  141.2170  156.8219 H   0  0  0  0  0  0  0  0  0  0  0  0
  151.6128  141.3214  155.1830 H   0  0  0  0  0  0  0  0  0  0  0  0
  149.1590  141.2499  155.2014 H   0  0  0  0  0  0  0  0  0  0  0  0
  149.1534  139.7631  156.1118 H   0  0  0  0  0  0  0  0  0  0  0  0
  1  2  1  0  0  0  0
  1 34  1  0  0  0  0
  2  3  1  0  0  0  0
  2 35  1  0  0  0  0
  2 36  1  0  0  0  0
  3  4  1  0  0  0  0
  3 37  1  0  0  0  0
  3 38  1  0  0  0  0
  4  5  1  0  0  0  0
  4 24  1  0  0  0  0
  4 39  1  0  0  0  0
  5  6  1  0  0  0  0
  5 40  1  0  0  0  0
  6 11  1  0  0  0  0
  6  7  2  0  0  0  0
  7  8  1  0  0  0  0
  8  9  2  0  0  0  0
  8 41  1  0  0  0  0
  9 10  1  0  0  0  0
 10 14  1  0  0  0  0
 10 11  2  0  0  0  0
 11 12  1  0  0  0  0
 12 13  2  0  0  0  0
 13 14  1  0  0  0  0
 13 42  1  0  0  0  0
 14 15  1  0  0  0  0
 15 30  1  0  0  0  0
 15 22  1  0  0  0  0
 15 16  1  0  0  0  0
 16 17  1  0  0  0  0
 17 31  1  0  0  0  0
 17 18  1  0  0  0  0
 17 20  1  0  0  0  0
 18 19  1  0  0  0  0
 18 43  1  0  0  0  0
 18 44  1  0  0  0  0
 19 45  1  0  0  0  0
 20 32  1  0  0  0  0
 20 21  1  0  0  0  0
 20 22  1  0  0  0  0
 21 46  1  0  0  0  0
 22 33  1  0  0  0  0
 22 23  1  0  0  0  0
 23 47  1  0  0  0  0
 24 29  1  0  0  0  0
 24 25  1  0  0  0  0
 24 48  1  0  0  0  0
 25 26  1  0  0  0  0
 25 49  1  0  0  0  0
 25 50  1  0  0  0  0
 26 27  1  0  0  0  0
 26 51  1  0  0  0  0
 26 52  1  0  0  0  0
 27 28  1  0  0  0  0
 27 53  1  0  0  0  0
 27 54  1  0  0  0  0
 28 29  1  0  0  0  0
 28 55  1  0  0  0  0
 28 56  1  0  0  0  0
 29 57  1  0  0  0  0
 29 58  1  0  0  0  0
M  END
> <s_m_source_file>
AV-unprocessed.smi

> <i_m_source_file_index>
109

> <i_lp_mmshare_version>
43012

> <i_f3d_flags>
0

> <s_epik_input>
W0NIMl0xW0NIMl1bQ0gyXVtDSDJdW0NIMl1bQ0hdMVtDQEhdKFtDSDJdW0NIMl1bT0hdKVtOSF1jKG5bY0hdbjIpYyhjMjMpbltjSF1uM1tDQEBIXTRPW0NASF0oW0NIMl1bT0hdKVtDQEBIXShbT0hdKVtDQEhdNFtPSF0=

> <s_epik_cmdline>
J2VwaWtfcHl0aG9uJywgJy1waCcsICc3LjAnLCAnLXRuJywgJzgnLCAnLW1hJywgJzIwMCcsICctbWV0YWxfYmluZGluZycsICctaW1hZScsICc8aW5maWxlLm1hZT4nLCAnLW9tYWUnLCAnPG91dGZpbGUubWFlPic=

> <r_lp_tautomer_probability>
1

> <r_epik_Ionization_Penalty>
0.000793976

> <r_epik_Ionization_Penalty_Charging>
0

> <r_epik_Ionization_Penalty_Neutral>
0.000793976

> <r_epik_State_Penalty>
-0

> <r_epik_Charging_Adjusted_Penalty>
0

> <i_epik_Tot_Q>
0

> <i_epik_Tot_abs_Q>
0

> <r_epik_Metal_State_Penalty>
-0

> <b_epik_Metal_Only>
0

> <s_epik_Chemistry_Notes>
This compound contains an acetal/aminal-like group ( X-CH(R)-Y where X, Y are N, S, or O) that may be acid/base labile, releasing an aldehyde.

> <s_lp_Force_Field>
OPLS_2005

> <r_lp_Energy>
57.1061

> <b_lp_Chiralities_Consistent>
1

> <s_lp_Variant>
AV-unprocessed.smi:109-3

> <Gold.Version>
5.8.1

> <Gold.Id.Protein>
6NUR|6NUR_protein|mol2

> <Gold.PLP.Fitness>
56.4377

> <Gold.PLP.PLP>
-44.1235

> <Gold.PLP.part.hbond>
-5.6485

> <Gold.PLP.part.metal>
0.0000

> <Gold.PLP.part.buried>
1.6019

> <Gold.PLP.part.nonpolar>
-39.3364

> <Gold.PLP.part.repulsive>
0.5430

> <Gold.PLP.ligand.clash>
0.0000

> <Gold.PLP.ligand.torsion>
0.9527

> <Gold.PLP.Chemscore.Hbond>
3.7388

> <Gold.PLP.Chemscore.CHOScore>
0.9298

> <Gold.PLP.Chemscore.Metal>
0.0000

> <Gold.Chemscore.Hbonds>
donor molecule, donor type, donor heavy atom, donor atom, acceptor molecule, acceptor atom, score
      L1  H    19    45       P1 10186  1.00
      L1  H    21    46       P1 10747  1.00
      L1  H    23    47       P1 10747  0.96
      P1  H 10785 10796       L1    19  0.72
      L1  C    13    42       P1 10171  0.98

> <Gold.PLP.Chemscore.Internal.Correction>
0.2139

> <Gold.Rescore>
     Score         DG    S(hbond)    S(metal)    S(lipo)     H(rot)  DE(clash)    DE(int)     intcor
      8.79     -13.22       2.93        0.00     102.29       5.47       1.98       2.45       ----

> <Gold.Chemscore.Fitness>
8.7904

> <Gold.Chemscore.DG>
-13.2247

> <Gold.Chemscore.ZeroCoef>
-5.4800

> <Gold.Chemscore.Hbond>
2.9252

> <Gold.Chemscore.Metal>
0.0000

> <Gold.Chemscore.Lipo>
102.2921

> <Gold.Chemscore.Internal_Hbond>
0.0000

> <Gold.Chemscore.DEClash>
1.9846

> <Gold.Chemscore.DEInternal>
2.4497

> <Gold.Chemscore.Rot>
5.4662

> <Gold.Chemscore.Internal.Correction>
   9.000000E+99

> <Gold.Chemscore.Hbonds>
donor molecule, donor type, donor heavy atom, donor atom, acceptor molecule, acceptor atom, score
      L1  H    19    45       P1 10186  1.00
      L1  H    21    46       P1 10747  0.97
      L1  H    23    47       P1 10747  0.91
      P1  H 10785 10796       L1    19  0.14

> <Gold.Chemscore.Hbond.Weighted>
-9.7701

> <Gold.Chemscore.Metal.Weighted>
-0.0000

> <Gold.Chemscore.Lipo.Weighted>
-11.9682

> <Gold.Chemscore.Internal_Hbond.Weighted>
0.0000

> <Gold.Chemscore.DEClash.Weighted>
1.9846

> <Gold.Chemscore.DEInternal.Weighted>
2.4497

> <Gold.Chemscore.Rot.Weighted>
13.9935

> <Gold.Chemscore.Internal.Correction.Weighted>
   9.000000E+99

> <Gold.Protein.RotatedTorsions>
[ 6907 6896 6895 6894 ] final  -70.08 input  -60.11 | X-H torsion
[ 7974 7965 7964 7962 ] final  103.94 input  175.53 | X-H torsion
[ 8008 7997 7996 7995 ] final  149.30 input   59.86 | X-H torsion
[ 10167 10162 10161 10158 ] final  -94.02 input  -65.29 | X-H torsion
[ 10718 10713 10712 10709 ] final  175.67 input   66.30 | X-H torsion
[ 10763 10752 10751 10750 ] final   63.40 input  -60.55 | X-H torsion
[ 11005 11000 10999 10996 ] final  179.04 input  -57.11 | X-H torsion

> <Gold.Protein.ActiveResidues>
 VAL166  LYS551  ARG553  GLY616  TRP617  ASP618  TYR619  PRO620  LYS621  CYS622 
 ASP623  PHE694  ASN695  SER759  ASP760  ASP761  ALA762  ILE779  LEU786  VAL792 
 PHE793  MET794  SER795  GLU796  ALA797  LYS798  CYS799  TRP800  GLU811  SER814 

> <Gold.Protein.RotatedAtoms>
  150.7275  134.5505  159.5791 H   0  0  0  0  0  0  0  0  0  0  0  0  # atno 6907 bound_to 6896
  152.2993  134.7626  160.0370 H   0  0  0  0  0  0  0  0  0  0  0  0  # atno 6908 bound_to 6896
  151.8212  133.3359  159.3621 H   0  0  0  0  0  0  0  0  0  0  0  0  # atno 6909 bound_to 6896
  145.3393  139.2466  143.3618 H   0  0  0  0  0  0  0  0  0  0  0  0  # atno 7974 bound_to 7965
  156.2760  140.2105  156.5837 H   0  0  0  0  0  0  0  0  0  0  0  0  # atno 8008 bound_to 7997
  154.7038  140.0518  157.0507 H   0  0  0  0  0  0  0  0  0  0  0  0  # atno 8009 bound_to 7997
  155.0698  140.3175  155.4637 H   0  0  0  0  0  0  0  0  0  0  0  0  # atno 8010 bound_to 7997
  140.3187  143.3062  152.0070 H   0  0  0  0  0  0  0  0  0  0  0  0  # atno 10167 bound_to 10162
  156.9315  130.9972  151.2986 H   0  0  0  0  0  0  0  0  0  0  0  0  # atno 10718 bound_to 10713
  153.0017  135.5430  154.6346 H   0  0  0  0  0  0  0  0  0  0  0  0  # atno 10763 bound_to 10752
  154.5616  135.2834  155.0916 H   0  0  0  0  0  0  0  0  0  0  0  0  # atno 10764 bound_to 10752
  154.2116  135.6466  153.5170 H   0  0  0  0  0  0  0  0  0  0  0  0  # atno 10765 bound_to 10752
  140.4017  134.6771  157.4565 H   0  0  0  0  0  0  0  0  0  0  0  0  # atno 11005 bound_to 11000
  146.3014  140.3987  142.8703 LP  0  0  0  0  0  0  0  0  0  0  0  0  # atno 17320 bound_to 7965
  144.8803  140.7391  143.5991 LP  0  0  0  0  0  0  0  0  0  0  0  0  # atno 17321 bound_to 7965
  139.4879  144.6328  151.7035 LP  0  0  0  0  0  0  0  0  0  0  0  0  # atno 17342 bound_to 10162
  140.5503  144.0435  150.6124 LP  0  0  0  0  0  0  0  0  0  0  0  0  # atno 17343 bound_to 10162
  157.5844  130.8399  149.8568 LP  0  0  0  0  0  0  0  0  0  0  0  0  # atno 17370 bound_to 10713
  156.0445  130.3731  150.1352 LP  0  0  0  0  0  0  0  0  0  0  0  0  # atno 17371 bound_to 10713
  140.0331  134.6376  155.9079 LP  0  0  0  0  0  0  0  0  0  0  0  0  # atno 17394 bound_to 11000
  141.1854  133.6555  156.5197 LP  0  0  0  0  0  0  0  0  0  0  0  0  # atno 17395 bound_to 11000

$$$$
