AV-unprocessed.smi:2008|AV-procd|sdf|8143|dock9
  -GOLD-   2272010383D 1   1.00000     0.00000
 Structure written by MMmdl.
 46 47  0  0  0  0  0  0  0  0  2 V2000
  151.1514  142.6072  157.9277 C   0  0  0  0  0  0  0  0  0  0  0  0
  150.6392  142.5268  156.6018 O   0  0  0  0  0  0  0  0  0  0  0  0
  150.3767  141.2785  156.0758 C   0  0  0  0  0  0  0  0  0  0  0  0
  150.9283  140.1487  156.7104 C   0  0  0  0  0  0  0  0  0  0  0  0
  150.6632  138.8742  156.1753 C   0  0  0  0  0  0  0  0  0  0  0  0
  149.8570  138.7606  155.0241 C   0  0  0  0  0  0  0  0  0  0  0  0
  149.6197  137.4519  154.5172 N   0  0  0  0  0  0  0  0  0  0  0  0
  149.8666  136.2563  155.0812 C   0  0  0  0  0  0  0  0  0  0  0  0
  150.3965  136.0717  156.1759 O   0  0  0  0  0  0  0  0  0  0  0  0
  149.4613  135.2545  154.2876 N   0  0  0  0  0  0  0  0  0  0  0  0
  149.5646  133.8372  154.6163 C   0  0  0  0  0  0  0  0  0  0  0  0
  148.7764  132.9646  153.6190 C   0  0  0  0  0  0  0  0  0  0  0  0
  147.6719  133.6940  152.9382 N   0  3  2  0  0  0  0  0  0  0  0  0
  146.6706  134.2166  153.9075 C   0  0  0  0  0  0  0  0  0  0  0  0
  145.6604  135.1516  153.2238 C   0  0  0  0  0  0  0  0  0  0  0  0
  144.9674  134.4501  152.0509 C   0  0  0  0  0  0  0  0  0  0  0  0
  146.0197  133.9050  151.0755 C   0  0  0  0  0  0  0  0  0  0  0  0
  147.0468  132.9882  151.7747 C   0  0  2  0  0  0  0  0  0  0  0  0
  146.4496  131.6106  152.1336 C   0  0  0  0  0  0  0  0  0  0  0  0
  149.3499  139.9580  154.4598 C   0  0  0  0  0  0  0  0  0  0  0  0
  149.6003  141.1831  154.9688 N   0  0  0  0  0  0  0  0  0  0  0  0
  151.3009  143.6535  158.1937 H   0  0  0  0  0  0  0  0  0  0  0  0
  152.1149  142.1029  158.0152 H   0  0  0  0  0  0  0  0  0  0  0  0
  150.4559  142.1785  158.6506 H   0  0  0  0  0  0  0  0  0  0  0  0
  151.5445  140.2578  157.5908 H   0  0  0  0  0  0  0  0  0  0  0  0
  151.0778  137.9948  156.6466 H   0  0  0  0  0  0  0  0  0  0  0  0
  149.1898  137.4229  153.6044 H   0  0  0  0  0  0  0  0  0  0  0  0
  149.0355  135.4898  153.4026 H   0  0  0  0  0  0  0  0  0  0  0  0
  150.6132  133.5359  154.6473 H   0  0  0  0  0  0  0  0  0  0  0  0
  149.1738  133.7205  155.6265 H   0  0  0  0  0  0  0  0  0  0  0  0
  149.4470  132.5185  152.8842 H   0  0  0  0  0  0  0  0  0  0  0  0
  148.3377  132.1296  154.1667 H   0  0  0  0  0  0  0  0  0  0  0  0
  146.1538  133.3895  154.3952 H   0  0  0  0  0  0  0  0  0  0  0  0
  147.1799  134.7705  154.6971 H   0  0  0  0  0  0  0  0  0  0  0  0
  144.9177  135.4908  153.9467 H   0  0  0  0  0  0  0  0  0  0  0  0
  146.1732  136.0451  152.8653 H   0  0  0  0  0  0  0  0  0  0  0  0
  144.3392  133.6389  152.4200 H   0  0  0  0  0  0  0  0  0  0  0  0
  144.3037  135.1459  151.5365 H   0  0  0  0  0  0  0  0  0  0  0  0
  145.5318  133.3739  150.2573 H   0  0  0  0  0  0  0  0  0  0  0  0
  146.5447  134.7445  150.6174 H   0  0  0  0  0  0  0  0  0  0  0  0
  147.8275  132.8110  151.0361 H   0  0  0  0  0  0  0  0  0  0  0  0
  145.9908  131.1515  151.2573 H   0  0  0  0  0  0  0  0  0  0  0  0
  145.6807  131.6786  152.9026 H   0  0  0  0  0  0  0  0  0  0  0  0
  147.2126  130.9166  152.4847 H   0  0  0  0  0  0  0  0  0  0  0  0
  148.7279  139.9694  153.5802 H   0  0  0  0  0  0  0  0  0  0  0  0
  148.1056  134.5174  152.5455 H   0  0  0  0  0  0  0  0  0  0  0  0
  1  2  1  0  0  0  0
  1 22  1  0  0  0  0
  1 23  1  0  0  0  0
  1 24  1  0  0  0  0
  2  3  1  0  0  0  0
  3 21  1  0  0  0  0
  3  4  2  0  0  0  0
  4  5  1  0  0  0  0
  4 25  1  0  0  0  0
  5  6  2  0  0  0  0
  5 26  1  0  0  0  0
  6  7  1  0  0  0  0
  6 20  1  0  0  0  0
  7  8  1  0  0  0  0
  7 27  1  0  0  0  0
  8  9  2  0  0  0  0
  8 10  1  0  0  0  0
 10 11  1  0  0  0  0
 10 28  1  0  0  0  0
 11 12  1  0  0  0  0
 11 29  1  0  0  0  0
 11 30  1  0  0  0  0
 12 13  1  0  0  0  0
 12 31  1  0  0  0  0
 12 32  1  0  0  0  0
 13 18  1  0  0  0  0
 13 14  1  0  0  0  0
 13 46  1  0  0  0  0
 14 15  1  0  0  0  0
 14 33  1  0  0  0  0
 14 34  1  0  0  0  0
 15 16  1  0  0  0  0
 15 35  1  0  0  0  0
 15 36  1  0  0  0  0
 16 17  1  0  0  0  0
 16 37  1  0  0  0  0
 16 38  1  0  0  0  0
 17 18  1  0  0  0  0
 17 39  1  0  0  0  0
 17 40  1  0  0  0  0
 18 19  1  0  0  0  0
 18 41  1  0  0  0  0
 19 42  1  0  0  0  0
 19 43  1  0  0  0  0
 19 44  1  0  0  0  0
 20 21  2  0  0  0  0
 20 45  1  0  0  0  0
M  CHG  1  13   1
M  END
> <s_m_source_file>
AV-unprocessed.smi

> <i_m_source_file_index>
2008

> <i_lp_mmshare_version>
43012

> <i_f3d_flags>
0

> <s_epik_input>
W0NIM11PYzFbY0hdW2NIXWMoW2NIXW4xKVtOSF1DKD1PKVtOSF1bQ0gyXVtDSDJdTjJbQ0gyXVtDSDJdW0NIMl1bQ0gyXVtDQEhdMltDSDNd

> <s_epik_cmdline>
J2VwaWtfcHl0aG9uJywgJy1waCcsICc3LjAnLCAnLXRuJywgJzgnLCAnLW1hJywgJzIwMCcsICctbWV0YWxfYmluZGluZycsICctaW1hZScsICc8aW5maWxlLm1hZT4nLCAnLW9tYWUnLCAnPG91dGZpbGUubWFlPic=

> <r_lp_tautomer_probability>
1

> <r_epik_Ionization_Penalty>
0.00219526

> <r_epik_Ionization_Penalty_Charging>
0.00211816

> <r_epik_Ionization_Penalty_Neutral>
7.71003e-05

> <r_epik_State_Penalty>
0.00145254

> <r_epik_Charging_Adjusted_Penalty>
0.0035707

> <i_epik_Tot_Q>
1

> <i_epik_Tot_abs_Q>
1

> <r_epik_Metal_State_Penalty>
-0

> <b_epik_Metal_Only>
0

> <s_lp_Force_Field>
OPLS_2005

> <r_lp_Energy>
23.262

> <b_lp_Chiralities_Consistent>
1

> <s_lp_Variant>
AV-unprocessed.smi:2008-3

> <Gold.Version>
5.8.1

> <Gold.Id.Protein>
6NUR|6NUR_protein|mol2

> <Gold.PLP.Fitness>
46.3269

> <Gold.PLP.PLP>
-32.6495

> <Gold.PLP.part.hbond>
-4.3823

> <Gold.PLP.part.metal>
0.0000

> <Gold.PLP.part.buried>
-1.6721

> <Gold.PLP.part.nonpolar>
-26.7475

> <Gold.PLP.part.repulsive>
0.3281

> <Gold.PLP.ligand.clash>
0.0000

> <Gold.PLP.ligand.torsion>
0.5645

> <Gold.PLP.Chemscore.Hbond>
3.9165

> <Gold.PLP.Chemscore.CHOScore>
1.0000

> <Gold.PLP.Chemscore.Metal>
0.0000

> <Gold.Chemscore.Hbonds>
donor molecule, donor type, donor heavy atom, donor atom, acceptor molecule, acceptor atom, score
      L1  H     7    27       P1  7948  0.70
      L1  H    10    28       P1  7948  1.00
      L1  H    13    46       P1  7948  2.00
      L1  C    20    45       P1  7957  0.80

> <Gold.PLP.Chemscore.Internal.Correction>
0.0568

> <Gold.Rescore>
     Score         DG    S(hbond)    S(metal)    S(lipo)     H(rot)  DE(clash)    DE(int)     intcor
     13.62     -15.81       1.96        0.00      69.80       1.71       0.34       1.85       ----

> <Gold.Chemscore.Fitness>
13.6209

> <Gold.Chemscore.DG>
-15.8137

> <Gold.Chemscore.ZeroCoef>
-5.4800

> <Gold.Chemscore.Hbond>
1.9599

> <Gold.Chemscore.Metal>
0.0000

> <Gold.Chemscore.Lipo>
69.8031

> <Gold.Chemscore.Internal_Hbond>
0.0000

> <Gold.Chemscore.DEClash>
0.3403

> <Gold.Chemscore.DEInternal>
1.8524

> <Gold.Chemscore.Rot>
1.7107

> <Gold.Chemscore.Internal.Correction>
   9.000000E+99

> <Gold.Chemscore.Hbonds>
donor molecule, donor type, donor heavy atom, donor atom, acceptor molecule, acceptor atom, score
      L1  H     7    27       P1  7948  0.68
      L1  H    10    28       P1  7948  0.64
      L1  H    13    46       P1  7948  0.39

> <Gold.Chemscore.Hbond.Weighted>
-6.5461

> <Gold.Chemscore.Metal.Weighted>
-0.0000

> <Gold.Chemscore.Lipo.Weighted>
-8.1670

> <Gold.Chemscore.Internal_Hbond.Weighted>
0.0000

> <Gold.Chemscore.DEClash.Weighted>
0.3403

> <Gold.Chemscore.DEInternal.Weighted>
1.8524

> <Gold.Chemscore.Rot.Weighted>
4.3794

> <Gold.Chemscore.Internal.Correction.Weighted>
   9.000000E+99

> <Gold.Protein.RotatedTorsions>
[ 6907 6896 6895 6894 ] final  108.04 input  -60.11 | X-H torsion
[ 7974 7965 7964 7962 ] final -120.16 input  175.53 | X-H torsion
[ 8008 7997 7996 7995 ] final  149.25 input   59.86 | X-H torsion
[ 10167 10162 10161 10158 ] final   -7.93 input  -65.29 | X-H torsion
[ 10718 10713 10712 10709 ] final   66.45 input   66.30 | X-H torsion
[ 10763 10752 10751 10750 ] final  -99.02 input  -60.55 | X-H torsion
[ 11005 11000 10999 10996 ] final   25.54 input  -57.11 | X-H torsion

> <Gold.Protein.ActiveResidues>
 VAL166  LYS551  ARG553  GLY616  TRP617  ASP618  TYR619  PRO620  LYS621  CYS622 
 ASP623  PHE694  ASN695  SER759  ASP760  ASP761  ALA762  ILE779  LEU786  VAL792 
 PHE793  MET794  SER795  GLU796  ALA797  LYS798  CYS799  TRP800  GLU811  SER814 

> <Gold.Protein.RotatedAtoms>
  152.5129  133.9147  159.7504 H   0  0  0  0  0  0  0  0  0  0  0  0  # atno 6907 bound_to 6896
  150.9532  133.6518  159.2775 H   0  0  0  0  0  0  0  0  0  0  0  0  # atno 6908 bound_to 6896
  151.3789  135.0941  159.9542 H   0  0  0  0  0  0  0  0  0  0  0  0  # atno 6909 bound_to 6896
  145.0545  140.8244  143.4189 H   0  0  0  0  0  0  0  0  0  0  0  0  # atno 7974 bound_to 7965
  156.2762  140.2107  156.5828 H   0  0  0  0  0  0  0  0  0  0  0  0  # atno 8008 bound_to 7997
  154.7045  140.0518  157.0514 H   0  0  0  0  0  0  0  0  0  0  0  0  # atno 8009 bound_to 7997
  155.0689  140.3174  155.4639 H   0  0  0  0  0  0  0  0  0  0  0  0  # atno 8010 bound_to 7997
  140.7044  143.6026  150.8783 H   0  0  0  0  0  0  0  0  0  0  0  0  # atno 10167 bound_to 10162
  157.6169  130.9268  150.0110 H   0  0  0  0  0  0  0  0  0  0  0  0  # atno 10718 bound_to 10713
  154.7463  135.4988  153.9210 H   0  0  0  0  0  0  0  0  0  0  0  0  # atno 10763 bound_to 10752
  153.1095  135.6706  153.9533 H   0  0  0  0  0  0  0  0  0  0  0  0  # atno 10764 bound_to 10752
  153.9296  135.3079  155.3425 H   0  0  0  0  0  0  0  0  0  0  0  0  # atno 10765 bound_to 10752
  140.3468  134.2273  155.7684 H   0  0  0  0  0  0  0  0  0  0  0  0  # atno 11005 bound_to 11000
  145.1485  139.2528  143.5453 LP  0  0  0  0  0  0  0  0  0  0  0  0  # atno 17320 bound_to 7965
  146.3520  140.1182  142.8601 LP  0  0  0  0  0  0  0  0  0  0  0  0  # atno 17321 bound_to 7965
  139.9750  143.6015  152.2961 LP  0  0  0  0  0  0  0  0  0  0  0  0  # atno 17342 bound_to 10162
  139.6615  144.7662  151.1954 LP  0  0  0  0  0  0  0  0  0  0  0  0  # atno 17343 bound_to 10162
  156.1296  130.3643  149.9753 LP  0  0  0  0  0  0  0  0  0  0  0  0  # atno 17370 bound_to 10713
  156.7817  130.9224  151.3646 LP  0  0  0  0  0  0  0  0  0  0  0  0  # atno 17371 bound_to 10713
  141.2023  133.7940  157.0396 LP  0  0  0  0  0  0  0  0  0  0  0  0  # atno 17394 bound_to 11000
  140.0736  134.9688  157.1508 LP  0  0  0  0  0  0  0  0  0  0  0  0  # atno 17395 bound_to 11000

$$$$
