AV-unprocessed.smi:2369|AV-procd|sdf|9434|dock3
  -GOLD-   2272013 63D 1   1.00000     0.00000
 Structure written by MMmdl.
 40 41  0  0  0  0  0  0  0  0  1 V2000
  151.7759  145.8748  160.3890 C   0  0  0  0  0  0  0  0  0  0  0  0
  151.8355  144.5156  159.7240 C   0  0  0  0  0  0  0  0  0  0  0  0
  152.6629  143.4970  160.2344 C   0  0  0  0  0  0  0  0  0  0  0  0
  152.6758  142.2553  159.5689 C   0  0  0  0  0  0  0  0  0  0  0  0
  153.5407  141.1153  160.0638 C   0  0  0  0  0  0  0  0  0  0  0  0
  151.9373  142.0020  158.4673 N   0  0  0  0  0  0  0  0  0  0  0  0
  151.1379  142.9761  157.9660 C   0  0  0  0  0  0  0  0  0  0  0  0
  150.3202  142.8104  156.8168 N   0  0  0  0  0  0  0  0  0  0  0  0
  150.0903  141.6862  156.1155 C   0  0  0  0  0  0  0  0  0  0  0  0
  150.5879  140.5849  156.3519 O   0  0  0  0  0  0  0  0  0  0  0  0
  149.2460  141.9142  155.0987 N   0  0  0  0  0  0  0  0  0  0  0  0
  148.8120  140.9196  154.1218 C   0  0  2  0  0  0  0  0  0  0  0  0
  147.5652  141.4212  153.3669 C   0  0  0  0  0  0  0  0  0  0  0  0
  147.0389  140.3659  152.3785 C   0  0  0  0  0  0  0  0  0  0  0  0
  146.7730  139.0092  153.0578 C   0  0  2  0  0  0  0  0  0  0  0  0
  145.6523  139.1069  153.9145 O   0  0  0  0  0  0  0  0  0  0  0  0
  148.0017  138.5222  153.8489 C   0  0  0  0  0  0  0  0  0  0  0  0
  148.5190  139.5859  154.8336 C   0  0  0  0  0  0  0  0  0  0  0  0
  151.0624  144.2485  158.5760 C   0  0  0  0  0  0  0  0  0  0  0  0
  152.3293  145.8803  161.3286 H   0  0  0  0  0  0  0  0  0  0  0  0
  150.7423  146.1488  160.6012 H   0  0  0  0  0  0  0  0  0  0  0  0
  152.2063  146.6333  159.7347 H   0  0  0  0  0  0  0  0  0  0  0  0
  153.2711  143.6622  161.1117 H   0  0  0  0  0  0  0  0  0  0  0  0
  153.9748  141.3421  161.0379 H   0  0  0  0  0  0  0  0  0  0  0  0
  154.3536  140.9267  159.3623 H   0  0  0  0  0  0  0  0  0  0  0  0
  152.9509  140.2031  160.1604 H   0  0  0  0  0  0  0  0  0  0  0  0
  149.8619  143.6467  156.4869 H   0  0  0  0  0  0  0  0  0  0  0  0
  148.8888  142.8507  154.9790 H   0  0  0  0  0  0  0  0  0  0  0  0
  149.6138  140.7468  153.4013 H   0  0  0  0  0  0  0  0  0  0  0  0
  146.7792  141.6751  154.0797 H   0  0  0  0  0  0  0  0  0  0  0  0
  147.7973  142.3401  152.8275 H   0  0  0  0  0  0  0  0  0  0  0  0
  146.1338  140.7286  151.8901 H   0  0  0  0  0  0  0  0  0  0  0  0
  147.7762  140.2279  151.5866 H   0  0  0  0  0  0  0  0  0  0  0  0
  146.5244  138.2717  152.2941 H   0  0  0  0  0  0  0  0  0  0  0  0
  144.9558  139.5444  153.4489 H   0  0  0  0  0  0  0  0  0  0  0  0
  147.7688  137.5991  154.3810 H   0  0  0  0  0  0  0  0  0  0  0  0
  148.7993  138.2743  153.1470 H   0  0  0  0  0  0  0  0  0  0  0  0
  149.4212  139.2194  155.3251 H   0  0  0  0  0  0  0  0  0  0  0  0
  147.7811  139.7407  155.6223 H   0  0  0  0  0  0  0  0  0  0  0  0
  150.4208  145.0158  158.1671 H   0  0  0  0  0  0  0  0  0  0  0  0
  1  2  1  0  0  0  0
  1 20  1  0  0  0  0
  1 21  1  0  0  0  0
  1 22  1  0  0  0  0
  2 19  1  0  0  0  0
  2  3  2  0  0  0  0
  3  4  1  0  0  0  0
  3 23  1  0  0  0  0
  4  5  1  0  0  0  0
  4  6  2  0  0  0  0
  5 24  1  0  0  0  0
  5 25  1  0  0  0  0
  5 26  1  0  0  0  0
  6  7  1  0  0  0  0
  7  8  1  0  0  0  0
  7 19  2  0  0  0  0
  8  9  1  0  0  0  0
  8 27  1  0  0  0  0
  9 10  2  0  0  0  0
  9 11  1  0  0  0  0
 11 12  1  0  0  0  0
 11 28  1  0  0  0  0
 12 18  1  0  0  0  0
 12 13  1  0  0  0  0
 12 29  1  0  0  0  0
 13 14  1  0  0  0  0
 13 30  1  0  0  0  0
 13 31  1  0  0  0  0
 14 15  1  0  0  0  0
 14 32  1  0  0  0  0
 14 33  1  0  0  0  0
 15 16  1  0  0  0  0
 15 17  1  0  0  0  0
 15 34  1  0  0  0  0
 16 35  1  0  0  0  0
 17 18  1  0  0  0  0
 17 36  1  0  0  0  0
 17 37  1  0  0  0  0
 18 38  1  0  0  0  0
 18 39  1  0  0  0  0
 19 40  1  0  0  0  0
M  END
> <s_m_source_file>
AV-unprocessed.smi

> <i_m_source_file_index>
2369

> <i_lp_mmshare_version>
43012

> <i_f3d_flags>
0

> <s_epik_input>
W0NIM11jMVtjSF1jKFtDSDNdKW5jKFtjSF0xKVtOSF1DKD1PKVtOSF1bQ0BASF0yW0NIMl1bQ0gyXVtDQEBIXShbT0hdKVtDSDJdW0NIMl0y

> <s_epik_cmdline>
J2VwaWtfcHl0aG9uJywgJy1waCcsICc3LjAnLCAnLXRuJywgJzgnLCAnLW1hJywgJzIwMCcsICctbWV0YWxfYmluZGluZycsICctaW1hZScsICc8aW5maWxlLm1hZT4nLCAnLW9tYWUnLCAnPG91dGZpbGUubWFlPic=

> <r_lp_tautomer_probability>
1

> <r_epik_Ionization_Penalty>
0.000274852

> <r_epik_Ionization_Penalty_Charging>
0

> <r_epik_Ionization_Penalty_Neutral>
0.000274852

> <r_epik_State_Penalty>
-0

> <r_epik_Charging_Adjusted_Penalty>
0

> <i_epik_Tot_Q>
0

> <i_epik_Tot_abs_Q>
0

> <r_epik_Metal_State_Penalty>
-0

> <b_epik_Metal_Only>
0

> <s_lp_Force_Field>
OPLS_2005

> <r_lp_Energy>
12.6332

> <b_lp_Chiralities_Consistent>
1

> <s_lp_Variant>
AV-unprocessed.smi:2369-2

> <Gold.Version>
5.8.1

> <Gold.Id.Protein>
6NUR|6NUR_protein|mol2

> <Gold.PLP.Fitness>
49.6234

> <Gold.PLP.PLP>
-41.2216

> <Gold.PLP.part.hbond>
-3.0000

> <Gold.PLP.part.metal>
0.0000

> <Gold.PLP.part.buried>
-2.4774

> <Gold.PLP.part.nonpolar>
-36.7210

> <Gold.PLP.part.repulsive>
0.2653

> <Gold.PLP.ligand.clash>
0.0000

> <Gold.PLP.ligand.torsion>
0.2404

> <Gold.PLP.Chemscore.Hbond>
2.9600

> <Gold.PLP.Chemscore.CHOScore>
0.0000

> <Gold.PLP.Chemscore.Metal>
0.0000

> <Gold.Chemscore.Hbonds>
donor molecule, donor type, donor heavy atom, donor atom, acceptor molecule, acceptor atom, score
      L1  H     8    27       P1  8028  1.00
      L1  H    11    28       P1  8028  0.94
      L1  H    16    35       P1 10175  1.00

> <Gold.PLP.Chemscore.Internal.Correction>
0.0027

> <Gold.Rescore>
     Score         DG    S(hbond)    S(metal)    S(lipo)     H(rot)  DE(clash)    DE(int)     intcor
     21.12     -24.42       2.93        0.00     109.43       1.42       0.45       2.85       ----

> <Gold.Chemscore.Fitness>
21.1246

> <Gold.Chemscore.DG>
-24.4228

> <Gold.Chemscore.ZeroCoef>
-5.4800

> <Gold.Chemscore.Hbond>
2.9274

> <Gold.Chemscore.Metal>
0.0000

> <Gold.Chemscore.Lipo>
109.4337

> <Gold.Chemscore.Internal_Hbond>
0.0000

> <Gold.Chemscore.DEClash>
0.4458

> <Gold.Chemscore.DEInternal>
2.8524

> <Gold.Chemscore.Rot>
1.4213

> <Gold.Chemscore.Internal.Correction>
   9.000000E+99

> <Gold.Chemscore.Hbonds>
donor molecule, donor type, donor heavy atom, donor atom, acceptor molecule, acceptor atom, score
      L1  H     8    27       P1  8028  1.00
      L1  H    11    28       P1  8028  0.89
      L1  H    16    35       P1 10175  1.00

> <Gold.Chemscore.Hbond.Weighted>
-9.7777

> <Gold.Chemscore.Metal.Weighted>
-0.0000

> <Gold.Chemscore.Lipo.Weighted>
-12.8037

> <Gold.Chemscore.Internal_Hbond.Weighted>
0.0000

> <Gold.Chemscore.DEClash.Weighted>
0.4458

> <Gold.Chemscore.DEInternal.Weighted>
2.8524

> <Gold.Chemscore.Rot.Weighted>
3.6386

> <Gold.Chemscore.Internal.Correction.Weighted>
   9.000000E+99

> <Gold.Protein.RotatedTorsions>
[ 6907 6896 6895 6894 ] final  173.29 input  -60.11 | X-H torsion
[ 7974 7965 7964 7962 ] final  122.45 input  175.53 | X-H torsion
[ 8008 7997 7996 7995 ] final  -82.97 input   59.86 | X-H torsion
[ 10167 10162 10161 10158 ] final  146.51 input  -65.29 | X-H torsion
[ 10718 10713 10712 10709 ] final  -51.31 input   66.30 | X-H torsion
[ 10763 10752 10751 10750 ] final  -36.73 input  -60.55 | X-H torsion
[ 11005 11000 10999 10996 ] final  153.90 input  -57.11 | X-H torsion

> <Gold.Protein.ActiveResidues>
 VAL166  LYS551  ARG553  GLY616  TRP617  ASP618  TYR619  PRO620  LYS621  CYS622 
 ASP623  PHE694  ASN695  SER759  ASP760  ASP761  ALA762  ILE779  LEU786  VAL792 
 PHE793  MET794  SER795  GLU796  ALA797  LYS798  CYS799  TRP800  GLU811  SER814 

> <Gold.Protein.RotatedAtoms>
  151.7707  133.3341  159.3443 H   0  0  0  0  0  0  0  0  0  0  0  0  # atno 6907 bound_to 6896
  150.7462  134.6021  159.6051 H   0  0  0  0  0  0  0  0  0  0  0  0  # atno 6908 bound_to 6896
  152.3343  134.7220  160.0332 H   0  0  0  0  0  0  0  0  0  0  0  0  # atno 6909 bound_to 6896
  145.1074  139.3476  143.4780 H   0  0  0  0  0  0  0  0  0  0  0  0  # atno 7974 bound_to 7965
  154.6142  140.0625  156.9533 H   0  0  0  0  0  0  0  0  0  0  0  0  # atno 8008 bound_to 7997
  155.1923  140.3308  155.4338 H   0  0  0  0  0  0  0  0  0  0  0  0  # atno 8009 bound_to 7997
  156.2394  140.1879  156.7012 H   0  0  0  0  0  0  0  0  0  0  0  0  # atno 8010 bound_to 7997
  139.4906  144.5824  151.6846 H   0  0  0  0  0  0  0  0  0  0  0  0  # atno 10167 bound_to 10162
  156.1721  130.4149  149.9631 H   0  0  0  0  0  0  0  0  0  0  0  0  # atno 10718 bound_to 10713
  153.8846  135.6818  153.4764 H   0  0  0  0  0  0  0  0  0  0  0  0  # atno 10763 bound_to 10752
  153.1214  135.4738  154.9200 H   0  0  0  0  0  0  0  0  0  0  0  0  # atno 10764 bound_to 10752
  154.7652  135.3222  154.8253 H   0  0  0  0  0  0  0  0  0  0  0  0  # atno 10765 bound_to 10752
  140.1440  134.8720  157.2368 H   0  0  0  0  0  0  0  0  0  0  0  0  # atno 11005 bound_to 11000
  146.3527  140.0978  142.8609 LP  0  0  0  0  0  0  0  0  0  0  0  0  # atno 17320 bound_to 7965
  145.0886  140.9269  143.4783 LP  0  0  0  0  0  0  0  0  0  0  0  0  # atno 17321 bound_to 7965
  140.5433  144.0544  150.6097 LP  0  0  0  0  0  0  0  0  0  0  0  0  # atno 17342 bound_to 10162
  140.3574  143.2928  152.0421 LP  0  0  0  0  0  0  0  0  0  0  0  0  # atno 17343 bound_to 10162
  156.7428  130.9086  151.3633 LP  0  0  0  0  0  0  0  0  0  0  0  0  # atno 17370 bound_to 10713
  157.6810  130.9140  150.0267 LP  0  0  0  0  0  0  0  0  0  0  0  0  # atno 17371 bound_to 10713
  140.2686  134.3486  155.7381 LP  0  0  0  0  0  0  0  0  0  0  0  0  # atno 17394 bound_to 11000
  141.2190  133.7410  156.9189 LP  0  0  0  0  0  0  0  0  0  0  0  0  # atno 17395 bound_to 11000

$$$$
