AV-unprocessed.smi:199|AV-procd|sdf|1564|dock3
  -GOLD-   2262019433D 1   1.00000     0.00000
 Structure written by MMmdl.
 51 55  0  0  0  0  0  0  0  0  1 V2000
  152.0034  139.3819  156.2650 C   0  0  0  0  0  0  0  0  0  0  0  0
  150.9395  139.5555  155.1697 C   0  0  2  0  0  0  0  0  0  0  0  0
  150.0113  140.5393  155.6191 O   0  0  0  0  0  0  0  0  0  0  0  0
  148.7396  140.2557  155.0634 C   0  0  0  0  0  0  0  0  0  0  0  0
  148.6694  138.7401  155.1682 C   0  0  0  0  0  0  0  0  0  0  0  0
  150.0882  138.3037  154.8122 C   0  0  1  0  0  0  0  0  0  0  0  0
  150.1488  138.1329  153.4054 O   0  0  0  0  0  0  0  0  0  0  0  0
  150.5115  136.9664  155.4759 C   0  0  0  0  0  0  0  0  0  0  0  0
  150.1074  136.8589  156.8702 N   0  0  0  0  0  0  0  0  0  0  0  0
  150.9096  137.0314  157.9744 C   0  0  0  0  0  0  0  0  0  0  0  0
  150.3134  136.8752  159.1238 N   0  0  0  0  0  0  0  0  0  0  0  0
  148.9942  136.5862  158.7937 C   0  0  0  0  0  0  0  0  0  0  0  0
  147.8144  136.3049  159.5437 C   0  0  0  0  0  0  0  0  0  0  0  0
  147.7644  136.2664  160.9041 N   0  0  0  0  0  0  0  0  0  0  0  0
  146.8129  137.0862  161.6404 C   0  0  2  0  0  0  0  0  0  0  0  0
  147.2640  136.8825  163.0970 C   0  0  0  0  0  0  0  0  0  0  0  0
  147.7348  135.4209  163.0644 C   0  0  0  0  0  0  0  0  0  0  0  0
  147.4239  135.0352  161.6057 C   0  0  1  0  0  0  0  0  0  0  0  0
  145.8973  134.8981  161.3667 C   0  0  1  0  0  0  0  0  0  0  0  0
  145.1422  133.9415  162.3079 C   0  0  0  0  0  0  0  0  0  0  0  0
  143.7768  133.8937  161.9525 O   0  0  0  0  0  0  0  0  0  0  0  0
  145.4603  136.3738  161.4341 C   0  0  0  0  0  0  0  0  0  0  0  0
  146.6838  136.0290  158.8397 N   0  0  0  0  0  0  0  0  0  0  0  0
  146.6896  136.0573  157.5046 C   0  0  0  0  0  0  0  0  0  0  0  0
  147.7049  136.3195  156.6813 N   0  0  0  0  0  0  0  0  0  0  0  0
  148.8507  136.5722  157.3756 C   0  0  0  0  0  0  0  0  0  0  0  0
  152.7544  138.6454  155.9795 H   0  0  0  0  0  0  0  0  0  0  0  0
  151.5588  139.0694  157.2101 H   0  0  0  0  0  0  0  0  0  0  0  0
  152.5234  140.3227  156.4462 H   0  0  0  0  0  0  0  0  0  0  0  0
  151.4286  139.9498  154.2767 H   0  0  0  0  0  0  0  0  0  0  0  0
  147.9403  140.7554  155.6110 H   0  0  0  0  0  0  0  0  0  0  0  0
  148.7068  140.5828  154.0230 H   0  0  0  0  0  0  0  0  0  0  0  0
  148.4436  138.4750  156.2015 H   0  0  0  0  0  0  0  0  0  0  0  0
  147.8978  138.2987  154.5354 H   0  0  0  0  0  0  0  0  0  0  0  0
  149.6921  137.3368  153.1802 H   0  0  0  0  0  0  0  0  0  0  0  0
  150.0852  136.1212  154.9342 H   0  0  0  0  0  0  0  0  0  0  0  0
  151.5941  136.8448  155.4352 H   0  0  0  0  0  0  0  0  0  0  0  0
  151.9604  137.2707  157.9005 H   0  0  0  0  0  0  0  0  0  0  0  0
  146.7860  138.1408  161.3733 H   0  0  0  0  0  0  0  0  0  0  0  0
  148.0928  137.5462  163.3468 H   0  0  0  0  0  0  0  0  0  0  0  0
  146.4619  137.0555  163.8153 H   0  0  0  0  0  0  0  0  0  0  0  0
  148.8087  135.3682  163.2490 H   0  0  0  0  0  0  0  0  0  0  0  0
  147.2457  134.7912  163.8061 H   0  0  0  0  0  0  0  0  0  0  0  0
  147.9888  134.1598  161.2831 H   0  0  0  0  0  0  0  0  0  0  0  0
  145.7506  134.5397  160.3462 H   0  0  0  0  0  0  0  0  0  0  0  0
  145.5550  132.9352  162.2348 H   0  0  0  0  0  0  0  0  0  0  0  0
  145.2189  134.2541  163.3491 H   0  0  0  0  0  0  0  0  0  0  0  0
  143.5370  134.7223  161.5666 H   0  0  0  0  0  0  0  0  0  0  0  0
  144.7544  136.5816  162.2392 H   0  0  0  0  0  0  0  0  0  0  0  0
  144.9957  136.6777  160.4952 H   0  0  0  0  0  0  0  0  0  0  0  0
  145.7455  135.8370  157.0284 H   0  0  0  0  0  0  0  0  0  0  0  0
  1  2  1  0  0  0  0
  1 27  1  0  0  0  0
  1 28  1  0  0  0  0
  1 29  1  0  0  0  0
  2  6  1  0  0  0  0
  2  3  1  0  0  0  0
  2 30  1  0  0  0  0
  3  4  1  0  0  0  0
  4  5  1  0  0  0  0
  4 31  1  0  0  0  0
  4 32  1  0  0  0  0
  5  6  1  0  0  0  0
  5 33  1  0  0  0  0
  5 34  1  0  0  0  0
  6  7  1  0  0  0  0
  6  8  1  0  0  0  0
  7 35  1  0  0  0  0
  8  9  1  0  0  0  0
  8 36  1  0  0  0  0
  8 37  1  0  0  0  0
  9 26  1  0  0  0  0
  9 10  1  0  0  0  0
 10 11  2  0  0  0  0
 10 38  1  0  0  0  0
 11 12  1  0  0  0  0
 12 26  2  0  0  0  0
 12 13  1  0  0  0  0
 13 14  1  0  0  0  0
 13 23  2  0  0  0  0
 14 18  1  0  0  0  0
 14 15  1  0  0  0  0
 15 22  1  0  0  0  0
 15 16  1  0  0  0  0
 15 39  1  0  0  0  0
 16 17  1  0  0  0  0
 16 40  1  0  0  0  0
 16 41  1  0  0  0  0
 17 18  1  0  0  0  0
 17 42  1  0  0  0  0
 17 43  1  0  0  0  0
 18 19  1  0  0  0  0
 18 44  1  0  0  0  0
 19 20  1  0  0  0  0
 19 22  1  0  0  0  0
 19 45  1  0  0  0  0
 20 21  1  0  0  0  0
 20 46  1  0  0  0  0
 20 47  1  0  0  0  0
 21 48  1  0  0  0  0
 22 49  1  0  0  0  0
 22 50  1  0  0  0  0
 23 24  1  0  0  0  0
 24 25  2  0  0  0  0
 24 51  1  0  0  0  0
 25 26  1  0  0  0  0
M  END
> <s_m_source_file>
AV-unprocessed.smi

> <i_m_source_file_index>
199

> <i_lp_mmshare_version>
43012

> <i_f3d_flags>
0

> <s_epik_input>
W0NIMl0xW0NIMl1PW0NAQEhdKFtDSDNdKVtDQEBdMShbT0hdKVtDSDJdbihbY0hdbjIpYyhjMjMpbltjSF1uYzNOKFtDQEBIXTQ1KVtDQEhdKFtDSDJdW0NIMl00KVtDQEhdKFtDSDJdNSlbQ0gyXVtPSF0=

> <s_epik_cmdline>
J2VwaWtfcHl0aG9uJywgJy1waCcsICc3LjAnLCAnLXRuJywgJzgnLCAnLW1hJywgJzIwMCcsICctbWV0YWxfYmluZGluZycsICctaW1hZScsICc8aW5maWxlLm1hZT4nLCAnLW9tYWUnLCAnPG91dGZpbGUubWFlPic=

> <r_lp_tautomer_probability>
1

> <r_epik_Ionization_Penalty>
0.00583903

> <r_epik_Ionization_Penalty_Charging>
0

> <r_epik_Ionization_Penalty_Neutral>
0.00583903

> <r_epik_State_Penalty>
-0

> <r_epik_Charging_Adjusted_Penalty>
0

> <i_epik_Tot_Q>
0

> <i_epik_Tot_abs_Q>
0

> <r_epik_Metal_State_Penalty>
-0

> <b_epik_Metal_Only>
0

> <s_lp_Force_Field>
OPLS_2005

> <r_lp_Energy>
84.0593

> <b_lp_Chiralities_Consistent>
1

> <s_lp_Variant>
AV-unprocessed.smi:199-5

> <Gold.Version>
5.8.1

> <Gold.Id.Protein>
6NUR|6NUR_protein|mol2

> <Gold.PLP.Fitness>
38.6833

> <Gold.PLP.PLP>
-33.6342

> <Gold.PLP.part.hbond>
-3.6161

> <Gold.PLP.part.metal>
0.0000

> <Gold.PLP.part.buried>
-3.0232

> <Gold.PLP.part.nonpolar>
-26.6793

> <Gold.PLP.part.repulsive>
0.0442

> <Gold.PLP.ligand.clash>
0.0000

> <Gold.PLP.ligand.torsion>
0.4835

> <Gold.PLP.Chemscore.Hbond>
2.0000

> <Gold.PLP.Chemscore.CHOScore>
0.0000

> <Gold.PLP.Chemscore.Metal>
0.0000

> <Gold.Chemscore.Hbonds>
donor molecule, donor type, donor heavy atom, donor atom, acceptor molecule, acceptor atom, score
      L1  H     7    35       P1  7948  0.96
      P1  H  6896  6907       L1    11  0.62

> <Gold.PLP.Chemscore.Internal.Correction>
0.0161

> <Gold.Rescore>
     Score         DG    S(hbond)    S(metal)    S(lipo)     H(rot)  DE(clash)    DE(int)     intcor
      8.89     -12.99       1.92        0.00      76.53       3.07       0.00       4.10       ----

> <Gold.Chemscore.Fitness>
8.8888

> <Gold.Chemscore.DG>
-12.9912

> <Gold.Chemscore.ZeroCoef>
-5.4800

> <Gold.Chemscore.Hbond>
1.9232

> <Gold.Chemscore.Metal>
0.0000

> <Gold.Chemscore.Lipo>
76.5346

> <Gold.Chemscore.Internal_Hbond>
0.0000

> <Gold.Chemscore.DEClash>
0.0048

> <Gold.Chemscore.DEInternal>
4.0976

> <Gold.Chemscore.Rot>
3.0729

> <Gold.Chemscore.Internal.Correction>
   9.000000E+99

> <Gold.Chemscore.Hbonds>
donor molecule, donor type, donor heavy atom, donor atom, acceptor molecule, acceptor atom, score
      L1  H     7    35       P1  7948  0.60
      P1  H  6896  6907       L1    11  0.04

> <Gold.Chemscore.Hbond.Weighted>
-6.4233

> <Gold.Chemscore.Metal.Weighted>
-0.0000

> <Gold.Chemscore.Lipo.Weighted>
-8.9545

> <Gold.Chemscore.Internal_Hbond.Weighted>
0.0000

> <Gold.Chemscore.DEClash.Weighted>
0.0048

> <Gold.Chemscore.DEInternal.Weighted>
4.0976

> <Gold.Chemscore.Rot.Weighted>
7.8667

> <Gold.Chemscore.Internal.Correction.Weighted>
   9.000000E+99

> <Gold.Protein.RotatedTorsions>
[ 6907 6896 6895 6894 ] final  -48.62 input  -60.11 | X-H torsion
[ 7974 7965 7964 7962 ] final   65.24 input  175.53 | X-H torsion
[ 8008 7997 7996 7995 ] final -147.31 input   59.86 | X-H torsion
[ 10167 10162 10161 10158 ] final -168.57 input  -65.29 | X-H torsion
[ 10718 10713 10712 10709 ] final  112.81 input   66.30 | X-H torsion
[ 10763 10752 10751 10750 ] final  -87.63 input  -60.55 | X-H torsion
[ 11005 11000 10999 10996 ] final -120.62 input  -57.11 | X-H torsion

> <Gold.Protein.ActiveResidues>
 VAL166  LYS551  ARG553  GLY616  TRP617  ASP618  TYR619  PRO620  LYS621  CYS622 
 ASP623  PHE694  ASN695  SER759  ASP760  ASP761  ALA762  ILE779  LEU786  VAL792 
 PHE793  MET794  SER795  GLU796  ALA797  LYS798  CYS799  TRP800  GLU811  SER814 

> <Gold.Protein.RotatedAtoms>
  150.8887  134.8288  159.7277 H   0  0  0  0  0  0  0  0  0  0  0  0  # atno 6907 bound_to 6896
  152.4823  134.4682  159.9637 H   0  0  0  0  0  0  0  0  0  0  0  0  # atno 6908 bound_to 6896
  151.4747  133.3521  159.2864 H   0  0  0  0  0  0  0  0  0  0  0  0  # atno 6909 bound_to 6896
  145.8407  139.3194  143.0933 H   0  0  0  0  0  0  0  0  0  0  0  0  # atno 7974 bound_to 7965
  155.5735  140.0636  157.2801 H   0  0  0  0  0  0  0  0  0  0  0  0  # atno 8008 bound_to 7997
  154.4354  140.1865  156.0949 H   0  0  0  0  0  0  0  0  0  0  0  0  # atno 8009 bound_to 7997
  156.0359  140.3301  155.7194 H   0  0  0  0  0  0  0  0  0  0  0  0  # atno 8010 bound_to 7997
  139.5977  144.1077  152.1707 H   0  0  0  0  0  0  0  0  0  0  0  0  # atno 10167 bound_to 10162
  157.6373  131.0973  150.6949 H   0  0  0  0  0  0  0  0  0  0  0  0  # atno 10718 bound_to 10713
  154.6357  135.5406  153.7731 H   0  0  0  0  0  0  0  0  0  0  0  0  # atno 10763 bound_to 10752
  153.0307  135.6447  154.1235 H   0  0  0  0  0  0  0  0  0  0  0  0  # atno 10764 bound_to 10752
  154.1162  135.2923  155.3199 H   0  0  0  0  0  0  0  0  0  0  0  0  # atno 10765 bound_to 10752
  141.0130  134.0237  157.3388 H   0  0  0  0  0  0  0  0  0  0  0  0  # atno 11005 bound_to 11000
  145.9468  140.8939  143.0280 LP  0  0  0  0  0  0  0  0  0  0  0  0  # atno 17320 bound_to 7965
  144.6734  140.1624  143.7421 LP  0  0  0  0  0  0  0  0  0  0  0  0  # atno 17321 bound_to 7965
  140.0666  144.5813  150.7223 LP  0  0  0  0  0  0  0  0  0  0  0  0  # atno 17342 bound_to 10162
  140.7225  143.2602  151.4232 LP  0  0  0  0  0  0  0  0  0  0  0  0  # atno 17343 bound_to 10162
  156.7278  130.4700  149.5507 LP  0  0  0  0  0  0  0  0  0  0  0  0  # atno 17370 bound_to 10713
  156.1622  130.6382  151.0733 LP  0  0  0  0  0  0  0  0  0  0  0  0  # atno 17371 bound_to 10713
  139.9101  135.0188  156.7653 LP  0  0  0  0  0  0  0  0  0  0  0  0  # atno 17394 bound_to 11000
  140.6702  133.9566  155.7852 LP  0  0  0  0  0  0  0  0  0  0  0  0  # atno 17395 bound_to 11000

$$$$
