AV-unprocessed.smi:1573|AV-procd|sdf|6333|dock9
  -GOLD-   22720 6543D 1   1.00000     0.00000
 Structure written by MMmdl.
 41 41  0  0  0  0  0  0  0  0  1 V2000
  147.3602  133.1528  151.9215 C   0  0  0  0  0  0  0  0  0  0  0  0
  147.2762  133.7474  153.3345 C   0  0  0  0  0  0  0  0  0  0  0  0
  148.5399  134.3533  153.7364 N   0  0  0  0  0  0  0  0  0  0  0  0
  149.3171  133.9169  154.7390 C   0  0  0  0  0  0  0  0  0  0  0  0
  149.0522  132.9194  155.4124 O   0  0  0  0  0  0  0  0  0  0  0  0
  150.5807  134.7408  155.0318 C   0  0  2  0  0  0  0  0  0  0  0  0
  150.7096  134.9151  156.5548 C   0  0  0  0  0  0  0  0  0  0  0  0
  150.4251  136.0637  154.4334 N   0  0  0  0  0  0  0  0  0  0  0  0
  149.6632  137.0502  154.9320 C   0  0  0  0  0  0  0  0  0  0  0  0
  148.9263  136.9120  155.9084 O   0  0  0  0  0  0  0  0  0  0  0  0
  149.7750  138.4108  154.2453 C   0  0  0  0  0  0  0  0  0  0  0  0
  150.3527  139.4076  155.2185 C   0  0  0  0  0  0  0  0  0  0  0  0
  151.6086  139.3329  155.8888 C   0  0  0  0  0  0  0  0  0  0  0  0
  152.6456  138.2504  155.7958 C   0  0  0  0  0  0  0  0  0  0  0  0
  151.8298  140.3796  156.6666 N   0  0  0  0  0  0  0  0  0  0  0  0
  150.7371  141.1551  156.5185 N   0  0  0  0  0  0  0  0  0  0  0  0
  150.6547  142.4102  157.2398 C   0  0  0  0  0  0  0  0  0  0  0  0
  149.8192  140.5923  155.6535 C   0  0  0  0  0  0  0  0  0  0  0  0
  148.5231  141.2603  155.3244 C   0  0  0  0  0  0  0  0  0  0  0  0
  146.4219  132.6700  151.6487 H   0  0  0  0  0  0  0  0  0  0  0  0
  148.1511  132.4053  151.8548 H   0  0  0  0  0  0  0  0  0  0  0  0
  147.5641  133.9219  151.1757 H   0  0  0  0  0  0  0  0  0  0  0  0
  146.4704  134.4808  153.3920 H   0  0  0  0  0  0  0  0  0  0  0  0
  147.0336  132.9613  154.0495 H   0  0  0  0  0  0  0  0  0  0  0  0
  148.8297  135.1818  153.2370 H   0  0  0  0  0  0  0  0  0  0  0  0
  151.4700  134.2404  154.6433 H   0  0  0  0  0  0  0  0  0  0  0  0
  150.8088  133.9511  157.0555 H   0  0  0  0  0  0  0  0  0  0  0  0
  149.8477  135.4273  156.9855 H   0  0  0  0  0  0  0  0  0  0  0  0
  151.5951  135.5007  156.8033 H   0  0  0  0  0  0  0  0  0  0  0  0
  151.0011  136.2693  153.6301 H   0  0  0  0  0  0  0  0  0  0  0  0
  150.3897  138.3290  153.3479 H   0  0  0  0  0  0  0  0  0  0  0  0
  148.7831  138.7100  153.9058 H   0  0  0  0  0  0  0  0  0  0  0  0
  152.9616  138.1037  154.7630 H   0  0  0  0  0  0  0  0  0  0  0  0
  152.2516  137.3019  156.1603 H   0  0  0  0  0  0  0  0  0  0  0  0
  153.5335  138.4873  156.3829 H   0  0  0  0  0  0  0  0  0  0  0  0
  149.9686  142.3042  158.0802 H   0  0  0  0  0  0  0  0  0  0  0  0
  150.2885  143.1942  156.5767 H   0  0  0  0  0  0  0  0  0  0  0  0
  151.6361  142.7020  157.6159 H   0  0  0  0  0  0  0  0  0  0  0  0
  147.8745  140.6035  154.7455 H   0  0  0  0  0  0  0  0  0  0  0  0
  148.6935  142.1632  154.7382 H   0  0  0  0  0  0  0  0  0  0  0  0
  147.9880  141.5407  156.2318 H   0  0  0  0  0  0  0  0  0  0  0  0
  1  2  1  0  0  0  0
  1 20  1  0  0  0  0
  1 21  1  0  0  0  0
  1 22  1  0  0  0  0
  2  3  1  0  0  0  0
  2 23  1  0  0  0  0
  2 24  1  0  0  0  0
  3  4  1  0  0  0  0
  3 25  1  0  0  0  0
  4  5  2  0  0  0  0
  4  6  1  0  0  0  0
  6  7  1  0  0  0  0
  6  8  1  0  0  0  0
  6 26  1  0  0  0  0
  7 27  1  0  0  0  0
  7 28  1  0  0  0  0
  7 29  1  0  0  0  0
  8  9  1  0  0  0  0
  8 30  1  0  0  0  0
  9 10  2  0  0  0  0
  9 11  1  0  0  0  0
 11 12  1  0  0  0  0
 11 31  1  0  0  0  0
 11 32  1  0  0  0  0
 12 18  2  0  0  0  0
 12 13  1  0  0  0  0
 13 14  1  0  0  0  0
 13 15  2  0  0  0  0
 14 33  1  0  0  0  0
 14 34  1  0  0  0  0
 14 35  1  0  0  0  0
 15 16  1  0  0  0  0
 16 17  1  0  0  0  0
 16 18  1  0  0  0  0
 17 36  1  0  0  0  0
 17 37  1  0  0  0  0
 17 38  1  0  0  0  0
 18 19  1  0  0  0  0
 19 39  1  0  0  0  0
 19 40  1  0  0  0  0
 19 41  1  0  0  0  0
M  END
> <s_m_source_file>
AV-unprocessed.smi

> <i_m_source_file_index>
1573

> <i_lp_mmshare_version>
43012

> <i_f3d_flags>
0

> <s_epik_input>
W0NIM11bQ0gyXVtOSF1DKD1PKVtDQEhdKFtDSDNdKVtOSF1DKD1PKVtDSDJdYzFjKFtDSDNdKW5uKFtDSDNdKWMxW0NIM10=

> <s_epik_cmdline>
J2VwaWtfcHl0aG9uJywgJy1waCcsICc3LjAnLCAnLXRuJywgJzgnLCAnLW1hJywgJzIwMCcsICctbWV0YWxfYmluZGluZycsICctaW1hZScsICc8aW5maWxlLm1hZT4nLCAnLW9tYWUnLCAnPG91dGZpbGUubWFlPic=

> <r_lp_tautomer_probability>
1

> <r_epik_Ionization_Penalty>
0.00278414

> <r_epik_Ionization_Penalty_Charging>
0

> <r_epik_Ionization_Penalty_Neutral>
0.00278414

> <r_epik_State_Penalty>
0.00194489

> <r_epik_Charging_Adjusted_Penalty>
0.00194489

> <i_epik_Tot_Q>
0

> <i_epik_Tot_abs_Q>
0

> <r_epik_Metal_State_Penalty>
-0

> <b_epik_Metal_Only>
0

> <s_lp_Force_Field>
OPLS_2005

> <r_lp_Energy>
-3.80626

> <b_lp_Chiralities_Consistent>
1

> <s_lp_Variant>
AV-unprocessed.smi:1573-1

> <Gold.Version>
5.8.1

> <Gold.Id.Protein>
6NUR|6NUR_protein|mol2

> <Gold.PLP.Fitness>
38.2428

> <Gold.PLP.PLP>
-31.1429

> <Gold.PLP.part.hbond>
-4.0000

> <Gold.PLP.part.metal>
0.0000

> <Gold.PLP.part.buried>
-1.3239

> <Gold.PLP.part.nonpolar>
-25.3541

> <Gold.PLP.part.repulsive>
0.1375

> <Gold.PLP.ligand.clash>
0.0000

> <Gold.PLP.ligand.torsion>
0.7365

> <Gold.PLP.Chemscore.Hbond>
2.8447

> <Gold.PLP.Chemscore.CHOScore>
0.0000

> <Gold.PLP.Chemscore.Metal>
0.0000

> <Gold.Chemscore.Hbonds>
donor molecule, donor type, donor heavy atom, donor atom, acceptor molecule, acceptor atom, score
      L1  H     3    25       P1  7948  1.00
      L1  H     8    30       P1  7949  0.56

> <Gold.PLP.Chemscore.Internal.Correction>
0.0387

> <Gold.Rescore>
     Score         DG    S(hbond)    S(metal)    S(lipo)     H(rot)  DE(clash)    DE(int)     intcor
     11.70     -13.98       1.72        0.00      65.48       1.91       0.05       2.24       ----

> <Gold.Chemscore.Fitness>
11.7023

> <Gold.Chemscore.DG>
-13.9841

> <Gold.Chemscore.ZeroCoef>
-5.4800

> <Gold.Chemscore.Hbond>
1.7162

> <Gold.Chemscore.Metal>
0.0000

> <Gold.Chemscore.Lipo>
65.4838

> <Gold.Chemscore.Internal_Hbond>
0.0000

> <Gold.Chemscore.DEClash>
0.0454

> <Gold.Chemscore.DEInternal>
2.2364

> <Gold.Chemscore.Rot>
1.9100

> <Gold.Chemscore.Internal.Correction>
   9.000000E+99

> <Gold.Chemscore.Hbonds>
donor molecule, donor type, donor heavy atom, donor atom, acceptor molecule, acceptor atom, score
      L1  H     3    25       P1  7948  0.54
      L1  H     8    30       P1  7949  0.12

> <Gold.Chemscore.Hbond.Weighted>
-5.7321

> <Gold.Chemscore.Metal.Weighted>
-0.0000

> <Gold.Chemscore.Lipo.Weighted>
-7.6616

> <Gold.Chemscore.Internal_Hbond.Weighted>
0.0000

> <Gold.Chemscore.DEClash.Weighted>
0.0454

> <Gold.Chemscore.DEInternal.Weighted>
2.2364

> <Gold.Chemscore.Rot.Weighted>
4.8896

> <Gold.Chemscore.Internal.Correction.Weighted>
   9.000000E+99

> <Gold.Protein.RotatedTorsions>
[ 6907 6896 6895 6894 ] final  -77.25 input  -60.11 | X-H torsion
[ 7974 7965 7964 7962 ] final  -57.62 input  175.53 | X-H torsion
[ 8008 7997 7996 7995 ] final -170.78 input   59.86 | X-H torsion
[ 10167 10162 10161 10158 ] final    3.35 input  -65.29 | X-H torsion
[ 10718 10713 10712 10709 ] final  -77.89 input   66.30 | X-H torsion
[ 10763 10752 10751 10750 ] final    2.32 input  -60.55 | X-H torsion
[ 11005 11000 10999 10996 ] final  -24.09 input  -57.11 | X-H torsion

> <Gold.Protein.ActiveResidues>
 VAL166  LYS551  ARG553  GLY616  TRP617  ASP618  TYR619  PRO620  LYS621  CYS622 
 ASP623  PHE694  ASN695  SER759  ASP760  ASP761  ALA762  ILE779  LEU786  VAL792 
 PHE793  MET794  SER795  GLU796  ALA797  LYS798  CYS799  TRP800  GLU811  SER814 

> <Gold.Protein.RotatedAtoms>
  150.7004  134.4451  159.5309 H   0  0  0  0  0  0  0  0  0  0  0  0  # atno 6907 bound_to 6896
  152.2154  134.8460  160.0501 H   0  0  0  0  0  0  0  0  0  0  0  0  # atno 6908 bound_to 6896
  151.9330  133.3581  159.3974 H   0  0  0  0  0  0  0  0  0  0  0  0  # atno 6909 bound_to 6896
  145.8489  140.8366  142.9996 H   0  0  0  0  0  0  0  0  0  0  0  0  # atno 7974 bound_to 7965
  155.9228  140.1077  157.1193 H   0  0  0  0  0  0  0  0  0  0  0  0  # atno 8008 bound_to 7997
  154.4057  140.1252  156.4767 H   0  0  0  0  0  0  0  0  0  0  0  0  # atno 8009 bound_to 7997
  155.7175  140.3470  155.5003 H   0  0  0  0  0  0  0  0  0  0  0  0  # atno 8010 bound_to 7997
  140.6590  143.7352  150.7705 H   0  0  0  0  0  0  0  0  0  0  0  0  # atno 10167 bound_to 10162
  156.0132  130.4503  150.3413 H   0  0  0  0  0  0  0  0  0  0  0  0  # atno 10718 bound_to 10713
  153.2971  135.6953  153.7238 H   0  0  0  0  0  0  0  0  0  0  0  0  # atno 10763 bound_to 10752
  153.6167  135.3434  155.2998 H   0  0  0  0  0  0  0  0  0  0  0  0  # atno 10764 bound_to 10752
  154.8540  135.4376  154.2071 H   0  0  0  0  0  0  0  0  0  0  0  0  # atno 10765 bound_to 10752
  140.8813  133.7652  156.0305 H   0  0  0  0  0  0  0  0  0  0  0  0  # atno 11005 bound_to 11000
  144.6730  140.0923  143.7464 LP  0  0  0  0  0  0  0  0  0  0  0  0  # atno 17320 bound_to 7965
  145.9380  139.2650  143.1285 LP  0  0  0  0  0  0  0  0  0  0  0  0  # atno 17321 bound_to 7965
  140.1018  143.4781  152.2421 LP  0  0  0  0  0  0  0  0  0  0  0  0  # atno 17342 bound_to 10162
  139.5819  144.7514  151.3617 LP  0  0  0  0  0  0  0  0  0  0  0  0  # atno 17343 bound_to 10162
  157.1508  131.0320  151.2886 LP  0  0  0  0  0  0  0  0  0  0  0  0  # atno 17370 bound_to 10713
  157.4394  130.7535  149.7056 LP  0  0  0  0  0  0  0  0  0  0  0  0  # atno 17371 bound_to 10713
  140.8458  134.3013  157.5295 LP  0  0  0  0  0  0  0  0  0  0  0  0  # atno 17394 bound_to 11000
  139.8720  134.9441  156.3871 LP  0  0  0  0  0  0  0  0  0  0  0  0  # atno 17395 bound_to 11000

$$$$
