#       Name:                AV-unprocessed.smi:705
#       Creating user name   scv26
#       Creation time:       Fri Mar 27 00:43:43 2020


#       File generated by GOLD software.
#

@<TRIPOS>MOLECULE
AV-unprocessed.smi:705
    32    33     1
SMALL
NO_CHARGES


@<TRIPOS>ATOM
      1 ****        -5.0392  -1.8201   0.5295 N.am           1 S1                 0.0000
      2 ****        -4.3862  -0.7108   0.1746 C.2            1 S1                 0.0000
      3 ****        -4.9576   0.3225  -0.1694 O.2            1 S1                 0.0000
      4 ****        -2.8903  -0.8033   0.2194 C.2            1 S1                 0.0000
      5 ****        -2.0233   0.2588  -0.1427 C.2            1 S1                 0.0000
      6 ****        -0.7640  -0.4013   0.1052 C.2            1 S1                 0.0000
      7 ****         0.5077   0.3874  -0.1408 C.3            1 S1                 0.0000
      8 ****         1.3651  -0.2482  -1.2506 C.3            1 S1                 0.0000
      9 ****         2.6658   0.5459  -1.4456 C.3            1 S1                 0.0000
     10 ****         3.4247   0.6921  -0.1159 C.3            1 S1                 0.0000
     11 ****         2.5625   1.3120   0.9138 N.4            1 S1                 1.0000
     12 ****         1.3188   0.5503   1.1590 C.3            1 S1                 0.0000
     13 ****        -0.9125  -1.6656   0.5432 N.2            1 S1                 0.0000
     14 ****        -2.2117  -1.8979   0.6113 N.pl3          1 S1                -1.0000
     15 ****        -6.0476  -1.8423   0.5276 H              1 S1                 0.0000
     16 ****        -4.5022  -2.6325   0.7994 H              1 S1                 0.0000
     17 ****        -2.2435   1.2593  -0.4941 H              1 S1                 0.0000
     18 ****         0.2187   1.3846  -0.4775 H              1 S1                 0.0000
     19 ****         1.6056  -1.2796  -0.9884 H              1 S1                 0.0000
     20 ****         0.8060  -0.2869  -2.1862 H              1 S1                 0.0000
     21 ****         3.2975   0.0513  -2.1841 H              1 S1                 0.0000
     22 ****         2.4347   1.5334  -1.8474 H              1 S1                 0.0000
     23 ****         3.7621  -0.2832   0.2380 H              1 S1                 0.0000
     24 ****         4.3142   1.3071  -0.2535 H              1 S1                 0.0000
     25 ****         3.0792   1.3799   1.7790 H              1 S1                 0.0000
     26 ****         0.7280   1.0714   1.9130 H              1 S1                 0.0000
     27 ****         1.5762  -0.4253   1.5745 H              1 S1                 0.0000
     28 ****         2.3125   2.2414   0.6081 H              1 S1                 0.0000
     29 ****        -5.9568   0.3575  -0.1922 LP             1 S1                 0.0000
     30 ****        -4.4231   1.1276  -0.4263 LP             1 S1                 0.0000
     31 ****        -0.1800  -2.3063   0.7731 LP             1 S1                 0.0000
     32 ****        -2.6279  -2.7571   0.9090 LP             1 S1                 0.0000
@<TRIPOS>BOND
    1    1    2 am    
    2    1   15 1     
    3    1   16 1     
    4    2    3 2     
    5    2    4 1     
    6    4   14 1     
    7    4    5 2     
    8    5    6 1     
    9    5   17 1     
   10    6    7 1     
   11    6   13 2     
   12    7   12 1     
   13    7    8 1     
   14    7   18 1     
   15    8    9 1     
   16    8   19 1     
   17    8   20 1     
   18    9   10 1     
   19    9   21 1     
   20    9   22 1     
   21   10   11 1     
   22   10   23 1     
   23   10   24 1     
   24   11   12 1     
   25   11   25 1     
   26   11   28 1     
   27   12   26 1     
   28   12   27 1     
   29   13   14 1     
   30    3   29 1     
   31    3   30 1     
   32   13   31 1     
   33   14   32 1     
@<TRIPOS>SUBSTRUCTURE
      1 S1             1
@<TRIPOS>SET
LONE_PAIRS      STATIC     ATOMS    <user>   **** ""
4 29 30 31 32
DONOR_HYDROGENS      STATIC     ATOMS    <user>   **** ""
4 15 16 25 28
ATOM$BLUE        STATIC     ATOMS    COLORGROUP SYSTEM
4 29 30 31 32
ATOM$RED        STATIC     ATOMS    COLORGROUP SYSTEM
4 15 16 25 28
