#       Name:                AV-unprocessed.smi:1603
#       Creating user name   scv26
#       Creation time:       Fri Mar 27 07:09:34 2020


#       File generated by GOLD software.
#

@<TRIPOS>MOLECULE
AV-unprocessed.smi:1603
    52    54     1
SMALL
NO_CHARGES


@<TRIPOS>ATOM
      1 ****        -2.6499  -0.4058   1.6057 O.2            1 S1                 0.0000
      2 ****        -2.2949   0.3278   0.6825 C.2            1 S1                 0.0000
      3 ****        -2.4162   1.7932   0.7229 C.2            1 S1                 0.0000
      4 ****        -2.9888   2.4288   1.9870 C.3            1 S1                 0.0000
      5 ****        -3.0126   3.7599   1.9035 F              1 S1                 0.0000
      6 ****        -4.2374   2.0101   2.1962 F              1 S1                 0.0000
      7 ****        -2.2551   2.1006   3.0515 F              1 S1                 0.0000
      8 ****        -2.0159   2.5381  -0.3361 C.2            1 S1                 0.0000
      9 ****        -1.4726   1.8980  -1.5166 C.2            1 S1                 0.0000
     10 ****        -1.0286   2.6586  -2.7332 C.3            1 S1                 0.0000
     11 ****        -1.7676   3.8772  -3.2376 C.3            1 S1                 0.0000
     12 ****        -1.7959   2.5922  -4.0330 C.3            1 S1                 0.0000
     13 ****        -1.3571   0.6132  -1.5452 N.2            1 S1                 0.0000
     14 ****        -1.7460  -0.1613  -0.4692 N.am           1 S1                 0.0000
     15 ****        -1.5266  -1.6007  -0.6724 C.3            1 S1                 0.0000
     16 ****        -0.0393  -1.9962  -0.5356 C.3            1 S1                 0.0000
     17 ****         0.0879  -3.3163  -1.0256 O.3            1 S1                 0.0000
     18 ****         0.4875  -1.9489   0.9170 C.3            1 S1                 0.0000
     19 ****         1.8805  -1.5272   1.0592 N.3            1 S1                 0.0000
     20 ****         2.2177  -1.3002   2.4604 C.3            1 S1                 0.0000
     21 ****         3.6795  -0.8537   2.6349 C.3            1 S1                 0.0000
     22 ****         4.5455  -1.8271   2.0609 O.3            1 S1                 0.0000
     23 ****         4.2817  -2.0496   0.6794 C.3            1 S1                 0.0000
     24 ****         2.8199  -2.4938   0.4952 C.3            1 S1                 0.0000
     25 ****        -2.0922   3.6151  -0.3225 H              1 S1                 0.0000
     26 ****         0.0577   2.6799  -2.7990 H              1 S1                 0.0000
     27 ****        -2.6874   4.1697  -2.7344 H              1 S1                 0.0000
     28 ****        -1.1712   4.6981  -3.6306 H              1 S1                 0.0000
     29 ****        -1.2183   2.5572  -4.9545 H              1 S1                 0.0000
     30 ****        -2.7303   2.0340  -4.0472 H              1 S1                 0.0000
     31 ****        -2.1404  -2.2123  -0.0091 H              1 S1                 0.0000
     32 ****        -1.8730  -1.8457  -1.6785 H              1 S1                 0.0000
     33 ****         0.5611  -1.3459  -1.1737 H              1 S1                 0.0000
     34 ****        -0.4261  -3.8901  -0.4784 H              1 S1                 0.0000
     35 ****        -0.1206  -1.2372   1.4727 H              1 S1                 0.0000
     36 ****         0.3249  -2.9066   1.4143 H              1 S1                 0.0000
     37 ****         1.5580  -0.5413   2.8825 H              1 S1                 0.0000
     38 ****         2.0501  -2.2132   3.0340 H              1 S1                 0.0000
     39 ****         3.8463   0.1163   2.1639 H              1 S1                 0.0000
     40 ****         3.9188  -0.7428   3.6924 H              1 S1                 0.0000
     41 ****         4.4823  -1.1385   0.1133 H              1 S1                 0.0000
     42 ****         4.9608  -2.8156   0.3050 H              1 S1                 0.0000
     43 ****         2.6756  -3.4676   0.9656 H              1 S1                 0.0000
     44 ****         2.6279  -2.6291  -0.5689 H              1 S1                 0.0000
     45 ****        -2.5403  -1.3967   1.5274 LP             1 S1                 0.0000
     46 ****        -3.0478  -0.0107   2.4337 LP             1 S1                 0.0000
     47 ****        -0.9801   0.1710  -2.3590 LP             1 S1                 0.0000
     48 ****         1.0479  -3.5951  -0.9986 LP             1 S1                 0.0000
     49 ****        -0.2456  -3.3602  -1.9673 LP             1 S1                 0.0000
     50 ****         1.9649  -0.6731   0.5461 LP             1 S1                 0.0000
     51 ****         4.4275  -2.6900   2.5524 LP             1 S1                 0.0000
     52 ****         5.4899  -1.5135   2.1600 LP             1 S1                 0.0000
@<TRIPOS>BOND
    1    1    2 2     
    2    2   14 am    
    3    2    3 1     
    4    3    4 1     
    5    3    8 2     
    6    4    5 1     
    7    4    6 1     
    8    4    7 1     
    9    8    9 1     
   10    8   25 1     
   11    9   10 1     
   12    9   13 2     
   13   10   12 1     
   14   10   11 1     
   15   10   26 1     
   16   11   12 1     
   17   11   27 1     
   18   11   28 1     
   19   12   29 1     
   20   12   30 1     
   21   13   14 1     
   22   14   15 1     
   23   15   16 1     
   24   15   31 1     
   25   15   32 1     
   26   16   17 1     
   27   16   18 1     
   28   16   33 1     
   29   17   34 1     
   30   18   19 1     
   31   18   35 1     
   32   18   36 1     
   33   19   24 1     
   34   19   20 1     
   35   20   21 1     
   36   20   37 1     
   37   20   38 1     
   38   21   22 1     
   39   21   39 1     
   40   21   40 1     
   41   22   23 1     
   42   23   24 1     
   43   23   41 1     
   44   23   42 1     
   45   24   43 1     
   46   24   44 1     
   47    1   45 1     
   48    1   46 1     
   49   13   47 1     
   50   17   48 1     
   51   17   49 1     
   52   19   50 1     
   53   22   51 1     
   54   22   52 1     
@<TRIPOS>SUBSTRUCTURE
      1 S1             1
@<TRIPOS>SET
LONE_PAIRS      STATIC     ATOMS    <user>   **** ""
8 45 46 47 48 49 50 51 52
DONOR_HYDROGENS      STATIC     ATOMS    <user>   **** ""
1 34
ATOM$BLUE        STATIC     ATOMS    COLORGROUP SYSTEM
8 45 46 47 48 49 50 51 52
ATOM$RED        STATIC     ATOMS    COLORGROUP SYSTEM
1 34
