#       Name:                AV-unprocessed.smi:1444
#       Creating user name   scv26
#       Creation time:       Fri Mar 27 05:56:11 2020


#       File generated by GOLD software.
#

@<TRIPOS>MOLECULE
AV-unprocessed.smi:1444
    51    52     1
SMALL
NO_CHARGES


@<TRIPOS>ATOM
      1 ****        -5.9983  -0.4907  -0.4940 C.3            1 S1                 0.0000
      2 ****        -4.7102  -0.0955  -0.0348 O.3            1 S1                 0.0000
      3 ****        -4.4857   1.2419   0.2312 C.ar           1 S1                 0.0000
      4 ****        -5.5054   2.1170   0.0432 N.ar           1 S1                 0.0000
      5 ****        -5.2891   3.4225   0.3054 C.ar           1 S1                 0.0000
      6 ****        -4.0591   3.9210   0.7719 C.ar           1 S1                 0.0000
      7 ****        -2.9999   3.0155   0.9674 C.ar           1 S1                 0.0000
      8 ****        -3.2065   1.6443   0.6813 C.ar           1 S1                 0.0000
      9 ****        -2.2108   0.6455   0.8634 N.am           1 S1                 0.0000
     10 ****        -0.8746   0.7866   0.8476 C.2            1 S1                 0.0000
     11 ****        -0.2732   1.8423   0.6504 O.2            1 S1                 0.0000
     12 ****        -0.2620  -0.3887   1.0513 N.am           1 S1                 0.0000
     13 ****         1.1834  -0.6015   1.0759 C.3            1 S1                 0.0000
     14 ****         1.4651  -1.7698   2.0338 C.3            1 S1                 0.0000
     15 ****         1.6844  -0.8064  -0.3758 C.3            1 S1                 0.0000
     16 ****         3.1342  -0.7454  -0.5844 N.3            1 S1                 0.0000
     17 ****         3.7927  -2.0328  -0.3598 C.3            1 S1                 0.0000
     18 ****         5.3084  -1.9592  -0.6148 C.3            1 S1                 0.0000
     19 ****         5.5492  -1.5039  -1.9415 O.3            1 S1                 0.0000
     20 ****         4.9605  -0.2339  -2.1972 C.3            1 S1                 0.0000
     21 ****         3.4448  -0.3105  -1.9442 C.3            1 S1                 0.0000
     22 ****        -6.0058  -1.5672  -0.6636 H              1 S1                 0.0000
     23 ****        -6.2526  -0.0063  -1.4379 H              1 S1                 0.0000
     24 ****        -6.7704  -0.2668   0.2434 H              1 S1                 0.0000
     25 ****        -6.1238   4.0887   0.1452 H              1 S1                 0.0000
     26 ****        -3.9321   4.9731   0.9799 H              1 S1                 0.0000
     27 ****        -2.0596   3.3861   1.3451 H              1 S1                 0.0000
     28 ****        -2.5582  -0.2992   0.9427 H              1 S1                 0.0000
     29 ****        -0.8400  -1.2030   1.1997 H              1 S1                 0.0000
     30 ****         1.6569   0.2906   1.4904 H              1 S1                 0.0000
     31 ****         2.5133  -1.8044   2.3253 H              1 S1                 0.0000
     32 ****         1.1950  -2.7280   1.5888 H              1 S1                 0.0000
     33 ****         0.8978  -1.6625   2.9592 H              1 S1                 0.0000
     34 ****         1.2827  -1.7326  -0.7896 H              1 S1                 0.0000
     35 ****         1.2278  -0.0129  -0.9698 H              1 S1                 0.0000
     36 ****         3.6348  -2.3818   0.6557 H              1 S1                 0.0000
     37 ****         3.3582  -2.7894  -1.0151 H              1 S1                 0.0000
     38 ****         5.7889  -1.2901   0.1007 H              1 S1                 0.0000
     39 ****         5.7615  -2.9426  -0.4893 H              1 S1                 0.0000
     40 ****         5.4208   0.5241  -1.5614 H              1 S1                 0.0000
     41 ****         5.1594   0.0497  -3.2307 H              1 S1                 0.0000
     42 ****         2.9930  -0.9944  -2.6645 H              1 S1                 0.0000
     43 ****         3.0063   0.6711  -2.1289 H              1 S1                 0.0000
     44 ****        -4.0503  -0.3722  -0.7333 LP             1 S1                 0.0000
     45 ****        -4.5313  -0.5986   0.8107 LP             1 S1                 0.0000
     46 ****        -6.3968   1.8015  -0.2823 LP             1 S1                 0.0000
     47 ****        -0.7845   2.6855   0.4845 LP             1 S1                 0.0000
     48 ****         0.7266   1.8567   0.6560 LP             1 S1                 0.0000
     49 ****         3.4784  -0.0875   0.0853 LP             1 S1                 0.0000
     50 ****         5.1675  -2.1693  -2.5831 LP             1 S1                 0.0000
     51 ****         6.5367  -1.4337  -2.0822 LP             1 S1                 0.0000
@<TRIPOS>BOND
    1    1    2 1     
    2    1   22 1     
    3    1   23 1     
    4    1   24 1     
    5    2    3 1     
    6    3    8 ar    
    7    3    4 ar    
    8    4    5 ar    
    9    5    6 ar    
   10    5   25 1     
   11    6    7 ar    
   12    6   26 1     
   13    7    8 ar    
   14    7   27 1     
   15    8    9 1     
   16    9   10 am    
   17    9   28 1     
   18   10   11 2     
   19   10   12 am    
   20   12   13 1     
   21   12   29 1     
   22   13   14 1     
   23   13   15 1     
   24   13   30 1     
   25   14   31 1     
   26   14   32 1     
   27   14   33 1     
   28   15   16 1     
   29   15   34 1     
   30   15   35 1     
   31   16   21 1     
   32   16   17 1     
   33   17   18 1     
   34   17   36 1     
   35   17   37 1     
   36   18   19 1     
   37   18   38 1     
   38   18   39 1     
   39   19   20 1     
   40   20   21 1     
   41   20   40 1     
   42   20   41 1     
   43   21   42 1     
   44   21   43 1     
   45    2   44 1     
   46    2   45 1     
   47    4   46 1     
   48   11   47 1     
   49   11   48 1     
   50   16   49 1     
   51   19   50 1     
   52   19   51 1     
@<TRIPOS>SUBSTRUCTURE
      1 S1             1
@<TRIPOS>SET
LONE_PAIRS      STATIC     ATOMS    <user>   **** ""
8 44 45 46 47 48 49 50 51
DONOR_HYDROGENS      STATIC     ATOMS    <user>   **** ""
2 28 29
ATOM$BLUE        STATIC     ATOMS    COLORGROUP SYSTEM
8 44 45 46 47 48 49 50 51
ATOM$RED        STATIC     ATOMS    COLORGROUP SYSTEM
2 28 29
