AV-unprocessed.smi:2025|AV-procd|sdf|8197|dock5
  -GOLD-   2272010453D 1   1.00000     0.00000
 Structure written by MMmdl.
 39 40  0  0  0  0  0  0  0  0  1 V2000
  151.1115  139.0709  155.7648 C   0  0  0  0  0  0  0  0  0  0  0  0
  150.6117  140.4129  155.2078 C   0  0  2  0  0  0  0  0  0  0  0  0
  151.0845  141.4840  156.0822 N   0  0  0  0  0  0  0  0  0  0  0  0
  151.0154  141.4874  157.4224 C   0  0  0  0  0  0  0  0  0  0  0  0
  150.5373  140.5611  158.0788 O   0  0  0  0  0  0  0  0  0  0  0  0
  151.6035  142.7198  158.1223 C   0  0  0  0  0  0  0  0  0  0  0  0
  152.3759  142.3818  159.3250 N   0  0  0  0  0  0  0  0  0  0  0  0
  153.3088  141.3617  159.2738 C   0  0  0  0  0  0  0  0  0  0  0  0
  154.0485  140.9748  160.3355 C   0  0  0  0  0  0  0  0  0  0  0  0
  153.9006  141.6329  161.6275 C   0  0  0  0  0  0  0  0  0  0  0  0
  154.5442  141.3142  162.6285 O   0  0  0  0  0  0  0  0  0  0  0  0
  152.9473  142.6765  161.6518 N   0  0  0  0  0  0  0  0  0  0  0  0
  152.7685  143.3567  162.9176 C   0  0  0  0  0  0  0  0  0  0  0  0
  152.1666  143.0705  160.5398 C   0  0  0  0  0  0  0  0  0  0  0  0
  151.3288  143.9731  160.6064 O   0  0  0  0  0  0  0  0  0  0  0  0
  149.0735  140.4665  155.0939 C   0  0  2  0  0  0  0  0  0  0  0  0
  148.4741  139.4619  154.1084 C   0  0  0  0  0  0  0  0  0  0  0  0
  147.1560  140.1158  153.7639 C   0  0  0  0  0  0  0  0  0  0  0  0
  147.5435  141.5899  153.7139 C   0  0  0  0  0  0  0  0  0  0  0  0
  148.6442  141.7375  154.6069 O   0  0  0  0  0  0  0  0  0  0  0  0
  150.8333  138.2416  155.1144 H   0  0  0  0  0  0  0  0  0  0  0  0
  150.6981  138.8720  156.7541 H   0  0  0  0  0  0  0  0  0  0  0  0
  152.1986  139.0635  155.8502 H   0  0  0  0  0  0  0  0  0  0  0  0
  151.0410  140.5355  154.2117 H   0  0  0  0  0  0  0  0  0  0  0  0
  151.5025  142.2845  155.6310 H   0  0  0  0  0  0  0  0  0  0  0  0
  152.2398  143.2433  157.4075 H   0  0  0  0  0  0  0  0  0  0  0  0
  150.8052  143.4209  158.3729 H   0  0  0  0  0  0  0  0  0  0  0  0
  153.4512  140.8413  158.3377 H   0  0  0  0  0  0  0  0  0  0  0  0
  154.7574  140.1668  160.2280 H   0  0  0  0  0  0  0  0  0  0  0  0
  152.1238  144.2285  162.8114 H   0  0  0  0  0  0  0  0  0  0  0  0
  153.7527  143.6823  163.2591 H   0  0  0  0  0  0  0  0  0  0  0  0
  152.3251  142.6364  163.6070 H   0  0  0  0  0  0  0  0  0  0  0  0
  148.6168  140.3188  156.0741 H   0  0  0  0  0  0  0  0  0  0  0  0
  149.0945  139.3817  153.2144 H   0  0  0  0  0  0  0  0  0  0  0  0
  148.3553  138.4654  154.5343 H   0  0  0  0  0  0  0  0  0  0  0  0
  146.7273  139.7554  152.8285 H   0  0  0  0  0  0  0  0  0  0  0  0
  146.4330  139.9430  154.5623 H   0  0  0  0  0  0  0  0  0  0  0  0
  147.8737  141.8649  152.7117 H   0  0  0  0  0  0  0  0  0  0  0  0
  146.7168  142.2449  153.9897 H   0  0  0  0  0  0  0  0  0  0  0  0
  1  2  1  0  0  0  0
  1 21  1  0  0  0  0
  1 22  1  0  0  0  0
  1 23  1  0  0  0  0
  2  3  1  0  0  0  0
  2 16  1  0  0  0  0
  2 24  1  0  0  0  0
  3  4  1  0  0  0  0
  3 25  1  0  0  0  0
  4  5  2  0  0  0  0
  4  6  1  0  0  0  0
  6  7  1  0  0  0  0
  6 26  1  0  0  0  0
  6 27  1  0  0  0  0
  7 14  1  0  0  0  0
  7  8  1  0  0  0  0
  8  9  2  0  0  0  0
  8 28  1  0  0  0  0
  9 10  1  0  0  0  0
  9 29  1  0  0  0  0
 10 11  2  0  0  0  0
 10 12  1  0  0  0  0
 12 13  1  0  0  0  0
 12 14  1  0  0  0  0
 13 30  1  0  0  0  0
 13 31  1  0  0  0  0
 13 32  1  0  0  0  0
 14 15  2  0  0  0  0
 16 20  1  0  0  0  0
 16 17  1  0  0  0  0
 16 33  1  0  0  0  0
 17 18  1  0  0  0  0
 17 34  1  0  0  0  0
 17 35  1  0  0  0  0
 18 19  1  0  0  0  0
 18 36  1  0  0  0  0
 18 37  1  0  0  0  0
 19 20  1  0  0  0  0
 19 38  1  0  0  0  0
 19 39  1  0  0  0  0
M  END
> <s_m_source_file>
AV-unprocessed.smi

> <i_m_source_file_index>
2025

> <i_lp_mmshare_version>
43012

> <i_f3d_flags>
0

> <s_epik_input>
TzFbQ0gyXVtDSDJdW0NIMl1bQ0BIXTFbQ0BIXShbQ0gzXSlbTkhdQyg9TylbQ0gyXW4yW2NIXVtjSF1jKD1PKW4oW0NIM10pYzI9Tw==

> <s_epik_cmdline>
J2VwaWtfcHl0aG9uJywgJy1waCcsICc3LjAnLCAnLXRuJywgJzgnLCAnLW1hJywgJzIwMCcsICctbWV0YWxfYmluZGluZycsICctaW1hZScsICc8aW5maWxlLm1hZT4nLCAnLW9tYWUnLCAnPG91dGZpbGUubWFlPic=

> <r_lp_tautomer_probability>
1

> <r_epik_Ionization_Penalty>
3.54787e-08

> <r_epik_Ionization_Penalty_Charging>
1.24654e-08

> <r_epik_Ionization_Penalty_Neutral>
2.30132e-08

> <r_epik_State_Penalty>
-0

> <r_epik_Charging_Adjusted_Penalty>
1.24654e-08

> <i_epik_Tot_Q>
0

> <i_epik_Tot_abs_Q>
0

> <r_epik_Metal_State_Penalty>
-0

> <b_epik_Metal_Only>
0

> <s_lp_Force_Field>
OPLS_2005

> <r_lp_Energy>
25.7594

> <b_lp_Chiralities_Consistent>
1

> <s_lp_Variant>
AV-unprocessed.smi:2025-1

> <Gold.Version>
5.8.1

> <Gold.Id.Protein>
6NUR|6NUR_protein|mol2

> <Gold.PLP.Fitness>
40.8246

> <Gold.PLP.PLP>
-42.0062

> <Gold.PLP.part.hbond>
-1.1296

> <Gold.PLP.part.metal>
0.0000

> <Gold.PLP.part.buried>
-2.0594

> <Gold.PLP.part.nonpolar>
-37.9105

> <Gold.PLP.part.repulsive>
0.4136

> <Gold.PLP.ligand.clash>
0.0000

> <Gold.PLP.ligand.torsion>
0.6006

> <Gold.PLP.Chemscore.Hbond>
0.0000

> <Gold.PLP.Chemscore.CHOScore>
0.0000

> <Gold.PLP.Chemscore.Metal>
0.0000

> <Gold.PLP.Chemscore.Internal.Correction>
0.0195

> <Gold.Rescore>
     Score         DG    S(hbond)    S(metal)    S(lipo)     H(rot)  DE(clash)    DE(int)     intcor
      7.90      -9.90       0.00        0.00      77.64       1.82       0.11       1.89       ----

> <Gold.Chemscore.Fitness>
7.8988

> <Gold.Chemscore.DG>
-9.8970

> <Gold.Chemscore.ZeroCoef>
-5.4800

> <Gold.Chemscore.Hbond>
0.0000

> <Gold.Chemscore.Metal>
0.0000

> <Gold.Chemscore.Lipo>
77.6363

> <Gold.Chemscore.Internal_Hbond>
0.0000

> <Gold.Chemscore.DEClash>
0.1093

> <Gold.Chemscore.DEInternal>
1.8889

> <Gold.Chemscore.Rot>
1.8228

> <Gold.Chemscore.Internal.Correction>
   9.000000E+99

> <Gold.Chemscore.Hbond.Weighted>
-0.0000

> <Gold.Chemscore.Metal.Weighted>
-0.0000

> <Gold.Chemscore.Lipo.Weighted>
-9.0834

> <Gold.Chemscore.Internal_Hbond.Weighted>
0.0000

> <Gold.Chemscore.DEClash.Weighted>
0.1093

> <Gold.Chemscore.DEInternal.Weighted>
1.8889

> <Gold.Chemscore.Rot.Weighted>
4.6665

> <Gold.Chemscore.Internal.Correction.Weighted>
   9.000000E+99

> <Gold.Protein.RotatedTorsions>
[ 6907 6896 6895 6894 ] final   39.13 input  -60.11 | X-H torsion
[ 7974 7965 7964 7962 ] final  150.34 input  175.53 | X-H torsion
[ 8008 7997 7996 7995 ] final   22.45 input   59.86 | X-H torsion
[ 10167 10162 10161 10158 ] final -128.82 input  -65.29 | X-H torsion
[ 10718 10713 10712 10709 ] final -124.06 input   66.30 | X-H torsion
[ 10763 10752 10751 10750 ] final  122.59 input  -60.55 | X-H torsion
[ 11005 11000 10999 10996 ] final  -87.81 input  -57.11 | X-H torsion

> <Gold.Protein.ActiveResidues>
 VAL166  LYS551  ARG553  GLY616  TRP617  ASP618  TYR619  PRO620  LYS621  CYS622 
 ASP623  PHE694  ASN695  SER759  ASP760  ASP761  ALA762  ILE779  LEU786  VAL792 
 PHE793  MET794  SER795  GLU796  ALA797  LYS798  CYS799  TRP800  GLU811  SER814 

> <Gold.Protein.RotatedAtoms>
  152.1655  134.8877  160.0538 H   0  0  0  0  0  0  0  0  0  0  0  0  # atno 6907 bound_to 6896
  151.9857  133.3768  159.4133 H   0  0  0  0  0  0  0  0  0  0  0  0  # atno 6908 bound_to 6896
  150.6894  134.3914  159.5122 H   0  0  0  0  0  0  0  0  0  0  0  0  # atno 6909 bound_to 6896
  144.8372  139.6395  143.6033 H   0  0  0  0  0  0  0  0  0  0  0  0  # atno 7974 bound_to 7965
  154.9659  140.3084  155.5010 H   0  0  0  0  0  0  0  0  0  0  0  0  # atno 8008 bound_to 7997
  156.2971  140.2293  156.4687 H   0  0  0  0  0  0  0  0  0  0  0  0  # atno 8009 bound_to 7997
  154.7922  140.0439  157.1198 H   0  0  0  0  0  0  0  0  0  0  0  0  # atno 8010 bound_to 7997
  139.9462  143.6107  152.2489 H   0  0  0  0  0  0  0  0  0  0  0  0  # atno 10167 bound_to 10162
  156.1555  130.6565  150.9975 H   0  0  0  0  0  0  0  0  0  0  0  0  # atno 10718 bound_to 10713
  153.6321  135.3394  155.3045 H   0  0  0  0  0  0  0  0  0  0  0  0  # atno 10763 bound_to 10752
  154.8578  135.4298  154.2095 H   0  0  0  0  0  0  0  0  0  0  0  0  # atno 10764 bound_to 10752
  153.2993  135.7023  153.7292 H   0  0  0  0  0  0  0  0  0  0  0  0  # atno 10765 bound_to 10752
  141.1611  133.7533  156.9361 H   0  0  0  0  0  0  0  0  0  0  0  0  # atno 11005 bound_to 11000
  146.2669  139.6541  142.9323 LP  0  0  0  0  0  0  0  0  0  0  0  0  # atno 17320 bound_to 7965
  145.4771  141.0437  143.2666 LP  0  0  0  0  0  0  0  0  0  0  0  0  # atno 17321 bound_to 7965
  139.6665  144.7662  151.1864 LP  0  0  0  0  0  0  0  0  0  0  0  0  # atno 17342 bound_to 10162
  140.7596  143.5930  150.8776 LP  0  0  0  0  0  0  0  0  0  0  0  0  # atno 17343 bound_to 10162
  157.6691  131.0865  150.7655 LP  0  0  0  0  0  0  0  0  0  0  0  0  # atno 17370 bound_to 10713
  156.7721  130.4832  149.5416 LP  0  0  0  0  0  0  0  0  0  0  0  0  # atno 17371 bound_to 10713
  140.1353  134.9329  157.2394 LP  0  0  0  0  0  0  0  0  0  0  0  0  # atno 17394 bound_to 11000
  140.2902  134.3249  155.7317 LP  0  0  0  0  0  0  0  0  0  0  0  0  # atno 17395 bound_to 11000

$$$$
