#       Name:                AV-unprocessed.smi:3335
#       Creating user name   scv26
#       Creation time:       Fri Mar 27 19:23:27 2020


#       File generated by GOLD software.
#

@<TRIPOS>MOLECULE
AV-unprocessed.smi:3335
    50    51     1
SMALL
NO_CHARGES


@<TRIPOS>ATOM
      1 ****        -3.5322  -4.8723   2.0106 C.3            1 S1                 0.0000
      2 ****        -2.9768  -3.6006   1.4375 C.2            1 S1                 0.0000
      3 ****        -2.6326  -2.4054   2.1293 C.2            1 S1                 0.0000
      4 ****        -2.1577  -1.4673   1.3276 N.2            1 S1                 0.0000
      5 ****        -2.1871  -2.0213   0.0941 N.pl3          1 S1                 0.0000
      6 ****        -1.7004  -1.2838  -1.0700 C.3            1 S1                 0.0000
      7 ****        -2.2427   0.1589  -1.1163 C.3            1 S1                 0.0000
      8 ****        -0.1593  -1.3573  -1.2482 C.3            1 S1                 0.0000
      9 ****         0.3783  -2.7980  -1.3059 C.3            1 S1                 0.0000
     10 ****         0.5156  -0.6682  -0.1498 N.3            1 S1                 0.0000
     11 ****         1.3798   0.4489  -0.5646 C.3            1 S1                 0.0000
     12 ****         2.6687  -0.0610  -1.2367 C.3            1 S1                 0.0000
     13 ****         1.7386   1.3286   0.6497 C.2            1 S1                 0.0000
     14 ****         1.9582   0.7869   1.7349 O.2            1 S1                 0.0000
     15 ****         1.8097   2.6699   0.5003 N.am           1 S1                 0.0000
     16 ****         2.1188   3.5805   1.6017 C.3            1 S1                 0.0000
     17 ****         1.8764   4.9897   1.0610 C.3            1 S1                 0.0000
     18 ****         2.0704   4.8479  -0.4416 C.3            1 S1                 0.0000
     19 ****         1.6199   3.4184  -0.7426 C.3            1 S1                 0.0000
     20 ****        -2.6730  -3.3122   0.1374 C.2            1 S1                 0.0000
     21 ****        -3.8740  -4.7399   3.0373 H              1 S1                 0.0000
     22 ****        -2.7860  -5.6668   2.0203 H              1 S1                 0.0000
     23 ****        -4.3828  -5.2358   1.4337 H              1 S1                 0.0000
     24 ****        -2.7097  -2.1945   3.1857 H              1 S1                 0.0000
     25 ****        -2.1310  -1.7866  -1.9373 H              1 S1                 0.0000
     26 ****        -1.9480   0.6559  -2.0408 H              1 S1                 0.0000
     27 ****        -1.8709   0.7627  -0.2877 H              1 S1                 0.0000
     28 ****        -3.3319   0.1689  -1.0704 H              1 S1                 0.0000
     29 ****         0.0773  -0.8793  -2.2000 H              1 S1                 0.0000
     30 ****        -0.1131  -3.3658  -2.0962 H              1 S1                 0.0000
     31 ****         0.2205  -3.3299  -0.3672 H              1 S1                 0.0000
     32 ****         1.4485  -2.8123  -1.5129 H              1 S1                 0.0000
     33 ****         1.0038  -1.3306   0.4361 H              1 S1                 0.0000
     34 ****         0.8168   1.0492  -1.2785 H              1 S1                 0.0000
     35 ****         3.3353   0.7626  -1.4946 H              1 S1                 0.0000
     36 ****         2.4541  -0.5968  -2.1612 H              1 S1                 0.0000
     37 ****         3.2188  -0.7384  -0.5821 H              1 S1                 0.0000
     38 ****         1.5038   3.3832   2.4813 H              1 S1                 0.0000
     39 ****         3.1651   3.4537   1.8838 H              1 S1                 0.0000
     40 ****         0.8487   5.2903   1.2693 H              1 S1                 0.0000
     41 ****         2.5387   5.7330   1.5057 H              1 S1                 0.0000
     42 ****         1.5180   5.5946  -1.0129 H              1 S1                 0.0000
     43 ****         3.1285   4.9564  -0.6839 H              1 S1                 0.0000
     44 ****         2.1898   2.9970  -1.5715 H              1 S1                 0.0000
     45 ****         0.5623   3.4032  -1.0098 H              1 S1                 0.0000
     46 ****        -2.7570  -3.9166  -0.7539 H              1 S1                 0.0000
     47 ****        -1.8457  -0.5508   1.5779 LP             1 S1                 0.0000
     48 ****        -0.2060  -0.2316   0.3874 LP             1 S1                 0.0000
     49 ****         1.9024  -0.2081   1.8174 LP             1 S1                 0.0000
     50 ****         2.1923   1.3425   2.5328 LP             1 S1                 0.0000
@<TRIPOS>BOND
    1    1    2 1     
    2    1   21 1     
    3    1   22 1     
    4    1   23 1     
    5    2   20 2     
    6    2    3 1     
    7    3    4 2     
    8    3   24 1     
    9    4    5 1     
   10    5    6 1     
   11    5   20 1     
   12    6    7 1     
   13    6    8 1     
   14    6   25 1     
   15    7   26 1     
   16    7   27 1     
   17    7   28 1     
   18    8    9 1     
   19    8   10 1     
   20    8   29 1     
   21    9   30 1     
   22    9   31 1     
   23    9   32 1     
   24   10   11 1     
   25   10   33 1     
   26   11   12 1     
   27   11   13 1     
   28   11   34 1     
   29   12   35 1     
   30   12   36 1     
   31   12   37 1     
   32   13   14 2     
   33   13   15 am    
   34   15   19 1     
   35   15   16 1     
   36   16   17 1     
   37   16   38 1     
   38   16   39 1     
   39   17   18 1     
   40   17   40 1     
   41   17   41 1     
   42   18   19 1     
   43   18   42 1     
   44   18   43 1     
   45   19   44 1     
   46   19   45 1     
   47   20   46 1     
   48    4   47 1     
   49   10   48 1     
   50   14   49 1     
   51   14   50 1     
@<TRIPOS>SUBSTRUCTURE
      1 S1             1
@<TRIPOS>SET
LONE_PAIRS      STATIC     ATOMS    <user>   **** ""
4 47 48 49 50
DONOR_HYDROGENS      STATIC     ATOMS    <user>   **** ""
1 33
ATOM$BLUE        STATIC     ATOMS    COLORGROUP SYSTEM
4 47 48 49 50
ATOM$RED        STATIC     ATOMS    COLORGROUP SYSTEM
1 33
