#       Name:                AV-unprocessed.smi:2281
#       Creating user name   scv26
#       Creation time:       Fri Mar 27 12:41:06 2020


#       File generated by GOLD software.
#

@<TRIPOS>MOLECULE
AV-unprocessed.smi:2281
    45    46     1
SMALL
NO_CHARGES


@<TRIPOS>ATOM
      1 ****        -2.5285   4.7055  -1.9502 C.3            1 S1                 0.0000
      2 ****        -1.9719   3.4722  -1.2611 C.2            1 S1                 0.0000
      3 ****        -1.1955   3.7138  -0.1247 N.2            1 S1                 0.0000
      4 ****        -0.6714   2.7237   0.5204 C.2            1 S1                 0.0000
      5 ****        -0.8507   1.3925   0.1082 N.am           1 S1                 0.0000
      6 ****        -0.2031   0.3618   0.9456 C.3            1 S1                 0.0000
      7 ****         1.2552  -0.0107   0.5346 C.3            1 S1                 0.0000
      8 ****         1.4946  -0.1043  -0.9887 C.3            1 S1                 0.0000
      9 ****         2.0763   1.0588   0.9714 O.3            1 S1                 0.0000
     10 ****         1.6476  -1.3330   1.2111 C.ar           1 S1                 0.0000
     11 ****         2.6173  -1.3861   2.2416 C.ar           1 S1                 0.0000
     12 ****         2.9516  -2.6118   2.8476 C.ar           1 S1                 0.0000
     13 ****         2.3228  -3.8001   2.4340 C.ar           1 S1                 0.0000
     14 ****         1.3563  -3.7706   1.4078 C.ar           1 S1                 0.0000
     15 ****         0.6677  -5.0557   0.9720 C.3            1 S1                 0.0000
     16 ****         0.2038  -4.9581  -0.2744 F              1 S1                 0.0000
     17 ****         1.5171  -6.0825   1.0209 F              1 S1                 0.0000
     18 ****        -0.3537  -5.3040   1.7909 F              1 S1                 0.0000
     19 ****         1.0223  -2.5367   0.8084 C.ar           1 S1                 0.0000
     20 ****        -1.6179   1.0684  -0.9747 C.2            1 S1                 0.0000
     21 ****        -1.7964  -0.1021  -1.3165 O.2            1 S1                 0.0000
     22 ****        -2.2021   2.2061  -1.7032 C.2            1 S1                 0.0000
     23 ****        -3.0370   1.8824  -2.9361 C.3            1 S1                 0.0000
     24 ****        -2.1788   4.7577  -2.9816 H              1 S1                 0.0000
     25 ****        -2.2143   5.6194  -1.4446 H              1 S1                 0.0000
     26 ****        -3.6185   4.6825  -1.9516 H              1 S1                 0.0000
     27 ****        -0.0617   2.8586   1.4155 H              1 S1                 0.0000
     28 ****        -0.2282   0.6479   1.9995 H              1 S1                 0.0000
     29 ****        -0.8257  -0.5336   0.9181 H              1 S1                 0.0000
     30 ****         0.8552  -0.8511  -1.4584 H              1 S1                 0.0000
     31 ****         2.5276  -0.3795  -1.2051 H              1 S1                 0.0000
     32 ****         1.3071   0.8455  -1.4905 H              1 S1                 0.0000
     33 ****         1.8234   1.8416   0.5068 H              1 S1                 0.0000
     34 ****         3.1175  -0.4938   2.5867 H              1 S1                 0.0000
     35 ****         3.6914  -2.6397   3.6340 H              1 S1                 0.0000
     36 ****         2.5828  -4.7339   2.9104 H              1 S1                 0.0000
     37 ****         0.2702  -2.5120   0.0338 H              1 S1                 0.0000
     38 ****        -2.4225   1.3791  -3.6832 H              1 S1                 0.0000
     39 ****        -3.4698   2.7642  -3.4057 H              1 S1                 0.0000
     40 ****        -3.8593   1.2173  -2.6704 H              1 S1                 0.0000
     41 ****        -1.0455   4.6514   0.1892 LP             1 S1                 0.0000
     42 ****         3.0348   0.8479   0.7796 LP             1 S1                 0.0000
     43 ****         1.9556   1.1966   1.9545 LP             1 S1                 0.0000
     44 ****        -1.3745  -0.8447  -0.7964 LP             1 S1                 0.0000
     45 ****        -2.3632  -0.3092  -2.1139 LP             1 S1                 0.0000
@<TRIPOS>BOND
    1    1    2 1     
    2    1   24 1     
    3    1   25 1     
    4    1   26 1     
    5    2   22 2     
    6    2    3 1     
    7    3    4 2     
    8    4    5 1     
    9    4   27 1     
   10    5    6 1     
   11    5   20 am    
   12    6    7 1     
   13    6   28 1     
   14    6   29 1     
   15    7    8 1     
   16    7    9 1     
   17    7   10 1     
   18    8   30 1     
   19    8   31 1     
   20    8   32 1     
   21    9   33 1     
   22   10   19 ar    
   23   10   11 ar    
   24   11   12 ar    
   25   11   34 1     
   26   12   13 ar    
   27   12   35 1     
   28   13   14 ar    
   29   13   36 1     
   30   14   15 1     
   31   14   19 ar    
   32   15   16 1     
   33   15   17 1     
   34   15   18 1     
   35   19   37 1     
   36   20   21 2     
   37   20   22 1     
   38   22   23 1     
   39   23   38 1     
   40   23   39 1     
   41   23   40 1     
   42    3   41 1     
   43    9   42 1     
   44    9   43 1     
   45   21   44 1     
   46   21   45 1     
@<TRIPOS>SUBSTRUCTURE
      1 S1             1
@<TRIPOS>SET
LONE_PAIRS      STATIC     ATOMS    <user>   **** ""
5 41 42 43 44 45
DONOR_HYDROGENS      STATIC     ATOMS    <user>   **** ""
1 33
ATOM$BLUE        STATIC     ATOMS    COLORGROUP SYSTEM
5 41 42 43 44 45
ATOM$RED        STATIC     ATOMS    COLORGROUP SYSTEM
1 33
