AV-unprocessed.smi:1041|AV-procd|sdf|4532|dock3
  -GOLD-   22720 2553D 1   1.00000     0.00000
 Structure written by MMmdl.
 52 53  0  0  0  0  0  0  0  0  1 V2000
  143.9385  132.1425  150.0786 C   0  0  0  0  0  0  0  0  0  0  0  0
  145.2397  132.6967  149.9982 O   0  0  0  0  0  0  0  0  0  0  0  0
  145.5415  133.5380  151.0995 C   0  0  0  0  0  0  0  0  0  0  0  0
  146.6172  132.8714  151.9729 C   0  0  0  0  0  0  0  0  0  0  0  0
  147.3813  133.7775  152.8312 N   0  0  0  0  0  0  0  0  0  0  0  0
  148.5080  133.0761  153.4456 C   0  0  0  0  0  0  0  0  0  0  0  0
  149.3905  134.0047  154.2953 C   0  0  0  0  0  0  0  0  0  0  0  0
  148.5640  134.6871  155.4003 C   0  0  0  0  0  0  0  0  0  0  0  0
  149.4334  135.6515  156.2316 C   0  0  0  0  0  0  0  0  0  0  0  0
  149.4733  136.9880  155.6474 N   0  0  0  0  0  0  0  0  0  0  0  0
  150.4769  137.4961  154.9152 C   0  0  0  0  0  0  0  0  0  0  0  0
  151.5080  136.8790  154.6508 O   0  0  0  0  0  0  0  0  0  0  0  0
  150.2766  138.9154  154.3811 C   0  0  0  0  0  0  0  0  0  0  0  0
  150.2776  140.0261  155.4306 C   0  0  0  0  0  0  0  0  0  0  0  0
  149.3182  140.9957  155.4856 C   0  0  0  0  0  0  0  0  0  0  0  0
  148.1599  141.0638  154.5054 C   0  0  0  0  0  0  0  0  0  0  0  0
  149.3432  141.9996  156.4638 N   0  0  0  0  0  0  0  0  0  0  0  0
  150.3017  141.9991  157.3307 C   0  0  0  0  0  0  0  0  0  0  0  0
  150.4429  143.0255  158.4348 C   0  0  0  0  0  0  0  0  0  0  0  0
  151.3129  141.0400  157.3284 N   0  0  0  0  0  0  0  0  0  0  0  0
  151.3718  140.0398  156.4211 C   0  0  0  0  0  0  0  0  0  0  0  0
  152.2957  139.2281  156.4502 O   0  0  0  0  0  0  0  0  0  0  0  0
  147.3410  135.3729  154.7561 C   0  0  0  0  0  0  0  0  0  0  0  0
  146.5538  134.3877  153.8751 C   0  0  0  0  0  0  0  0  0  0  0  0
  152.0386  141.0919  158.0284 H   0  0  0  0  0  0  0  0  0  0  0  0
  143.7579  131.5045  149.2135 H   0  0  0  0  0  0  0  0  0  0  0  0
  143.1771  132.9235  150.0857 H   0  0  0  0  0  0  0  0  0  0  0  0
  143.8236  131.5333  150.9759 H   0  0  0  0  0  0  0  0  0  0  0  0
  145.8665  134.5196  150.7536 H   0  0  0  0  0  0  0  0  0  0  0  0
  144.6419  133.6965  151.6961 H   0  0  0  0  0  0  0  0  0  0  0  0
  146.1559  132.0914  152.5803 H   0  0  0  0  0  0  0  0  0  0  0  0
  147.3058  132.3572  151.3012 H   0  0  0  0  0  0  0  0  0  0  0  0
  148.1409  132.2555  154.0642 H   0  0  0  0  0  0  0  0  0  0  0  0
  149.1256  132.6233  152.6689 H   0  0  0  0  0  0  0  0  0  0  0  0
  150.2076  133.4330  154.7365 H   0  0  0  0  0  0  0  0  0  0  0  0
  149.8494  134.7584  153.6537 H   0  0  0  0  0  0  0  0  0  0  0  0
  148.1969  133.9061  156.0688 H   0  0  0  0  0  0  0  0  0  0  0  0
  149.0149  135.7496  157.2335 H   0  0  0  0  0  0  0  0  0  0  0  0
  150.4372  135.2436  156.3620 H   0  0  0  0  0  0  0  0  0  0  0  0
  148.6640  137.5722  155.8017 H   0  0  0  0  0  0  0  0  0  0  0  0
  151.0591  139.1223  153.6505 H   0  0  0  0  0  0  0  0  0  0  0  0
  149.3523  138.9365  153.8027 H   0  0  0  0  0  0  0  0  0  0  0  0
  147.5365  140.1733  154.5854 H   0  0  0  0  0  0  0  0  0  0  0  0
  148.5270  141.1414  153.4818 H   0  0  0  0  0  0  0  0  0  0  0  0
  147.5280  141.9315  154.6986 H   0  0  0  0  0  0  0  0  0  0  0  0
  150.5092  144.0272  158.0093 H   0  0  0  0  0  0  0  0  0  0  0  0
  151.3364  142.8508  159.0359 H   0  0  0  0  0  0  0  0  0  0  0  0
  149.5755  142.9891  159.0942 H   0  0  0  0  0  0  0  0  0  0  0  0
  146.6793  135.7747  155.5232 H   0  0  0  0  0  0  0  0  0  0  0  0
  147.6672  136.2213  154.1524 H   0  0  0  0  0  0  0  0  0  0  0  0
  145.7218  134.9290  153.4267 H   0  0  0  0  0  0  0  0  0  0  0  0
  146.1148  133.6098  154.5018 H   0  0  0  0  0  0  0  0  0  0  0  0
  1  2  1  0  0  0  0
  1 26  1  0  0  0  0
  1 27  1  0  0  0  0
  1 28  1  0  0  0  0
  2  3  1  0  0  0  0
  3  4  1  0  0  0  0
  3 29  1  0  0  0  0
  3 30  1  0  0  0  0
  4  5  1  0  0  0  0
  4 31  1  0  0  0  0
  4 32  1  0  0  0  0
  5 24  1  0  0  0  0
  5  6  1  0  0  0  0
  6  7  1  0  0  0  0
  6 33  1  0  0  0  0
  6 34  1  0  0  0  0
  7  8  1  0  0  0  0
  7 35  1  0  0  0  0
  7 36  1  0  0  0  0
  8  9  1  0  0  0  0
  8 23  1  0  0  0  0
  8 37  1  0  0  0  0
  9 10  1  0  0  0  0
  9 38  1  0  0  0  0
  9 39  1  0  0  0  0
 10 11  1  0  0  0  0
 10 40  1  0  0  0  0
 11 12  2  0  0  0  0
 11 13  1  0  0  0  0
 13 14  1  0  0  0  0
 13 41  1  0  0  0  0
 13 42  1  0  0  0  0
 14 21  1  0  0  0  0
 14 15  2  0  0  0  0
 15 16  1  0  0  0  0
 15 17  1  0  0  0  0
 16 43  1  0  0  0  0
 16 44  1  0  0  0  0
 16 45  1  0  0  0  0
 17 18  2  0  0  0  0
 18 19  1  0  0  0  0
 18 20  1  0  0  0  0
 19 46  1  0  0  0  0
 19 47  1  0  0  0  0
 19 48  1  0  0  0  0
 20 25  1  0  0  0  0
 20 21  1  0  0  0  0
 21 22  2  0  0  0  0
 23 24  1  0  0  0  0
 23 49  1  0  0  0  0
 23 50  1  0  0  0  0
 24 51  1  0  0  0  0
 24 52  1  0  0  0  0
M  END
> <s_m_source_file>
AV-unprocessed.smi

> <i_m_source_file_index>
1041

> <i_lp_mmshare_version>
43012

> <i_f3d_flags>
0

> <s_epik_input>
W0NIM11PW0NIMl1bQ0gyXU4xW0NIMl1bQ0gyXVtDSF0oW0NIMl1bQ0gyXTEpW0NIMl1bTkhdQyg9TylbQ0gyXWMyYyhbQ0gzXSluYyhbQ0gzXSlbbkhdYzI9Tw==

> <s_epik_cmdline>
J2VwaWtfcHl0aG9uJywgJy1waCcsICc3LjAnLCAnLXRuJywgJzgnLCAnLW1hJywgJzIwMCcsICctbWV0YWxfYmluZGluZycsICctaW1hZScsICc8aW5maWxlLm1hZT4nLCAnLW9tYWUnLCAnPG91dGZpbGUubWFlPic=

> <r_lp_tautomer_probability>
0.839158

> <r_epik_Ionization_Penalty>
2.47116

> <r_epik_Ionization_Penalty_Charging>
0.00036358

> <r_epik_Ionization_Penalty_Neutral>
2.4708

> <r_epik_State_Penalty>
2.72392

> <r_epik_Charging_Adjusted_Penalty>
2.72428

> <i_epik_Tot_Q>
0

> <i_epik_Tot_abs_Q>
0

> <r_epik_Metal_State_Penalty>
2.89755

> <b_epik_Metal_Only>
0

> <s_lp_Force_Field>
OPLS_2005

> <r_lp_Energy>
27.3294

> <b_lp_Chiralities_Consistent>
1

> <s_lp_Variant>
AV-unprocessed.smi:1041-5

> <Gold.Version>
5.8.1

> <Gold.Id.Protein>
6NUR|6NUR_protein|mol2

> <Gold.PLP.Fitness>
44.6324

> <Gold.PLP.PLP>
-40.7316

> <Gold.PLP.part.hbond>
-1.7717

> <Gold.PLP.part.metal>
0.0000

> <Gold.PLP.part.buried>
-5.6365

> <Gold.PLP.part.nonpolar>
-34.5585

> <Gold.PLP.part.repulsive>
2.4437

> <Gold.PLP.ligand.clash>
0.0000

> <Gold.PLP.ligand.torsion>
1.1192

> <Gold.PLP.Chemscore.Hbond>
1.9913

> <Gold.PLP.Chemscore.CHOScore>
0.0000

> <Gold.PLP.Chemscore.Metal>
0.0000

> <Gold.Chemscore.Hbonds>
donor molecule, donor type, donor heavy atom, donor atom, acceptor molecule, acceptor atom, score
      P1  H  7997  8010       L1    22  0.47
      P1  H 10752 10763       L1    12  1.00

> <Gold.PLP.Chemscore.Internal.Correction>
0.1654

> <Gold.Rescore>
     Score         DG    S(hbond)    S(metal)    S(lipo)     H(rot)  DE(clash)    DE(int)     intcor
     13.89     -15.22       1.90        0.00      80.79       2.36       0.52       0.82       ----

> <Gold.Chemscore.Fitness>
13.8857

> <Gold.Chemscore.DG>
-15.2216

> <Gold.Chemscore.ZeroCoef>
-5.4800

> <Gold.Chemscore.Hbond>
1.8953

> <Gold.Chemscore.Metal>
0.0000

> <Gold.Chemscore.Lipo>
80.7901

> <Gold.Chemscore.Internal_Hbond>
0.0000

> <Gold.Chemscore.DEClash>
0.5198

> <Gold.Chemscore.DEInternal>
0.8161

> <Gold.Chemscore.Rot>
2.3598

> <Gold.Chemscore.Internal.Correction>
   9.000000E+99

> <Gold.Chemscore.Hbonds>
donor molecule, donor type, donor heavy atom, donor atom, acceptor molecule, acceptor atom, score
      P1  H  7997  8010       L1    22  0.41
      P1  H 10752 10763       L1    12  0.99

> <Gold.Chemscore.Hbond.Weighted>
-6.3302

> <Gold.Chemscore.Metal.Weighted>
-0.0000

> <Gold.Chemscore.Lipo.Weighted>
-9.4524

> <Gold.Chemscore.Internal_Hbond.Weighted>
0.0000

> <Gold.Chemscore.DEClash.Weighted>
0.5198

> <Gold.Chemscore.DEInternal.Weighted>
0.8161

> <Gold.Chemscore.Rot.Weighted>
6.0410

> <Gold.Chemscore.Internal.Correction.Weighted>
   9.000000E+99

> <Gold.Protein.RotatedTorsions>
[ 6907 6896 6895 6894 ] final  -21.77 input  -60.11 | X-H torsion
[ 7974 7965 7964 7962 ] final  -37.73 input  175.53 | X-H torsion
[ 8008 7997 7996 7995 ] final   82.65 input   59.86 | X-H torsion
[ 10167 10162 10161 10158 ] final  121.90 input  -65.29 | X-H torsion
[ 10718 10713 10712 10709 ] final  -50.10 input   66.30 | X-H torsion
[ 10763 10752 10751 10750 ] final   57.47 input  -60.55 | X-H torsion
[ 11005 11000 10999 10996 ] final  180.00 input  -57.11 | X-H torsion

> <Gold.Protein.ActiveResidues>
 VAL166  LYS551  ARG553  GLY616  TRP617  ASP618  TYR619  PRO620  LYS621  CYS622 
 ASP623  PHE694  ASN695  SER759  ASP760  ASP761  ALA762  ILE779  LEU786  VAL792 
 PHE793  MET794  SER795  GLU796  ALA797  LYS798  CYS799  TRP800  GLU811  SER814 

> <Gold.Protein.RotatedAtoms>
  151.2284  135.0545  159.8977 H   0  0  0  0  0  0  0  0  0  0  0  0  # atno 6907 bound_to 6896
  152.5407  134.0563  159.8143 H   0  0  0  0  0  0  0  0  0  0  0  0  # atno 6908 bound_to 6896
  151.0740  133.5395  159.2656 H   0  0  0  0  0  0  0  0  0  0  0  0  # atno 6909 bound_to 6896
  146.0549  140.6430  142.9024 H   0  0  0  0  0  0  0  0  0  0  0  0  # atno 7974 bound_to 7965
  155.9135  140.3426  155.6117 H   0  0  0  0  0  0  0  0  0  0  0  0  # atno 8008 bound_to 7997
  155.7359  140.0801  157.2286 H   0  0  0  0  0  0  0  0  0  0  0  0  # atno 8009 bound_to 7997
  154.4059  140.1579  156.2548 H   0  0  0  0  0  0  0  0  0  0  0  0  # atno 8010 bound_to 7997
  139.5891  144.7018  151.3335 H   0  0  0  0  0  0  0  0  0  0  0  0  # atno 10167 bound_to 10162
  156.1832  130.4151  149.9477 H   0  0  0  0  0  0  0  0  0  0  0  0  # atno 10718 bound_to 10713
  152.9850  135.5640  154.5396 H   0  0  0  0  0  0  0  0  0  0  0  0  # atno 10763 bound_to 10752
  154.4853  135.2790  155.1541 H   0  0  0  0  0  0  0  0  0  0  0  0  # atno 10764 bound_to 10752
  154.3033  135.6303  153.5487 H   0  0  0  0  0  0  0  0  0  0  0  0  # atno 10765 bound_to 10752
  140.4123  134.6680  157.4621 H   0  0  0  0  0  0  0  0  0  0  0  0  # atno 11005 bound_to 11000
  144.7142  140.4151  143.7057 LP  0  0  0  0  0  0  0  0  0  0  0  0  # atno 17320 bound_to 7965
  145.6661  139.1590  143.2781 LP  0  0  0  0  0  0  0  0  0  0  0  0  # atno 17321 bound_to 7965
  140.7157  143.7272  150.7651 LP  0  0  0  0  0  0  0  0  0  0  0  0  # atno 17342 bound_to 10162
  140.0823  143.4957  152.2523 LP  0  0  0  0  0  0  0  0  0  0  0  0  # atno 17343 bound_to 10162
  156.7241  130.9018  151.3620 LP  0  0  0  0  0  0  0  0  0  0  0  0  # atno 17370 bound_to 10713
  157.6881  130.9206  150.0441 LP  0  0  0  0  0  0  0  0  0  0  0  0  # atno 17371 bound_to 10713
  140.0258  134.6479  155.9174 LP  0  0  0  0  0  0  0  0  0  0  0  0  # atno 17394 bound_to 11000
  141.1816  133.6547  156.5044 LP  0  0  0  0  0  0  0  0  0  0  0  0  # atno 17395 bound_to 11000

$$$$
