AV-unprocessed.smi:153|AV-procd|sdf|1257|dock6
  -GOLD-   2262018503D 1   1.00000     0.00000
 Structure written by MMmdl.
 60 63  0  0  0  0  0  0  0  0  2 V2000
  152.9712  139.9089  158.6864 C   0  0  0  0  0  0  0  0  0  0  0  0
  152.2309  140.8930  159.6065 C   0  0  1  0  0  0  0  0  0  0  0  0
  153.0493  140.9882  160.7745 O   0  0  0  0  0  0  0  0  0  0  0  0
  153.2594  142.3449  161.1327 C   0  0  0  0  0  0  0  0  0  0  0  0
  153.1799  143.0858  159.8061 C   0  0  0  0  0  0  0  0  0  0  0  0
  152.0652  142.3464  159.0810 C   0  0  2  0  0  0  0  0  0  0  0  0
  150.8360  142.8518  159.5753 O   0  0  0  0  0  0  0  0  0  0  0  0
  152.0965  142.5857  157.5457 C   0  0  0  0  0  0  0  0  0  0  0  0
  150.9233  142.1288  156.8060 N   0  0  0  0  0  0  0  0  0  0  0  0
  149.6710  142.7023  156.7642 C   0  0  0  0  0  0  0  0  0  0  0  0
  148.8075  142.1003  155.9945 N   0  0  0  0  0  0  0  0  0  0  0  0
  149.5141  141.0396  155.4401 C   0  0  0  0  0  0  0  0  0  0  0  0
  149.1996  140.0016  154.5108 C   0  0  0  0  0  0  0  0  0  0  0  0
  147.9801  139.8199  153.9323 N   0  0  0  0  0  0  0  0  0  0  0  0
  147.1698  140.9800  153.5840 C   0  0  0  0  0  0  0  0  0  0  0  0
  147.6162  138.5111  153.3785 C   0  0  0  0  0  0  0  0  0  0  0  0
  146.6139  138.5795  152.2029 C   0  0  1  0  0  0  0  0  0  0  0  0
  147.3097  138.4039  150.9850 O   0  0  0  0  0  0  0  0  0  0  0  0
  145.4376  137.5832  152.2947 C   0  0  0  0  0  0  0  0  0  0  0  0
  144.2367  138.1740  152.9364 N   0  3  0  0  0  0  0  0  0  0  0  0
  142.9971  137.4272  152.6145 C   0  0  0  0  0  0  0  0  0  0  0  0
  141.7761  138.1092  153.2540 C   0  0  0  0  0  0  0  0  0  0  0  0
  141.9677  138.2104  154.6595 O   0  0  0  0  0  0  0  0  0  0  0  0
  143.1052  138.9992  154.9855 C   0  0  0  0  0  0  0  0  0  0  0  0
  144.3706  138.3460  154.4045 C   0  0  0  0  0  0  0  0  0  0  0  0
  150.2054  139.1533  154.1708 N   0  0  0  0  0  0  0  0  0  0  0  0
  151.4231  139.2905  154.7010 C   0  0  0  0  0  0  0  0  0  0  0  0
  151.8513  140.1991  155.5767 N   0  0  0  0  0  0  0  0  0  0  0  0
  150.8545  141.0624  155.9233 C   0  0  0  0  0  0  0  0  0  0  0  0
  152.3690  139.6276  157.8257 H   0  0  0  0  0  0  0  0  0  0  0  0
  153.2007  138.9858  159.2192 H   0  0  0  0  0  0  0  0  0  0  0  0
  153.9133  140.3244  158.3283 H   0  0  0  0  0  0  0  0  0  0  0  0
  151.2660  140.4617  159.8788 H   0  0  0  0  0  0  0  0  0  0  0  0
  152.4662  142.6677  161.8083 H   0  0  0  0  0  0  0  0  0  0  0  0
  154.2161  142.4825  161.6367 H   0  0  0  0  0  0  0  0  0  0  0  0
  152.9963  144.1546  159.9232 H   0  0  0  0  0  0  0  0  0  0  0  0
  154.1235  142.9661  159.2716 H   0  0  0  0  0  0  0  0  0  0  0  0
  150.7871  142.6686  160.5010 H   0  0  0  0  0  0  0  0  0  0  0  0
  152.2249  143.6487  157.3382 H   0  0  0  0  0  0  0  0  0  0  0  0
  152.9757  142.0981  157.1237 H   0  0  0  0  0  0  0  0  0  0  0  0
  149.4044  143.5902  157.3171 H   0  0  0  0  0  0  0  0  0  0  0  0
  147.1894  141.7242  154.3810 H   0  0  0  0  0  0  0  0  0  0  0  0
  146.1305  140.6886  153.4308 H   0  0  0  0  0  0  0  0  0  0  0  0
  147.5292  141.4402  152.6633 H   0  0  0  0  0  0  0  0  0  0  0  0
  148.5058  137.9744  153.0498 H   0  0  0  0  0  0  0  0  0  0  0  0
  147.2025  137.8951  154.1780 H   0  0  0  0  0  0  0  0  0  0  0  0
  146.2267  139.5976  152.1844 H   0  0  0  0  0  0  0  0  0  0  0  0
  148.1988  138.7040  151.1006 H   0  0  0  0  0  0  0  0  0  0  0  0
  145.1790  137.2553  151.2868 H   0  0  0  0  0  0  0  0  0  0  0  0
  145.7339  136.6870  152.8421 H   0  0  0  0  0  0  0  0  0  0  0  0
  142.8623  137.3795  151.5332 H   0  0  0  0  0  0  0  0  0  0  0  0
  143.0844  136.4002  152.9728 H   0  0  0  0  0  0  0  0  0  0  0  0
  141.6124  139.0988  152.8244 H   0  0  0  0  0  0  0  0  0  0  0  0
  140.8759  137.5255  153.0608 H   0  0  0  0  0  0  0  0  0  0  0  0
  142.9810  140.0147  154.6059 H   0  0  0  0  0  0  0  0  0  0  0  0
  143.1846  139.0724  156.0703 H   0  0  0  0  0  0  0  0  0  0  0  0
  144.5347  137.3750  154.8744 H   0  0  0  0  0  0  0  0  0  0  0  0
  145.2358  138.9644  154.6407 H   0  0  0  0  0  0  0  0  0  0  0  0
  152.1587  138.5683  154.3788 H   0  0  0  0  0  0  0  0  0  0  0  0
  144.1241  139.0952  152.5366 H   0  0  0  0  0  0  0  0  0  0  0  0
  1  2  1  0  0  0  0
  1 30  1  0  0  0  0
  1 31  1  0  0  0  0
  1 32  1  0  0  0  0
  2  6  1  0  0  0  0
  2  3  1  0  0  0  0
  2 33  1  0  0  0  0
  3  4  1  0  0  0  0
  4  5  1  0  0  0  0
  4 34  1  0  0  0  0
  4 35  1  0  0  0  0
  5  6  1  0  0  0  0
  5 36  1  0  0  0  0
  5 37  1  0  0  0  0
  6  7  1  0  0  0  0
  6  8  1  0  0  0  0
  7 38  1  0  0  0  0
  8  9  1  0  0  0  0
  8 39  1  0  0  0  0
  8 40  1  0  0  0  0
  9 29  1  0  0  0  0
  9 10  1  0  0  0  0
 10 11  2  0  0  0  0
 10 41  1  0  0  0  0
 11 12  1  0  0  0  0
 12 29  2  0  0  0  0
 12 13  1  0  0  0  0
 13 14  1  0  0  0  0
 13 26  2  0  0  0  0
 14 15  1  0  0  0  0
 14 16  1  0  0  0  0
 15 42  1  0  0  0  0
 15 43  1  0  0  0  0
 15 44  1  0  0  0  0
 16 17  1  0  0  0  0
 16 45  1  0  0  0  0
 16 46  1  0  0  0  0
 17 18  1  0  0  0  0
 17 19  1  0  0  0  0
 17 47  1  0  0  0  0
 18 48  1  0  0  0  0
 19 20  1  0  0  0  0
 19 49  1  0  0  0  0
 19 50  1  0  0  0  0
 20 25  1  0  0  0  0
 20 21  1  0  0  0  0
 20 60  1  0  0  0  0
 21 22  1  0  0  0  0
 21 51  1  0  0  0  0
 21 52  1  0  0  0  0
 22 23  1  0  0  0  0
 22 53  1  0  0  0  0
 22 54  1  0  0  0  0
 23 24  1  0  0  0  0
 24 25  1  0  0  0  0
 24 55  1  0  0  0  0
 24 56  1  0  0  0  0
 25 57  1  0  0  0  0
 25 58  1  0  0  0  0
 26 27  1  0  0  0  0
 27 28  2  0  0  0  0
 27 59  1  0  0  0  0
 28 29  1  0  0  0  0
M  CHG  1  20   1
M  END
> <s_m_source_file>
AV-unprocessed.smi

> <i_m_source_file_index>
153

> <i_lp_mmshare_version>
43012

> <i_f3d_flags>
0

> <s_epik_input>
W0NIMl0xW0NIMl1PW0NAQEhdKFtDSDNdKVtDQEBdMShbT0hdKVtDSDJdbihbY0hdbjIpYyhjMjMpbltjSF1uYzNOKFtDSDNdKVtDSDJdW0NASF0oW09IXSlbQ0gyXU40W0NIMl1bQ0gyXU9bQ0gyXVtDSDJdNA==

> <s_epik_cmdline>
J2VwaWtfcHl0aG9uJywgJy1waCcsICc3LjAnLCAnLXRuJywgJzgnLCAnLW1hJywgJzIwMCcsICctbWV0YWxfYmluZGluZycsICctaW1hZScsICc8aW5maWxlLm1hZT4nLCAnLW9tYWUnLCAnPG91dGZpbGUubWFlPic=

> <r_lp_tautomer_probability>
1

> <r_epik_Ionization_Penalty>
0.403509

> <r_epik_Ionization_Penalty_Charging>
0.40072

> <r_epik_Ionization_Penalty_Neutral>
0.00278876

> <r_epik_State_Penalty>
0.400058

> <r_epik_Charging_Adjusted_Penalty>
0.800778

> <i_epik_Tot_Q>
1

> <i_epik_Tot_abs_Q>
1

> <r_epik_Metal_State_Penalty>
0.400321

> <b_epik_Metal_Only>
0

> <s_lp_Force_Field>
OPLS_2005

> <r_lp_Energy>
51.1355

> <b_lp_Chiralities_Consistent>
1

> <s_lp_Variant>
AV-unprocessed.smi:153-8

> <Gold.Version>
5.8.1

> <Gold.Id.Protein>
6NUR|6NUR_protein|mol2

> <Gold.PLP.Fitness>
48.8597

> <Gold.PLP.PLP>
-42.7068

> <Gold.PLP.part.hbond>
-6.0151

> <Gold.PLP.part.metal>
0.0000

> <Gold.PLP.part.buried>
-0.9336

> <Gold.PLP.part.nonpolar>
-38.6809

> <Gold.PLP.part.repulsive>
2.3512

> <Gold.PLP.ligand.clash>
0.0000

> <Gold.PLP.ligand.torsion>
2.1095

> <Gold.PLP.Chemscore.Hbond>
3.0000

> <Gold.PLP.Chemscore.CHOScore>
0.2673

> <Gold.PLP.Chemscore.Metal>
0.0000

> <Gold.Chemscore.Hbonds>
donor molecule, donor type, donor heavy atom, donor atom, acceptor molecule, acceptor atom, score
      L1  H    18    48       P1  7957  0.80
      L1  H    20    60       P1 10175  1.46
      L1  C    10    41       P1  8028  0.34

> <Gold.PLP.Chemscore.Internal.Correction>
0.5701

> <Gold.Rescore>
     Score         DG    S(hbond)    S(metal)    S(lipo)     H(rot)  DE(clash)    DE(int)     intcor
      8.19     -13.29       1.92        0.00      91.07       3.62       1.43       3.67       ----

> <Gold.Chemscore.Fitness>
8.1879

> <Gold.Chemscore.DG>
-13.2932

> <Gold.Chemscore.ZeroCoef>
-5.4800

> <Gold.Chemscore.Hbond>
1.9222

> <Gold.Chemscore.Metal>
0.0000

> <Gold.Chemscore.Lipo>
91.0731

> <Gold.Chemscore.Internal_Hbond>
0.0000

> <Gold.Chemscore.DEClash>
1.4310

> <Gold.Chemscore.DEInternal>
3.6743

> <Gold.Chemscore.Rot>
3.6182

> <Gold.Chemscore.Internal.Correction>
   9.000000E+99

> <Gold.Chemscore.Hbonds>
donor molecule, donor type, donor heavy atom, donor atom, acceptor molecule, acceptor atom, score
      L1  H    18    48       P1  7957  0.12
      L1  H    20    60       P1 10175  0.72

> <Gold.Chemscore.Hbond.Weighted>
-6.4201

> <Gold.Chemscore.Metal.Weighted>
-0.0000

> <Gold.Chemscore.Lipo.Weighted>
-10.6556

> <Gold.Chemscore.Internal_Hbond.Weighted>
0.0000

> <Gold.Chemscore.DEClash.Weighted>
1.4310

> <Gold.Chemscore.DEInternal.Weighted>
3.6743

> <Gold.Chemscore.Rot.Weighted>
9.2625

> <Gold.Chemscore.Internal.Correction.Weighted>
   9.000000E+99

> <Gold.Protein.RotatedTorsions>
[ 6907 6896 6895 6894 ] final  130.35 input  -60.11 | X-H torsion
[ 7974 7965 7964 7962 ] final  171.28 input  175.53 | X-H torsion
[ 8008 7997 7996 7995 ] final -137.05 input   59.86 | X-H torsion
[ 10167 10162 10161 10158 ] final  101.65 input  -65.29 | X-H torsion
[ 10718 10713 10712 10709 ] final   93.72 input   66.30 | X-H torsion
[ 10763 10752 10751 10750 ] final -106.05 input  -60.55 | X-H torsion
[ 11005 11000 10999 10996 ] final   16.10 input  -57.11 | X-H torsion

> <Gold.Protein.ActiveResidues>
 VAL166  LYS551  ARG553  GLY616  TRP617  ASP618  TYR619  PRO620  LYS621  CYS622 
 ASP623  PHE694  ASN695  SER759  ASP760  ASP761  ALA762  ILE779  LEU786  VAL792 
 PHE793  MET794  SER795  GLU796  ALA797  LYS798  CYS799  TRP800  GLU811  SER814 

> <Gold.Protein.RotatedAtoms>
  152.3534  133.6208  159.5961 H   0  0  0  0  0  0  0  0  0  0  0  0  # atno 6907 bound_to 6896
  150.7553  133.9538  159.3503 H   0  0  0  0  0  0  0  0  0  0  0  0  # atno 6908 bound_to 6896
  151.7386  135.0860  160.0363 H   0  0  0  0  0  0  0  0  0  0  0  0  # atno 6909 bound_to 6896
  144.7299  139.9327  143.6425 H   0  0  0  0  0  0  0  0  0  0  0  0  # atno 7974 bound_to 7965
  155.4054  140.0508  157.3034 H   0  0  0  0  0  0  0  0  0  0  0  0  # atno 8008 bound_to 7997
  154.4971  140.2142  155.9384 H   0  0  0  0  0  0  0  0  0  0  0  0  # atno 8009 bound_to 7997
  156.1420  140.3152  155.8515 H   0  0  0  0  0  0  0  0  0  0  0  0  # atno 8010 bound_to 7997
  139.7419  144.7009  151.0563 H   0  0  0  0  0  0  0  0  0  0  0  0  # atno 10167 bound_to 10162
  157.6953  131.0488  150.4077 H   0  0  0  0  0  0  0  0  0  0  0  0  # atno 10718 bound_to 10713
  154.7987  135.4726  154.0223 H   0  0  0  0  0  0  0  0  0  0  0  0  # atno 10763 bound_to 10752
  153.1745  135.6830  153.8568 H   0  0  0  0  0  0  0  0  0  0  0  0  # atno 10764 bound_to 10752
  153.8139  135.3213  155.3381 H   0  0  0  0  0  0  0  0  0  0  0  0  # atno 10765 bound_to 10752
  140.4509  134.1225  155.7702 H   0  0  0  0  0  0  0  0  0  0  0  0  # atno 11005 bound_to 11000
  146.0845  139.3833  143.0444 LP  0  0  0  0  0  0  0  0  0  0  0  0  # atno 17320 bound_to 7965
  145.7795  140.9862  143.1107 LP  0  0  0  0  0  0  0  0  0  0  0  0  # atno 17321 bound_to 7965
  140.7787  143.4914  150.9888 LP  0  0  0  0  0  0  0  0  0  0  0  0  # atno 17342 bound_to 10162
  139.8602  143.7324  152.3174 LP  0  0  0  0  0  0  0  0  0  0  0  0  # atno 17343 bound_to 10162
  156.4465  130.4002  149.6664 LP  0  0  0  0  0  0  0  0  0  0  0  0  # atno 17370 bound_to 10713
  156.3828  130.7588  151.2582 LP  0  0  0  0  0  0  0  0  0  0  0  0  # atno 17371 bound_to 10713
  141.1664  133.8694  157.1700 LP  0  0  0  0  0  0  0  0  0  0  0  0  # atno 17394 bound_to 11000
  140.0008  135.0029  157.0184 LP  0  0  0  0  0  0  0  0  0  0  0  0  # atno 17395 bound_to 11000

$$$$
