#       Name:                AV-unprocessed.smi:184
#       Creating user name   scv26
#       Creation time:       Thu Mar 26 19:27:17 2020


#       File generated by GOLD software.
#

@<TRIPOS>MOLECULE
AV-unprocessed.smi:184
    64    68     1
SMALL
NO_CHARGES


@<TRIPOS>ATOM
      1 ****        -4.9706  -0.4482  -3.4267 O.2            1 S1                 0.0000
      2 ****        -4.4571  -0.3306  -2.3165 C.2            1 S1                 0.0000
      3 ****        -2.9279  -0.1962  -2.1995 C.3            1 S1                 0.0000
      4 ****        -2.4115  -0.0213  -0.8312 N.3            1 S1                 0.0000
      5 ****        -1.1296   0.4167  -0.8544 C.ar           1 S1                 0.0000
      6 ****        -0.8596   1.7425  -0.7215 N.ar           1 S1                 0.0000
      7 ****         0.4038   2.1755  -0.7670 C.ar           1 S1                 0.0000
      8 ****         1.5227   1.4687  -0.9411 N.ar           1 S1                 0.0000
      9 ****         1.2532   0.1396  -1.0860 C.ar           1 S1                 0.0000
     10 ****        -0.0350  -0.4644  -1.0612 C.ar           1 S1                 0.0000
     11 ****         0.0772  -1.8359  -1.2479 N.2            1 S1                 0.0000
     12 ****         1.3615  -2.0325  -1.3743 C.2            1 S1                 0.0000
     13 ****         2.1435  -0.9024  -1.2799 N.pl3          1 S1                 0.0000
     14 ****         3.5945  -0.8352  -1.3816 C.3            1 S1                 0.0000
     15 ****         4.3399  -1.1917  -0.0662 C.3            1 S1                 0.0000
     16 ****         4.0283  -2.5361   0.2500 O.3            1 S1                 0.0000
     17 ****         5.8703  -1.1067  -0.2342 C.3            1 S1                 0.0000
     18 ****         6.3600   0.3525  -0.2605 C.3            1 S1                 0.0000
     19 ****         5.9303   1.0330   0.9138 O.3            1 S1                 0.0000
     20 ****         4.5135   1.0978   1.0344 C.3            1 S1                 0.0000
     21 ****         3.9326  -0.3229   1.1434 C.3            1 S1                 0.0000
     22 ****        -3.3161   0.5525   0.1729 C.3            1 S1                 0.0000
     23 ****        -2.7487   0.5283   1.6143 C.3            1 S1                 0.0000
     24 ****        -3.7507   1.1294   2.6152 C.3            1 S1                 0.0000
     25 ****        -5.1106   0.4158   2.5539 C.3            1 S1                 0.0000
     26 ****        -5.6697   0.3976   1.1221 C.3            1 S1                 0.0000
     27 ****        -4.6523  -0.2227   0.1490 C.3            1 S1                 0.0000
     28 ****        -5.2003  -0.2972  -1.1994 N.am           1 S1                 0.0000
     29 ****        -2.4776  -1.0896  -2.6342 H              1 S1                 0.0000
     30 ****        -2.6247   0.6458  -2.8252 H              1 S1                 0.0000
     31 ****         0.5372   3.2406  -0.6487 H              1 S1                 0.0000
     32 ****         1.7784  -3.0163  -1.5349 H              1 S1                 0.0000
     33 ****         3.9056  -1.5082  -2.1820 H              1 S1                 0.0000
     34 ****         3.8613   0.1665  -1.7175 H              1 S1                 0.0000
     35 ****         4.4799  -2.7689   1.0469 H              1 S1                 0.0000
     36 ****         6.3603  -1.6136   0.5987 H              1 S1                 0.0000
     37 ****         6.1887  -1.6281  -1.1376 H              1 S1                 0.0000
     38 ****         7.4492   0.3765  -0.2975 H              1 S1                 0.0000
     39 ****         6.0059   0.8767  -1.1489 H              1 S1                 0.0000
     40 ****         4.2645   1.6706   1.9277 H              1 S1                 0.0000
     41 ****         4.0912   1.6380   0.1870 H              1 S1                 0.0000
     42 ****         2.8497  -0.2833   1.2610 H              1 S1                 0.0000
     43 ****         4.3150  -0.7736   2.0606 H              1 S1                 0.0000
     44 ****        -3.5107   1.5900  -0.1075 H              1 S1                 0.0000
     45 ****        -2.5127  -0.4976   1.9010 H              1 S1                 0.0000
     46 ****        -1.8161   1.0871   1.6849 H              1 S1                 0.0000
     47 ****        -3.3465   1.0702   3.6263 H              1 S1                 0.0000
     48 ****        -3.8866   2.1900   2.3993 H              1 S1                 0.0000
     49 ****        -4.9997  -0.6079   2.9136 H              1 S1                 0.0000
     50 ****        -5.8181   0.9037   3.2251 H              1 S1                 0.0000
     51 ****        -6.6038  -0.1651   1.1010 H              1 S1                 0.0000
     52 ****        -5.9121   1.4142   0.8090 H              1 S1                 0.0000
     53 ****        -4.4656  -1.2526   0.4595 H              1 S1                 0.0000
     54 ****        -6.2035  -0.3688  -1.2894 H              1 S1                 0.0000
     55 ****        -5.9642  -0.5217  -3.5128 LP             1 S1                 0.0000
     56 ****        -4.3949  -0.4705  -4.2440 LP             1 S1                 0.0000
     57 ****        -2.3799  -0.9360  -0.4283 LP             1 S1                 0.0000
     58 ****        -1.6068   2.3939  -0.5896 LP             1 S1                 0.0000
     59 ****         2.4413   1.8633  -0.9625 LP             1 S1                 0.0000
     60 ****        -0.6559  -2.5154  -1.2784 LP             1 S1                 0.0000
     61 ****         4.3254  -3.1352  -0.4935 LP             1 S1                 0.0000
     62 ****         3.0416  -2.6319   0.3811 LP             1 S1                 0.0000
     63 ****         6.2908   1.9654   0.8913 LP             1 S1                 0.0000
     64 ****         6.2960   0.5534   1.7115 LP             1 S1                 0.0000
@<TRIPOS>BOND
    1    1    2 2     
    2    2   28 am    
    3    2    3 1     
    4    3    4 1     
    5    3   29 1     
    6    3   30 1     
    7    4    5 1     
    8    4   22 1     
    9    5   10 ar    
   10    5    6 ar    
   11    6    7 ar    
   12    7    8 ar    
   13    7   31 1     
   14    8    9 ar    
   15    9   13 1     
   16    9   10 ar    
   17   10   11 1     
   18   11   12 2     
   19   12   13 1     
   20   12   32 1     
   21   13   14 1     
   22   14   15 1     
   23   14   33 1     
   24   14   34 1     
   25   15   21 1     
   26   15   16 1     
   27   15   17 1     
   28   16   35 1     
   29   17   18 1     
   30   17   36 1     
   31   17   37 1     
   32   18   19 1     
   33   18   38 1     
   34   18   39 1     
   35   19   20 1     
   36   20   21 1     
   37   20   40 1     
   38   20   41 1     
   39   21   42 1     
   40   21   43 1     
   41   22   27 1     
   42   22   23 1     
   43   22   44 1     
   44   23   24 1     
   45   23   45 1     
   46   23   46 1     
   47   24   25 1     
   48   24   47 1     
   49   24   48 1     
   50   25   26 1     
   51   25   49 1     
   52   25   50 1     
   53   26   27 1     
   54   26   51 1     
   55   26   52 1     
   56   27   28 1     
   57   27   53 1     
   58   28   54 1     
   59    1   55 1     
   60    1   56 1     
   61    4   57 1     
   62    6   58 1     
   63    8   59 1     
   64   11   60 1     
   65   16   61 1     
   66   16   62 1     
   67   19   63 1     
   68   19   64 1     
@<TRIPOS>SUBSTRUCTURE
      1 S1             1
@<TRIPOS>SET
LONE_PAIRS      STATIC     ATOMS    <user>   **** ""
10 55 56 57 58 59 60 61 62 63 64
DONOR_HYDROGENS      STATIC     ATOMS    <user>   **** ""
2 35 54
ATOM$BLUE        STATIC     ATOMS    COLORGROUP SYSTEM
10 55 56 57 58 59 60 61 62 63 64
ATOM$RED        STATIC     ATOMS    COLORGROUP SYSTEM
2 35 54
