AV-unprocessed.smi:3230|AV-procd|sdf|12329|dock8
  -GOLD-   2272018183D 1   1.00000     0.00000
 Structure written by MMmdl.
 40 40  0  0  0  0  0  0  0  0  1 V2000
  146.3146  142.2404  155.3427 C   0  0  0  0  0  0  0  0  0  0  0  0
  146.9076  141.9410  153.9575 C   0  0  0  0  0  0  0  0  0  0  0  0
  148.0572  140.8999  153.9623 C   0  0  0  0  0  0  0  0  0  0  0  0
  147.5746  139.5195  154.4765 C   0  0  0  0  0  0  0  0  0  0  0  0
  146.5606  138.8146  153.5628 C   0  0  0  0  0  0  0  0  0  0  0  0
  149.3136  141.4063  154.7259 C   0  0  2  0  0  0  0  0  0  0  0  0
  150.3917  140.5181  154.5002 O   0  0  0  0  0  0  0  0  0  0  0  0
  149.0940  141.5398  156.2504 C   0  0  0  0  0  0  0  0  0  0  0  0
  149.9969  142.5148  156.8540 N   0  0  0  0  0  0  0  0  0  0  0  0
  150.6069  142.3730  158.0413 C   0  0  0  0  0  0  0  0  0  0  0  0
  150.4525  141.3918  158.7690 O   0  0  0  0  0  0  0  0  0  0  0  0
  151.5326  143.5099  158.4763 C   0  0  0  0  0  0  0  0  0  0  0  0
  152.2421  143.1399  159.7503 C   0  0  0  0  0  0  0  0  0  0  0  0
  152.0480  143.6724  161.0553 C   0  0  0  0  0  0  0  0  0  0  0  0
  152.9432  142.9833  161.8224 C   0  0  0  0  0  0  0  0  0  0  0  0
  153.2778  143.0203  163.2742 C   0  0  0  0  0  0  0  0  0  0  0  0
  153.6366  142.1021  161.0566 O   0  0  0  0  0  0  0  0  0  0  0  0
  153.1856  142.2109  159.7364 N   0  0  0  0  0  0  0  0  0  0  0  0
  145.4490  142.8971  155.2533 H   0  0  0  0  0  0  0  0  0  0  0  0
  147.0289  142.7390  155.9968 H   0  0  0  0  0  0  0  0  0  0  0  0
  145.9839  141.3262  155.8364 H   0  0  0  0  0  0  0  0  0  0  0  0
  146.0884  141.5844  153.3346 H   0  0  0  0  0  0  0  0  0  0  0  0
  147.2460  142.8709  153.4991 H   0  0  0  0  0  0  0  0  0  0  0  0
  148.3603  140.7592  152.9237 H   0  0  0  0  0  0  0  0  0  0  0  0
  148.4269  138.8625  154.6525 H   0  0  0  0  0  0  0  0  0  0  0  0
  147.0925  139.6396  155.4454 H   0  0  0  0  0  0  0  0  0  0  0  0
  146.1703  137.9187  154.0457 H   0  0  0  0  0  0  0  0  0  0  0  0
  147.0068  138.5011  152.6196 H   0  0  0  0  0  0  0  0  0  0  0  0
  145.7137  139.4635  153.3382 H   0  0  0  0  0  0  0  0  0  0  0  0
  149.5950  142.3808  154.3301 H   0  0  0  0  0  0  0  0  0  0  0  0
  150.0397  139.6545  154.3471 H   0  0  0  0  0  0  0  0  0  0  0  0
  148.0687  141.8509  156.4571 H   0  0  0  0  0  0  0  0  0  0  0  0
  149.2262  140.5819  156.7542 H   0  0  0  0  0  0  0  0  0  0  0  0
  150.1780  143.3549  156.3236 H   0  0  0  0  0  0  0  0  0  0  0  0
  152.2475  143.7383  157.6841 H   0  0  0  0  0  0  0  0  0  0  0  0
  150.9374  144.4116  158.6232 H   0  0  0  0  0  0  0  0  0  0  0  0
  151.3561  144.4367  161.3769 H   0  0  0  0  0  0  0  0  0  0  0  0
  152.8142  143.8798  163.7584 H   0  0  0  0  0  0  0  0  0  0  0  0
  154.3556  143.0902  163.4223 H   0  0  0  0  0  0  0  0  0  0  0  0
  152.9241  142.1184  163.7741 H   0  0  0  0  0  0  0  0  0  0  0  0
  1  2  1  0  0  0  0
  1 19  1  0  0  0  0
  1 20  1  0  0  0  0
  1 21  1  0  0  0  0
  2  3  1  0  0  0  0
  2 22  1  0  0  0  0
  2 23  1  0  0  0  0
  3  4  1  0  0  0  0
  3  6  1  0  0  0  0
  3 24  1  0  0  0  0
  4  5  1  0  0  0  0
  4 25  1  0  0  0  0
  4 26  1  0  0  0  0
  5 27  1  0  0  0  0
  5 28  1  0  0  0  0
  5 29  1  0  0  0  0
  6  7  1  0  0  0  0
  6  8  1  0  0  0  0
  6 30  1  0  0  0  0
  7 31  1  0  0  0  0
  8  9  1  0  0  0  0
  8 32  1  0  0  0  0
  8 33  1  0  0  0  0
  9 10  1  0  0  0  0
  9 34  1  0  0  0  0
 10 11  2  0  0  0  0
 10 12  1  0  0  0  0
 12 13  1  0  0  0  0
 12 35  1  0  0  0  0
 12 36  1  0  0  0  0
 13 18  2  0  0  0  0
 13 14  1  0  0  0  0
 14 15  2  0  0  0  0
 14 37  1  0  0  0  0
 15 16  1  0  0  0  0
 15 17  1  0  0  0  0
 16 38  1  0  0  0  0
 16 39  1  0  0  0  0
 16 40  1  0  0  0  0
 17 18  1  0  0  0  0
M  END
> <s_m_source_file>
AV-unprocessed.smi

> <i_m_source_file_index>
3230

> <i_lp_mmshare_version>
43012

> <i_f3d_flags>
0

> <s_epik_input>
W0NIM11bQ0gyXVtDSF0oW0NIMl1bQ0gzXSlbQ0BIXShbT0hdKVtDSDJdW05IXUMoPU8pW0NIMl1jMVtjSF1jKFtDSDNdKW9uMQ==

> <s_epik_cmdline>
J2VwaWtfcHl0aG9uJywgJy1waCcsICc3LjAnLCAnLXRuJywgJzgnLCAnLW1hJywgJzIwMCcsICctbWV0YWxfYmluZGluZycsICctaW1hZScsICc8aW5maWxlLm1hZT4nLCAnLW9tYWUnLCAnPG91dGZpbGUubWFlPic=

> <r_lp_tautomer_probability>
1

> <r_epik_Ionization_Penalty>
2.40054e-07

> <r_epik_Ionization_Penalty_Charging>
0

> <r_epik_Ionization_Penalty_Neutral>
2.40054e-07

> <r_epik_State_Penalty>
-0

> <r_epik_Charging_Adjusted_Penalty>
0

> <i_epik_Tot_Q>
0

> <i_epik_Tot_abs_Q>
0

> <r_epik_Metal_State_Penalty>
-0

> <b_epik_Metal_Only>
0

> <s_lp_Force_Field>
OPLS_2005

> <r_lp_Energy>
9.05643

> <b_lp_Chiralities_Consistent>
1

> <s_lp_Variant>
AV-unprocessed.smi:3230-1

> <Gold.Version>
5.8.1

> <Gold.Id.Protein>
6NUR|6NUR_protein|mol2

> <Gold.PLP.Fitness>
43.7875

> <Gold.PLP.PLP>
-40.3583

> <Gold.PLP.part.hbond>
-2.0742

> <Gold.PLP.part.metal>
0.0000

> <Gold.PLP.part.buried>
-6.7044

> <Gold.PLP.part.nonpolar>
-30.9424

> <Gold.PLP.part.repulsive>
0.0374

> <Gold.PLP.ligand.clash>
0.0000

> <Gold.PLP.ligand.torsion>
0.6530

> <Gold.PLP.Chemscore.Hbond>
1.4976

> <Gold.PLP.Chemscore.CHOScore>
0.0000

> <Gold.PLP.Chemscore.Metal>
0.0000

> <Gold.Chemscore.Hbonds>
donor molecule, donor type, donor heavy atom, donor atom, acceptor molecule, acceptor atom, score
      L1  H     9    34       P1  8028  0.59
      P1  H  7989  7998       L1     7  0.96

> <Gold.PLP.Chemscore.Internal.Correction>
0.2426

> <Gold.Rescore>
     Score         DG    S(hbond)    S(metal)    S(lipo)     H(rot)  DE(clash)    DE(int)     intcor
     14.95     -15.86       1.64        0.00      98.14       2.57       0.02       0.89       ----

> <Gold.Chemscore.Fitness>
14.9518

> <Gold.Chemscore.DG>
-15.8561

> <Gold.Chemscore.ZeroCoef>
-5.4800

> <Gold.Chemscore.Hbond>
1.6397

> <Gold.Chemscore.Metal>
0.0000

> <Gold.Chemscore.Lipo>
98.1411

> <Gold.Chemscore.Internal_Hbond>
0.0000

> <Gold.Chemscore.DEClash>
0.0163

> <Gold.Chemscore.DEInternal>
0.8880

> <Gold.Chemscore.Rot>
2.5715

> <Gold.Chemscore.Internal.Correction>
   9.000000E+99

> <Gold.Chemscore.Hbonds>
donor molecule, donor type, donor heavy atom, donor atom, acceptor molecule, acceptor atom, score
      L1  H     9    34       P1  8028  0.58
      P1  H  7989  7998       L1     7  0.77

> <Gold.Chemscore.Hbond.Weighted>
-5.4767

> <Gold.Chemscore.Metal.Weighted>
-0.0000

> <Gold.Chemscore.Lipo.Weighted>
-11.4825

> <Gold.Chemscore.Internal_Hbond.Weighted>
0.0000

> <Gold.Chemscore.DEClash.Weighted>
0.0163

> <Gold.Chemscore.DEInternal.Weighted>
0.8880

> <Gold.Chemscore.Rot.Weighted>
6.5831

> <Gold.Chemscore.Internal.Correction.Weighted>
   9.000000E+99

> <Gold.Protein.RotatedTorsions>
[ 6907 6896 6895 6894 ] final -113.06 input  -60.11 | X-H torsion
[ 7974 7965 7964 7962 ] final   25.07 input  175.53 | X-H torsion
[ 8008 7997 7996 7995 ] final  127.74 input   59.86 | X-H torsion
[ 10167 10162 10161 10158 ] final  137.43 input  -65.29 | X-H torsion
[ 10718 10713 10712 10709 ] final -139.30 input   66.30 | X-H torsion
[ 10763 10752 10751 10750 ] final   30.82 input  -60.55 | X-H torsion
[ 11005 11000 10999 10996 ] final  164.93 input  -57.11 | X-H torsion

> <Gold.Protein.ActiveResidues>
 VAL166  LYS551  ARG553  GLY616  TRP617  ASP618  TYR619  PRO620  LYS621  CYS622 
 ASP623  PHE694  ASN695  SER759  ASP760  ASP761  ALA762  ILE779  LEU786  VAL792 
 PHE793  MET794  SER795  GLU796  ALA797  LYS798  CYS799  TRP800  GLU811  SER814 

> <Gold.Protein.RotatedAtoms>
  150.7802  133.9000  159.3338 H   0  0  0  0  0  0  0  0  0  0  0  0  # atno 6907 bound_to 6896
  151.6865  135.0951  160.0235 H   0  0  0  0  0  0  0  0  0  0  0  0  # atno 6908 bound_to 6896
  152.3851  133.6561  159.6227 H   0  0  0  0  0  0  0  0  0  0  0  0  # atno 6909 bound_to 6896
  146.1907  139.7517  142.8834 H   0  0  0  0  0  0  0  0  0  0  0  0  # atno 7974 bound_to 7965
  156.2898  140.2661  156.2322 H   0  0  0  0  0  0  0  0  0  0  0  0  # atno 8008 bound_to 7997
  155.0060  140.0387  157.2398 H   0  0  0  0  0  0  0  0  0  0  0  0  # atno 8009 bound_to 7997
  154.7559  140.2752  155.6259 H   0  0  0  0  0  0  0  0  0  0  0  0  # atno 8010 bound_to 7997
  139.5145  144.6410  151.5568 H   0  0  0  0  0  0  0  0  0  0  0  0  # atno 10167 bound_to 10162
  156.3092  130.7472  151.1544 H   0  0  0  0  0  0  0  0  0  0  0  0  # atno 10718 bound_to 10713
  153.0350  135.6454  154.1104 H   0  0  0  0  0  0  0  0  0  0  0  0  # atno 10763 bound_to 10752
  154.0820  135.2872  155.3290 H   0  0  0  0  0  0  0  0  0  0  0  0  # atno 10764 bound_to 10752
  154.6523  135.5421  153.7981 H   0  0  0  0  0  0  0  0  0  0  0  0  # atno 10765 bound_to 10752
  140.2509  134.7977  157.3501 H   0  0  0  0  0  0  0  0  0  0  0  0  # atno 11005 bound_to 11000
  145.3802  141.0357  143.3182 LP  0  0  0  0  0  0  0  0  0  0  0  0  # atno 17320 bound_to 7965
  144.8481  139.5365  143.6869 LP  0  0  0  0  0  0  0  0  0  0  0  0  # atno 17321 bound_to 7965
  140.6177  143.9317  150.6501 LP  0  0  0  0  0  0  0  0  0  0  0  0  # atno 17342 bound_to 10162
  140.2581  143.3544  152.1347 LP  0  0  0  0  0  0  0  0  0  0  0  0  # atno 17343 bound_to 10162
  157.7387  131.0538  150.5279 LP  0  0  0  0  0  0  0  0  0  0  0  0  # atno 17370 bound_to 10713
  156.5416  130.4209  149.6151 LP  0  0  0  0  0  0  0  0  0  0  0  0  # atno 17371 bound_to 10713
  140.1558  134.4791  155.7928 LP  0  0  0  0  0  0  0  0  0  0  0  0  # atno 17394 bound_to 11000
  141.2201  133.6881  156.7459 LP  0  0  0  0  0  0  0  0  0  0  0  0  # atno 17395 bound_to 11000

$$$$
