AV-unprocessed.smi:3194|AV-procd|sdf|12209|dock8
  -GOLD-   2272018 43D 1   1.00000     0.00000
 Structure written by MMmdl.
 28 28  0  0  0  0  0  0  0  0  1 V2000
  151.0784  138.2690  154.3095 C   0  0  0  0  0  0  0  0  0  0  0  0
  150.1604  139.4819  154.5242 C   0  0  1  0  0  0  0  0  0  0  0  0
  148.6882  139.1686  154.1922 C   0  0  0  0  0  0  0  0  0  0  0  0
  148.5617  138.7550  152.8480 O   0  0  0  0  0  0  0  0  0  0  0  0
  150.2845  139.9321  155.9076 N   0  0  0  0  0  0  0  0  0  0  0  0
  151.4380  140.1177  156.5717 C   0  0  0  0  0  0  0  0  0  0  0  0
  152.5437  139.9359  156.0606 O   0  0  0  0  0  0  0  0  0  0  0  0
  151.3287  140.5684  158.0362 C   0  0  0  0  0  0  0  0  0  0  0  0
  150.0643  140.4205  158.4382 F   0  0  0  0  0  0  0  0  0  0  0  0
  152.0926  139.7808  158.7982 F   0  0  0  0  0  0  0  0  0  0  0  0
  151.7647  142.0244  158.1765 C   0  0  0  0  0  0  0  0  0  0  0  0
  152.6995  142.4125  159.1632 C   0  0  0  0  0  0  0  0  0  0  0  0
  153.0570  143.7712  159.2579 C   0  0  0  0  0  0  0  0  0  0  0  0
  152.4698  144.6916  158.3692 C   0  0  0  0  0  0  0  0  0  0  0  0
  151.5455  144.2099  157.4219 C   0  0  0  0  0  0  0  0  0  0  0  0
  151.1955  142.9096  157.3230 N   0  0  0  0  0  0  0  0  0  0  0  0
  150.5071  140.2852  153.8709 H   0  0  0  0  0  0  0  0  0  0  0  0
  151.0492  137.9293  153.2739 H   0  0  0  0  0  0  0  0  0  0  0  0
  150.7853  137.4311  154.9427 H   0  0  0  0  0  0  0  0  0  0  0  0
  152.1146  138.5161  154.5426 H   0  0  0  0  0  0  0  0  0  0  0  0
  148.2921  138.3966  154.8529 H   0  0  0  0  0  0  0  0  0  0  0  0
  148.0658  140.0544  154.3236 H   0  0  0  0  0  0  0  0  0  0  0  0
  148.7573  137.8317  152.7983 H   0  0  0  0  0  0  0  0  0  0  0  0
  149.4237  140.1017  156.4081 H   0  0  0  0  0  0  0  0  0  0  0  0
  153.1318  141.6891  159.8386 H   0  0  0  0  0  0  0  0  0  0  0  0
  153.7681  144.1014  160.0007 H   0  0  0  0  0  0  0  0  0  0  0  0
  152.7205  145.7412  158.4130 H   0  0  0  0  0  0  0  0  0  0  0  0
  151.0738  144.8869  156.7252 H   0  0  0  0  0  0  0  0  0  0  0  0
  1  2  1  0  0  0  0
  1 18  1  0  0  0  0
  1 19  1  0  0  0  0
  1 20  1  0  0  0  0
  2 17  1  0  0  0  0
  2  3  1  0  0  0  0
  2  5  1  0  0  0  0
  3  4  1  0  0  0  0
  3 21  1  0  0  0  0
  3 22  1  0  0  0  0
  4 23  1  0  0  0  0
  5  6  1  0  0  0  0
  5 24  1  0  0  0  0
  6  7  2  0  0  0  0
  6  8  1  0  0  0  0
  8  9  1  0  0  0  0
  8 10  1  0  0  0  0
  8 11  1  0  0  0  0
 11 16  1  0  0  0  0
 11 12  2  0  0  0  0
 12 13  1  0  0  0  0
 12 25  1  0  0  0  0
 13 14  2  0  0  0  0
 13 26  1  0  0  0  0
 14 15  1  0  0  0  0
 14 27  1  0  0  0  0
 15 16  2  0  0  0  0
 15 28  1  0  0  0  0
M  END
> <s_m_source_file>
AV-unprocessed.smi

> <i_m_source_file_index>
3194

> <i_lp_mmshare_version>
43012

> <i_f3d_flags>
0

> <s_epik_input>
W09IXVtDSDJdW0NASF0oW0NIM10pW05IXUMoPU8pQyhGKShGKWMxW2NIXVtjSF1bY0hdW2NIXW4x

> <s_epik_cmdline>
J2VwaWtfcHl0aG9uJywgJy1waCcsICc3LjAnLCAnLXRuJywgJzgnLCAnLW1hJywgJzIwMCcsICctbWV0YWxfYmluZGluZycsICctaW1hZScsICc8aW5maWxlLm1hZT4nLCAnLW9tYWUnLCAnPG91dGZpbGUubWFlPic=

> <r_lp_tautomer_probability>
1

> <r_epik_Ionization_Penalty>
3.67967e-05

> <r_epik_Ionization_Penalty_Charging>
0

> <r_epik_Ionization_Penalty_Neutral>
3.67967e-05

> <r_epik_State_Penalty>
-0

> <r_epik_Charging_Adjusted_Penalty>
0

> <i_epik_Tot_Q>
0

> <i_epik_Tot_abs_Q>
0

> <r_epik_Metal_State_Penalty>
0.0311521

> <b_epik_Metal_Only>
0

> <s_lp_Force_Field>
OPLS_2005

> <r_lp_Energy>
9.58736

> <b_lp_Chiralities_Consistent>
1

> <s_lp_Variant>
AV-unprocessed.smi:3194-1

> <Gold.Version>
5.8.1

> <Gold.Id.Protein>
6NUR|6NUR_protein|mol2

> <Gold.PLP.Fitness>
42.6165

> <Gold.PLP.PLP>
-35.9998

> <Gold.PLP.part.hbond>
-2.5641

> <Gold.PLP.part.metal>
0.0000

> <Gold.PLP.part.buried>
-3.5395

> <Gold.PLP.part.nonpolar>
-29.9091

> <Gold.PLP.part.repulsive>
0.1654

> <Gold.PLP.ligand.clash>
0.8926

> <Gold.PLP.ligand.torsion>
0.7489

> <Gold.PLP.Chemscore.Hbond>
1.9920

> <Gold.PLP.Chemscore.CHOScore>
1.0000

> <Gold.PLP.Chemscore.Metal>
0.0000

> <Gold.Chemscore.Hbonds>
donor molecule, donor type, donor heavy atom, donor atom, acceptor molecule, acceptor atom, score
      L1  H     4    23       P1  7948  1.00
      P1  H  7997  8008       L1     7  1.00
      L1  C    15    28       P1  8028  1.00

> <Gold.PLP.Chemscore.Internal.Correction>
0.0311

> <Gold.Rescore>
     Score         DG    S(hbond)    S(metal)    S(lipo)     H(rot)  DE(clash)    DE(int)     intcor
     14.48     -16.15       1.97        0.00      89.51       2.50       0.11       1.56       ----

> <Gold.Chemscore.Fitness>
14.4804

> <Gold.Chemscore.DG>
-16.1526

> <Gold.Chemscore.ZeroCoef>
-5.4800

> <Gold.Chemscore.Hbond>
1.9738

> <Gold.Chemscore.Metal>
0.0000

> <Gold.Chemscore.Lipo>
89.5071

> <Gold.Chemscore.Internal_Hbond>
0.0000

> <Gold.Chemscore.DEClash>
0.1148

> <Gold.Chemscore.DEInternal>
1.5574

> <Gold.Chemscore.Rot>
2.4970

> <Gold.Chemscore.Internal.Correction>
   9.000000E+99

> <Gold.Chemscore.Hbonds>
donor molecule, donor type, donor heavy atom, donor atom, acceptor molecule, acceptor atom, score
      L1  H     4    23       P1  7948  0.96
      P1  H  7997  8008       L1     7  1.00

> <Gold.Chemscore.Hbond.Weighted>
-6.5925

> <Gold.Chemscore.Metal.Weighted>
-0.0000

> <Gold.Chemscore.Lipo.Weighted>
-10.4723

> <Gold.Chemscore.Internal_Hbond.Weighted>
0.0000

> <Gold.Chemscore.DEClash.Weighted>
0.1148

> <Gold.Chemscore.DEInternal.Weighted>
1.5574

> <Gold.Chemscore.Rot.Weighted>
6.3922

> <Gold.Chemscore.Internal.Correction.Weighted>
   9.000000E+99

> <Gold.Protein.RotatedTorsions>
[ 6907 6896 6895 6894 ] final   26.57 input  -60.11 | X-H torsion
[ 7974 7965 7964 7962 ] final   95.44 input  175.53 | X-H torsion
[ 8008 7997 7996 7995 ] final  -38.76 input   59.86 | X-H torsion
[ 10167 10162 10161 10158 ] final -103.34 input  -65.29 | X-H torsion
[ 10718 10713 10712 10709 ] final  -98.00 input   66.30 | X-H torsion
[ 10763 10752 10751 10750 ] final -171.97 input  -60.55 | X-H torsion
[ 11005 11000 10999 10996 ] final   19.35 input  -57.11 | X-H torsion

> <Gold.Protein.ActiveResidues>
 VAL166  LYS551  ARG553  GLY616  TRP617  ASP618  TYR619  PRO620  LYS621  CYS622 
 ASP623  PHE694  ASN695  SER759  ASP760  ASP761  ALA762  ILE779  LEU786  VAL792 
 PHE793  MET794  SER795  GLU796  ALA797  LYS798  CYS799  TRP800  GLU811  SER814 

> <Gold.Protein.RotatedAtoms>
  151.9894  134.9987  160.0560 H   0  0  0  0  0  0  0  0  0  0  0  0  # atno 6907 bound_to 6896
  152.1622  133.4584  159.4875 H   0  0  0  0  0  0  0  0  0  0  0  0  # atno 6908 bound_to 6896
  150.6889  134.1975  159.4352 H   0  0  0  0  0  0  0  0  0  0  0  0  # atno 6909 bound_to 6896
  145.4521  139.2292  143.3034 H   0  0  0  0  0  0  0  0  0  0  0  0  # atno 7974 bound_to 7965
  154.4032  140.1569  156.2752 H   0  0  0  0  0  0  0  0  0  0  0  0  # atno 8008 bound_to 7997
  155.8918  140.3438  155.5939 H   0  0  0  0  0  0  0  0  0  0  0  0  # atno 8009 bound_to 7997
  155.7550  140.0810  157.2174 H   0  0  0  0  0  0  0  0  0  0  0  0  # atno 8010 bound_to 7997
  140.2210  143.3676  152.0969 H   0  0  0  0  0  0  0  0  0  0  0  0  # atno 10167 bound_to 10162
  156.0097  130.5219  150.6458 H   0  0  0  0  0  0  0  0  0  0  0  0  # atno 10718 bound_to 10713
  154.6245  135.2879  155.0288 H   0  0  0  0  0  0  0  0  0  0  0  0  # atno 10763 bound_to 10752
  154.1470  135.6509  153.4959 H   0  0  0  0  0  0  0  0  0  0  0  0  # atno 10764 bound_to 10752
  153.0251  135.5346  154.7048 H   0  0  0  0  0  0  0  0  0  0  0  0  # atno 10765 bound_to 10752
  140.4147  134.1581  155.7669 H   0  0  0  0  0  0  0  0  0  0  0  0  # atno 11005 bound_to 11000
  146.2498  140.5281  142.8898 LP  0  0  0  0  0  0  0  0  0  0  0  0  # atno 17320 bound_to 7965
  144.8055  140.6291  143.6450 LP  0  0  0  0  0  0  0  0  0  0  0  0  # atno 17321 bound_to 7965
  139.5144  144.6947  151.5662 LP  0  0  0  0  0  0  0  0  0  0  0  0  # atno 17342 bound_to 10162
  140.6255  143.9177  150.6561 LP  0  0  0  0  0  0  0  0  0  0  0  0  # atno 17343 bound_to 10162
  157.4229  131.0839  151.1113 LP  0  0  0  0  0  0  0  0  0  0  0  0  # atno 17370 bound_to 10713
  157.1709  130.6267  149.5640 LP  0  0  0  0  0  0  0  0  0  0  0  0  # atno 17371 bound_to 10713
  141.1807  133.8419  157.1266 LP  0  0  0  0  0  0  0  0  0  0  0  0  # atno 17394 bound_to 11000
  140.0242  134.9931  157.0653 LP  0  0  0  0  0  0  0  0  0  0  0  0  # atno 17395 bound_to 11000

$$$$
