AV-unprocessed.smi:1978|AV-procd|sdf|8014|dock8
  -GOLD-   2272010203D 1   1.00000     0.00000
 Structure written by MMmdl.
 44 45  0  0  0  0  0  0  0  0  3 V2000
  152.8279  142.6645  161.0949 C   0  0  0  0  0  0  0  0  0  0  0  0
  152.6018  141.8763  159.8507 C   0  0  0  0  0  0  0  0  0  0  0  0
  151.7652  142.0426  158.7832 C   0  0  0  0  0  0  0  0  0  0  0  0
  152.0676  140.9248  157.9605 C   0  0  0  0  0  0  0  0  0  0  0  0
  151.3929  140.7321  156.7258 N   0  0  0  0  0  0  0  0  0  0  0  0
  151.7436  139.9534  155.6859 C   0  0  0  0  0  0  0  0  0  0  0  0
  152.7714  139.2674  155.7381 O   0  0  0  0  0  0  0  0  0  0  0  0
  150.8559  140.0389  154.6572 N   0  5  0  0  0  0  0  0  0  0  0  0
  149.7669  139.0911  154.4235 C   0  0  0  0  0  0  0  0  0  0  0  0
  148.7323  139.6828  153.4151 C   0  0  2  0  0  0  0  0  0  0  0  0
  148.1411  141.0025  154.0007 C   0  0  0  0  0  0  0  0  0  0  0  0
  147.6952  138.6484  153.0501 N   0  3  2  0  0  0  0  0  0  0  0  0
  146.8056  139.0231  151.9026 C   0  0  0  0  0  0  0  0  0  0  0  0
  146.0827  137.7842  151.3481 C   0  0  0  0  0  0  0  0  0  0  0  0
  145.2725  137.0722  152.4377 C   0  0  0  0  0  0  0  0  0  0  0  0
  146.1598  136.7841  153.6590 C   0  0  0  0  0  0  0  0  0  0  0  0
  146.8920  138.0461  154.1651 C   0  0  2  0  0  0  0  0  0  0  0  0
  145.9138  139.0413  154.8360 C   0  0  0  0  0  0  0  0  0  0  0  0
  153.0064  140.1476  158.4801 N   0  0  0  0  0  0  0  0  0  0  0  0
  153.3531  140.7530  159.6936 O   0  0  0  0  0  0  0  0  0  0  0  0
  152.1892  143.5475  161.1186 H   0  0  0  0  0  0  0  0  0  0  0  0
  153.8647  142.9951  161.1594 H   0  0  0  0  0  0  0  0  0  0  0  0
  152.6075  142.0638  161.9775 H   0  0  0  0  0  0  0  0  0  0  0  0
  151.0519  142.8364  158.6189 H   0  0  0  0  0  0  0  0  0  0  0  0
  150.5375  141.2549  156.6111 H   0  0  0  0  0  0  0  0  0  0  0  0
  150.1590  138.1514  154.0360 H   0  0  0  0  0  0  0  0  0  0  0  0
  149.2502  138.8226  155.3458 H   0  0  0  0  0  0  0  0  0  0  0  0
  149.2474  139.9435  152.4885 H   0  0  0  0  0  0  0  0  0  0  0  0
  148.9136  141.7325  154.2528 H   0  0  0  0  0  0  0  0  0  0  0  0
  147.5566  140.8292  154.9067 H   0  0  0  0  0  0  0  0  0  0  0  0
  147.4953  141.5230  153.2978 H   0  0  0  0  0  0  0  0  0  0  0  0
  146.0879  139.7827  152.2107 H   0  0  0  0  0  0  0  0  0  0  0  0
  147.3607  139.4730  151.0811 H   0  0  0  0  0  0  0  0  0  0  0  0
  145.4268  138.0714  150.5257 H   0  0  0  0  0  0  0  0  0  0  0  0
  146.8169  137.0940  150.9301 H   0  0  0  0  0  0  0  0  0  0  0  0
  144.4197  137.6869  152.7255 H   0  0  0  0  0  0  0  0  0  0  0  0
  144.8582  136.1417  152.0482 H   0  0  0  0  0  0  0  0  0  0  0  0
  145.5610  136.3474  154.4591 H   0  0  0  0  0  0  0  0  0  0  0  0
  146.8986  136.0283  153.3883 H   0  0  0  0  0  0  0  0  0  0  0  0
  147.5748  137.6829  154.9319 H   0  0  0  0  0  0  0  0  0  0  0  0
  145.4783  138.6003  155.7331 H   0  0  0  0  0  0  0  0  0  0  0  0
  145.0847  139.3173  154.1862 H   0  0  0  0  0  0  0  0  0  0  0  0
  146.3966  139.9695  155.1354 H   0  0  0  0  0  0  0  0  0  0  0  0
  148.2534  137.8790  152.7085 H   0  0  0  0  0  0  0  0  0  0  0  0
  1  2  1  0  0  0  0
  1 21  1  0  0  0  0
  1 22  1  0  0  0  0
  1 23  1  0  0  0  0
  2 20  1  0  0  0  0
  2  3  2  0  0  0  0
  3  4  1  0  0  0  0
  3 24  1  0  0  0  0
  4  5  1  0  0  0  0
  4 19  2  0  0  0  0
  5  6  1  0  0  0  0
  5 25  1  0  0  0  0
  6  7  2  0  0  0  0
  6  8  1  0  0  0  0
  8  9  1  0  0  0  0
  9 10  1  0  0  0  0
  9 26  1  0  0  0  0
  9 27  1  0  0  0  0
 10 11  1  0  0  0  0
 10 12  1  0  0  0  0
 10 28  1  0  0  0  0
 11 29  1  0  0  0  0
 11 30  1  0  0  0  0
 11 31  1  0  0  0  0
 12 17  1  0  0  0  0
 12 13  1  0  0  0  0
 12 44  1  0  0  0  0
 13 14  1  0  0  0  0
 13 32  1  0  0  0  0
 13 33  1  0  0  0  0
 14 15  1  0  0  0  0
 14 34  1  0  0  0  0
 14 35  1  0  0  0  0
 15 16  1  0  0  0  0
 15 36  1  0  0  0  0
 15 37  1  0  0  0  0
 16 17  1  0  0  0  0
 16 38  1  0  0  0  0
 16 39  1  0  0  0  0
 17 18  1  0  0  0  0
 17 40  1  0  0  0  0
 18 41  1  0  0  0  0
 18 42  1  0  0  0  0
 18 43  1  0  0  0  0
 19 20  1  0  0  0  0
M  CHG  1   8  -1
M  CHG  1  12   1
M  END
> <s_m_source_file>
AV-unprocessed.smi

> <i_m_source_file_index>
1978

> <i_lp_mmshare_version>
43012

> <i_f3d_flags>
0

> <s_epik_input>
W0NIM11jMVtjSF1jKG5vMSlbTkhdQyg9TylbTkhdW0NIMl1bQ0BIXShbQ0gzXSlOMltDSDJdW0NIMl1bQ0gyXVtDSDJdW0NASF0yW0NIM10=

> <s_epik_cmdline>
J2VwaWtfcHl0aG9uJywgJy1waCcsICc3LjAnLCAnLXRuJywgJzgnLCAnLW1hJywgJzIwMCcsICctbWV0YWxfYmluZGluZycsICctaW1hZScsICc8aW5maWxlLm1hZT4nLCAnLW9tYWUnLCAnPG91dGZpbGUubWFlPic=

> <r_epik_Ionization_Penalty>
6.7666

> <r_epik_Ionization_Penalty_Charging>
6.7666

> <r_epik_Ionization_Penalty_Neutral>
5.77131e-06

> <r_epik_State_Penalty>
6.79217

> <r_epik_Charging_Adjusted_Penalty>
13.5588

> <i_epik_Tot_Q>
0

> <i_epik_Tot_abs_Q>
2

> <r_epik_Metal_State_Penalty>
2.72569

> <b_epik_Metal_Only>
1

> <s_lp_Force_Field>
OPLS_2005

> <r_lp_Energy>
25.8045

> <b_lp_Chiralities_Consistent>
1

> <s_lp_Variant>
AV-unprocessed.smi:1978-23

> <Gold.Version>
5.8.1

> <Gold.Id.Protein>
6NUR|6NUR_protein|mol2

> <Gold.PLP.Fitness>
44.3118

> <Gold.PLP.PLP>
-34.1212

> <Gold.PLP.part.hbond>
-5.0000

> <Gold.PLP.part.metal>
0.0000

> <Gold.PLP.part.buried>
3.4210

> <Gold.PLP.part.nonpolar>
-33.0409

> <Gold.PLP.part.repulsive>
0.2445

> <Gold.PLP.ligand.clash>
0.0000

> <Gold.PLP.ligand.torsion>
0.9642

> <Gold.PLP.Chemscore.Hbond>
4.0000

> <Gold.PLP.Chemscore.CHOScore>
0.0000

> <Gold.PLP.Chemscore.Metal>
0.0000

> <Gold.Chemscore.Hbonds>
donor molecule, donor type, donor heavy atom, donor atom, acceptor molecule, acceptor atom, score
      L1  H    12    44       P1  7948  2.00
      P1  H  7989  7998       L1     8  1.00
      P1  H  7997  8009       L1     7  1.00

> <Gold.PLP.Chemscore.Internal.Correction>
0.1191

> <Gold.Rescore>
     Score         DG    S(hbond)    S(metal)    S(lipo)     H(rot)  DE(clash)    DE(int)     intcor
     16.25     -20.66       2.83        0.00      82.27       1.52       2.11       2.30       ----

> <Gold.Chemscore.Fitness>
16.2493

> <Gold.Chemscore.DG>
-20.6628

> <Gold.Chemscore.ZeroCoef>
-5.4800

> <Gold.Chemscore.Hbond>
2.8281

> <Gold.Chemscore.Metal>
0.0000

> <Gold.Chemscore.Lipo>
82.2713

> <Gold.Chemscore.Internal_Hbond>
0.0000

> <Gold.Chemscore.DEClash>
2.1116

> <Gold.Chemscore.DEInternal>
2.3020

> <Gold.Chemscore.Rot>
1.5190

> <Gold.Chemscore.Internal.Correction>
   9.000000E+99

> <Gold.Chemscore.Hbonds>
donor molecule, donor type, donor heavy atom, donor atom, acceptor molecule, acceptor atom, score
      L1  H    12    44       P1  7948  0.99
      P1  H  7989  7998       L1     8  0.50
      P1  H  7997  8009       L1     7  0.92

> <Gold.Chemscore.Hbond.Weighted>
-9.4457

> <Gold.Chemscore.Metal.Weighted>
-0.0000

> <Gold.Chemscore.Lipo.Weighted>
-9.6257

> <Gold.Chemscore.Internal_Hbond.Weighted>
0.0000

> <Gold.Chemscore.DEClash.Weighted>
2.1116

> <Gold.Chemscore.DEInternal.Weighted>
2.3020

> <Gold.Chemscore.Rot.Weighted>
3.8886

> <Gold.Chemscore.Internal.Correction.Weighted>
   9.000000E+99

> <Gold.Protein.RotatedTorsions>
[ 6907 6896 6895 6894 ] final   57.40 input  -60.11 | X-H torsion
[ 7974 7965 7964 7962 ] final  177.67 input  175.53 | X-H torsion
[ 8008 7997 7996 7995 ] final -169.96 input   59.86 | X-H torsion
[ 10167 10162 10161 10158 ] final  140.70 input  -65.29 | X-H torsion
[ 10718 10713 10712 10709 ] final -105.63 input   66.30 | X-H torsion
[ 10763 10752 10751 10750 ] final   19.91 input  -60.55 | X-H torsion
[ 11005 11000 10999 10996 ] final -164.13 input  -57.11 | X-H torsion

> <Gold.Protein.ActiveResidues>
 VAL166  LYS551  ARG553  GLY616  TRP617  ASP618  TYR619  PRO620  LYS621  CYS622 
 ASP623  PHE694  ASN695  SER759  ASP760  ASP761  ALA762  ILE779  LEU786  VAL792 
 PHE793  MET794  SER795  GLU796  ALA797  LYS798  CYS799  TRP800  GLU811  SER814 

> <Gold.Protein.RotatedAtoms>
  152.3728  134.6708  160.0169 H   0  0  0  0  0  0  0  0  0  0  0  0  # atno 6907 bound_to 6896
  151.6996  133.3305  159.3271 H   0  0  0  0  0  0  0  0  0  0  0  0  # atno 6908 bound_to 6896
  150.7686  134.6562  159.6359 H   0  0  0  0  0  0  0  0  0  0  0  0  # atno 6909 bound_to 6896
  144.7166  140.0282  143.6439 H   0  0  0  0  0  0  0  0  0  0  0  0  # atno 7974 bound_to 7965
  155.9119  140.1059  157.1272 H   0  0  0  0  0  0  0  0  0  0  0  0  # atno 8008 bound_to 7997
  154.4041  140.1272  156.4633 H   0  0  0  0  0  0  0  0  0  0  0  0  # atno 8009 bound_to 7997
  155.7299  140.3468  155.5057 H   0  0  0  0  0  0  0  0  0  0  0  0  # atno 8010 bound_to 7997
  139.5041  144.6217  151.6034 H   0  0  0  0  0  0  0  0  0  0  0  0  # atno 10167 bound_to 10162
  156.0354  130.5573  150.7566 H   0  0  0  0  0  0  0  0  0  0  0  0  # atno 10718 bound_to 10713
  153.1122  135.6699  153.9481 H   0  0  0  0  0  0  0  0  0  0  0  0  # atno 10763 bound_to 10752
  153.9021  135.3034  155.3450 H   0  0  0  0  0  0  0  0  0  0  0  0  # atno 10764 bound_to 10752
  154.7540  135.5020  153.9419 H   0  0  0  0  0  0  0  0  0  0  0  0  # atno 10765 bound_to 10752
  140.5903  134.5051  157.5192 H   0  0  0  0  0  0  0  0  0  0  0  0  # atno 11005 bound_to 11000
  146.0124  139.3181  143.0862 LP  0  0  0  0  0  0  0  0  0  0  0  0  # atno 17320 bound_to 7965
  145.8666  140.9444  143.0672 LP  0  0  0  0  0  0  0  0  0  0  0  0  # atno 17321 bound_to 7965
  140.5922  143.9760  150.6331 LP  0  0  0  0  0  0  0  0  0  0  0  0  # atno 17342 bound_to 10162
  140.2944  143.3302  152.1032 LP  0  0  0  0  0  0  0  0  0  0  0  0  # atno 17343 bound_to 10162
  157.5096  131.0924  151.0214 LP  0  0  0  0  0  0  0  0  0  0  0  0  # atno 17370 bound_to 10713
  157.0573  130.5811  149.5380 LP  0  0  0  0  0  0  0  0  0  0  0  0  # atno 17371 bound_to 10713
  139.9277  134.8024  156.1020 LP  0  0  0  0  0  0  0  0  0  0  0  0  # atno 17394 bound_to 11000
  141.0939  133.6703  156.2602 LP  0  0  0  0  0  0  0  0  0  0  0  0  # atno 17395 bound_to 11000

$$$$
