AV-unprocessed.smi:1129|AV-procd|sdf|4847|dock10
  -GOLD-   22720 3413D 1   1.00000     0.00000
 Structure written by MMmdl.
 40 41  0  0  0  0  0  0  0  0  1 V2000
  147.0514  136.4009  162.4351 C   0  0  0  0  0  0  0  0  0  0  0  0
  147.6082  136.9625  161.2594 O   0  0  0  0  0  0  0  0  0  0  0  0
  148.6043  136.1353  160.6815 C   0  0  0  0  0  0  0  0  0  0  0  0
  147.9593  135.2336  159.6246 C   0  0  0  0  0  0  0  0  0  0  0  0
  148.9092  134.9825  158.5934 O   0  0  0  0  0  0  0  0  0  0  0  0
  148.4700  134.9516  157.2858 C   0  0  0  0  0  0  0  0  0  0  0  0
  147.0912  134.7934  157.0426 C   0  0  0  0  0  0  0  0  0  0  0  0
  146.6335  134.7591  155.7116 C   0  0  0  0  0  0  0  0  0  0  0  0
  147.5748  134.8770  154.6616 C   0  0  0  0  0  0  0  0  0  0  0  0
  147.2330  134.8787  153.2825 N   0  0  0  0  0  0  0  0  0  0  0  0
  146.1688  134.3103  152.6858 C   0  0  0  0  0  0  0  0  0  0  0  0
  145.3061  133.6646  153.2812 O   0  0  0  0  0  0  0  0  0  0  0  0
  146.0765  134.5040  151.1595 C   0  0  1  0  0  0  0  0  0  0  0  0
  146.5816  133.2762  150.3783 C   0  0  0  0  0  0  0  0  0  0  0  0
  145.6378  132.0623  150.4740 C   0  0  0  0  0  0  0  0  0  0  0  0
  144.1499  132.4218  150.3435 C   0  0  0  0  0  0  0  0  0  0  0  0
  143.3326  131.5333  150.1142 O   0  0  0  0  0  0  0  0  0  0  0  0
  143.7667  133.6976  150.5260 N   0  0  0  0  0  0  0  0  0  0  0  0
  144.6476  134.8560  150.6873 C   0  0  0  0  0  0  0  0  0  0  0  0
  148.9300  135.0493  155.0111 C   0  0  0  0  0  0  0  0  0  0  0  0
  149.3756  135.0805  156.2847 N   0  0  0  0  0  0  0  0  0  0  0  0
  146.2967  137.0746  162.8405 H   0  0  0  0  0  0  0  0  0  0  0  0
  147.8145  136.2505  163.1999 H   0  0  0  0  0  0  0  0  0  0  0  0
  146.5709  135.4441  162.2265 H   0  0  0  0  0  0  0  0  0  0  0  0
  149.4020  136.7333  160.2377 H   0  0  0  0  0  0  0  0  0  0  0  0
  149.0528  135.5177  161.4609 H   0  0  0  0  0  0  0  0  0  0  0  0
  147.6706  134.2898  160.0898 H   0  0  0  0  0  0  0  0  0  0  0  0
  147.0570  135.7024  159.2278 H   0  0  0  0  0  0  0  0  0  0  0  0
  146.3954  134.7039  157.8636 H   0  0  0  0  0  0  0  0  0  0  0  0
  145.5759  134.6591  155.5240 H   0  0  0  0  0  0  0  0  0  0  0  0
  147.9125  135.3026  152.6672 H   0  0  0  0  0  0  0  0  0  0  0  0
  146.7186  135.3494  150.9062 H   0  0  0  0  0  0  0  0  0  0  0  0
  146.7007  133.5497  149.3291 H   0  0  0  0  0  0  0  0  0  0  0  0
  147.5766  132.9929  150.7239 H   0  0  0  0  0  0  0  0  0  0  0  0
  145.9007  131.3289  149.7109 H   0  0  0  0  0  0  0  0  0  0  0  0
  145.7735  131.5648  151.4348 H   0  0  0  0  0  0  0  0  0  0  0  0
  142.7767  133.8920  150.4792 H   0  0  0  0  0  0  0  0  0  0  0  0
  144.1760  135.5604  151.3738 H   0  0  0  0  0  0  0  0  0  0  0  0
  144.7005  135.3639  149.7237 H   0  0  0  0  0  0  0  0  0  0  0  0
  149.6839  135.1601  154.2453 H   0  0  0  0  0  0  0  0  0  0  0  0
  1  2  1  0  0  0  0
  1 22  1  0  0  0  0
  1 23  1  0  0  0  0
  1 24  1  0  0  0  0
  2  3  1  0  0  0  0
  3  4  1  0  0  0  0
  3 25  1  0  0  0  0
  3 26  1  0  0  0  0
  4  5  1  0  0  0  0
  4 27  1  0  0  0  0
  4 28  1  0  0  0  0
  5  6  1  0  0  0  0
  6 21  1  0  0  0  0
  6  7  2  0  0  0  0
  7  8  1  0  0  0  0
  7 29  1  0  0  0  0
  8  9  2  0  0  0  0
  8 30  1  0  0  0  0
  9 10  1  0  0  0  0
  9 20  1  0  0  0  0
 10 11  1  0  0  0  0
 10 31  1  0  0  0  0
 11 12  2  0  0  0  0
 11 13  1  0  0  0  0
 13 19  1  0  0  0  0
 13 14  1  0  0  0  0
 13 32  1  0  0  0  0
 14 15  1  0  0  0  0
 14 33  1  0  0  0  0
 14 34  1  0  0  0  0
 15 16  1  0  0  0  0
 15 35  1  0  0  0  0
 15 36  1  0  0  0  0
 16 17  2  0  0  0  0
 16 18  1  0  0  0  0
 18 19  1  0  0  0  0
 18 37  1  0  0  0  0
 19 38  1  0  0  0  0
 19 39  1  0  0  0  0
 20 21  2  0  0  0  0
 20 40  1  0  0  0  0
M  END
> <s_m_source_file>
AV-unprocessed.smi

> <i_m_source_file_index>
1129

> <i_lp_mmshare_version>
43012

> <i_f3d_flags>
0

> <s_epik_input>
W0NIM11PW0NIMl1bQ0gyXU9jMVtjSF1bY0hdYyhbY0hdbjEpW05IXUMoPU8pW0NAQEhdMltDSDJdW0NIMl1DKD1PKVtOSF1bQ0gyXTI=

> <s_epik_cmdline>
J2VwaWtfcHl0aG9uJywgJy1waCcsICc3LjAnLCAnLXRuJywgJzgnLCAnLW1hJywgJzIwMCcsICctbWV0YWxfYmluZGluZycsICctaW1hZScsICc8aW5maWxlLm1hZT4nLCAnLW9tYWUnLCAnPG91dGZpbGUubWFlPic=

> <r_lp_tautomer_probability>
1

> <r_epik_Ionization_Penalty>
1.79985e-05

> <r_epik_Ionization_Penalty_Charging>
0

> <r_epik_Ionization_Penalty_Neutral>
1.79985e-05

> <r_epik_State_Penalty>
-0

> <r_epik_Charging_Adjusted_Penalty>
0

> <i_epik_Tot_Q>
0

> <i_epik_Tot_abs_Q>
0

> <r_epik_Metal_State_Penalty>
-0

> <b_epik_Metal_Only>
0

> <s_lp_Force_Field>
OPLS_2005

> <r_lp_Energy>
14.8931

> <b_lp_Chiralities_Consistent>
1

> <s_lp_Variant>
AV-unprocessed.smi:1129-2

> <Gold.Version>
5.8.1

> <Gold.Id.Protein>
6NUR|6NUR_protein|mol2

> <Gold.PLP.Fitness>
42.3858

> <Gold.PLP.PLP>
-27.7496

> <Gold.PLP.part.hbond>
-5.9816

> <Gold.PLP.part.metal>
0.0000

> <Gold.PLP.part.buried>
-5.2734

> <Gold.PLP.part.nonpolar>
-19.5553

> <Gold.PLP.part.repulsive>
2.3405

> <Gold.PLP.ligand.clash>
0.0000

> <Gold.PLP.ligand.torsion>
1.5760

> <Gold.PLP.Chemscore.Hbond>
5.4800

> <Gold.PLP.Chemscore.CHOScore>
0.4340

> <Gold.PLP.Chemscore.Metal>
0.0000

> <Gold.Chemscore.Hbonds>
donor molecule, donor type, donor heavy atom, donor atom, acceptor molecule, acceptor atom, score
      L1  H    10    31       P1  7948  1.00
      L1  H    18    37       P1 10186  0.91
      P1  H  6896  6907       L1     5  1.00
      P1  H  6931  6943       L1     2  0.55
      P1  H  6934  6947       L1     2  0.70
      P1  H 10785 10796       L1    17  1.00
      L1  C    20    40       P1  7948  0.44

> <Gold.PLP.Chemscore.Internal.Correction>
0.0462

> <Gold.Rescore>
     Score         DG    S(hbond)    S(metal)    S(lipo)     H(rot)  DE(clash)    DE(int)     intcor
     17.92     -20.71       4.12        0.00      56.91       2.03       0.13       2.65       ----

> <Gold.Chemscore.Fitness>
17.9213

> <Gold.Chemscore.DG>
-20.7074

> <Gold.Chemscore.ZeroCoef>
-5.4800

> <Gold.Chemscore.Hbond>
4.1182

> <Gold.Chemscore.Metal>
0.0000

> <Gold.Chemscore.Lipo>
56.9057

> <Gold.Chemscore.Internal_Hbond>
0.0000

> <Gold.Chemscore.DEClash>
0.1317

> <Gold.Chemscore.DEInternal>
2.6543

> <Gold.Chemscore.Rot>
2.0255

> <Gold.Chemscore.Internal.Correction>
   9.000000E+99

> <Gold.Chemscore.Hbonds>
donor molecule, donor type, donor heavy atom, donor atom, acceptor molecule, acceptor atom, score
      L1  H    10    31       P1  7948  0.98
      L1  H    18    37       P1 10186  0.82
      P1  H  6896  6907       L1     5  0.62
      P1  H  6931  6943       L1     2  0.01
      P1  H  6934  6947       L1     2  0.62
      P1  H 10785 10796       L1    17  0.94

> <Gold.Chemscore.Hbond.Weighted>
-13.7547

> <Gold.Chemscore.Metal.Weighted>
-0.0000

> <Gold.Chemscore.Lipo.Weighted>
-6.6580

> <Gold.Chemscore.Internal_Hbond.Weighted>
0.0000

> <Gold.Chemscore.DEClash.Weighted>
0.1317

> <Gold.Chemscore.DEInternal.Weighted>
2.6543

> <Gold.Chemscore.Rot.Weighted>
5.1853

> <Gold.Chemscore.Internal.Correction.Weighted>
   9.000000E+99

> <Gold.Protein.RotatedTorsions>
[ 6907 6896 6895 6894 ] final  -83.90 input  -60.11 | X-H torsion
[ 7974 7965 7964 7962 ] final -175.48 input  175.53 | X-H torsion
[ 8008 7997 7996 7995 ] final   28.50 input   59.86 | X-H torsion
[ 10167 10162 10161 10158 ] final -175.28 input  -65.29 | X-H torsion
[ 10718 10713 10712 10709 ] final  141.79 input   66.30 | X-H torsion
[ 10763 10752 10751 10750 ] final  -81.84 input  -60.55 | X-H torsion
[ 11005 11000 10999 10996 ] final -134.08 input  -57.11 | X-H torsion

> <Gold.Protein.ActiveResidues>
 VAL166  LYS551  ARG553  GLY616  TRP617  ASP618  TYR619  PRO620  LYS621  CYS622 
 ASP623  PHE694  ASN695  SER759  ASP760  ASP761  ALA762  ILE779  LEU786  VAL792 
 PHE793  MET794  SER795  GLU796  ALA797  LYS798  CYS799  TRP800  GLU811  SER814 

> <Gold.Protein.RotatedAtoms>
  150.6881  134.3441  159.4880 H   0  0  0  0  0  0  0  0  0  0  0  0  # atno 6907 bound_to 6896
  152.1291  134.9146  160.0569 H   0  0  0  0  0  0  0  0  0  0  0  0  # atno 6908 bound_to 6896
  152.0323  133.3907  159.4339 H   0  0  0  0  0  0  0  0  0  0  0  0  # atno 6909 bound_to 6896
  144.7128  140.1314  143.6398 H   0  0  0  0  0  0  0  0  0  0  0  0  # atno 7974 bound_to 7965
  155.0596  140.3188  155.4665 H   0  0  0  0  0  0  0  0  0  0  0  0  # atno 8008 bound_to 7997
  156.2816  140.2131  156.5667 H   0  0  0  0  0  0  0  0  0  0  0  0  # atno 8009 bound_to 7997
  154.7143  140.0495  157.0567 H   0  0  0  0  0  0  0  0  0  0  0  0  # atno 8010 bound_to 7997
  139.5589  144.1919  152.1206 H   0  0  0  0  0  0  0  0  0  0  0  0  # atno 10167 bound_to 10162
  157.3880  131.1001  151.0674 H   0  0  0  0  0  0  0  0  0  0  0  0  # atno 10718 bound_to 10713
  154.5685  135.5612  153.7073 H   0  0  0  0  0  0  0  0  0  0  0  0  # atno 10763 bound_to 10752
  153.0041  135.6291  154.2147 H   0  0  0  0  0  0  0  0  0  0  0  0  # atno 10764 bound_to 10752
  154.2086  135.2874  155.2946 H   0  0  0  0  0  0  0  0  0  0  0  0  # atno 10765 bound_to 10752
  140.9022  134.1675  157.4452 H   0  0  0  0  0  0  0  0  0  0  0  0  # atno 11005 bound_to 11000
  145.9283  139.2589  143.1340 LP  0  0  0  0  0  0  0  0  0  0  0  0  # atno 17320 bound_to 7965
  145.9549  140.8880  143.0240 LP  0  0  0  0  0  0  0  0  0  0  0  0  # atno 17321 bound_to 7965
  140.1429  144.5186  150.6733 LP  0  0  0  0  0  0  0  0  0  0  0  0  # atno 17342 bound_to 10162
  140.6866  143.2353  151.5243 LP  0  0  0  0  0  0  0  0  0  0  0  0  # atno 17343 bound_to 10162
  157.1718  130.6271  149.5643 LP  0  0  0  0  0  0  0  0  0  0  0  0  # atno 17370 bound_to 10713
  155.9791  130.4782  150.6697 LP  0  0  0  0  0  0  0  0  0  0  0  0  # atno 17371 bound_to 10713
  139.8744  134.9903  156.5495 LP  0  0  0  0  0  0  0  0  0  0  0  0  # atno 17394 bound_to 11000
  140.8215  133.8350  155.8900 LP  0  0  0  0  0  0  0  0  0  0  0  0  # atno 17395 bound_to 11000

$$$$
