AV-unprocessed.smi:2313|AV-procd|sdf|9264|dock8
  -GOLD-   2272012483D 1   1.00000     0.00000
 Structure written by MMmdl.
 37 38  0  0  0  0  0  0  0  0  1 V2000
  152.8867  143.2221  161.5181 C   0  0  0  0  0  0  0  0  0  0  0  0
  152.3327  142.7863  160.1744 C   0  0  0  0  0  0  0  0  0  0  0  0
  151.3347  143.5940  159.5044 C   0  0  0  0  0  0  0  0  0  0  0  0
  150.8612  143.1982  158.3133 C   0  0  0  0  0  0  0  0  0  0  0  0
  151.3031  142.0167  157.6930 N   0  0  0  0  0  0  0  0  0  0  0  0
  150.7072  141.6800  156.3892 C   0  0  0  0  0  0  0  0  0  0  0  0
  149.2828  141.1196  156.5044 C   0  0  0  0  0  0  0  0  0  0  0  0
  149.0976  139.9414  156.8098 O   0  0  0  0  0  0  0  0  0  0  0  0
  148.2904  141.9980  156.2816 N   0  0  0  0  0  0  0  0  0  0  0  0
  146.8400  141.7671  156.3176 C   0  0  1  0  0  0  0  0  0  0  0  0
  146.5847  140.5322  155.4379 C   0  0  0  0  0  0  0  0  0  0  0  0
  146.3687  141.4493  157.6803 C   0  0  0  0  0  0  0  0  0  0  0  0
  146.0021  141.1992  158.7493 N   0  0  0  0  0  0  0  0  0  0  0  0
  145.9847  142.9221  155.7916 C   0  0  0  0  0  0  0  0  0  0  0  0
  144.6221  142.7017  155.1740 C   0  0  0  0  0  0  0  0  0  0  0  0
  145.7630  143.2151  154.3240 C   0  0  0  0  0  0  0  0  0  0  0  0
  152.2347  141.2002  158.2708 C   0  0  0  0  0  0  0  0  0  0  0  0
  152.6102  140.1604  157.7256 O   0  0  0  0  0  0  0  0  0  0  0  0
  152.7524  141.6468  159.5742 C   0  0  0  0  0  0  0  0  0  0  0  0
  153.7343  140.8002  160.1721 C   0  0  0  0  0  0  0  0  0  0  0  0
  154.5404  140.1321  160.6661 N   0  0  0  0  0  0  0  0  0  0  0  0
  152.4076  144.1385  161.8636 H   0  0  0  0  0  0  0  0  0  0  0  0
  153.9587  143.4074  161.4455 H   0  0  0  0  0  0  0  0  0  0  0  0
  152.7194  142.4499  162.2697 H   0  0  0  0  0  0  0  0  0  0  0  0
  150.9695  144.5047  159.9565 H   0  0  0  0  0  0  0  0  0  0  0  0
  150.1115  143.7528  157.7677 H   0  0  0  0  0  0  0  0  0  0  0  0
  150.6721  142.5603  155.7463 H   0  0  0  0  0  0  0  0  0  0  0  0
  151.3408  140.9658  155.8596 H   0  0  0  0  0  0  0  0  0  0  0  0
  148.5701  142.9393  156.0476 H   0  0  0  0  0  0  0  0  0  0  0  0
  145.5281  140.2618  155.4316 H   0  0  0  0  0  0  0  0  0  0  0  0
  147.1397  139.6657  155.8003 H   0  0  0  0  0  0  0  0  0  0  0  0
  146.8844  140.7098  154.4044 H   0  0  0  0  0  0  0  0  0  0  0  0
  146.0676  143.8117  156.4139 H   0  0  0  0  0  0  0  0  0  0  0  0
  144.2916  141.6794  155.0026 H   0  0  0  0  0  0  0  0  0  0  0  0
  143.8347  143.4049  155.4373 H   0  0  0  0  0  0  0  0  0  0  0  0
  145.7317  144.2605  154.0242 H   0  0  0  0  0  0  0  0  0  0  0  0
  146.1687  142.5370  153.5787 H   0  0  0  0  0  0  0  0  0  0  0  0
  1  2  1  0  0  0  0
  1 22  1  0  0  0  0
  1 23  1  0  0  0  0
  1 24  1  0  0  0  0
  2 19  2  0  0  0  0
  2  3  1  0  0  0  0
  3  4  2  0  0  0  0
  3 25  1  0  0  0  0
  4  5  1  0  0  0  0
  4 26  1  0  0  0  0
  5  6  1  0  0  0  0
  5 17  1  0  0  0  0
  6  7  1  0  0  0  0
  6 27  1  0  0  0  0
  6 28  1  0  0  0  0
  7  8  2  0  0  0  0
  7  9  1  0  0  0  0
  9 10  1  0  0  0  0
  9 29  1  0  0  0  0
 10 11  1  0  0  0  0
 10 12  1  0  0  0  0
 10 14  1  0  0  0  0
 11 30  1  0  0  0  0
 11 31  1  0  0  0  0
 11 32  1  0  0  0  0
 12 13  3  0  0  0  0
 14 16  1  0  0  0  0
 14 15  1  0  0  0  0
 14 33  1  0  0  0  0
 15 16  1  0  0  0  0
 15 34  1  0  0  0  0
 15 35  1  0  0  0  0
 16 36  1  0  0  0  0
 16 37  1  0  0  0  0
 17 18  2  0  0  0  0
 17 19  1  0  0  0  0
 19 20  1  0  0  0  0
 20 21  3  0  0  0  0
M  END
> <s_m_source_file>
AV-unprocessed.smi

> <i_m_source_file_index>
2313

> <i_lp_mmshare_version>
43012

> <i_f3d_flags>
0

> <s_epik_input>
W0NIM11jMVtjSF1bY0hdbihjKD1PKWMxQyNOKVtDSDJdQyg9TylbTkhdW0NAQF0oW0NIM10pKEMjTilbQ0hdMltDSDJdW0NIMl0y

> <s_epik_cmdline>
J2VwaWtfcHl0aG9uJywgJy1waCcsICc3LjAnLCAnLXRuJywgJzgnLCAnLW1hJywgJzIwMCcsICctbWV0YWxfYmluZGluZycsICctaW1hZScsICc8aW5maWxlLm1hZT4nLCAnLW9tYWUnLCAnPG91dGZpbGUubWFlPic=

> <r_lp_tautomer_probability>
1

> <r_epik_Ionization_Penalty>
4.65501e-07

> <r_epik_Ionization_Penalty_Charging>
2.39086e-10

> <r_epik_Ionization_Penalty_Neutral>
4.65262e-07

> <r_epik_State_Penalty>
-0

> <r_epik_Charging_Adjusted_Penalty>
2.39086e-10

> <i_epik_Tot_Q>
0

> <i_epik_Tot_abs_Q>
0

> <r_epik_Metal_State_Penalty>
-0

> <b_epik_Metal_Only>
0

> <s_lp_Force_Field>
OPLS_2005

> <r_lp_Energy>
24.9024

> <b_lp_Chiralities_Consistent>
1

> <s_lp_Variant>
AV-unprocessed.smi:2313-1

> <Gold.Version>
5.8.1

> <Gold.Id.Protein>
6NUR|6NUR_protein|mol2

> <Gold.PLP.Fitness>
46.7120

> <Gold.PLP.PLP>
-37.9997

> <Gold.PLP.part.hbond>
-3.0000

> <Gold.PLP.part.metal>
0.0000

> <Gold.PLP.part.buried>
-6.2734

> <Gold.PLP.part.nonpolar>
-29.2295

> <Gold.PLP.part.repulsive>
0.0245

> <Gold.PLP.ligand.clash>
0.0000

> <Gold.PLP.ligand.torsion>
1.3546

> <Gold.PLP.Chemscore.Hbond>
2.3094

> <Gold.PLP.Chemscore.CHOScore>
1.0000

> <Gold.PLP.Chemscore.Metal>
0.0000

> <Gold.Chemscore.Hbonds>
donor molecule, donor type, donor heavy atom, donor atom, acceptor molecule, acceptor atom, score
      L1  H     9    29       P1  8028  1.00
      P1  H  6934  6946       L1    13  0.41
      P1  H  7997  8009       L1    18  0.96
      L1  C     4    26       P1  8028  0.82

> <Gold.PLP.Chemscore.Internal.Correction>
1.4934

> <Gold.Rescore>
     Score         DG    S(hbond)    S(metal)    S(lipo)     H(rot)  DE(clash)    DE(int)     intcor
     15.44     -18.11       2.53        0.00      75.10       1.80       0.12       2.55       ----

> <Gold.Chemscore.Fitness>
15.4406

> <Gold.Chemscore.DG>
-18.1094

> <Gold.Chemscore.ZeroCoef>
-5.4800

> <Gold.Chemscore.Hbond>
2.5267

> <Gold.Chemscore.Metal>
0.0000

> <Gold.Chemscore.Lipo>
75.0994

> <Gold.Chemscore.Internal_Hbond>
0.0000

> <Gold.Chemscore.DEClash>
0.1236

> <Gold.Chemscore.DEInternal>
2.5452

> <Gold.Chemscore.Rot>
1.7955

> <Gold.Chemscore.Internal.Correction>
   9.000000E+99

> <Gold.Chemscore.Hbonds>
donor molecule, donor type, donor heavy atom, donor atom, acceptor molecule, acceptor atom, score
      L1  H     9    29       P1  8028  0.98
      P1  H  6934  6946       L1    13  0.40
      P1  H  7997  8009       L1    18  0.86

> <Gold.Chemscore.Hbond.Weighted>
-8.4392

> <Gold.Chemscore.Metal.Weighted>
-0.0000

> <Gold.Chemscore.Lipo.Weighted>
-8.7866

> <Gold.Chemscore.Internal_Hbond.Weighted>
0.0000

> <Gold.Chemscore.DEClash.Weighted>
0.1236

> <Gold.Chemscore.DEInternal.Weighted>
2.5452

> <Gold.Chemscore.Rot.Weighted>
4.5965

> <Gold.Chemscore.Internal.Correction.Weighted>
   9.000000E+99

> <Gold.Protein.RotatedTorsions>
[ 6907 6896 6895 6894 ] final  -44.87 input  -60.11 | X-H torsion
[ 7974 7965 7964 7962 ] final -149.97 input  175.53 | X-H torsion
[ 8008 7997 7996 7995 ] final  171.08 input   59.86 | X-H torsion
[ 10167 10162 10161 10158 ] final -135.89 input  -65.29 | X-H torsion
[ 10718 10713 10712 10709 ] final -159.18 input   66.30 | X-H torsion
[ 10763 10752 10751 10750 ] final  -29.62 input  -60.55 | X-H torsion
[ 11005 11000 10999 10996 ] final  123.31 input  -57.11 | X-H torsion

> <Gold.Protein.ActiveResidues>
 VAL166  LYS551  ARG553  GLY616  TRP617  ASP618  TYR619  PRO620  LYS621  CYS622 
 ASP623  PHE694  ASN695  SER759  ASP760  ASP761  ALA762  ILE779  LEU786  VAL792 
 PHE793  MET794  SER795  GLU796  ALA797  LYS798  CYS799  TRP800  GLU811  SER814 

> <Gold.Protein.RotatedAtoms>
  150.9281  134.8697  159.7533 H   0  0  0  0  0  0  0  0  0  0  0  0  # atno 6907 bound_to 6896
  152.5025  134.4119  159.9461 H   0  0  0  0  0  0  0  0  0  0  0  0  # atno 6908 bound_to 6896
  151.4147  133.3676  159.2783 H   0  0  0  0  0  0  0  0  0  0  0  0  # atno 6909 bound_to 6896
  144.7935  140.4994  143.5756 H   0  0  0  0  0  0  0  0  0  0  0  0  # atno 7974 bound_to 7965
  156.1305  140.1521  156.9072 H   0  0  0  0  0  0  0  0  0  0  0  0  # atno 8008 bound_to 7997
  154.4905  140.0852  156.7624 H   0  0  0  0  0  0  0  0  0  0  0  0  # atno 8009 bound_to 7997
  155.4264  140.3425  155.4278 H   0  0  0  0  0  0  0  0  0  0  0  0  # atno 8010 bound_to 7997
  139.8733  143.6930  152.2637 H   0  0  0  0  0  0  0  0  0  0  0  0  # atno 10167 bound_to 10162
  156.5644  130.8661  151.2819 H   0  0  0  0  0  0  0  0  0  0  0  0  # atno 10718 bound_to 10713
  153.7676  135.6914  153.4913 H   0  0  0  0  0  0  0  0  0  0  0  0  # atno 10763 bound_to 10752
  153.1896  135.4476  155.0131 H   0  0  0  0  0  0  0  0  0  0  0  0  # atno 10764 bound_to 10752
  154.8130  135.3386  154.7187 H   0  0  0  0  0  0  0  0  0  0  0  0  # atno 10765 bound_to 10752
  139.9307  134.9641  156.8240 H   0  0  0  0  0  0  0  0  0  0  0  0  # atno 11005 bound_to 11000
  145.5733  139.1484  143.3276 LP  0  0  0  0  0  0  0  0  0  0  0  0  # atno 17320 bound_to 7965
  146.2196  140.5865  142.9023 LP  0  0  0  0  0  0  0  0  0  0  0  0  # atno 17321 bound_to 7965
  139.7264  144.7592  151.0872 LP  0  0  0  0  0  0  0  0  0  0  0  0  # atno 17342 bound_to 10162
  140.7757  143.5143  150.9614 LP  0  0  0  0  0  0  0  0  0  0  0  0  # atno 17343 bound_to 10162
  157.7361  130.9774  150.2121 LP  0  0  0  0  0  0  0  0  0  0  0  0  # atno 17370 bound_to 10713
  156.2770  130.3728  149.7974 LP  0  0  0  0  0  0  0  0  0  0  0  0  # atno 17371 bound_to 10713
  140.6211  133.9993  155.7618 LP  0  0  0  0  0  0  0  0  0  0  0  0  # atno 17394 bound_to 11000
  141.0893  133.9941  157.3262 LP  0  0  0  0  0  0  0  0  0  0  0  0  # atno 17395 bound_to 11000

$$$$
