#       Name:                AV-unprocessed.smi:1672
#       Creating user name   scv26
#       Creation time:       Fri Mar 27 07:44:49 2020


#       File generated by GOLD software.
#

@<TRIPOS>MOLECULE
AV-unprocessed.smi:1672
    53    55     1
SMALL
NO_CHARGES


@<TRIPOS>ATOM
      1 ****        -5.6246  -2.0074   1.6435 C.3            1 S1                 0.0000
      2 ****        -4.0927  -2.0156   1.7453 C.3            1 S1                 0.0000
      3 ****        -3.5824  -0.9576   2.7380 C.3            1 S1                 0.0000
      4 ****        -2.0459  -0.9496   2.8067 C.3            1 S1                 0.0000
      5 ****        -1.4506  -0.7282   1.4639 N.4            1 S1                 1.0000
      6 ****         0.0255  -0.5675   1.5191 C.3            1 S1                 0.0000
      7 ****         0.5781   0.2476   0.3330 C.3            1 S1                 0.0000
      8 ****         0.0481   1.5563   0.4004 O.3            1 S1                 0.0000
      9 ****         2.1180   0.3209   0.3599 C.3            1 S1                 0.0000
     10 ****         2.6787   1.0980  -0.7583 N.pl3          1 S1                 0.0000
     11 ****         3.1508   2.3792  -0.8080 C.2            1 S1                 0.0000
     12 ****         3.2138   3.3673   0.3105 C.3            1 S1                 0.0000
     13 ****         2.0047   4.0752   0.4695 O.3            1 S1                 0.0000
     14 ****         3.5544   2.6104  -2.0892 N.pl3          1 S1                 1.0000
     15 ****         3.3493   1.4689  -2.8643 C.ar           1 S1                 0.0000
     16 ****         3.6050   1.2227  -4.2096 C.ar           1 S1                 0.0000
     17 ****         3.2784  -0.0622  -4.6908 C.ar           1 S1                 0.0000
     18 ****         2.7205  -1.0431  -3.8452 C.ar           1 S1                 0.0000
     19 ****         2.4647  -0.7811  -2.4829 C.ar           1 S1                 0.0000
     20 ****         2.7902   0.4920  -2.0153 C.ar           1 S1                 0.0000
     21 ****        -1.8961  -1.7642   0.4944 C.3            1 S1                 0.0000
     22 ****        -3.4293  -1.7878   0.3763 C.3            1 S1                 0.0000
     23 ****        -5.9947  -1.0470   1.2828 H              1 S1                 0.0000
     24 ****        -6.0831  -2.1965   2.6146 H              1 S1                 0.0000
     25 ****        -5.9773  -2.7782   0.9574 H              1 S1                 0.0000
     26 ****        -3.7898  -2.9982   2.1105 H              1 S1                 0.0000
     27 ****        -3.9380   0.0307   2.4424 H              1 S1                 0.0000
     28 ****        -3.9922  -1.1482   3.7307 H              1 S1                 0.0000
     29 ****        -1.7257  -0.1599   3.4876 H              1 S1                 0.0000
     30 ****        -1.6803  -1.8918   3.2186 H              1 S1                 0.0000
     31 ****         0.3071  -0.0603   2.4435 H              1 S1                 0.0000
     32 ****         0.4934  -1.5523   1.5598 H              1 S1                 0.0000
     33 ****         0.2650  -0.1949  -0.6116 H              1 S1                 0.0000
     34 ****         0.4249   2.0717  -0.2972 H              1 S1                 0.0000
     35 ****         2.4594   0.7740   1.2908 H              1 S1                 0.0000
     36 ****         2.5540  -0.6784   0.3324 H              1 S1                 0.0000
     37 ****         3.4603   2.8588   1.2422 H              1 S1                 0.0000
     38 ****         4.0160   4.0799   0.1168 H              1 S1                 0.0000
     39 ****         2.1062   4.6885   1.1819 H              1 S1                 0.0000
     40 ****         4.0335   1.9719  -4.8593 H              1 S1                 0.0000
     41 ****         3.4609  -0.3003  -5.7288 H              1 S1                 0.0000
     42 ****         2.4842  -2.0167  -4.2501 H              1 S1                 0.0000
     43 ****         2.0383  -1.5404  -1.8445 H              1 S1                 0.0000
     44 ****        -1.4711  -1.5738  -0.4902 H              1 S1                 0.0000
     45 ****        -1.5298  -2.7422   0.8106 H              1 S1                 0.0000
     46 ****        -3.7310  -2.5715  -0.3195 H              1 S1                 0.0000
     47 ****        -3.7750  -0.8455  -0.0517 H              1 S1                 0.0000
     48 ****        -1.8152   0.1572   1.1408 H              1 S1                 0.0000
     49 ****         3.9429   3.4893  -2.4073 H              1 S1                 0.0000
     50 ****         0.2762   1.9668   1.2833 LP             1 S1                 0.0000
     51 ****        -0.9458   1.5228   0.2952 LP             1 S1                 0.0000
     52 ****         1.2647   3.4357   0.6781 LP             1 S1                 0.0000
     53 ****         1.7903   4.5696  -0.3729 LP             1 S1                 0.0000
@<TRIPOS>BOND
    1    1    2 1     
    2    1   23 1     
    3    1   24 1     
    4    1   25 1     
    5    2   22 1     
    6    2    3 1     
    7    2   26 1     
    8    3    4 1     
    9    3   27 1     
   10    3   28 1     
   11    4    5 1     
   12    4   29 1     
   13    4   30 1     
   14    5    6 1     
   15    5   21 1     
   16    5   48 1     
   17    6    7 1     
   18    6   31 1     
   19    6   32 1     
   20    7    8 1     
   21    7    9 1     
   22    7   33 1     
   23    8   34 1     
   24    9   10 1     
   25    9   35 1     
   26    9   36 1     
   27   10   20 1     
   28   10   11 1     
   29   11   12 1     
   30   11   14 2     
   31   12   13 1     
   32   12   37 1     
   33   12   38 1     
   34   13   39 1     
   35   14   15 1     
   36   14   49 1     
   37   15   20 ar    
   38   15   16 ar    
   39   16   17 ar    
   40   16   40 1     
   41   17   18 ar    
   42   17   41 1     
   43   18   19 ar    
   44   18   42 1     
   45   19   20 ar    
   46   19   43 1     
   47   21   22 1     
   48   21   44 1     
   49   21   45 1     
   50   22   46 1     
   51   22   47 1     
   52    8   50 1     
   53    8   51 1     
   54   13   52 1     
   55   13   53 1     
@<TRIPOS>SUBSTRUCTURE
      1 S1             1
@<TRIPOS>SET
LONE_PAIRS      STATIC     ATOMS    <user>   **** ""
4 50 51 52 53
DONOR_HYDROGENS      STATIC     ATOMS    <user>   **** ""
4 48 34 39 49
ATOM$BLUE        STATIC     ATOMS    COLORGROUP SYSTEM
4 50 51 52 53
ATOM$RED        STATIC     ATOMS    COLORGROUP SYSTEM
4 48 34 39 49
