AV-unprocessed.smi:2751|AV-procd|sdf|10596|dock7
  -GOLD-   2272015 43D 1   1.00000     0.00000
 Structure written by MMmdl.
 34 35  0  0  0  0  0  0  0  0  1 V2000
  153.9825  139.1540  157.4827 O   0  0  0  0  0  0  0  0  0  0  0  0
  152.9033  139.6656  157.7826 C   0  0  0  0  0  0  0  0  0  0  0  0
  152.6463  140.1998  158.9855 N   0  0  0  0  0  0  0  0  0  0  0  0
  153.5854  140.2391  160.1008 C   0  0  0  0  0  0  0  0  0  0  0  0
  153.6430  141.6377  160.7391 C   0  0  0  0  0  0  0  0  0  0  0  0
  152.6778  142.6369  160.0820 C   0  0  1  0  0  0  0  0  0  0  0  0
  152.3170  143.7962  161.0317 C   0  0  0  0  0  0  0  0  0  0  0  0
  151.4176  144.8146  160.3224 C   0  0  0  0  0  0  0  0  0  0  0  0
  152.0754  145.2596  159.0123 C   0  0  0  0  0  0  0  0  0  0  0  0
  152.4554  144.0362  158.1635 C   0  0  0  0  0  0  0  0  0  0  0  0
  153.3002  143.1681  158.9132 O   0  0  0  0  0  0  0  0  0  0  0  0
  151.8392  139.7610  156.9679 N   0  0  0  0  0  0  0  0  0  0  0  0
  151.7311  139.2984  155.6320 C   0  0  0  0  0  0  0  0  0  0  0  0
  150.7981  139.6450  154.7436 N   0  0  0  0  0  0  0  0  0  0  0  0
  151.1243  138.9337  153.5980 C   0  0  0  0  0  0  0  0  0  0  0  0
  152.2461  138.1902  153.8613 C   0  0  0  0  0  0  0  0  0  0  0  0
  152.6437  138.4122  155.1527 O   0  0  0  0  0  0  0  0  0  0  0  0
  151.7332  140.5995  159.1459 H   0  0  0  0  0  0  0  0  0  0  0  0
  153.3168  139.4859  160.8435 H   0  0  0  0  0  0  0  0  0  0  0  0
  154.5701  139.9632  159.7227 H   0  0  0  0  0  0  0  0  0  0  0  0
  153.4007  141.5513  161.7990 H   0  0  0  0  0  0  0  0  0  0  0  0
  154.6599  142.0295  160.6880 H   0  0  0  0  0  0  0  0  0  0  0  0
  151.7661  142.1090  159.7955 H   0  0  0  0  0  0  0  0  0  0  0  0
  151.8155  143.4153  161.9220 H   0  0  0  0  0  0  0  0  0  0  0  0
  153.2281  144.2896  161.3736 H   0  0  0  0  0  0  0  0  0  0  0  0
  150.4474  144.3631  160.1117 H   0  0  0  0  0  0  0  0  0  0  0  0
  151.2316  145.6736  160.9675 H   0  0  0  0  0  0  0  0  0  0  0  0
  151.4038  145.9132  158.4549 H   0  0  0  0  0  0  0  0  0  0  0  0
  152.9710  145.8424  159.2309 H   0  0  0  0  0  0  0  0  0  0  0  0
  151.5648  143.4991  157.8330 H   0  0  0  0  0  0  0  0  0  0  0  0
  152.9858  144.3544  157.2657 H   0  0  0  0  0  0  0  0  0  0  0  0
  151.0148  140.2043  157.3449 H   0  0  0  0  0  0  0  0  0  0  0  0
  150.5388  139.0118  152.6938 H   0  0  0  0  0  0  0  0  0  0  0  0
  152.8431  137.5028  153.2804 H   0  0  0  0  0  0  0  0  0  0  0  0
  1  2  2  0  0  0  0
  2  3  1  0  0  0  0
  2 12  1  0  0  0  0
  3  4  1  0  0  0  0
  3 18  1  0  0  0  0
  4  5  1  0  0  0  0
  4 19  1  0  0  0  0
  4 20  1  0  0  0  0
  5  6  1  0  0  0  0
  5 21  1  0  0  0  0
  5 22  1  0  0  0  0
  6 11  1  0  0  0  0
  6  7  1  0  0  0  0
  6 23  1  0  0  0  0
  7  8  1  0  0  0  0
  7 24  1  0  0  0  0
  7 25  1  0  0  0  0
  8  9  1  0  0  0  0
  8 26  1  0  0  0  0
  8 27  1  0  0  0  0
  9 10  1  0  0  0  0
  9 28  1  0  0  0  0
  9 29  1  0  0  0  0
 10 11  1  0  0  0  0
 10 30  1  0  0  0  0
 10 31  1  0  0  0  0
 12 13  1  0  0  0  0
 12 32  1  0  0  0  0
 13 17  1  0  0  0  0
 13 14  2  0  0  0  0
 14 15  1  0  0  0  0
 15 16  2  0  0  0  0
 15 33  1  0  0  0  0
 16 17  1  0  0  0  0
 16 34  1  0  0  0  0
M  END
> <s_m_source_file>
AV-unprocessed.smi

> <i_m_source_file_index>
2751

> <i_lp_mmshare_version>
43012

> <i_f3d_flags>
0

> <s_epik_input>
bzFbY0hdW2NIXW5jMVtOSF1DKD1PKVtOSF1bQ0gyXVtDSDJdW0NAQEhdMltDSDJdW0NIMl1bQ0gyXVtDSDJdTzI=

> <s_epik_cmdline>
J2VwaWtfcHl0aG9uJywgJy1waCcsICc3LjAnLCAnLXRuJywgJzgnLCAnLW1hJywgJzIwMCcsICctbWV0YWxfYmluZGluZycsICctaW1hZScsICc8aW5maWxlLm1hZT4nLCAnLW9tYWUnLCAnPG91dGZpbGUubWFlPic=

> <r_lp_tautomer_probability>
0.785861

> <r_epik_Ionization_Penalty>
4.88827e-05

> <r_epik_Ionization_Penalty_Charging>
0

> <r_epik_Ionization_Penalty_Neutral>
4.88827e-05

> <r_epik_State_Penalty>
0.0434822

> <r_epik_Charging_Adjusted_Penalty>
0.0434822

> <i_epik_Tot_Q>
0

> <i_epik_Tot_abs_Q>
0

> <r_epik_Metal_State_Penalty>
0.0598982

> <b_epik_Metal_Only>
0

> <s_lp_Force_Field>
OPLS_2005

> <r_lp_Energy>
7.8545

> <b_lp_Chiralities_Consistent>
1

> <s_lp_Variant>
AV-unprocessed.smi:2751-2

> <Gold.Version>
5.8.1

> <Gold.Id.Protein>
6NUR|6NUR_protein|mol2

> <Gold.PLP.Fitness>
43.1615

> <Gold.PLP.PLP>
-37.9069

> <Gold.PLP.part.hbond>
-1.0000

> <Gold.PLP.part.metal>
0.0000

> <Gold.PLP.part.buried>
-5.4123

> <Gold.PLP.part.nonpolar>
-32.7048

> <Gold.PLP.part.repulsive>
0.2505

> <Gold.PLP.ligand.clash>
2.7765

> <Gold.PLP.ligand.torsion>
0.7426

> <Gold.PLP.Chemscore.Hbond>
1.0000

> <Gold.PLP.Chemscore.CHOScore>
2.1715

> <Gold.PLP.Chemscore.Metal>
0.0000

> <Gold.Chemscore.Hbonds>
donor molecule, donor type, donor heavy atom, donor atom, acceptor molecule, acceptor atom, score
      P1  H  7997  8008       L1     1  0.08
      L1  C    15    33       P1  7957  1.00
      L1  C    16    34       P1  7949  0.10

> <Gold.PLP.Chemscore.Internal.Correction>
0.0017

> <Gold.Rescore>
     Score         DG    S(hbond)    S(metal)    S(lipo)     H(rot)  DE(clash)    DE(int)     intcor
     13.71     -15.95       0.99        0.00      96.93       1.63       0.01       2.23       ----

> <Gold.Chemscore.Fitness>
13.7130

> <Gold.Chemscore.DG>
-15.9532

> <Gold.Chemscore.ZeroCoef>
-5.4800

> <Gold.Chemscore.Hbond>
0.9918

> <Gold.Chemscore.Metal>
0.0000

> <Gold.Chemscore.Lipo>
96.9287

> <Gold.Chemscore.Internal_Hbond>
0.0000

> <Gold.Chemscore.DEClash>
0.0073

> <Gold.Chemscore.DEInternal>
2.2329

> <Gold.Chemscore.Rot>
1.6328

> <Gold.Chemscore.Internal.Correction>
   9.000000E+99

> <Gold.Chemscore.Hbonds>
donor molecule, donor type, donor heavy atom, donor atom, acceptor molecule, acceptor atom, score
      P1  H  7997  8008       L1     1  0.07

> <Gold.Chemscore.Hbond.Weighted>
-3.3125

> <Gold.Chemscore.Metal.Weighted>
-0.0000

> <Gold.Chemscore.Lipo.Weighted>
-11.3407

> <Gold.Chemscore.Internal_Hbond.Weighted>
0.0000

> <Gold.Chemscore.DEClash.Weighted>
0.0073

> <Gold.Chemscore.DEInternal.Weighted>
2.2329

> <Gold.Chemscore.Rot.Weighted>
4.1799

> <Gold.Chemscore.Internal.Correction.Weighted>
   9.000000E+99

> <Gold.Protein.RotatedTorsions>
[ 6907 6896 6895 6894 ] final -145.62 input  -60.11 | X-H torsion
[ 7974 7965 7964 7962 ] final   65.68 input  175.53 | X-H torsion
[ 8008 7997 7996 7995 ] final  -91.00 input   59.86 | X-H torsion
[ 10167 10162 10161 10158 ] final   -0.22 input  -65.29 | X-H torsion
[ 10718 10713 10712 10709 ] final  144.98 input   66.30 | X-H torsion
[ 10763 10752 10751 10750 ] final   64.74 input  -60.55 | X-H torsion
[ 11005 11000 10999 10996 ] final  -79.48 input  -57.11 | X-H torsion

> <Gold.Protein.ActiveResidues>
 VAL166  LYS551  ARG553  GLY616  TRP617  ASP618  TYR619  PRO620  LYS621  CYS622 
 ASP623  PHE694  ASN695  SER759  ASP760  ASP761  ALA762  ILE779  LEU786  VAL792 
 PHE793  MET794  SER795  GLU796  ALA797  LYS798  CYS799  TRP800  GLU811  SER814 

> <Gold.Protein.RotatedAtoms>
  151.1303  133.5041  159.2599 H   0  0  0  0  0  0  0  0  0  0  0  0  # atno 6907 bound_to 6896
  151.1765  135.0341  159.8784 H   0  0  0  0  0  0  0  0  0  0  0  0  # atno 6908 bound_to 6896
  152.5459  134.1160  159.8432 H   0  0  0  0  0  0  0  0  0  0  0  0  # atno 6909 bound_to 6896
  145.8355  139.3164  143.0962 H   0  0  0  0  0  0  0  0  0  0  0  0  # atno 7974 bound_to 7965
  154.7054  140.0524  157.0498 H   0  0  0  0  0  0  0  0  0  0  0  0  # atno 8008 bound_to 7997
  155.0628  140.3191  155.4636 H   0  0  0  0  0  0  0  0  0  0  0  0  # atno 8009 bound_to 7997
  156.2773  140.2096  156.5755 H   0  0  0  0  0  0  0  0  0  0  0  0  # atno 8010 bound_to 7997
  140.6758  143.6920  150.8020 H   0  0  0  0  0  0  0  0  0  0  0  0  # atno 10167 bound_to 10162
  157.3507  131.0950  151.1002 H   0  0  0  0  0  0  0  0  0  0  0  0  # atno 10718 bound_to 10713
  153.0068  135.5382  154.6557 H   0  0  0  0  0  0  0  0  0  0  0  0  # atno 10763 bound_to 10752
  154.5778  135.2847  155.0765 H   0  0  0  0  0  0  0  0  0  0  0  0  # atno 10764 bound_to 10752
  154.1906  135.6501  153.5111 H   0  0  0  0  0  0  0  0  0  0  0  0  # atno 10765 bound_to 10752
  141.1667  133.7107  156.8128 H   0  0  0  0  0  0  0  0  0  0  0  0  # atno 11005 bound_to 11000
  145.9523  140.8899  143.0253 LP  0  0  0  0  0  0  0  0  0  0  0  0  # atno 17320 bound_to 7965
  144.6737  140.1697  143.7415 LP  0  0  0  0  0  0  0  0  0  0  0  0  # atno 17321 bound_to 7965
  140.0613  143.5152  152.2626 LP  0  0  0  0  0  0  0  0  0  0  0  0  # atno 17342 bound_to 10162
  139.6049  144.7593  151.3084 LP  0  0  0  0  0  0  0  0  0  0  0  0  # atno 17343 bound_to 10162
  157.2179  130.6468  149.5799 LP  0  0  0  0  0  0  0  0  0  0  0  0  # atno 17370 bound_to 10713
  155.9721  130.4638  150.6197 LP  0  0  0  0  0  0  0  0  0  0  0  0  # atno 17371 bound_to 10713
  140.2175  134.8782  157.3341 LP  0  0  0  0  0  0  0  0  0  0  0  0  # atno 17394 bound_to 11000
  140.2022  134.4240  155.7656 LP  0  0  0  0  0  0  0  0  0  0  0  0  # atno 17395 bound_to 11000

$$$$
