AV-unprocessed.smi:3254|AV-procd|sdf|12455|dock3
  -GOLD-   2272018353D 1   1.00000     0.00000
 Structure written by MMmdl.
 36 37  0  0  0  0  0  0  0  0  1 V2000
  145.3661  144.3200  153.3296 C   0  0  0  0  0  0  0  0  0  0  0  0
  145.4539  143.5915  154.6774 C   0  0  0  0  0  0  0  0  0  0  0  0
  146.2333  142.3622  154.5675 N   0  0  0  0  0  0  0  0  0  0  0  0
  147.5041  142.3503  153.8629 C   0  0  0  0  0  0  0  0  0  0  0  0
  148.1301  140.9721  154.1640 C   0  0  1  0  0  0  0  0  0  0  0  0
  149.3177  141.0709  155.1349 C   0  0  0  0  0  0  0  0  0  0  0  0
  150.4283  140.6584  154.7980 O   0  0  0  0  0  0  0  0  0  0  0  0
  149.0640  141.6172  156.3332 N   0  0  0  0  0  0  0  0  0  0  0  0
  150.0389  141.8224  157.4005 C   0  0  0  0  0  0  0  0  0  0  0  0
  151.0101  142.9614  157.0508 C   0  0  0  0  0  0  0  0  0  0  0  0
  151.5018  143.6463  158.2314 N   0  0  0  0  0  0  0  0  0  0  0  0
  151.1311  144.9057  158.6837 C   0  0  0  0  0  0  0  0  0  0  0  0
  151.8557  145.1401  159.8305 C   0  0  0  0  0  0  0  0  0  0  0  0
  152.6724  144.0446  160.1013 N   0  0  0  0  0  0  0  0  0  0  0  0
  152.4057  143.1993  159.1141 C   0  0  0  0  0  0  0  0  0  0  0  0
  146.9805  140.1357  154.7612 C   0  0  0  0  0  0  0  0  0  0  0  0
  145.8899  141.1578  155.0371 C   0  0  0  0  0  0  0  0  0  0  0  0
  144.8492  140.8789  155.6304 O   0  0  0  0  0  0  0  0  0  0  0  0
  144.7637  145.2243  153.4165 H   0  0  0  0  0  0  0  0  0  0  0  0
  144.9073  143.6859  152.5703 H   0  0  0  0  0  0  0  0  0  0  0  0
  146.3530  144.6127  152.9699 H   0  0  0  0  0  0  0  0  0  0  0  0
  145.9020  144.2449  155.4275 H   0  0  0  0  0  0  0  0  0  0  0  0
  144.4508  143.3552  155.0346 H   0  0  0  0  0  0  0  0  0  0  0  0
  147.3240  142.4681  152.7935 H   0  0  0  0  0  0  0  0  0  0  0  0
  148.1303  143.1845  154.1850 H   0  0  0  0  0  0  0  0  0  0  0  0
  148.4702  140.5163  153.2322 H   0  0  0  0  0  0  0  0  0  0  0  0
  148.1192  141.9203  156.5209 H   0  0  0  0  0  0  0  0  0  0  0  0
  149.5055  142.0476  158.3246 H   0  0  0  0  0  0  0  0  0  0  0  0
  150.6138  140.9144  157.5890 H   0  0  0  0  0  0  0  0  0  0  0  0
  151.8686  142.5647  156.5078 H   0  0  0  0  0  0  0  0  0  0  0  0
  150.5299  143.6866  156.3920 H   0  0  0  0  0  0  0  0  0  0  0  0
  150.4048  145.5147  158.1656 H   0  0  0  0  0  0  0  0  0  0  0  0
  151.8518  146.0059  160.4762 H   0  0  0  0  0  0  0  0  0  0  0  0
  152.8829  142.2338  159.0286 H   0  0  0  0  0  0  0  0  0  0  0  0
  146.6150  139.4013  154.0429 H   0  0  0  0  0  0  0  0  0  0  0  0
  147.2513  139.6063  155.6763 H   0  0  0  0  0  0  0  0  0  0  0  0
  1  2  1  0  0  0  0
  1 19  1  0  0  0  0
  1 20  1  0  0  0  0
  1 21  1  0  0  0  0
  2  3  1  0  0  0  0
  2 22  1  0  0  0  0
  2 23  1  0  0  0  0
  3 17  1  0  0  0  0
  3  4  1  0  0  0  0
  4  5  1  0  0  0  0
  4 24  1  0  0  0  0
  4 25  1  0  0  0  0
  5  6  1  0  0  0  0
  5 16  1  0  0  0  0
  5 26  1  0  0  0  0
  6  7  2  0  0  0  0
  6  8  1  0  0  0  0
  8  9  1  0  0  0  0
  8 27  1  0  0  0  0
  9 10  1  0  0  0  0
  9 28  1  0  0  0  0
  9 29  1  0  0  0  0
 10 11  1  0  0  0  0
 10 30  1  0  0  0  0
 10 31  1  0  0  0  0
 11 15  1  0  0  0  0
 11 12  1  0  0  0  0
 12 13  2  0  0  0  0
 12 32  1  0  0  0  0
 13 14  1  0  0  0  0
 13 33  1  0  0  0  0
 14 15  2  0  0  0  0
 15 34  1  0  0  0  0
 16 17  1  0  0  0  0
 16 35  1  0  0  0  0
 16 36  1  0  0  0  0
 17 18  2  0  0  0  0
M  END
> <s_m_source_file>
AV-unprocessed.smi

> <i_m_source_file_index>
3254

> <i_lp_mmshare_version>
43012

> <i_f3d_flags>
0

> <s_epik_input>
W0NIM11bQ0gyXU4xW0NIMl1bQ0BIXShbQ0gyXUMxPU8pQyg9TylbTkhdW0NIMl1bQ0gyXW4yW2NIXVtjSF1uW2NIXTI=

> <s_epik_cmdline>
J2VwaWtfcHl0aG9uJywgJy1waCcsICc3LjAnLCAnLXRuJywgJzgnLCAnLW1hJywgJzIwMCcsICctbWV0YWxfYmluZGluZycsICctaW1hZScsICc8aW5maWxlLm1hZT4nLCAnLW9tYWUnLCAnPG91dGZpbGUubWFlPic=

> <r_lp_tautomer_probability>
1

> <r_epik_Ionization_Penalty>
0.587394

> <r_epik_Ionization_Penalty_Charging>
0.587394

> <r_epik_Ionization_Penalty_Neutral>
3.11583e-08

> <r_epik_State_Penalty>
0.600671

> <r_epik_Charging_Adjusted_Penalty>
1.18807

> <i_epik_Tot_Q>
0

> <i_epik_Tot_abs_Q>
0

> <r_epik_Metal_State_Penalty>
0.297665

> <b_epik_Metal_Only>
0

> <s_lp_Force_Field>
OPLS_2005

> <r_lp_Energy>
14.5413

> <b_lp_Chiralities_Consistent>
1

> <s_lp_Variant>
AV-unprocessed.smi:3254-3

> <Gold.Version>
5.8.1

> <Gold.Id.Protein>
6NUR|6NUR_protein|mol2

> <Gold.PLP.Fitness>
42.6439

> <Gold.PLP.PLP>
-38.2105

> <Gold.PLP.part.hbond>
-1.5313

> <Gold.PLP.part.metal>
0.0000

> <Gold.PLP.part.buried>
-3.7895

> <Gold.PLP.part.nonpolar>
-34.3098

> <Gold.PLP.part.repulsive>
0.2763

> <Gold.PLP.ligand.clash>
0.0000

> <Gold.PLP.ligand.torsion>
0.5769

> <Gold.PLP.Chemscore.Hbond>
0.9120

> <Gold.PLP.Chemscore.CHOScore>
0.9233

> <Gold.PLP.Chemscore.Metal>
0.0000

> <Gold.Chemscore.Hbonds>
donor molecule, donor type, donor heavy atom, donor atom, acceptor molecule, acceptor atom, score
      P1  H  7989  7998       L1     7  0.91
      L1  C    12    32       P1  8029  0.59

> <Gold.PLP.Chemscore.Internal.Correction>
0.0811

> <Gold.Rescore>
     Score         DG    S(hbond)    S(metal)    S(lipo)     H(rot)  DE(clash)    DE(int)     intcor
     10.93     -11.35       0.93        0.00      71.51       2.20       0.03       0.39       ----

> <Gold.Chemscore.Fitness>
10.9305

> <Gold.Chemscore.DG>
-11.3460

> <Gold.Chemscore.ZeroCoef>
-5.4800

> <Gold.Chemscore.Hbond>
0.9337

> <Gold.Chemscore.Metal>
0.0000

> <Gold.Chemscore.Lipo>
71.5132

> <Gold.Chemscore.Internal_Hbond>
0.0000

> <Gold.Chemscore.DEClash>
0.0303

> <Gold.Chemscore.DEInternal>
0.3852

> <Gold.Chemscore.Rot>
2.1952

> <Gold.Chemscore.Internal.Correction>
   9.000000E+99

> <Gold.Chemscore.Hbonds>
donor molecule, donor type, donor heavy atom, donor atom, acceptor molecule, acceptor atom, score
      P1  H  7989  7998       L1     7  0.88

> <Gold.Chemscore.Hbond.Weighted>
-3.1186

> <Gold.Chemscore.Metal.Weighted>
-0.0000

> <Gold.Chemscore.Lipo.Weighted>
-8.3670

> <Gold.Chemscore.Internal_Hbond.Weighted>
0.0000

> <Gold.Chemscore.DEClash.Weighted>
0.0303

> <Gold.Chemscore.DEInternal.Weighted>
0.3852

> <Gold.Chemscore.Rot.Weighted>
5.6197

> <Gold.Chemscore.Internal.Correction.Weighted>
   9.000000E+99

> <Gold.Protein.RotatedTorsions>
[ 6907 6896 6895 6894 ] final  115.64 input  -60.11 | X-H torsion
[ 7974 7965 7964 7962 ] final   -9.67 input  175.53 | X-H torsion
[ 8008 7997 7996 7995 ] final -167.02 input   59.86 | X-H torsion
[ 10167 10162 10161 10158 ] final  162.02 input  -65.29 | X-H torsion
[ 10718 10713 10712 10709 ] final   91.78 input   66.30 | X-H torsion
[ 10763 10752 10751 10750 ] final -118.27 input  -60.55 | X-H torsion
[ 11005 11000 10999 10996 ] final -160.10 input  -57.11 | X-H torsion

> <Gold.Protein.ActiveResidues>
 VAL166  LYS551  ARG553  GLY616  TRP617  ASP618  TYR619  PRO620  LYS621  CYS622 
 ASP623  PHE694  ASN695  SER759  ASP760  ASP761  ALA762  ILE779  LEU786  VAL792 
 PHE793  MET794  SER795  GLU796  ALA797  LYS798  CYS799  TRP800  GLU811  SER814 

> <Gold.Protein.RotatedAtoms>
  152.4729  133.8070  159.6982 H   0  0  0  0  0  0  0  0  0  0  0  0  # atno 6907 bound_to 6896
  150.8728  133.7472  159.2962 H   0  0  0  0  0  0  0  0  0  0  0  0  # atno 6908 bound_to 6896
  151.5001  135.1065  159.9879 H   0  0  0  0  0  0  0  0  0  0  0  0  # atno 6909 bound_to 6896
  146.2244  140.2651  142.8354 H   0  0  0  0  0  0  0  0  0  0  0  0  # atno 7974 bound_to 7965
  155.8719  140.0995  157.1544 H   0  0  0  0  0  0  0  0  0  0  0  0  # atno 8008 bound_to 7997
  154.3998  140.1345  156.4152 H   0  0  0  0  0  0  0  0  0  0  0  0  # atno 8009 bound_to 7997
  155.7741  140.3460  155.5265 H   0  0  0  0  0  0  0  0  0  0  0  0  # atno 8010 bound_to 7997
  139.4856  144.4479  151.8868 H   0  0  0  0  0  0  0  0  0  0  0  0  # atno 10167 bound_to 10162
  157.6960  131.0419  150.3781 H   0  0  0  0  0  0  0  0  0  0  0  0  # atno 10718 bound_to 10713
  154.8582  135.4280  154.2113 H   0  0  0  0  0  0  0  0  0  0  0  0  # atno 10763 bound_to 10752
  153.3138  135.6977  153.7097 H   0  0  0  0  0  0  0  0  0  0  0  0  # atno 10764 bound_to 10752
  153.6179  135.3507  155.2975 H   0  0  0  0  0  0  0  0  0  0  0  0  # atno 10765 bound_to 10752
  140.6352  134.4609  157.5231 H   0  0  0  0  0  0  0  0  0  0  0  0  # atno 11005 bound_to 11000
  144.9310  140.7975  143.5689 LP  0  0  0  0  0  0  0  0  0  0  0  0  # atno 17320 bound_to 7965
  145.2595  139.1998  143.4899 LP  0  0  0  0  0  0  0  0  0  0  0  0  # atno 17321 bound_to 7965
  140.3934  144.2586  150.5898 LP  0  0  0  0  0  0  0  0  0  0  0  0  # atno 17342 bound_to 10162
  140.5124  143.2287  151.8514 LP  0  0  0  0  0  0  0  0  0  0  0  0  # atno 17343 bound_to 10162
  156.4198  130.3950  149.6833 LP  0  0  0  0  0  0  0  0  0  0  0  0  # atno 17370 bound_to 10713
  156.4088  130.7711  151.2723 LP  0  0  0  0  0  0  0  0  0  0  0  0  # atno 17371 bound_to 10713
  139.9101  134.8364  156.1561 LP  0  0  0  0  0  0  0  0  0  0  0  0  # atno 17394 bound_to 11000
  141.0646  133.6825  156.2020 LP  0  0  0  0  0  0  0  0  0  0  0  0  # atno 17395 bound_to 11000

$$$$
