AV-unprocessed.smi:2019|AV-procd|sdf|8172|dock4
  -GOLD-   2272010423D 1   1.00000     0.00000
 Structure written by MMmdl.
 36 37  0  0  0  0  0  0  0  0  1 V2000
  151.3225  141.0705  157.2298 O   0  0  0  0  0  0  0  0  0  0  0  0
  151.0375  142.1299  156.6697 C   0  0  0  0  0  0  0  0  0  0  0  0
  151.8268  143.4115  156.9683 C   0  0  0  0  0  0  0  0  0  0  0  0
  151.8938  143.7227  158.4057 N   0  0  0  0  0  0  0  0  0  0  0  0
  151.3003  144.9279  158.8316 C   0  0  0  0  0  0  0  0  0  0  0  0
  151.3012  145.3034  160.1205 C   0  0  0  0  0  0  0  0  0  0  0  0
  151.9333  144.4337  161.0842 C   0  0  0  0  0  0  0  0  0  0  0  0
  152.5022  143.2778  160.6880 C   0  0  0  0  0  0  0  0  0  0  0  0
  152.5033  142.8632  159.2801 C   0  0  0  0  0  0  0  0  0  0  0  0
  153.0205  141.8091  158.9097 O   0  0  0  0  0  0  0  0  0  0  0  0
  150.0301  142.2492  155.7901 N   0  0  0  0  0  0  0  0  0  0  0  0
  149.1653  141.1580  155.3355 C   0  0  1  0  0  0  0  0  0  0  0  0
  148.3505  141.6781  154.1288 C   0  0  0  0  0  0  0  0  0  0  0  0
  147.0519  140.8933  153.8723 C   0  0  0  0  0  0  0  0  0  0  0  0
  147.2503  139.4269  153.4591 C   0  0  0  0  0  0  0  0  0  0  0  0
  147.9423  138.5700  154.5329 C   0  0  0  0  0  0  0  0  0  0  0  0
  149.3811  138.7970  154.5716 N   0  0  0  0  0  0  0  0  0  0  0  0
  150.0086  139.9386  154.8926 C   0  0  0  0  0  0  0  0  0  0  0  0
  151.2358  140.0114  154.8292 O   0  0  0  0  0  0  0  0  0  0  0  0
  152.8351  143.3266  156.5580 H   0  0  0  0  0  0  0  0  0  0  0  0
  151.3626  144.2305  156.4174 H   0  0  0  0  0  0  0  0  0  0  0  0
  150.8429  145.5177  158.0504 H   0  0  0  0  0  0  0  0  0  0  0  0
  150.8381  146.2292  160.4289 H   0  0  0  0  0  0  0  0  0  0  0  0
  151.9489  144.7103  162.1282 H   0  0  0  0  0  0  0  0  0  0  0  0
  152.9696  142.6392  161.4233 H   0  0  0  0  0  0  0  0  0  0  0  0
  149.8691  143.1562  155.3771 H   0  0  0  0  0  0  0  0  0  0  0  0
  148.4936  140.8749  156.1481 H   0  0  0  0  0  0  0  0  0  0  0  0
  148.0640  142.7146  154.3140 H   0  0  0  0  0  0  0  0  0  0  0  0
  148.9620  141.7030  153.2247 H   0  0  0  0  0  0  0  0  0  0  0  0
  146.4221  140.9367  154.7619 H   0  0  0  0  0  0  0  0  0  0  0  0
  146.4898  141.4000  153.0873 H   0  0  0  0  0  0  0  0  0  0  0  0
  146.2685  138.9977  153.2556 H   0  0  0  0  0  0  0  0  0  0  0  0
  147.8010  139.3705  152.5188 H   0  0  0  0  0  0  0  0  0  0  0  0
  147.5007  138.7349  155.5167 H   0  0  0  0  0  0  0  0  0  0  0  0
  147.7904  137.5154  154.3022 H   0  0  0  0  0  0  0  0  0  0  0  0
  149.9624  138.0178  154.2978 H   0  0  0  0  0  0  0  0  0  0  0  0
  1  2  2  0  0  0  0
  2  3  1  0  0  0  0
  2 11  1  0  0  0  0
  3  4  1  0  0  0  0
  3 20  1  0  0  0  0
  3 21  1  0  0  0  0
  4  9  1  0  0  0  0
  4  5  1  0  0  0  0
  5  6  2  0  0  0  0
  5 22  1  0  0  0  0
  6  7  1  0  0  0  0
  6 23  1  0  0  0  0
  7  8  2  0  0  0  0
  7 24  1  0  0  0  0
  8  9  1  0  0  0  0
  8 25  1  0  0  0  0
  9 10  2  0  0  0  0
 11 12  1  0  0  0  0
 11 26  1  0  0  0  0
 12 18  1  0  0  0  0
 12 13  1  0  0  0  0
 12 27  1  0  0  0  0
 13 14  1  0  0  0  0
 13 28  1  0  0  0  0
 13 29  1  0  0  0  0
 14 15  1  0  0  0  0
 14 30  1  0  0  0  0
 14 31  1  0  0  0  0
 15 16  1  0  0  0  0
 15 32  1  0  0  0  0
 15 33  1  0  0  0  0
 16 17  1  0  0  0  0
 16 34  1  0  0  0  0
 16 35  1  0  0  0  0
 17 18  1  0  0  0  0
 17 36  1  0  0  0  0
 18 19  2  0  0  0  0
M  END
> <s_m_source_file>
AV-unprocessed.smi

> <i_m_source_file_index>
2019

> <i_lp_mmshare_version>
43012

> <i_f3d_flags>
0

> <s_epik_input>
Tz1jMVtjSF1bY0hdW2NIXVtjSF1uMVtDSDJdQyg9TylbTkhdW0NAQEhdMltDSDJdW0NIMl1bQ0gyXVtDSDJdW05IXUMyPU8=

> <s_epik_cmdline>
J2VwaWtfcHl0aG9uJywgJy1waCcsICc3LjAnLCAnLXRuJywgJzgnLCAnLW1hJywgJzIwMCcsICctbWV0YWxfYmluZGluZycsICctaW1hZScsICc8aW5maWxlLm1hZT4nLCAnLW9tYWUnLCAnPG91dGZpbGUubWFlPic=

> <r_lp_tautomer_probability>
1

> <r_epik_Ionization_Penalty>
3.70786e-07

> <r_epik_Ionization_Penalty_Charging>
3.17464e-07

> <r_epik_Ionization_Penalty_Neutral>
5.33217e-08

> <r_epik_State_Penalty>
-0

> <r_epik_Charging_Adjusted_Penalty>
3.17464e-07

> <i_epik_Tot_Q>
0

> <i_epik_Tot_abs_Q>
0

> <r_epik_Metal_State_Penalty>
-0

> <b_epik_Metal_Only>
0

> <s_lp_Force_Field>
OPLS_2005

> <r_lp_Energy>
20.0442

> <b_lp_Chiralities_Consistent>
1

> <s_lp_Variant>
AV-unprocessed.smi:2019-2

> <Gold.Version>
5.8.1

> <Gold.Id.Protein>
6NUR|6NUR_protein|mol2

> <Gold.PLP.Fitness>
47.6436

> <Gold.PLP.PLP>
-42.4064

> <Gold.PLP.part.hbond>
-2.0000

> <Gold.PLP.part.metal>
0.0000

> <Gold.PLP.part.buried>
-5.6906

> <Gold.PLP.part.nonpolar>
-35.5131

> <Gold.PLP.part.repulsive>
0.2840

> <Gold.PLP.ligand.clash>
0.0000

> <Gold.PLP.ligand.torsion>
0.1538

> <Gold.PLP.Chemscore.Hbond>
1.8480

> <Gold.PLP.Chemscore.CHOScore>
0.0000

> <Gold.PLP.Chemscore.Metal>
0.0000

> <Gold.Chemscore.Hbonds>
donor molecule, donor type, donor heavy atom, donor atom, acceptor molecule, acceptor atom, score
      L1  H    11    26       P1  8028  0.83
      P1  H  7989  7998       L1    19  1.00

> <Gold.PLP.Chemscore.Internal.Correction>
0.0009

> <Gold.Rescore>
     Score         DG    S(hbond)    S(metal)    S(lipo)     H(rot)  DE(clash)    DE(int)     intcor
     11.13     -17.58       1.86        0.00      85.30       1.59       1.07       5.38       ----

> <Gold.Chemscore.Fitness>
11.1263

> <Gold.Chemscore.DG>
-17.5776

> <Gold.Chemscore.ZeroCoef>
-5.4800

> <Gold.Chemscore.Hbond>
1.8557

> <Gold.Chemscore.Metal>
0.0000

> <Gold.Chemscore.Lipo>
85.2982

> <Gold.Chemscore.Internal_Hbond>
0.0000

> <Gold.Chemscore.DEClash>
1.0717

> <Gold.Chemscore.DEInternal>
5.3795

> <Gold.Chemscore.Rot>
1.5939

> <Gold.Chemscore.Internal.Correction>
   9.000000E+99

> <Gold.Chemscore.Hbonds>
donor molecule, donor type, donor heavy atom, donor atom, acceptor molecule, acceptor atom, score
      L1  H    11    26       P1  8028  0.83
      P1  H  7989  7998       L1    19  0.70

> <Gold.Chemscore.Hbond.Weighted>
-6.1981

> <Gold.Chemscore.Metal.Weighted>
-0.0000

> <Gold.Chemscore.Lipo.Weighted>
-9.9799

> <Gold.Chemscore.Internal_Hbond.Weighted>
0.0000

> <Gold.Chemscore.DEClash.Weighted>
1.0717

> <Gold.Chemscore.DEInternal.Weighted>
5.3795

> <Gold.Chemscore.Rot.Weighted>
4.0804

> <Gold.Chemscore.Internal.Correction.Weighted>
   9.000000E+99

> <Gold.Protein.RotatedTorsions>
[ 6907 6896 6895 6894 ] final  -11.69 input  -60.11 | X-H torsion
[ 7974 7965 7964 7962 ] final  -80.34 input  175.53 | X-H torsion
[ 8008 7997 7996 7995 ] final  -68.69 input   59.86 | X-H torsion
[ 10167 10162 10161 10158 ] final  -16.05 input  -65.29 | X-H torsion
[ 10718 10713 10712 10709 ] final   58.89 input   66.30 | X-H torsion
[ 10763 10752 10751 10750 ] final -147.40 input  -60.55 | X-H torsion
[ 11005 11000 10999 10996 ] final  -81.28 input  -57.11 | X-H torsion

> <Gold.Protein.ActiveResidues>
 VAL166  LYS551  ARG553  GLY616  TRP617  ASP618  TYR619  PRO620  LYS621  CYS622 
 ASP623  PHE694  ASN695  SER759  ASP760  ASP761  ALA762  ILE779  LEU786  VAL792 
 PHE793  MET794  SER795  GLU796  ALA797  LYS798  CYS799  TRP800  GLU811  SER814 

> <Gold.Protein.RotatedAtoms>
  151.3823  135.0942  159.9499 H   0  0  0  0  0  0  0  0  0  0  0  0  # atno 6907 bound_to 6896
  152.5104  133.9060  159.7475 H   0  0  0  0  0  0  0  0  0  0  0  0  # atno 6908 bound_to 6896
  150.9496  133.6509  159.2803 H   0  0  0  0  0  0  0  0  0  0  0  0  # atno 6909 bound_to 6896
  145.5612  140.9482  143.1446 H   0  0  0  0  0  0  0  0  0  0  0  0  # atno 7974 bound_to 7965
  154.4885  140.0868  156.7542 H   0  0  0  0  0  0  0  0  0  0  0  0  # atno 8008 bound_to 7997
  155.4289  140.3449  155.4260 H   0  0  0  0  0  0  0  0  0  0  0  0  # atno 8009 bound_to 7997
  156.1296  140.1497  156.9073 H   0  0  0  0  0  0  0  0  0  0  0  0  # atno 8010 bound_to 7997
  140.7228  143.5155  150.9697 H   0  0  0  0  0  0  0  0  0  0  0  0  # atno 10167 bound_to 10162
  157.5632  130.8851  149.9145 H   0  0  0  0  0  0  0  0  0  0  0  0  # atno 10718 bound_to 10713
  154.8288  135.3361  154.6812 H   0  0  0  0  0  0  0  0  0  0  0  0  # atno 10763 bound_to 10752
  153.7434  135.6944  153.4966 H   0  0  0  0  0  0  0  0  0  0  0  0  # atno 10764 bound_to 10752
  153.2227  135.4443  155.0459 H   0  0  0  0  0  0  0  0  0  0  0  0  # atno 10765 bound_to 10752
  141.1667  133.7189  156.8398 H   0  0  0  0  0  0  0  0  0  0  0  0  # atno 11005 bound_to 11000
  144.7482  139.7263  143.7284 LP  0  0  0  0  0  0  0  0  0  0  0  0  # atno 17320 bound_to 7965
  146.1850  139.5061  142.9842 LP  0  0  0  0  0  0  0  0  0  0  0  0  # atno 17321 bound_to 7965
  139.8870  143.7000  152.3150 LP  0  0  0  0  0  0  0  0  0  0  0  0  # atno 17342 bound_to 10162
  139.7302  144.7584  151.0813 LP  0  0  0  0  0  0  0  0  0  0  0  0  # atno 17343 bound_to 10162
  156.0683  130.3689  150.0831 LP  0  0  0  0  0  0  0  0  0  0  0  0  # atno 17370 bound_to 10713
  156.8992  130.9614  151.3578 LP  0  0  0  0  0  0  0  0  0  0  0  0  # atno 17371 bound_to 10713
  140.1991  134.8910  157.3148 LP  0  0  0  0  0  0  0  0  0  0  0  0  # atno 17394 bound_to 11000
  140.2207  134.4027  155.7567 LP  0  0  0  0  0  0  0  0  0  0  0  0  # atno 17395 bound_to 11000

$$$$
