AV-unprocessed.smi:1751|AV-procd|sdf|7056|dock9
  -GOLD-   22720 8273D 1   1.00000     0.00000
 Structure written by MMmdl.
 35 36  0  0  0  0  0  0  0  0  1 V2000
  154.8130  140.5727  160.6445 C   0  0  0  0  0  0  0  0  0  0  0  0
  154.2075  141.8539  160.5103 O   0  0  0  0  0  0  0  0  0  0  0  0
  153.2446  142.0243  159.5366 C   0  0  0  0  0  0  0  0  0  0  0  0
  152.7236  143.3158  159.3227 C   0  0  0  0  0  0  0  0  0  0  0  0
  151.7391  143.4940  158.3328 C   0  0  0  0  0  0  0  0  0  0  0  0
  151.2968  142.3786  157.5937 C   0  0  0  0  0  0  0  0  0  0  0  0
  150.3127  142.5894  156.5910 N   0  0  0  0  0  0  0  0  0  0  0  0
  149.7412  141.6822  155.7807 C   0  0  0  0  0  0  0  0  0  0  0  0
  149.9791  140.4745  155.7833 O   0  0  0  0  0  0  0  0  0  0  0  0
  148.8433  142.2560  154.9683 N   0  0  0  0  0  0  0  0  0  0  0  0
  148.0135  141.5439  154.0032 C   0  0  0  0  0  0  0  0  0  0  0  0
  146.5313  141.9296  154.1412 C   0  0  2  0  0  0  0  0  0  0  0  0
  146.2089  143.3303  153.6245 C   0  0  0  0  0  0  0  0  0  0  0  0
  144.9575  143.6595  154.4050 C   0  0  0  0  0  0  0  0  0  0  0  0
  145.2716  143.0478  155.7671 C   0  0  0  0  0  0  0  0  0  0  0  0
  146.1416  141.9472  155.5129 O   0  0  0  0  0  0  0  0  0  0  0  0
  151.8919  141.1244  157.8734 C   0  0  0  0  0  0  0  0  0  0  0  0
  152.8383  140.9473  158.8199 N   0  0  0  0  0  0  0  0  0  0  0  0
  155.5449  140.6023  161.4516 H   0  0  0  0  0  0  0  0  0  0  0  0
  155.3378  140.2818  159.7333 H   0  0  0  0  0  0  0  0  0  0  0  0
  154.0767  139.8073  160.8941 H   0  0  0  0  0  0  0  0  0  0  0  0
  153.0727  144.1538  159.9076 H   0  0  0  0  0  0  0  0  0  0  0  0
  151.3265  144.4755  158.1497 H   0  0  0  0  0  0  0  0  0  0  0  0
  149.9518  143.5303  156.5284 H   0  0  0  0  0  0  0  0  0  0  0  0
  148.7046  143.2535  155.0378 H   0  0  0  0  0  0  0  0  0  0  0  0
  148.3704  141.7806  153.0005 H   0  0  0  0  0  0  0  0  0  0  0  0
  148.1378  140.4672  154.1302 H   0  0  0  0  0  0  0  0  0  0  0  0
  145.8969  141.2099  153.6212 H   0  0  0  0  0  0  0  0  0  0  0  0
  147.0042  144.0312  153.8828 H   0  0  0  0  0  0  0  0  0  0  0  0
  146.0609  143.3616  152.5446 H   0  0  0  0  0  0  0  0  0  0  0  0
  144.7483  144.7282  154.4545 H   0  0  0  0  0  0  0  0  0  0  0  0
  144.0962  143.1614  153.9578 H   0  0  0  0  0  0  0  0  0  0  0  0
  145.8002  143.7662  156.3948 H   0  0  0  0  0  0  0  0  0  0  0  0
  144.3727  142.7318  156.2969 H   0  0  0  0  0  0  0  0  0  0  0  0
  151.6327  140.2334  157.3232 H   0  0  0  0  0  0  0  0  0  0  0  0
  1  2  1  0  0  0  0
  1 19  1  0  0  0  0
  1 20  1  0  0  0  0
  1 21  1  0  0  0  0
  2  3  1  0  0  0  0
  3 18  1  0  0  0  0
  3  4  2  0  0  0  0
  4  5  1  0  0  0  0
  4 22  1  0  0  0  0
  5  6  2  0  0  0  0
  5 23  1  0  0  0  0
  6  7  1  0  0  0  0
  6 17  1  0  0  0  0
  7  8  1  0  0  0  0
  7 24  1  0  0  0  0
  8  9  2  0  0  0  0
  8 10  1  0  0  0  0
 10 11  1  0  0  0  0
 10 25  1  0  0  0  0
 11 12  1  0  0  0  0
 11 26  1  0  0  0  0
 11 27  1  0  0  0  0
 12 16  1  0  0  0  0
 12 13  1  0  0  0  0
 12 28  1  0  0  0  0
 13 14  1  0  0  0  0
 13 29  1  0  0  0  0
 13 30  1  0  0  0  0
 14 15  1  0  0  0  0
 14 31  1  0  0  0  0
 14 32  1  0  0  0  0
 15 16  1  0  0  0  0
 15 33  1  0  0  0  0
 15 34  1  0  0  0  0
 17 18  2  0  0  0  0
 17 35  1  0  0  0  0
M  END
> <s_m_source_file>
AV-unprocessed.smi

> <i_m_source_file_index>
1751

> <i_lp_mmshare_version>
43012

> <i_f3d_flags>
0

> <s_epik_input>
W0NIM11PYzFbY0hdW2NIXWMoW2NIXW4xKVtOSF1DKD1PKVtOSF1bQ0gyXVtDQEBIXTJbQ0gyXVtDSDJdW0NIMl1PMg==

> <s_epik_cmdline>
J2VwaWtfcHl0aG9uJywgJy1waCcsICc3LjAnLCAnLXRuJywgJzgnLCAnLW1hJywgJzIwMCcsICctbWV0YWxfYmluZGluZycsICctaW1hZScsICc8aW5maWxlLm1hZT4nLCAnLW9tYWUnLCAnPG91dGZpbGUubWFlPic=

> <r_lp_tautomer_probability>
1

> <r_epik_Ionization_Penalty>
9.01694e-05

> <r_epik_Ionization_Penalty_Charging>
0

> <r_epik_Ionization_Penalty_Neutral>
9.01694e-05

> <r_epik_State_Penalty>
-0

> <r_epik_Charging_Adjusted_Penalty>
0

> <i_epik_Tot_Q>
0

> <i_epik_Tot_abs_Q>
0

> <r_epik_Metal_State_Penalty>
-0

> <b_epik_Metal_Only>
0

> <s_lp_Force_Field>
OPLS_2005

> <r_lp_Energy>
19.4373

> <b_lp_Chiralities_Consistent>
1

> <s_lp_Variant>
AV-unprocessed.smi:1751-1

> <Gold.Version>
5.8.1

> <Gold.Id.Protein>
6NUR|6NUR_protein|mol2

> <Gold.PLP.Fitness>
42.7727

> <Gold.PLP.PLP>
-37.1324

> <Gold.PLP.part.hbond>
-2.2031

> <Gold.PLP.part.metal>
0.0000

> <Gold.PLP.part.buried>
-5.1476

> <Gold.PLP.part.nonpolar>
-29.8746

> <Gold.PLP.part.repulsive>
0.4249

> <Gold.PLP.ligand.clash>
0.0000

> <Gold.PLP.ligand.torsion>
0.1696

> <Gold.PLP.Chemscore.Hbond>
1.9920

> <Gold.PLP.Chemscore.CHOScore>
0.0000

> <Gold.PLP.Chemscore.Metal>
0.0000

> <Gold.Chemscore.Hbonds>
donor molecule, donor type, donor heavy atom, donor atom, acceptor molecule, acceptor atom, score
      L1  H     7    24       P1  8028  0.98
      L1  H    10    25       P1  8028  1.00

> <Gold.PLP.Chemscore.Internal.Correction>
0.0035

> <Gold.Rescore>
     Score         DG    S(hbond)    S(metal)    S(lipo)     H(rot)  DE(clash)    DE(int)     intcor
     15.63     -17.30       1.97        0.00      77.42       1.50       0.23       1.44       ----

> <Gold.Chemscore.Fitness>
15.6313

> <Gold.Chemscore.DG>
-17.2962

> <Gold.Chemscore.ZeroCoef>
-5.4800

> <Gold.Chemscore.Hbond>
1.9732

> <Gold.Chemscore.Metal>
0.0000

> <Gold.Chemscore.Lipo>
77.4226

> <Gold.Chemscore.Internal_Hbond>
0.0000

> <Gold.Chemscore.DEClash>
0.2254

> <Gold.Chemscore.DEInternal>
1.4395

> <Gold.Chemscore.Rot>
1.4971

> <Gold.Chemscore.Internal.Correction>
   9.000000E+99

> <Gold.Chemscore.Hbonds>
donor molecule, donor type, donor heavy atom, donor atom, acceptor molecule, acceptor atom, score
      L1  H     7    24       P1  8028  0.93
      L1  H    10    25       P1  8028  0.97

> <Gold.Chemscore.Hbond.Weighted>
-6.5904

> <Gold.Chemscore.Metal.Weighted>
-0.0000

> <Gold.Chemscore.Lipo.Weighted>
-9.0584

> <Gold.Chemscore.Internal_Hbond.Weighted>
0.0000

> <Gold.Chemscore.DEClash.Weighted>
0.2254

> <Gold.Chemscore.DEInternal.Weighted>
1.4395

> <Gold.Chemscore.Rot.Weighted>
3.8326

> <Gold.Chemscore.Internal.Correction.Weighted>
   9.000000E+99

> <Gold.Protein.RotatedTorsions>
[ 6907 6896 6895 6894 ] final -173.01 input  -60.11 | X-H torsion
[ 7974 7965 7964 7962 ] final  -47.22 input  175.53 | X-H torsion
[ 8008 7997 7996 7995 ] final  -47.68 input   59.86 | X-H torsion
[ 10167 10162 10161 10158 ] final  -21.18 input  -65.29 | X-H torsion
[ 10718 10713 10712 10709 ] final  -70.84 input   66.30 | X-H torsion
[ 10763 10752 10751 10750 ] final  -60.25 input  -60.55 | X-H torsion
[ 11005 11000 10999 10996 ] final  -45.08 input  -57.11 | X-H torsion

> <Gold.Protein.ActiveResidues>
 VAL166  LYS551  ARG553  GLY616  TRP617  ASP618  TYR619  PRO620  LYS621  CYS622 
 ASP623  PHE694  ASN695  SER759  ASP760  ASP761  ALA762  ILE779  LEU786  VAL792 
 PHE793  MET794  SER795  GLU796  ALA797  LYS798  CYS799  TRP800  GLU811  SER814 

> <Gold.Protein.RotatedAtoms>
  151.5493  133.3420  159.2949 H   0  0  0  0  0  0  0  0  0  0  0  0  # atno 6907 bound_to 6896
  150.8488  134.7809  159.7003 H   0  0  0  0  0  0  0  0  0  0  0  0  # atno 6908 bound_to 6896
  152.4540  134.5341  159.9871 H   0  0  0  0  0  0  0  0  0  0  0  0  # atno 6909 bound_to 6896
  145.9638  140.7452  142.9444 H   0  0  0  0  0  0  0  0  0  0  0  0  # atno 7974 bound_to 7965
  154.4019  140.1340  156.4214 H   0  0  0  0  0  0  0  0  0  0  0  0  # atno 8008 bound_to 7997
  155.7638  140.3485  155.5191 H   0  0  0  0  0  0  0  0  0  0  0  0  # atno 8009 bound_to 7997
  155.8833  140.0991  157.1460 H   0  0  0  0  0  0  0  0  0  0  0  0  # atno 8010 bound_to 7997
  140.7280  143.4652  151.0324 H   0  0  0  0  0  0  0  0  0  0  0  0  # atno 10167 bound_to 10162
  156.0390  130.4339  150.2354 H   0  0  0  0  0  0  0  0  0  0  0  0  # atno 10718 bound_to 10713
  154.2663  135.6298  153.5293 H   0  0  0  0  0  0  0  0  0  0  0  0  # atno 10763 bound_to 10752
  152.9887  135.5599  154.5649 H   0  0  0  0  0  0  0  0  0  0  0  0  # atno 10764 bound_to 10752
  154.5209  135.2882  155.1238 H   0  0  0  0  0  0  0  0  0  0  0  0  # atno 10765 bound_to 10752
  141.0492  133.6749  156.2963 H   0  0  0  0  0  0  0  0  0  0  0  0  # atno 11005 bound_to 11000
  144.6821  140.2635  143.7315 LP  0  0  0  0  0  0  0  0  0  0  0  0  # atno 17320 bound_to 7965
  145.8002  139.1961  143.2052 LP  0  0  0  0  0  0  0  0  0  0  0  0  # atno 17321 bound_to 7965
  139.8340  143.7653  152.3180 LP  0  0  0  0  0  0  0  0  0  0  0  0  # atno 17342 bound_to 10162
  139.7779  144.7455  151.0131 LP  0  0  0  0  0  0  0  0  0  0  0  0  # atno 17343 bound_to 10162
  157.0451  131.0046  151.3271 LP  0  0  0  0  0  0  0  0  0  0  0  0  # atno 17370 bound_to 10713
  157.5181  130.7981  149.7778 LP  0  0  0  0  0  0  0  0  0  0  0  0  # atno 17371 bound_to 10713
  140.6087  134.5480  157.5530 LP  0  0  0  0  0  0  0  0  0  0  0  0  # atno 17394 bound_to 11000
  139.9337  134.7916  156.0862 LP  0  0  0  0  0  0  0  0  0  0  0  0  # atno 17395 bound_to 11000

$$$$
