AV-unprocessed.smi:3105|AV-procd|sdf|11821|dock10
  -GOLD-   2272017193D 1   1.00000     0.00000
 Structure written by MMmdl.
 34 34  0  0  0  0  0  0  0  0  2 V2000
  151.5911  140.5603  157.7351 C   0  0  0  0  0  0  0  0  0  0  0  0
  151.0018  141.9859  157.7895 C   0  0  2  0  0  0  0  0  0  0  0  0
  150.4527  142.3581  156.4653 N   0  3  0  0  0  0  0  0  0  0  0  0
  149.3840  141.4738  155.9480 C   0  0  0  0  0  0  0  0  0  0  0  0
  149.2682  141.5457  154.4122 C   0  0  0  0  0  0  0  0  0  0  0  0
  147.8611  141.2689  153.8649 C   0  0  0  0  0  0  0  0  0  0  0  0
  147.7896  140.5947  152.7149 N   0  0  0  0  0  0  0  0  0  0  0  0
  146.8545  141.6501  154.4602 O   0  0  0  0  0  0  0  0  0  0  0  0
  152.0388  143.0492  158.2418 C   0  0  1  0  0  0  0  0  0  0  0  0
  151.5949  144.4870  157.9083 C   0  0  0  0  0  0  0  0  0  0  0  0
  152.3598  142.9417  159.6599 N   0  0  0  0  0  0  0  0  0  0  0  0
  152.9207  141.8734  160.3295 C   0  0  0  0  0  0  0  0  0  0  0  0
  153.0331  142.2277  161.6432 C   0  0  0  0  0  0  0  0  0  0  0  0
  152.5095  143.5498  161.6832 C   0  0  0  0  0  0  0  0  0  0  0  0
  152.1069  143.9743  160.4964 N   0  0  0  0  0  0  0  0  0  0  0  0
  151.9416  140.2286  158.7124 H   0  0  0  0  0  0  0  0  0  0  0  0
  152.4348  140.5099  157.0459 H   0  0  0  0  0  0  0  0  0  0  0  0
  150.8545  139.8274  157.4078 H   0  0  0  0  0  0  0  0  0  0  0  0
  150.1824  141.9894  158.5102 H   0  0  0  0  0  0  0  0  0  0  0  0
  150.0608  143.2855  156.5452 H   0  0  0  0  0  0  0  0  0  0  0  0
  149.5594  140.4428  156.2562 H   0  0  0  0  0  0  0  0  0  0  0  0
  148.4357  141.7748  156.3948 H   0  0  0  0  0  0  0  0  0  0  0  0
  149.5654  142.5424  154.0836 H   0  0  0  0  0  0  0  0  0  0  0  0
  149.9696  140.8482  153.9524 H   0  0  0  0  0  0  0  0  0  0  0  0
  146.8914  140.3770  152.3077 H   0  0  0  0  0  0  0  0  0  0  0  0
  148.6387  140.2973  152.2554 H   0  0  0  0  0  0  0  0  0  0  0  0
  152.9675  142.8604  157.7004 H   0  0  0  0  0  0  0  0  0  0  0  0
  151.4684  144.6300  156.8353 H   0  0  0  0  0  0  0  0  0  0  0  0
  152.3368  145.2122  158.2447 H   0  0  0  0  0  0  0  0  0  0  0  0
  150.6482  144.7364  158.3889 H   0  0  0  0  0  0  0  0  0  0  0  0
  153.1891  140.9584  159.8220 H   0  0  0  0  0  0  0  0  0  0  0  0
  153.4294  141.6329  162.4529 H   0  0  0  0  0  0  0  0  0  0  0  0
  152.4101  144.2086  162.5333 H   0  0  0  0  0  0  0  0  0  0  0  0
  151.2099  142.3872  155.7970 H   0  0  0  0  0  0  0  0  0  0  0  0
  1  2  1  0  0  0  0
  1 16  1  0  0  0  0
  1 17  1  0  0  0  0
  1 18  1  0  0  0  0
  2  3  1  0  0  0  0
  2  9  1  0  0  0  0
  2 19  1  0  0  0  0
  3  4  1  0  0  0  0
  3 20  1  0  0  0  0
  3 34  1  0  0  0  0
  4  5  1  0  0  0  0
  4 21  1  0  0  0  0
  4 22  1  0  0  0  0
  5  6  1  0  0  0  0
  5 23  1  0  0  0  0
  5 24  1  0  0  0  0
  6  7  1  0  0  0  0
  6  8  2  0  0  0  0
  7 25  1  0  0  0  0
  7 26  1  0  0  0  0
  9 10  1  0  0  0  0
  9 11  1  0  0  0  0
  9 27  1  0  0  0  0
 10 28  1  0  0  0  0
 10 29  1  0  0  0  0
 10 30  1  0  0  0  0
 11 15  1  0  0  0  0
 11 12  1  0  0  0  0
 12 13  2  0  0  0  0
 12 31  1  0  0  0  0
 13 14  1  0  0  0  0
 13 32  1  0  0  0  0
 14 15  2  0  0  0  0
 14 33  1  0  0  0  0
M  CHG  1   3   1
M  END
> <s_m_source_file>
AV-unprocessed.smi

> <i_m_source_file_index>
3105

> <i_lp_mmshare_version>
43012

> <i_f3d_flags>
0

> <s_epik_input>
W05IMl1DKD1PKVtDSDJdW0NIMl1bTkhdW0NAQEhdKFtDSDNdKVtDQEhdKFtDSDNdKW4xW2NIXVtjSF1bY0hdbjE=

> <s_epik_cmdline>
J2VwaWtfcHl0aG9uJywgJy1waCcsICc3LjAnLCAnLXRuJywgJzgnLCAnLW1hJywgJzIwMCcsICctbWV0YWxfYmluZGluZycsICctaW1hZScsICc8aW5maWxlLm1hZT4nLCAnLW9tYWUnLCAnPG91dGZpbGUubWFlPic=

> <r_lp_tautomer_probability>
1

> <r_epik_Ionization_Penalty>
0.00475669

> <r_epik_Ionization_Penalty_Charging>
0.00474654

> <r_epik_Ionization_Penalty_Neutral>
1.01546e-05

> <r_epik_State_Penalty>
-0

> <r_epik_Charging_Adjusted_Penalty>
0.00474654

> <i_epik_Tot_Q>
1

> <i_epik_Tot_abs_Q>
1

> <r_epik_Metal_State_Penalty>
-0

> <b_epik_Metal_Only>
0

> <s_lp_Force_Field>
OPLS_2005

> <r_lp_Energy>
6.92169

> <b_lp_Chiralities_Consistent>
1

> <s_lp_Variant>
AV-unprocessed.smi:3105-3

> <Gold.Version>
5.8.1

> <Gold.Id.Protein>
6NUR|6NUR_protein|mol2

> <Gold.PLP.Fitness>
45.8984

> <Gold.PLP.PLP>
-38.6906

> <Gold.PLP.part.hbond>
-2.0000

> <Gold.PLP.part.metal>
0.0000

> <Gold.PLP.part.buried>
-5.4673

> <Gold.PLP.part.nonpolar>
-30.6127

> <Gold.PLP.part.repulsive>
0.3951

> <Gold.PLP.ligand.clash>
0.0000

> <Gold.PLP.ligand.torsion>
0.9354

> <Gold.PLP.Chemscore.Hbond>
2.9825

> <Gold.PLP.Chemscore.CHOScore>
0.0000

> <Gold.PLP.Chemscore.Metal>
0.0000

> <Gold.Chemscore.Hbonds>
donor molecule, donor type, donor heavy atom, donor atom, acceptor molecule, acceptor atom, score
      L1  H     3    20       P1  8028  1.75
      L1  H     7    26       P1  7957  0.86

> <Gold.PLP.Chemscore.Internal.Correction>
0.1310

> <Gold.Rescore>
     Score         DG    S(hbond)    S(metal)    S(lipo)     H(rot)  DE(clash)    DE(int)     intcor
     13.65     -14.40       1.97        0.00      82.43       2.85       0.02       0.73       ----

> <Gold.Chemscore.Fitness>
13.6492

> <Gold.Chemscore.DG>
-14.3995

> <Gold.Chemscore.ZeroCoef>
-5.4800

> <Gold.Chemscore.Hbond>
1.9655

> <Gold.Chemscore.Metal>
0.0000

> <Gold.Chemscore.Lipo>
82.4267

> <Gold.Chemscore.Internal_Hbond>
0.0000

> <Gold.Chemscore.DEClash>
0.0180

> <Gold.Chemscore.DEInternal>
0.7323

> <Gold.Chemscore.Rot>
2.8473

> <Gold.Chemscore.Internal.Correction>
   9.000000E+99

> <Gold.Chemscore.Hbonds>
donor molecule, donor type, donor heavy atom, donor atom, acceptor molecule, acceptor atom, score
      L1  H     3    20       P1  8028  0.82
      L1  H     7    26       P1  7957  0.83

> <Gold.Chemscore.Hbond.Weighted>
-6.5648

> <Gold.Chemscore.Metal.Weighted>
-0.0000

> <Gold.Chemscore.Lipo.Weighted>
-9.6439

> <Gold.Chemscore.Internal_Hbond.Weighted>
0.0000

> <Gold.Chemscore.DEClash.Weighted>
0.0180

> <Gold.Chemscore.DEInternal.Weighted>
0.7323

> <Gold.Chemscore.Rot.Weighted>
7.2892

> <Gold.Chemscore.Internal.Correction.Weighted>
   9.000000E+99

> <Gold.Protein.RotatedTorsions>
[ 6907 6896 6895 6894 ] final  164.80 input  -60.11 | X-H torsion
[ 7974 7965 7964 7962 ] final  158.85 input  175.53 | X-H torsion
[ 8008 7997 7996 7995 ] final -126.08 input   59.86 | X-H torsion
[ 10167 10162 10161 10158 ] final  131.60 input  -65.29 | X-H torsion
[ 10718 10713 10712 10709 ] final  -90.37 input   66.30 | X-H torsion
[ 10763 10752 10751 10750 ] final   41.54 input  -60.55 | X-H torsion
[ 11005 11000 10999 10996 ] final  127.09 input  -57.11 | X-H torsion

> <Gold.Protein.ActiveResidues>
 VAL166  LYS551  ARG553  GLY616  TRP617  ASP618  TYR619  PRO620  LYS621  CYS622 
 ASP623  PHE694  ASN695  SER759  ASP760  ASP761  ALA762  ILE779  LEU786  VAL792 
 PHE793  MET794  SER795  GLU796  ALA797  LYS798  CYS799  TRP800  GLU811  SER814 

> <Gold.Protein.RotatedAtoms>
  151.9043  133.3545  159.3841 H   0  0  0  0  0  0  0  0  0  0  0  0  # atno 6907 bound_to 6896
  150.7073  134.4797  159.5474 H   0  0  0  0  0  0  0  0  0  0  0  0  # atno 6908 bound_to 6896
  152.2391  134.8247  160.0514 H   0  0  0  0  0  0  0  0  0  0  0  0  # atno 6909 bound_to 6896
  144.7823  139.7535  143.6255 H   0  0  0  0  0  0  0  0  0  0  0  0  # atno 7974 bound_to 7965
  155.2238  140.0423  157.2952 H   0  0  0  0  0  0  0  0  0  0  0  0  # atno 8008 bound_to 7997
  154.5932  140.2432  155.7863 H   0  0  0  0  0  0  0  0  0  0  0  0  # atno 8009 bound_to 7997
  156.2273  140.2950  156.0108 H   0  0  0  0  0  0  0  0  0  0  0  0  # atno 8010 bound_to 7997
  139.5377  144.6699  151.4731 H   0  0  0  0  0  0  0  0  0  0  0  0  # atno 10167 bound_to 10162
  155.9987  130.4907  150.5313 H   0  0  0  0  0  0  0  0  0  0  0  0  # atno 10718 bound_to 10713
  152.9905  135.6158  154.2804 H   0  0  0  0  0  0  0  0  0  0  0  0  # atno 10763 bound_to 10752
  154.2534  135.2784  155.2809 H   0  0  0  0  0  0  0  0  0  0  0  0  # atno 10764 bound_to 10752
  154.5269  135.5799  153.6784 H   0  0  0  0  0  0  0  0  0  0  0  0  # atno 10765 bound_to 10752
  139.9489  134.9625  156.8803 H   0  0  0  0  0  0  0  0  0  0  0  0  # atno 11005 bound_to 11000
  146.2037  139.5347  142.9726 LP  0  0  0  0  0  0  0  0  0  0  0  0  # atno 17320 bound_to 7965
  145.6017  141.0354  143.2014 LP  0  0  0  0  0  0  0  0  0  0  0  0  # atno 17321 bound_to 7965
  140.6591  143.8536  150.6868 LP  0  0  0  0  0  0  0  0  0  0  0  0  # atno 17342 bound_to 10162
  140.1925  143.4025  152.1853 LP  0  0  0  0  0  0  0  0  0  0  0  0  # atno 17343 bound_to 10162
  157.3262  131.0691  151.1895 LP  0  0  0  0  0  0  0  0  0  0  0  0  # atno 17370 bound_to 10713
  157.2791  130.6741  149.6057 LP  0  0  0  0  0  0  0  0  0  0  0  0  # atno 17371 bound_to 10713
  140.5766  134.0392  155.7449 LP  0  0  0  0  0  0  0  0  0  0  0  0  # atno 17394 bound_to 11000
  141.1147  133.9559  157.2844 LP  0  0  0  0  0  0  0  0  0  0  0  0  # atno 17395 bound_to 11000

$$$$
