#       Name:                AV-unprocessed.smi:81
#       Creating user name   scv26
#       Creation time:       Thu Mar 26 17:16:48 2020


#       File generated by GOLD software.
#

@<TRIPOS>MOLECULE
AV-unprocessed.smi:81
    71    74     1
SMALL
NO_CHARGES


@<TRIPOS>ATOM
      1 ****        -1.7859  -1.4971  -4.7020 C.3            1 S1                 0.0000
      2 ****        -1.6893  -2.2298  -3.3537 C.3            1 S1                 0.0000
      3 ****        -2.1823  -3.6768  -3.4924 C.3            1 S1                 0.0000
      4 ****        -2.4793  -1.4978  -2.2441 C.3            1 S1                 0.0000
      5 ****        -1.9945  -0.1461  -1.9429 N.pl3          1 S1                 0.0000
      6 ****        -0.6798  -0.0484  -1.6286 C.ar           1 S1                 0.0000
      7 ****         0.0643   0.8362  -2.3384 N.ar           1 S1                 0.0000
      8 ****         1.3743   0.9525  -2.1040 C.ar           1 S1                 0.0000
      9 ****         2.1260   0.2887  -1.2242 N.ar           1 S1                 0.0000
     10 ****         1.3849  -0.6101  -0.5155 C.ar           1 S1                 0.0000
     11 ****        -0.0122  -0.8449  -0.6543 C.ar           1 S1                 0.0000
     12 ****        -0.4144  -1.8344   0.2349 N.2            1 S1                 0.0000
     13 ****         0.6808  -2.1658   0.8617 C.2            1 S1                 0.0000
     14 ****         1.8074  -1.4736   0.4799 N.pl3          1 S1                 0.0000
     15 ****         3.1500  -1.6393   1.0146 C.3            1 S1                 0.0000
     16 ****         3.4101  -0.8183   2.3006 C.3            1 S1                 0.0000
     17 ****         2.5225  -1.2671   3.3130 O.3            1 S1                 0.0000
     18 ****         4.8336  -0.9792   2.8122 C.3            1 S1                 0.0000
     19 ****         5.0386   0.2913   3.6269 C.3            1 S1                 0.0000
     20 ****         4.3634   1.2959   2.8841 O.3            1 S1                 0.0000
     21 ****         3.3101   0.7160   2.1159 C.3            1 S1                 0.0000
     22 ****         1.9677   1.3743   2.4760 C.3            1 S1                 0.0000
     23 ****        -2.9424   0.7657  -1.2807 C.3            1 S1                 0.0000
     24 ****        -2.6214   2.2744  -1.4092 C.3            1 S1                 0.0000
     25 ****        -1.7279   2.8295  -0.2832 C.3            1 S1                 0.0000
     26 ****        -2.2793   2.4859   1.0475 N.4            1 S1                 1.0000
     27 ****        -1.5531   3.1520   2.1496 C.3            1 S1                 0.0000
     28 ****        -2.3725   1.0193   1.2327 C.3            1 S1                 0.0000
     29 ****        -3.2988   0.3874   0.1774 C.3            1 S1                 0.0000
     30 ****        -2.8211  -1.4148  -5.0347 H              1 S1                 0.0000
     31 ****        -1.2287  -2.0255  -5.4763 H              1 S1                 0.0000
     32 ****        -1.3759  -0.4891  -4.6392 H              1 S1                 0.0000
     33 ****        -0.6367  -2.2840  -3.0744 H              1 S1                 0.0000
     34 ****        -3.2351  -3.7117  -3.7744 H              1 S1                 0.0000
     35 ****        -2.0707  -4.2216  -2.5545 H              1 S1                 0.0000
     36 ****        -1.6159  -4.2147  -4.2532 H              1 S1                 0.0000
     37 ****        -3.5255  -1.4355  -2.5455 H              1 S1                 0.0000
     38 ****        -2.4736  -2.0962  -1.3339 H              1 S1                 0.0000
     39 ****         1.8949   1.6794  -2.7098 H              1 S1                 0.0000
     40 ****         0.6974  -2.9256   1.6299 H              1 S1                 0.0000
     41 ****         3.3098  -2.7010   1.2082 H              1 S1                 0.0000
     42 ****         3.8636  -1.3621   0.2376 H              1 S1                 0.0000
     43 ****         2.7018  -0.7813   4.1038 H              1 S1                 0.0000
     44 ****         4.9930  -1.8906   3.3906 H              1 S1                 0.0000
     45 ****         5.5375  -0.9862   1.9786 H              1 S1                 0.0000
     46 ****         4.5725   0.2003   4.6090 H              1 S1                 0.0000
     47 ****         6.0911   0.5369   3.7702 H              1 S1                 0.0000
     48 ****         3.5463   0.9612   1.0801 H              1 S1                 0.0000
     49 ****         1.1450   0.9362   1.9119 H              1 S1                 0.0000
     50 ****         1.9926   2.4404   2.2492 H              1 S1                 0.0000
     51 ****         1.7411   1.2715   3.5373 H              1 S1                 0.0000
     52 ****        -3.8587   0.6262  -1.8559 H              1 S1                 0.0000
     53 ****        -2.1954   2.4981  -2.3877 H              1 S1                 0.0000
     54 ****        -3.5656   2.8191  -1.3739 H              1 S1                 0.0000
     55 ****        -0.7080   2.4536  -0.3583 H              1 S1                 0.0000
     56 ****        -1.6649   3.9139  -0.3820 H              1 S1                 0.0000
     57 ****        -0.5148   2.8240   2.1883 H              1 S1                 0.0000
     58 ****        -2.0195   2.9289   3.1098 H              1 S1                 0.0000
     59 ****        -1.5642   4.2347   2.0191 H              1 S1                 0.0000
     60 ****        -1.3749   0.5857   1.1952 H              1 S1                 0.0000
     61 ****        -2.7657   0.8030   2.2267 H              1 S1                 0.0000
     62 ****        -4.3118   0.7392   0.3764 H              1 S1                 0.0000
     63 ****        -3.3371  -0.6941   0.3078 H              1 S1                 0.0000
     64 ****        -3.2239   2.8429   1.0723 H              1 S1                 0.0000
     65 ****        -0.3690   1.4029  -3.0392 LP             1 S1                 0.0000
     66 ****         3.1079   0.4320  -1.1003 LP             1 S1                 0.0000
     67 ****        -1.3332  -2.2072   0.3646 LP             1 S1                 0.0000
     68 ****         2.6634  -2.2435   3.4772 LP             1 S1                 0.0000
     69 ****         1.5771  -1.1102   3.0273 LP             1 S1                 0.0000
     70 ****         5.0122   1.7445   2.2694 LP             1 S1                 0.0000
     71 ****         3.9797   1.9710   3.5142 LP             1 S1                 0.0000
@<TRIPOS>BOND
    1    1    2 1     
    2    1   30 1     
    3    1   31 1     
    4    1   32 1     
    5    2    3 1     
    6    2    4 1     
    7    2   33 1     
    8    3   34 1     
    9    3   35 1     
   10    3   36 1     
   11    4    5 1     
   12    4   37 1     
   13    4   38 1     
   14    5    6 1     
   15    5   23 1     
   16    6   11 ar    
   17    6    7 ar    
   18    7    8 ar    
   19    8    9 ar    
   20    8   39 1     
   21    9   10 ar    
   22   10   14 1     
   23   10   11 ar    
   24   11   12 1     
   25   12   13 2     
   26   13   14 1     
   27   13   40 1     
   28   14   15 1     
   29   15   16 1     
   30   15   41 1     
   31   15   42 1     
   32   16   21 1     
   33   16   17 1     
   34   16   18 1     
   35   17   43 1     
   36   18   19 1     
   37   18   44 1     
   38   18   45 1     
   39   19   20 1     
   40   19   46 1     
   41   19   47 1     
   42   20   21 1     
   43   21   22 1     
   44   21   48 1     
   45   22   49 1     
   46   22   50 1     
   47   22   51 1     
   48   23   29 1     
   49   23   24 1     
   50   23   52 1     
   51   24   25 1     
   52   24   53 1     
   53   24   54 1     
   54   25   26 1     
   55   25   55 1     
   56   25   56 1     
   57   26   27 1     
   58   26   28 1     
   59   26   64 1     
   60   27   57 1     
   61   27   58 1     
   62   27   59 1     
   63   28   29 1     
   64   28   60 1     
   65   28   61 1     
   66   29   62 1     
   67   29   63 1     
   68    7   65 1     
   69    9   66 1     
   70   12   67 1     
   71   17   68 1     
   72   17   69 1     
   73   20   70 1     
   74   20   71 1     
@<TRIPOS>SUBSTRUCTURE
      1 S1             1
@<TRIPOS>SET
LONE_PAIRS      STATIC     ATOMS    <user>   **** ""
7 65 66 67 68 69 70 71
DONOR_HYDROGENS      STATIC     ATOMS    <user>   **** ""
2 43 64
ATOM$BLUE        STATIC     ATOMS    COLORGROUP SYSTEM
7 65 66 67 68 69 70 71
ATOM$RED        STATIC     ATOMS    COLORGROUP SYSTEM
2 43 64
