AV-unprocessed.smi:2944|AV-procd|sdf|11274|dock7
  -GOLD-   2272016163D 1   1.00000     0.00000
 Structure written by MMmdl.
 45 47  0  0  0  0  0  0  0  0  2 V2000
  150.7040  137.1527  154.7022 C   0  0  0  0  0  0  0  0  0  0  0  0
  152.0345  137.5124  155.0293 O   0  0  0  0  0  0  0  0  0  0  0  0
  152.1690  138.8936  155.3234 C   0  0  0  0  0  0  0  0  0  0  0  0
  151.1840  139.2954  156.4307 C   0  0  0  0  0  0  0  0  0  0  0  0
  151.0345  140.7535  156.5550 N   0  0  0  0  0  0  0  0  0  0  0  0
  150.3417  141.6374  155.7846 C   0  0  0  0  0  0  0  0  0  0  0  0
  149.3479  141.2556  154.3788 S   0  0  0  0  0  0  0  0  0  0  0  0
  147.9654  140.2525  155.0086 C   0  0  2  0  0  0  0  0  0  0  0  0
  147.2846  139.5079  153.8484 C   0  0  0  0  0  0  0  0  0  0  0  0
  146.9499  141.1132  155.7919 C   0  0  0  0  0  0  0  0  0  0  0  0
  146.7331  140.7992  156.9651 O   0  0  0  0  0  0  0  0  0  0  0  0
  146.3062  142.1351  155.1587 N   0  0  0  0  0  0  0  0  0  0  0  0
  146.5898  142.5670  153.7891 C   0  0  0  0  0  0  0  0  0  0  0  0
  145.6010  143.6942  153.5246 C   0  0  0  0  0  0  0  0  0  0  0  0
  144.8994  143.7727  154.7799 N   0  0  0  0  0  0  0  0  0  0  0  0
  145.3112  142.8869  155.6898 C   0  0  0  0  0  0  0  0  0  0  0  0
  144.8195  142.7967  156.8152 O   0  0  0  0  0  0  0  0  0  0  0  0
  150.5238  142.8796  156.3106 N   0  3  0  0  0  0  0  0  0  0  0  0
  151.3214  142.7893  157.4512 C   0  0  0  0  0  0  0  0  0  0  0  0
  151.7617  143.7717  158.3324 C   0  0  0  0  0  0  0  0  0  0  0  0
  152.5646  143.3413  159.4089 C   0  0  0  0  0  0  0  0  0  0  0  0
  152.9001  141.9823  159.5774 C   0  0  0  0  0  0  0  0  0  0  0  0
  152.4484  140.9952  158.6769 C   0  0  0  0  0  0  0  0  0  0  0  0
  151.6548  141.4277  157.6145 C   0  0  0  0  0  0  0  0  0  0  0  0
  150.6533  136.0825  154.5025 H   0  0  0  0  0  0  0  0  0  0  0  0
  150.3616  137.6795  153.8106 H   0  0  0  0  0  0  0  0  0  0  0  0
  150.0211  137.3739  155.5233 H   0  0  0  0  0  0  0  0  0  0  0  0
  153.1894  139.1094  155.6432 H   0  0  0  0  0  0  0  0  0  0  0  0
  151.9793  139.4852  154.4269 H   0  0  0  0  0  0  0  0  0  0  0  0
  150.2044  138.8489  156.2611 H   0  0  0  0  0  0  0  0  0  0  0  0
  151.5296  138.9144  157.3920 H   0  0  0  0  0  0  0  0  0  0  0  0
  148.4035  139.4859  155.6429 H   0  0  0  0  0  0  0  0  0  0  0  0
  146.4426  138.9103  154.1999 H   0  0  0  0  0  0  0  0  0  0  0  0
  147.9843  138.8292  153.3600 H   0  0  0  0  0  0  0  0  0  0  0  0
  146.9120  140.1962  153.0885 H   0  0  0  0  0  0  0  0  0  0  0  0
  147.6168  142.9239  153.6967 H   0  0  0  0  0  0  0  0  0  0  0  0
  146.4353  141.7557  153.0801 H   0  0  0  0  0  0  0  0  0  0  0  0
  146.1009  144.6370  153.3002 H   0  0  0  0  0  0  0  0  0  0  0  0
  144.9120  143.4528  152.7140 H   0  0  0  0  0  0  0  0  0  0  0  0
  144.1650  144.4458  154.9460 H   0  0  0  0  0  0  0  0  0  0  0  0
  151.5039  144.8132  158.2063 H   0  0  0  0  0  0  0  0  0  0  0  0
  152.9293  144.0679  160.1203 H   0  0  0  0  0  0  0  0  0  0  0  0
  153.5161  141.6899  160.4157 H   0  0  0  0  0  0  0  0  0  0  0  0
  152.7063  139.9564  158.8207 H   0  0  0  0  0  0  0  0  0  0  0  0
  150.1158  143.7222  155.9257 H   0  0  0  0  0  0  0  0  0  0  0  0
  1  2  1  0  0  0  0
  1 25  1  0  0  0  0
  1 26  1  0  0  0  0
  1 27  1  0  0  0  0
  2  3  1  0  0  0  0
  3  4  1  0  0  0  0
  3 28  1  0  0  0  0
  3 29  1  0  0  0  0
  4  5  1  0  0  0  0
  4 30  1  0  0  0  0
  4 31  1  0  0  0  0
  5 24  1  0  0  0  0
  5  6  1  0  0  0  0
  6  7  1  0  0  0  0
  6 18  2  0  0  0  0
  7  8  1  0  0  0  0
  8  9  1  0  0  0  0
  8 10  1  0  0  0  0
  8 32  1  0  0  0  0
  9 33  1  0  0  0  0
  9 34  1  0  0  0  0
  9 35  1  0  0  0  0
 10 11  2  0  0  0  0
 10 12  1  0  0  0  0
 12 16  1  0  0  0  0
 12 13  1  0  0  0  0
 13 14  1  0  0  0  0
 13 36  1  0  0  0  0
 13 37  1  0  0  0  0
 14 15  1  0  0  0  0
 14 38  1  0  0  0  0
 14 39  1  0  0  0  0
 15 16  1  0  0  0  0
 15 40  1  0  0  0  0
 16 17  2  0  0  0  0
 18 19  1  0  0  0  0
 18 45  1  0  0  0  0
 19 24  2  0  0  0  0
 19 20  1  0  0  0  0
 20 21  2  0  0  0  0
 20 41  1  0  0  0  0
 21 22  1  0  0  0  0
 21 42  1  0  0  0  0
 22 23  2  0  0  0  0
 22 43  1  0  0  0  0
 23 24  1  0  0  0  0
 23 44  1  0  0  0  0
M  CHG  1  18   1
M  END
> <s_m_source_file>
AV-unprocessed.smi

> <i_m_source_file_index>
2944

> <i_lp_mmshare_version>
43012

> <i_f3d_flags>
0

> <s_epik_input>
W2NIXTFbY0hdW2NIXVtjSF1jKGMxMiluKFtDSDJdW0NIMl1PW0NIM10pYyhuMilTW0NASF0oW0NIM10pQyg9TylOM1tDSDJdW0NIMl1bTkhdQzM9Tw==

> <s_epik_cmdline>
J2VwaWtfcHl0aG9uJywgJy1waCcsICc3LjAnLCAnLXRuJywgJzgnLCAnLW1hJywgJzIwMCcsICctbWV0YWxfYmluZGluZycsICctaW1hZScsICc8aW5maWxlLm1hZT4nLCAnLW9tYWUnLCAnPG91dGZpbGUubWFlPic=

> <r_lp_tautomer_probability>
0.9999

> <r_epik_Ionization_Penalty>
1.88808

> <r_epik_Ionization_Penalty_Charging>
1.88806

> <r_epik_Ionization_Penalty_Neutral>
2.68145e-05

> <r_epik_State_Penalty>
2.00836

> <r_epik_Charging_Adjusted_Penalty>
3.89641

> <i_epik_Tot_Q>
1

> <i_epik_Tot_abs_Q>
1

> <r_epik_Metal_State_Penalty>
2.03272

> <b_epik_Metal_Only>
0

> <s_lp_Force_Field>
OPLS_2005

> <r_lp_Energy>
42.6194

> <b_lp_Chiralities_Consistent>
1

> <s_lp_Variant>
AV-unprocessed.smi:2944-3

> <Gold.Version>
5.8.1

> <Gold.Id.Protein>
6NUR|6NUR_protein|mol2

> <Gold.PLP.Fitness>
54.9428

> <Gold.PLP.PLP>
-48.2102

> <Gold.PLP.part.hbond>
-1.9954

> <Gold.PLP.part.metal>
0.0000

> <Gold.PLP.part.buried>
-6.7459

> <Gold.PLP.part.nonpolar>
-39.9836

> <Gold.PLP.part.repulsive>
0.2864

> <Gold.PLP.ligand.clash>
0.0000

> <Gold.PLP.ligand.torsion>
0.4454

> <Gold.PLP.Chemscore.Hbond>
2.5039

> <Gold.PLP.Chemscore.CHOScore>
0.0000

> <Gold.PLP.Chemscore.Metal>
0.0000

> <Gold.Chemscore.Hbonds>
donor molecule, donor type, donor heavy atom, donor atom, acceptor molecule, acceptor atom, score
      L1  H    18    45       P1  8028  2.00
      P1  H 10752 10765       L1     2  0.52

> <Gold.PLP.Chemscore.Internal.Correction>
0.1117

> <Gold.Rescore>
     Score         DG    S(hbond)    S(metal)    S(lipo)     H(rot)  DE(clash)    DE(int)     intcor
     16.04     -17.86       1.91        0.00     101.48       2.30       0.02       1.80       ----

> <Gold.Chemscore.Fitness>
16.0358

> <Gold.Chemscore.DG>
-17.8552

> <Gold.Chemscore.ZeroCoef>
-5.4800

> <Gold.Chemscore.Hbond>
1.9123

> <Gold.Chemscore.Metal>
0.0000

> <Gold.Chemscore.Lipo>
101.4783

> <Gold.Chemscore.Internal_Hbond>
0.0000

> <Gold.Chemscore.DEClash>
0.0164

> <Gold.Chemscore.DEInternal>
1.8030

> <Gold.Chemscore.Rot>
2.2988

> <Gold.Chemscore.Internal.Correction>
   9.000000E+99

> <Gold.Chemscore.Hbonds>
donor molecule, donor type, donor heavy atom, donor atom, acceptor molecule, acceptor atom, score
      L1  H    18    45       P1  8028  0.96
      P1  H 10752 10765       L1     2  0.11

> <Gold.Chemscore.Hbond.Weighted>
-6.3872

> <Gold.Chemscore.Metal.Weighted>
-0.0000

> <Gold.Chemscore.Lipo.Weighted>
-11.8730

> <Gold.Chemscore.Internal_Hbond.Weighted>
0.0000

> <Gold.Chemscore.DEClash.Weighted>
0.0164

> <Gold.Chemscore.DEInternal.Weighted>
1.8030

> <Gold.Chemscore.Rot.Weighted>
5.8850

> <Gold.Chemscore.Internal.Correction.Weighted>
   9.000000E+99

> <Gold.Protein.RotatedTorsions>
[ 6907 6896 6895 6894 ] final    8.09 input  -60.11 | X-H torsion
[ 7974 7965 7964 7962 ] final    3.10 input  175.53 | X-H torsion
[ 8008 7997 7996 7995 ] final  -15.55 input   59.86 | X-H torsion
[ 10167 10162 10161 10158 ] final  150.66 input  -65.29 | X-H torsion
[ 10718 10713 10712 10709 ] final   21.95 input   66.30 | X-H torsion
[ 10763 10752 10751 10750 ] final -173.92 input  -60.55 | X-H torsion
[ 11005 11000 10999 10996 ] final -176.73 input  -57.11 | X-H torsion

> <Gold.Protein.ActiveResidues>
 VAL166  LYS551  ARG553  GLY616  TRP617  ASP618  TYR619  PRO620  LYS621  CYS622 
 ASP623  PHE694  ASN695  SER759  ASP760  ASP761  ALA762  ILE779  LEU786  VAL792 
 PHE793  MET794  SER795  GLU796  ALA797  LYS798  CYS799  TRP800  GLU811  SER814 

> <Gold.Protein.RotatedAtoms>
  151.7004  135.0931  160.0249 H   0  0  0  0  0  0  0  0  0  0  0  0  # atno 6907 bound_to 6896
  152.3724  133.6432  159.6106 H   0  0  0  0  0  0  0  0  0  0  0  0  # atno 6908 bound_to 6896
  150.7683  133.9165  159.3426 H   0  0  0  0  0  0  0  0  0  0  0  0  # atno 6909 bound_to 6896
  146.2445  140.0736  142.8361 H   0  0  0  0  0  0  0  0  0  0  0  0  # atno 7974 bound_to 7965
  154.5121  140.2193  155.9136 H   0  0  0  0  0  0  0  0  0  0  0  0  # atno 8008 bound_to 7997
  156.1565  140.3151  155.8700 H   0  0  0  0  0  0  0  0  0  0  0  0  # atno 8009 bound_to 7997
  155.3837  140.0474  157.3033 H   0  0  0  0  0  0  0  0  0  0  0  0  # atno 8010 bound_to 7997
  139.4848  144.5504  151.7411 H   0  0  0  0  0  0  0  0  0  0  0  0  # atno 10167 bound_to 10162
  157.1456  130.6652  149.5995 H   0  0  0  0  0  0  0  0  0  0  0  0  # atno 10718 bound_to 10713
  154.6023  135.2856  155.0522 H   0  0  0  0  0  0  0  0  0  0  0  0  # atno 10763 bound_to 10752
  154.1782  135.6461  153.5031 H   0  0  0  0  0  0  0  0  0  0  0  0  # atno 10764 bound_to 10752
  153.0162  135.5417  154.6747 H   0  0  0  0  0  0  0  0  0  0  0  0  # atno 10765 bound_to 10752
  140.4488  134.6363  157.4792 H   0  0  0  0  0  0  0  0  0  0  0  0  # atno 11005 bound_to 11000
  145.0794  140.9210  143.4834 LP  0  0  0  0  0  0  0  0  0  0  0  0  # atno 17320 bound_to 7965
  145.0886  139.2906  143.5746 LP  0  0  0  0  0  0  0  0  0  0  0  0  # atno 17321 bound_to 7965
  140.5057  144.1102  150.5982 LP  0  0  0  0  0  0  0  0  0  0  0  0  # atno 17342 bound_to 10162
  140.4010  143.2704  151.9947 LP  0  0  0  0  0  0  0  0  0  0  0  0  # atno 17343 bound_to 10162
  155.9780  130.4762  150.6629 LP  0  0  0  0  0  0  0  0  0  0  0  0  # atno 17370 bound_to 10713
  157.4267  131.0844  151.1078 LP  0  0  0  0  0  0  0  0  0  0  0  0  # atno 17371 bound_to 10713
  140.0020  134.6821  155.9514 LP  0  0  0  0  0  0  0  0  0  0  0  0  # atno 17394 bound_to 11000
  141.1673  133.6537  156.4525 LP  0  0  0  0  0  0  0  0  0  0  0  0  # atno 17395 bound_to 11000

$$$$
