AV-unprocessed.smi:1570|AV-procd|sdf|6324|dock2
  -GOLD-   22720 6533D 1   1.00000     0.00000
 Structure written by MMmdl.
 52 54  0  0  0  0  0  0  0  0  2 V2000
  154.8186  141.0494  160.4909 C   0  0  0  0  0  0  0  0  0  0  0  0
  153.4039  140.5173  160.2284 C   0  0  0  0  0  0  0  0  0  0  0  0
  152.6833  141.3740  159.2901 N   0  0  0  0  0  0  0  0  0  0  0  0
  152.2762  141.0414  158.0426 C   0  0  0  0  0  0  0  0  0  0  0  0
  152.4711  139.9648  157.4782 O   0  0  0  0  0  0  0  0  0  0  0  0
  151.6173  142.1015  157.5184 N   0  0  0  0  0  0  0  0  0  0  0  0
  151.0085  142.1737  156.1916 C   0  0  0  0  0  0  0  0  0  0  0  0
  150.1075  140.9537  155.9114 C   0  0  2  0  0  0  0  0  0  0  0  0
  150.2852  140.5786  154.5591 O   0  0  0  0  0  0  0  0  0  0  0  0
  148.6162  141.2922  156.1141 C   0  0  0  0  0  0  0  0  0  0  0  0
  147.7464  140.7416  155.0388 N   0  3  1  0  0  0  0  0  0  0  0  0
  146.5603  139.9825  155.5127 C   0  0  0  0  0  0  0  0  0  0  0  0
  145.4275  140.9216  155.9809 C   0  0  2  0  0  0  0  0  0  0  0  0
  144.1528  140.1487  156.3372 C   0  0  0  0  0  0  0  0  0  0  0  0
  145.1105  141.8362  154.9365 O   0  0  0  0  0  0  0  0  0  0  0  0
  146.2139  142.6549  154.5637 C   0  0  2  0  0  0  0  0  0  0  0  0
  145.7302  143.6584  153.5112 C   0  0  0  0  0  0  0  0  0  0  0  0
  147.3436  141.7510  154.0295 C   0  0  0  0  0  0  0  0  0  0  0  0
  151.6095  143.1459  158.4536 C   0  0  0  0  0  0  0  0  0  0  0  0
  151.0686  144.4420  158.3901 C   0  0  0  0  0  0  0  0  0  0  0  0
  151.2322  145.2673  159.5270 C   0  0  0  0  0  0  0  0  0  0  0  0
  151.9155  144.7937  160.6770 C   0  0  0  0  0  0  0  0  0  0  0  0
  152.4518  143.4853  160.7137 C   0  0  0  0  0  0  0  0  0  0  0  0
  152.2775  142.6868  159.5699 C   0  0  0  0  0  0  0  0  0  0  0  0
  155.3514  140.4047  161.1900 H   0  0  0  0  0  0  0  0  0  0  0  0
  154.7902  142.0518  160.9191 H   0  0  0  0  0  0  0  0  0  0  0  0
  155.4011  141.0943  159.5700 H   0  0  0  0  0  0  0  0  0  0  0  0
  153.4530  139.5023  159.8340 H   0  0  0  0  0  0  0  0  0  0  0  0
  152.8539  140.4493  161.1682 H   0  0  0  0  0  0  0  0  0  0  0  0
  150.4115  143.0866  156.1577 H   0  0  0  0  0  0  0  0  0  0  0  0
  151.7670  142.2978  155.4174 H   0  0  0  0  0  0  0  0  0  0  0  0
  150.3974  140.1237  156.5549 H   0  0  0  0  0  0  0  0  0  0  0  0
  149.4353  140.4855  154.1556 H   0  0  0  0  0  0  0  0  0  0  0  0
  148.2768  140.9299  157.0842 H   0  0  0  0  0  0  0  0  0  0  0  0
  148.5121  142.3780  156.1472 H   0  0  0  0  0  0  0  0  0  0  0  0
  146.2019  139.3742  154.6812 H   0  0  0  0  0  0  0  0  0  0  0  0
  146.8274  139.2814  156.3021 H   0  0  0  0  0  0  0  0  0  0  0  0
  145.7418  141.4810  156.8629 H   0  0  0  0  0  0  0  0  0  0  0  0
  144.3376  139.4352  157.1407 H   0  0  0  0  0  0  0  0  0  0  0  0
  143.7730  139.5947  155.4782 H   0  0  0  0  0  0  0  0  0  0  0  0
  143.3663  140.8267  156.6700 H   0  0  0  0  0  0  0  0  0  0  0  0
  146.5598  143.2138  155.4348 H   0  0  0  0  0  0  0  0  0  0  0  0
  146.5392  144.3183  153.1970 H   0  0  0  0  0  0  0  0  0  0  0  0
  144.9291  144.2826  153.9080 H   0  0  0  0  0  0  0  0  0  0  0  0
  145.3486  143.1502  152.6252 H   0  0  0  0  0  0  0  0  0  0  0  0
  148.2043  142.3439  153.7170 H   0  0  0  0  0  0  0  0  0  0  0  0
  146.9979  141.2240  153.1389 H   0  0  0  0  0  0  0  0  0  0  0  0
  150.5501  144.7984  157.5127 H   0  0  0  0  0  0  0  0  0  0  0  0
  150.8315  146.2701  159.5199 H   0  0  0  0  0  0  0  0  0  0  0  0
  152.0280  145.4402  161.5347 H   0  0  0  0  0  0  0  0  0  0  0  0
  152.9725  143.1200  161.5865 H   0  0  0  0  0  0  0  0  0  0  0  0
  148.3335  140.0806  154.5492 H   0  0  0  0  0  0  0  0  0  0  0  0
  1  2  1  0  0  0  0
  1 25  1  0  0  0  0
  1 26  1  0  0  0  0
  1 27  1  0  0  0  0
  2  3  1  0  0  0  0
  2 28  1  0  0  0  0
  2 29  1  0  0  0  0
  3 24  1  0  0  0  0
  3  4  1  0  0  0  0
  4  5  2  0  0  0  0
  4  6  1  0  0  0  0
  6  7  1  0  0  0  0
  6 19  1  0  0  0  0
  7  8  1  0  0  0  0
  7 30  1  0  0  0  0
  7 31  1  0  0  0  0
  8  9  1  0  0  0  0
  8 10  1  0  0  0  0
  8 32  1  0  0  0  0
  9 33  1  0  0  0  0
 10 11  1  0  0  0  0
 10 34  1  0  0  0  0
 10 35  1  0  0  0  0
 11 18  1  0  0  0  0
 11 12  1  0  0  0  0
 11 52  1  0  0  0  0
 12 13  1  0  0  0  0
 12 36  1  0  0  0  0
 12 37  1  0  0  0  0
 13 14  1  0  0  0  0
 13 15  1  0  0  0  0
 13 38  1  0  0  0  0
 14 39  1  0  0  0  0
 14 40  1  0  0  0  0
 14 41  1  0  0  0  0
 15 16  1  0  0  0  0
 16 17  1  0  0  0  0
 16 18  1  0  0  0  0
 16 42  1  0  0  0  0
 17 43  1  0  0  0  0
 17 44  1  0  0  0  0
 17 45  1  0  0  0  0
 18 46  1  0  0  0  0
 18 47  1  0  0  0  0
 19 24  2  0  0  0  0
 19 20  1  0  0  0  0
 20 21  2  0  0  0  0
 20 48  1  0  0  0  0
 21 22  1  0  0  0  0
 21 49  1  0  0  0  0
 22 23  2  0  0  0  0
 22 50  1  0  0  0  0
 23 24  1  0  0  0  0
 23 51  1  0  0  0  0
M  CHG  1  11   1
M  END
> <s_m_source_file>
AV-unprocessed.smi

> <i_m_source_file_index>
1570

> <i_lp_mmshare_version>
43012

> <i_f3d_flags>
0

> <s_epik_input>
W2NIXTFbY0hdW2NIXVtjSF1jKGMxMiluKFtDSDJdW0NIM10pYyg9TyluMltDSDJdW0NASF0oW09IXSlbQ0gyXU4zW0NIMl1bQ0BASF0oW0NIM10pT1tDQEBIXShbQ0gzXSlbQ0gyXTM=

> <s_epik_cmdline>
J2VwaWtfcHl0aG9uJywgJy1waCcsICc3LjAnLCAnLXRuJywgJzgnLCAnLW1hJywgJzIwMCcsICctbWV0YWxfYmluZGluZycsICctaW1hZScsICc8aW5maWxlLm1hZT4nLCAnLW9tYWUnLCAnPG91dGZpbGUubWFlPic=

> <r_epik_Ionization_Penalty>
0.706332

> <r_epik_Ionization_Penalty_Charging>
0.706318

> <r_epik_Ionization_Penalty_Neutral>
1.42224e-05

> <r_epik_State_Penalty>
0.729493

> <r_epik_Charging_Adjusted_Penalty>
1.43581

> <i_epik_Tot_Q>
1

> <i_epik_Tot_abs_Q>
1

> <r_epik_Metal_State_Penalty>
0.729493

> <b_epik_Metal_Only>
0

> <s_lp_Force_Field>
OPLS_2005

> <r_lp_Energy>
54.3222

> <b_lp_Chiralities_Consistent>
1

> <s_lp_Variant>
AV-unprocessed.smi:1570-13

> <Gold.Version>
5.8.1

> <Gold.Id.Protein>
6NUR|6NUR_protein|mol2

> <Gold.PLP.Fitness>
51.5168

> <Gold.PLP.PLP>
-49.5886

> <Gold.PLP.part.hbond>
-2.0000

> <Gold.PLP.part.metal>
0.0000

> <Gold.PLP.part.buried>
-7.7524

> <Gold.PLP.part.nonpolar>
-39.5397

> <Gold.PLP.part.repulsive>
0.1919

> <Gold.PLP.ligand.clash>
0.0000

> <Gold.PLP.ligand.torsion>
1.9520

> <Gold.PLP.Chemscore.Hbond>
1.8960

> <Gold.PLP.Chemscore.CHOScore>
0.0000

> <Gold.PLP.Chemscore.Metal>
0.0000

> <Gold.Chemscore.Hbonds>
donor molecule, donor type, donor heavy atom, donor atom, acceptor molecule, acceptor atom, score
      P1  H  7989  7998       L1     9  0.91
      P1  H  7997  8010       L1     5  0.88

> <Gold.PLP.Chemscore.Internal.Correction>
0.1444

> <Gold.Rescore>
     Score         DG    S(hbond)    S(metal)    S(lipo)     H(rot)  DE(clash)    DE(int)     intcor
     16.81     -19.97       1.52        0.00     127.18       2.13       0.27       2.90       ----

> <Gold.Chemscore.Fitness>
16.8074

> <Gold.Chemscore.DG>
-19.9736

> <Gold.Chemscore.ZeroCoef>
-5.4800

> <Gold.Chemscore.Hbond>
1.5173

> <Gold.Chemscore.Metal>
0.0000

> <Gold.Chemscore.Lipo>
127.1755

> <Gold.Chemscore.Internal_Hbond>
0.0000

> <Gold.Chemscore.DEClash>
0.2652

> <Gold.Chemscore.DEInternal>
2.9010

> <Gold.Chemscore.Rot>
2.1303

> <Gold.Chemscore.Internal.Correction>
   9.000000E+99

> <Gold.Chemscore.Hbonds>
donor molecule, donor type, donor heavy atom, donor atom, acceptor molecule, acceptor atom, score
      P1  H  7989  7998       L1     9  0.82
      P1  H  7997  8010       L1     5  0.42

> <Gold.Chemscore.Hbond.Weighted>
-5.0676

> <Gold.Chemscore.Metal.Weighted>
-0.0000

> <Gold.Chemscore.Lipo.Weighted>
-14.8795

> <Gold.Chemscore.Internal_Hbond.Weighted>
0.0000

> <Gold.Chemscore.DEClash.Weighted>
0.2652

> <Gold.Chemscore.DEInternal.Weighted>
2.9010

> <Gold.Chemscore.Rot.Weighted>
5.4535

> <Gold.Chemscore.Internal.Correction.Weighted>
   9.000000E+99

> <Gold.Protein.RotatedTorsions>
[ 6907 6896 6895 6894 ] final    2.22 input  -60.11 | X-H torsion
[ 7974 7965 7964 7962 ] final  126.17 input  175.53 | X-H torsion
[ 8008 7997 7996 7995 ] final   52.67 input   59.86 | X-H torsion
[ 10167 10162 10161 10158 ] final   -0.12 input  -65.29 | X-H torsion
[ 10718 10713 10712 10709 ] final  -75.95 input   66.30 | X-H torsion
[ 10763 10752 10751 10750 ] final   -3.65 input  -60.55 | X-H torsion
[ 11005 11000 10999 10996 ] final  110.26 input  -57.11 | X-H torsion

> <Gold.Protein.ActiveResidues>
 VAL166  LYS551  ARG553  GLY616  TRP617  ASP618  TYR619  PRO620  LYS621  CYS622 
 ASP623  PHE694  ASN695  SER759  ASP760  ASP761  ALA762  ILE779  LEU786  VAL792 
 PHE793  MET794  SER795  GLU796  ALA797  LYS798  CYS799  TRP800  GLU811  SER814 

> <Gold.Protein.RotatedAtoms>
  151.6054  135.1044  160.0069 H   0  0  0  0  0  0  0  0  0  0  0  0  # atno 6907 bound_to 6896
  152.4236  133.7154  159.6513 H   0  0  0  0  0  0  0  0  0  0  0  0  # atno 6908 bound_to 6896
  150.8124  133.8325  159.3198 H   0  0  0  0  0  0  0  0  0  0  0  0  # atno 6909 bound_to 6896
  145.0648  139.3777  143.4988 H   0  0  0  0  0  0  0  0  0  0  0  0  # atno 7974 bound_to 7965
  155.4557  140.3460  155.4306 H   0  0  0  0  0  0  0  0  0  0  0  0  # atno 8008 bound_to 7997
  156.1192  140.1482  156.9258 H   0  0  0  0  0  0  0  0  0  0  0  0  # atno 8009 bound_to 7997
  154.4811  140.0869  156.7359 H   0  0  0  0  0  0  0  0  0  0  0  0  # atno 8010 bound_to 7997
  140.6753  143.6932  150.8010 H   0  0  0  0  0  0  0  0  0  0  0  0  # atno 10167 bound_to 10162
  156.0191  130.4453  150.3119 H   0  0  0  0  0  0  0  0  0  0  0  0  # atno 10718 bound_to 10713
  153.3742  135.6996  153.6614 H   0  0  0  0  0  0  0  0  0  0  0  0  # atno 10763 bound_to 10752
  153.5252  135.3603  155.2651 H   0  0  0  0  0  0  0  0  0  0  0  0  # atno 10764 bound_to 10752
  154.8685  135.4167  154.3026 H   0  0  0  0  0  0  0  0  0  0  0  0  # atno 10765 bound_to 10752
  139.8878  134.9479  156.6251 H   0  0  0  0  0  0  0  0  0  0  0  0  # atno 11005 bound_to 11000
  146.3526  140.0363  142.8646 LP  0  0  0  0  0  0  0  0  0  0  0  0  # atno 17320 bound_to 7965
  145.1365  140.9547  143.4514 LP  0  0  0  0  0  0  0  0  0  0  0  0  # atno 17321 bound_to 7965
  140.0625  143.5141  152.2621 LP  0  0  0  0  0  0  0  0  0  0  0  0  # atno 17342 bound_to 10162
  139.6043  144.7591  151.3099 LP  0  0  0  0  0  0  0  0  0  0  0  0  # atno 17343 bound_to 10162
  157.1221  131.0249  151.3005 LP  0  0  0  0  0  0  0  0  0  0  0  0  # atno 17370 bound_to 10713
  157.4620  130.7658  149.7244 LP  0  0  0  0  0  0  0  0  0  0  0  0  # atno 17371 bound_to 10713
  140.7709  133.8739  155.8491 LP  0  0  0  0  0  0  0  0  0  0  0  0  # atno 17394 bound_to 11000
  140.9843  134.1364  157.4467 LP  0  0  0  0  0  0  0  0  0  0  0  0  # atno 17395 bound_to 11000

$$$$
