#       Name:                AV-unprocessed.smi:1586
#       Creating user name   scv26
#       Creation time:       Fri Mar 27 07:02:17 2020


#       File generated by GOLD software.
#

@<TRIPOS>MOLECULE
AV-unprocessed.smi:1586
    53    54     1
SMALL
NO_CHARGES


@<TRIPOS>ATOM
      1 ****        -3.7937  -5.0514   2.5772 C.3            1 S1                 0.0000
      2 ****        -3.9361  -3.5389   2.7992 C.3            1 S1                 0.0000
      3 ****        -3.3237  -2.7044   1.7673 N.3            1 S1                 0.0000
      4 ****        -1.8641  -2.7951   1.7657 C.3            1 S1                 0.0000
      5 ****        -1.2376  -1.9022   0.6776 C.3            1 S1                 0.0000
      6 ****        -1.5966  -0.4843   0.8360 N.3            1 S1                 0.0000
      7 ****        -1.0006   0.3801  -0.2098 C.3            1 S1                 0.0000
      8 ****        -1.4191   1.8659  -0.0647 C.3            1 S1                 0.0000
      9 ****         0.5500   0.3006  -0.2633 C.3            1 S1                 0.0000
     10 ****         1.1111   1.1041  -1.3451 N.am           1 S1                 0.0000
     11 ****         2.4093   1.3950  -1.5036 C.2            1 S1                 0.0000
     12 ****         3.2379   0.9629  -0.6988 O.2            1 S1                 0.0000
     13 ****         2.6666   2.1698  -2.5830 N.pl3          1 S1                -1.0000
     14 ****         3.9235   2.5533  -2.8549 C.2            1 S1                 0.0000
     15 ****         4.5790   3.6981  -2.3247 C.2            1 S1                 0.0000
     16 ****         5.8125   3.6508  -2.9091 C.2            1 S1                 0.0000
     17 ****         7.0139   4.5272  -2.8076 C.3            1 S1                 0.0000
     18 ****         5.9017   2.5746  -3.7364 O.3            1 S1                 0.0000
     19 ****         4.6860   1.8811  -3.7011 N.2            1 S1                 0.0000
     20 ****        -3.0653  -0.4083   0.8600 C.3            1 S1                 0.0000
     21 ****        -3.6804  -1.3011   1.9526 C.3            1 S1                 0.0000
     22 ****        -4.3625  -5.6030   3.3260 H              1 S1                 0.0000
     23 ****        -2.7570  -5.3786   2.6533 H              1 S1                 0.0000
     24 ****        -4.1700  -5.3425   1.5963 H              1 S1                 0.0000
     25 ****        -5.0026  -3.3151   2.8434 H              1 S1                 0.0000
     26 ****        -3.5335  -3.2751   3.7782 H              1 S1                 0.0000
     27 ****        -1.4689  -2.5120   2.7427 H              1 S1                 0.0000
     28 ****        -1.5517  -3.8237   1.5889 H              1 S1                 0.0000
     29 ****        -0.1604  -2.0366   0.7477 H              1 S1                 0.0000
     30 ****        -1.5384  -2.2569  -0.3094 H              1 S1                 0.0000
     31 ****        -1.3693   0.0383  -1.1783 H              1 S1                 0.0000
     32 ****        -0.9318   2.5114  -0.7944 H              1 S1                 0.0000
     33 ****        -1.1709   2.2494   0.9253 H              1 S1                 0.0000
     34 ****        -2.4859   2.0125  -0.2263 H              1 S1                 0.0000
     35 ****         0.9698   0.6188   0.6926 H              1 S1                 0.0000
     36 ****         0.8956  -0.7159  -0.4440 H              1 S1                 0.0000
     37 ****         0.4636   1.4748  -2.0247 H              1 S1                 0.0000
     38 ****         4.2053   4.4312  -1.6257 H              1 S1                 0.0000
     39 ****         7.3648   4.5810  -1.7770 H              1 S1                 0.0000
     40 ****         6.7810   5.5392  -3.1389 H              1 S1                 0.0000
     41 ****         7.8306   4.1496  -3.4232 H              1 S1                 0.0000
     42 ****        -3.3931   0.6093   1.0632 H              1 S1                 0.0000
     43 ****        -3.4712  -0.6839  -0.1146 H              1 S1                 0.0000
     44 ****        -4.7652  -1.1913   1.9330 H              1 S1                 0.0000
     45 ****        -3.3507  -0.9569   2.9343 H              1 S1                 0.0000
     46 ****        -3.6743  -3.0483   0.8961 LP             1 S1                 0.0000
     47 ****        -1.2184  -0.1313   1.6917 LP             1 S1                 0.0000
     48 ****         2.9402   0.3968   0.0699 LP             1 S1                 0.0000
     49 ****         4.2074   1.1786  -0.8150 LP             1 S1                 0.0000
     50 ****         1.9176   2.4574  -3.1799 LP             1 S1                 0.0000
     51 ****         6.6406   1.9746  -3.4300 LP             1 S1                 0.0000
     52 ****         6.0871   2.8818  -4.6698 LP             1 S1                 0.0000
     53 ****         4.4453   1.0533  -4.2080 LP             1 S1                 0.0000
@<TRIPOS>BOND
    1    1    2 1     
    2    1   22 1     
    3    1   23 1     
    4    1   24 1     
    5    2    3 1     
    6    2   25 1     
    7    2   26 1     
    8    3   21 1     
    9    3    4 1     
   10    4    5 1     
   11    4   27 1     
   12    4   28 1     
   13    5    6 1     
   14    5   29 1     
   15    5   30 1     
   16    6    7 1     
   17    6   20 1     
   18    7    8 1     
   19    7    9 1     
   20    7   31 1     
   21    8   32 1     
   22    8   33 1     
   23    8   34 1     
   24    9   10 1     
   25    9   35 1     
   26    9   36 1     
   27   10   11 am    
   28   10   37 1     
   29   11   12 2     
   30   11   13 1     
   31   13   14 1     
   32   14   19 2     
   33   14   15 1     
   34   15   16 2     
   35   15   38 1     
   36   16   17 1     
   37   16   18 1     
   38   17   39 1     
   39   17   40 1     
   40   17   41 1     
   41   18   19 1     
   42   20   21 1     
   43   20   42 1     
   44   20   43 1     
   45   21   44 1     
   46   21   45 1     
   47    3   46 1     
   48    6   47 1     
   49   12   48 1     
   50   12   49 1     
   51   13   50 1     
   52   18   51 1     
   53   18   52 1     
   54   19   53 1     
@<TRIPOS>SUBSTRUCTURE
      1 S1             1
@<TRIPOS>SET
LONE_PAIRS      STATIC     ATOMS    <user>   **** ""
8 46 47 48 49 50 51 52 53
DONOR_HYDROGENS      STATIC     ATOMS    <user>   **** ""
1 37
ATOM$BLUE        STATIC     ATOMS    COLORGROUP SYSTEM
8 46 47 48 49 50 51 52 53
ATOM$RED        STATIC     ATOMS    COLORGROUP SYSTEM
1 37
