AV-unprocessed.smi:634|AV-procd|sdf|3135|dock4
  -GOLD-   22720 0 63D 1   1.00000     0.00000
 Structure written by MMmdl.
 32 33  0  0  0  0  0  0  0  0  2 V2000
  145.7663  133.5840  162.4654 C   0  0  0  0  0  0  0  0  0  0  0  0
  146.4906  134.7748  161.9367 C   0  0  0  0  0  0  0  0  0  0  0  0
  146.5096  135.3800  160.7123 C   0  0  0  0  0  0  0  0  0  0  0  0
  147.4065  136.4667  160.9009 C   0  0  0  0  0  0  0  0  0  0  0  0
  147.7664  137.3616  159.9678 N   0  5  0  0  0  0  0  0  0  0  0  0
  148.9378  137.2212  159.3054 C   0  0  0  0  0  0  0  0  0  0  0  0
  149.6833  136.2401  159.3454 O   0  0  0  0  0  0  0  0  0  0  0  0
  149.2603  138.2888  158.5552 N   0  0  0  0  0  0  0  0  0  0  0  0
  150.4507  138.5044  157.7211 C   0  0  1  0  0  0  0  0  0  0  0  0
  151.6621  138.4757  158.6739 C   0  0  0  0  0  0  0  0  0  0  0  0
  150.6208  137.3721  156.6522 C   0  0  0  0  0  0  0  0  0  0  0  0
  150.4980  137.9302  155.2277 C   0  0  0  0  0  0  0  0  0  0  0  0
  151.0813  139.6495  155.3465 S   0  0  0  0  0  0  0  0  0  0  0  0
  152.5496  139.6448  155.4362 O   0  0  0  0  0  0  0  0  0  0  0  0
  150.3795  140.4993  154.3724 O   0  0  0  0  0  0  0  0  0  0  0  0
  150.3908  139.8888  157.0175 C   0  0  0  0  0  0  0  0  0  0  0  0
  147.9020  136.5068  162.1265 N   0  0  0  0  0  0  0  0  0  0  0  0
  147.3147  135.4285  162.7991 O   0  0  0  0  0  0  0  0  0  0  0  0
  146.1614  132.6675  162.0271 H   0  0  0  0  0  0  0  0  0  0  0  0
  144.7042  133.6430  162.2279 H   0  0  0  0  0  0  0  0  0  0  0  0
  145.8659  133.5111  163.5486 H   0  0  0  0  0  0  0  0  0  0  0  0
  145.9662  135.0954  159.8240 H   0  0  0  0  0  0  0  0  0  0  0  0
  148.5980  139.0505  158.5718 H   0  0  0  0  0  0  0  0  0  0  0  0
  152.5952  138.6527  158.1378 H   0  0  0  0  0  0  0  0  0  0  0  0
  151.7488  137.5117  159.1770 H   0  0  0  0  0  0  0  0  0  0  0  0
  151.5799  139.2414  159.4464 H   0  0  0  0  0  0  0  0  0  0  0  0
  151.6141  136.9301  156.7422 H   0  0  0  0  0  0  0  0  0  0  0  0
  149.9278  136.5434  156.8025 H   0  0  0  0  0  0  0  0  0  0  0  0
  151.0821  137.3780  154.4922 H   0  0  0  0  0  0  0  0  0  0  0  0
  149.4555  137.9503  154.9098 H   0  0  0  0  0  0  0  0  0  0  0  0
  149.3672  140.2413  156.8899 H   0  0  0  0  0  0  0  0  0  0  0  0
  150.9436  140.6714  157.5373 H   0  0  0  0  0  0  0  0  0  0  0  0
  1  2  1  0  0  0  0
  1 19  1  0  0  0  0
  1 20  1  0  0  0  0
  1 21  1  0  0  0  0
  2 18  1  0  0  0  0
  2  3  2  0  0  0  0
  3  4  1  0  0  0  0
  3 22  1  0  0  0  0
  4  5  1  0  0  0  0
  4 17  2  0  0  0  0
  5  6  1  0  0  0  0
  6  7  2  0  0  0  0
  6  8  1  0  0  0  0
  8  9  1  0  0  0  0
  8 23  1  0  0  0  0
  9 16  1  0  0  0  0
  9 10  1  0  0  0  0
  9 11  1  0  0  0  0
 10 24  1  0  0  0  0
 10 25  1  0  0  0  0
 10 26  1  0  0  0  0
 11 12  1  0  0  0  0
 11 27  1  0  0  0  0
 11 28  1  0  0  0  0
 12 13  1  0  0  0  0
 12 29  1  0  0  0  0
 12 30  1  0  0  0  0
 13 14  2  0  0  0  0
 13 15  2  0  0  0  0
 13 16  1  0  0  0  0
 16 31  1  0  0  0  0
 16 32  1  0  0  0  0
 17 18  1  0  0  0  0
M  CHG  1   5  -1
M  END
> <s_m_source_file>
AV-unprocessed.smi

> <i_m_source_file_index>
634

> <i_lp_mmshare_version>
43012

> <i_f3d_flags>
0

> <s_epik_input>
W0NIM11jMVtjSF1jKG5vMSlbTkhdQyg9TylbTkhdW0NAQF0yKFtDSDNdKVtDSDJdW0NIMl1TKD1PKSg9TylbQ0gyXTI=

> <s_epik_cmdline>
J2VwaWtfcHl0aG9uJywgJy1waCcsICc3LjAnLCAnLXRuJywgJzgnLCAnLW1hJywgJzIwMCcsICctbWV0YWxfYmluZGluZycsICctaW1hZScsICc8aW5maWxlLm1hZT4nLCAnLW9tYWUnLCAnPG91dGZpbGUubWFlPic=

> <r_lp_tautomer_probability>
1

> <r_epik_Ionization_Penalty>
6.15572

> <r_epik_Ionization_Penalty_Charging>
6.1556

> <r_epik_Ionization_Penalty_Neutral>
0.000118136

> <r_epik_State_Penalty>
6.15558

> <r_epik_Charging_Adjusted_Penalty>
12.3112

> <i_epik_Tot_Q>
-1

> <i_epik_Tot_abs_Q>
1

> <r_epik_Metal_State_Penalty>
2.10569

> <b_epik_Metal_Only>
1

> <s_lp_Force_Field>
OPLS_2005

> <r_lp_Energy>
-1.37943

> <b_lp_Chiralities_Consistent>
1

> <s_lp_Variant>
AV-unprocessed.smi:634-3

> <Gold.Version>
5.8.1

> <Gold.Id.Protein>
6NUR|6NUR_protein|mol2

> <Gold.PLP.Fitness>
40.3377

> <Gold.PLP.PLP>
-25.8361

> <Gold.PLP.part.hbond>
-5.6004

> <Gold.PLP.part.metal>
0.0000

> <Gold.PLP.part.buried>
-5.6346

> <Gold.PLP.part.nonpolar>
-15.9087

> <Gold.PLP.part.repulsive>
0.3077

> <Gold.PLP.ligand.clash>
0.0000

> <Gold.PLP.ligand.torsion>
0.7595

> <Gold.PLP.Chemscore.Hbond>
5.3384

> <Gold.PLP.Chemscore.CHOScore>
0.0000

> <Gold.PLP.Chemscore.Metal>
0.0000

> <Gold.Chemscore.Hbonds>
donor molecule, donor type, donor heavy atom, donor atom, acceptor molecule, acceptor atom, score
      P1  H  6896  6909       L1     7  1.00
      P1  H  6931  6943       L1    17  0.79
      P1  H  6934  6947       L1     5  1.49
      P1  H  7989  7998       L1    15  0.85
      P1  H  7997  8008       L1    14  1.00

> <Gold.PLP.Chemscore.Internal.Correction>
0.0053

> <Gold.Rescore>
     Score         DG    S(hbond)    S(metal)    S(lipo)     H(rot)  DE(clash)    DE(int)     intcor
     17.38     -19.38       3.54        0.00      39.71       1.00       0.10       1.90       ----

> <Gold.Chemscore.Fitness>
17.3778

> <Gold.Chemscore.DG>
-19.3777

> <Gold.Chemscore.ZeroCoef>
-5.4800

> <Gold.Chemscore.Hbond>
3.5365

> <Gold.Chemscore.Metal>
0.0000

> <Gold.Chemscore.Lipo>
39.7085

> <Gold.Chemscore.Internal_Hbond>
0.0000

> <Gold.Chemscore.DEClash>
0.1012

> <Gold.Chemscore.DEInternal>
1.8987

> <Gold.Chemscore.Rot>
1.0000

> <Gold.Chemscore.Internal.Correction>
   9.000000E+99

> <Gold.Chemscore.Hbonds>
donor molecule, donor type, donor heavy atom, donor atom, acceptor molecule, acceptor atom, score
      P1  H  6896  6909       L1     7  0.99
      P1  H  6931  6943       L1    17  0.15
      P1  H  6934  6947       L1     5  0.16
      P1  H  7989  7998       L1    15  0.16
      P1  H  7997  8008       L1    14  0.96

> <Gold.Chemscore.Hbond.Weighted>
-11.8118

> <Gold.Chemscore.Metal.Weighted>
-0.0000

> <Gold.Chemscore.Lipo.Weighted>
-4.6459

> <Gold.Chemscore.Internal_Hbond.Weighted>
0.0000

> <Gold.Chemscore.DEClash.Weighted>
0.1012

> <Gold.Chemscore.DEInternal.Weighted>
1.8987

> <Gold.Chemscore.Rot.Weighted>
2.5600

> <Gold.Chemscore.Internal.Correction.Weighted>
   9.000000E+99

> <Gold.Protein.RotatedTorsions>
[ 6907 6896 6895 6894 ] final   57.44 input  -60.11 | X-H torsion
[ 7974 7965 7964 7962 ] final   25.85 input  175.53 | X-H torsion
[ 8008 7997 7996 7995 ] final  -29.33 input   59.86 | X-H torsion
[ 10167 10162 10161 10158 ] final  -71.44 input  -65.29 | X-H torsion
[ 10718 10713 10712 10709 ] final -118.90 input   66.30 | X-H torsion
[ 10763 10752 10751 10750 ] final  -54.12 input  -60.55 | X-H torsion
[ 11005 11000 10999 10996 ] final  -98.17 input  -57.11 | X-H torsion

> <Gold.Protein.ActiveResidues>
 VAL166  LYS551  ARG553  GLY616  TRP617  ASP618  TYR619  PRO620  LYS621  CYS622 
 ASP623  PHE694  ASN695  SER759  ASP760  ASP761  ALA762  ILE779  LEU786  VAL792 
 PHE793  MET794  SER795  GLU796  ALA797  LYS798  CYS799  TRP800  GLU811  SER814 

> <Gold.Protein.RotatedAtoms>
  152.3731  134.6704  160.0168 H   0  0  0  0  0  0  0  0  0  0  0  0  # atno 6907 bound_to 6896
  151.6991  133.3305  159.3270 H   0  0  0  0  0  0  0  0  0  0  0  0  # atno 6908 bound_to 6896
  150.7689  134.6567  159.6362 H   0  0  0  0  0  0  0  0  0  0  0  0  # atno 6909 bound_to 6896
  146.1867  139.7409  142.8861 H   0  0  0  0  0  0  0  0  0  0  0  0  # atno 7974 bound_to 7965
  154.4294  140.1821  156.1230 H   0  0  0  0  0  0  0  0  0  0  0  0  # atno 8008 bound_to 7997
  156.0128  140.3349  155.6933 H   0  0  0  0  0  0  0  0  0  0  0  0  # atno 8009 bound_to 7997
  155.6087  140.0648  157.2703 H   0  0  0  0  0  0  0  0  0  0  0  0  # atno 8010 bound_to 7997
  140.5273  143.2325  151.7325 H   0  0  0  0  0  0  0  0  0  0  0  0  # atno 10167 bound_to 10162
  156.1140  130.6271  150.9349 H   0  0  0  0  0  0  0  0  0  0  0  0  # atno 10718 bound_to 10713
  154.1698  135.6461  153.5006 H   0  0  0  0  0  0  0  0  0  0  0  0  # atno 10763 bound_to 10752
  153.0087  135.5380  154.6624 H   0  0  0  0  0  0  0  0  0  0  0  0  # atno 10764 bound_to 10752
  154.5960  135.2939  155.0557 H   0  0  0  0  0  0  0  0  0  0  0  0  # atno 10765 bound_to 10752
  141.1354  133.8225  157.0804 H   0  0  0  0  0  0  0  0  0  0  0  0  # atno 11005 bound_to 11000
  145.3916  141.0373  143.3121 LP  0  0  0  0  0  0  0  0  0  0  0  0  # atno 17320 bound_to 7965
  144.8411  139.5470  143.6900 LP  0  0  0  0  0  0  0  0  0  0  0  0  # atno 17321 bound_to 7965
  139.4942  144.4167  152.0022 LP  0  0  0  0  0  0  0  0  0  0  0  0  # atno 17342 bound_to 10162
  140.3267  144.3364  150.5996 LP  0  0  0  0  0  0  0  0  0  0  0  0  # atno 17343 bound_to 10162
  157.6323  131.0920  150.8417 LP  0  0  0  0  0  0  0  0  0  0  0  0  # atno 17370 bound_to 10713
  156.8523  130.5085  149.5311 LP  0  0  0  0  0  0  0  0  0  0  0  0  # atno 17371 bound_to 10713
  140.0455  134.9832  157.1041 LP  0  0  0  0  0  0  0  0  0  0  0  0  # atno 17394 bound_to 11000
  140.4069  134.2022  155.7163 LP  0  0  0  0  0  0  0  0  0  0  0  0  # atno 17395 bound_to 11000

$$$$
