AV-unprocessed.smi:3018|AV-procd|sdf|11481|dock9
  -GOLD-   2272016423D 1   1.00000     0.00000
 Structure written by MMmdl.
 44 45  0  0  0  0  0  0  0  0  2 V2000
  151.3382  139.1719  154.8624 C   0  0  0  0  0  0  0  0  0  0  0  0
  150.9415  139.9051  156.1501 C   0  0  0  0  0  0  0  0  0  0  0  0
  150.3756  141.3118  155.8794 C   0  0  2  0  0  0  0  0  0  0  0  0
  150.2225  141.9722  157.1340 O   0  0  0  0  0  0  0  0  0  0  0  0
  151.4260  142.3379  157.8041 C   0  0  0  0  0  0  0  0  0  0  0  0
  151.7610  141.2908  158.8850 C   0  0  0  0  0  0  0  0  0  0  0  0
  152.9791  141.7181  159.7192 C   0  0  0  0  0  0  0  0  0  0  0  0
  152.7751  143.1103  160.3385 C   0  0  0  0  0  0  0  0  0  0  0  0
  152.4287  144.1547  159.2654 C   0  0  0  0  0  0  0  0  0  0  0  0
  151.2070  143.7209  158.4401 C   0  0  0  0  0  0  0  0  0  0  0  0
  149.0147  141.2554  155.1678 C   0  0  0  0  0  0  0  0  0  0  0  0
  148.5943  140.1947  154.7046 O   0  0  0  0  0  0  0  0  0  0  0  0
  148.3290  142.4055  155.1096 N   0  0  0  0  0  0  0  0  0  0  0  0
  146.9753  142.5444  154.5864 C   0  0  0  0  0  0  0  0  0  0  0  0
  145.9534  141.8164  155.4772 C   0  0  0  0  0  0  0  0  0  0  0  0
  146.2144  141.9986  156.9629 C   0  0  0  0  0  0  0  0  0  0  0  0
  145.5799  141.5012  157.9598 N   0  0  0  0  0  0  0  0  0  0  0  0
  146.2644  142.0026  159.1145 N   0  5  0  0  0  0  0  0  0  0  0  0
  147.2797  142.7819  158.6680 C   0  0  0  0  0  0  0  0  0  0  0  0
  148.1114  143.4082  159.3210 O   0  0  0  0  0  0  0  0  0  0  0  0
  147.2641  142.7861  157.3392 N   0  0  0  0  0  0  0  0  0  0  0  0
  147.8930  143.2767  156.7212 H   0  0  0  0  0  0  0  0  0  0  0  0
  151.7310  138.1798  155.0854 H   0  0  0  0  0  0  0  0  0  0  0  0
  152.1075  139.7194  154.3174 H   0  0  0  0  0  0  0  0  0  0  0  0
  150.4815  139.0498  154.1991 H   0  0  0  0  0  0  0  0  0  0  0  0
  150.1998  139.3041  156.6783 H   0  0  0  0  0  0  0  0  0  0  0  0
  151.8089  139.9710  156.8084 H   0  0  0  0  0  0  0  0  0  0  0  0
  151.0854  141.8482  155.2478 H   0  0  0  0  0  0  0  0  0  0  0  0
  152.2593  142.4191  157.1052 H   0  0  0  0  0  0  0  0  0  0  0  0
  150.9001  141.1552  159.5409 H   0  0  0  0  0  0  0  0  0  0  0  0
  151.9572  140.3202  158.4304 H   0  0  0  0  0  0  0  0  0  0  0  0
  153.1675  140.9860  160.5049 H   0  0  0  0  0  0  0  0  0  0  0  0
  153.8665  141.7255  159.0862 H   0  0  0  0  0  0  0  0  0  0  0  0
  151.9736  143.0672  161.0768 H   0  0  0  0  0  0  0  0  0  0  0  0
  153.6748  143.4135  160.8749 H   0  0  0  0  0  0  0  0  0  0  0  0
  152.2389  145.1210  159.7330 H   0  0  0  0  0  0  0  0  0  0  0  0
  153.2833  144.2968  158.6039 H   0  0  0  0  0  0  0  0  0  0  0  0
  151.0063  144.4583  157.6622 H   0  0  0  0  0  0  0  0  0  0  0  0
  150.3245  143.6969  159.0808 H   0  0  0  0  0  0  0  0  0  0  0  0
  148.7474  143.2278  155.5195 H   0  0  0  0  0  0  0  0  0  0  0  0
  146.7299  143.6057  154.5350 H   0  0  0  0  0  0  0  0  0  0  0  0
  146.9208  142.1575  153.5669 H   0  0  0  0  0  0  0  0  0  0  0  0
  144.9459  142.1596  155.2374 H   0  0  0  0  0  0  0  0  0  0  0  0
  145.9712  140.7493  155.2545 H   0  0  0  0  0  0  0  0  0  0  0  0
  1  2  1  0  0  0  0
  1 23  1  0  0  0  0
  1 24  1  0  0  0  0
  1 25  1  0  0  0  0
  2  3  1  0  0  0  0
  2 26  1  0  0  0  0
  2 27  1  0  0  0  0
  3  4  1  0  0  0  0
  3 11  1  0  0  0  0
  3 28  1  0  0  0  0
  4  5  1  0  0  0  0
  5 10  1  0  0  0  0
  5  6  1  0  0  0  0
  5 29  1  0  0  0  0
  6  7  1  0  0  0  0
  6 30  1  0  0  0  0
  6 31  1  0  0  0  0
  7  8  1  0  0  0  0
  7 32  1  0  0  0  0
  7 33  1  0  0  0  0
  8  9  1  0  0  0  0
  8 34  1  0  0  0  0
  8 35  1  0  0  0  0
  9 10  1  0  0  0  0
  9 36  1  0  0  0  0
  9 37  1  0  0  0  0
 10 38  1  0  0  0  0
 10 39  1  0  0  0  0
 11 12  2  0  0  0  0
 11 13  1  0  0  0  0
 13 14  1  0  0  0  0
 13 40  1  0  0  0  0
 14 15  1  0  0  0  0
 14 41  1  0  0  0  0
 14 42  1  0  0  0  0
 15 16  1  0  0  0  0
 15 43  1  0  0  0  0
 15 44  1  0  0  0  0
 16 21  1  0  0  0  0
 16 17  2  0  0  0  0
 17 18  1  0  0  0  0
 18 19  1  0  0  0  0
 19 20  2  0  0  0  0
 19 21  1  0  0  0  0
 21 22  1  0  0  0  0
M  CHG  1  18  -1
M  END
> <s_m_source_file>
AV-unprocessed.smi

> <i_m_source_file_index>
3018

> <i_lp_mmshare_version>
43012

> <i_f3d_flags>
0

> <s_epik_input>
W0NIMl0xW0NIMl1bQ0gyXVtDSDJdW0NIMl1bQ0hdMU9bQ0BASF0oW0NIMl1bQ0gzXSlDKD1PKVtOSF1bQ0gyXVtDSDJdYzJuW25IXWMoPU8pW25IXTI=

> <s_epik_cmdline>
J2VwaWtfcHl0aG9uJywgJy1waCcsICc3LjAnLCAnLXRuJywgJzgnLCAnLW1hJywgJzIwMCcsICctbWV0YWxfYmluZGluZycsICctaW1hZScsICc8aW5maWxlLm1hZT4nLCAnLW9tYWUnLCAnPG91dGZpbGUubWFlPic=

> <r_lp_tautomer_probability>
1

> <r_epik_Ionization_Penalty>
14.1812

> <r_epik_Ionization_Penalty_Charging>
13.7758

> <r_epik_Ionization_Penalty_Neutral>
0.405355

> <r_epik_State_Penalty>
4.92413

> <r_epik_Charging_Adjusted_Penalty>
18.7

> <i_epik_Tot_Q>
-1

> <i_epik_Tot_abs_Q>
1

> <r_epik_Metal_State_Penalty>
1.32654

> <b_epik_Metal_Only>
1

> <s_lp_Force_Field>
OPLS_2005

> <r_lp_Energy>
19.863

> <b_lp_Chiralities_Consistent>
1

> <s_lp_Variant>
AV-unprocessed.smi:3018-3

> <Gold.Version>
5.8.1

> <Gold.Id.Protein>
6NUR|6NUR_protein|mol2

> <Gold.PLP.Fitness>
48.2031

> <Gold.PLP.PLP>
-39.1539

> <Gold.PLP.part.hbond>
-3.4491

> <Gold.PLP.part.metal>
0.0000

> <Gold.PLP.part.buried>
-5.4415

> <Gold.PLP.part.nonpolar>
-32.6055

> <Gold.PLP.part.repulsive>
0.6747

> <Gold.PLP.ligand.clash>
0.0029

> <Gold.PLP.ligand.torsion>
0.9752

> <Gold.PLP.Chemscore.Hbond>
3.6126

> <Gold.PLP.Chemscore.CHOScore>
0.0000

> <Gold.PLP.Chemscore.Metal>
0.0000

> <Gold.Chemscore.Hbonds>
donor molecule, donor type, donor heavy atom, donor atom, acceptor molecule, acceptor atom, score
      L1  H    13    40       P1  8028  0.91
      L1  H    21    22       P1  8028  0.65
      P1  H  6933  6944       L1    20  0.08
      P1  H  6934  6946       L1    18  1.81

> <Gold.PLP.Chemscore.Internal.Correction>
0.1646

> <Gold.Rescore>
     Score         DG    S(hbond)    S(metal)    S(lipo)     H(rot)  DE(clash)    DE(int)     intcor
     13.27     -16.28       2.17        0.00      95.54       2.98       0.00       3.01       ----

> <Gold.Chemscore.Fitness>
13.2702

> <Gold.Chemscore.DG>
-16.2775

> <Gold.Chemscore.ZeroCoef>
-5.4800

> <Gold.Chemscore.Hbond>
2.1679

> <Gold.Chemscore.Metal>
0.0000

> <Gold.Chemscore.Lipo>
95.5404

> <Gold.Chemscore.Internal_Hbond>
0.0000

> <Gold.Chemscore.DEClash>
0.0004

> <Gold.Chemscore.DEInternal>
3.0069

> <Gold.Chemscore.Rot>
2.9772

> <Gold.Chemscore.Internal.Correction>
   9.000000E+99

> <Gold.Chemscore.Hbonds>
donor molecule, donor type, donor heavy atom, donor atom, acceptor molecule, acceptor atom, score
      L1  H    13    40       P1  8028  0.84
      L1  H    21    22       P1  8028  0.05
      P1  H  6933  6944       L1    20  0.08
      P1  H  6934  6946       L1    18  0.61

> <Gold.Chemscore.Hbond.Weighted>
-7.2408

> <Gold.Chemscore.Metal.Weighted>
-0.0000

> <Gold.Chemscore.Lipo.Weighted>
-11.1782

> <Gold.Chemscore.Internal_Hbond.Weighted>
0.0000

> <Gold.Chemscore.DEClash.Weighted>
0.0004

> <Gold.Chemscore.DEInternal.Weighted>
3.0069

> <Gold.Chemscore.Rot.Weighted>
7.6216

> <Gold.Chemscore.Internal.Correction.Weighted>
   9.000000E+99

> <Gold.Protein.RotatedTorsions>
[ 6907 6896 6895 6894 ] final   95.02 input  -60.11 | X-H torsion
[ 7974 7965 7964 7962 ] final  119.91 input  175.53 | X-H torsion
[ 8008 7997 7996 7995 ] final  -48.63 input   59.86 | X-H torsion
[ 10167 10162 10161 10158 ] final  -38.85 input  -65.29 | X-H torsion
[ 10718 10713 10712 10709 ] final  160.44 input   66.30 | X-H torsion
[ 10763 10752 10751 10750 ] final -177.26 input  -60.55 | X-H torsion
[ 11005 11000 10999 10996 ] final -104.75 input  -57.11 | X-H torsion

> <Gold.Protein.ActiveResidues>
 VAL166  LYS551  ARG553  GLY616  TRP617  ASP618  TYR619  PRO620  LYS621  CYS622 
 ASP623  PHE694  ASN695  SER759  ASP760  ASP761  ALA762  ILE779  LEU786  VAL792 
 PHE793  MET794  SER795  GLU796  ALA797  LYS798  CYS799  TRP800  GLU811  SER814 

> <Gold.Protein.RotatedAtoms>
  152.5446  134.1105  159.8356 H   0  0  0  0  0  0  0  0  0  0  0  0  # atno 6907 bound_to 6896
  151.1172  133.5123  159.2611 H   0  0  0  0  0  0  0  0  0  0  0  0  # atno 6908 bound_to 6896
  151.1819  135.0374  159.8850 H   0  0  0  0  0  0  0  0  0  0  0  0  # atno 6909 bound_to 6896
  145.1374  139.3289  143.4633 H   0  0  0  0  0  0  0  0  0  0  0  0  # atno 7974 bound_to 7965
  154.4032  140.1317  156.4371 H   0  0  0  0  0  0  0  0  0  0  0  0  # atno 8008 bound_to 7997
  155.7495  140.3488  155.5123 H   0  0  0  0  0  0  0  0  0  0  0  0  # atno 8009 bound_to 7997
  155.8963  140.1012  157.1373 H   0  0  0  0  0  0  0  0  0  0  0  0  # atno 8010 bound_to 7997
  140.7081  143.3251  151.2699 H   0  0  0  0  0  0  0  0  0  0  0  0  # atno 10167 bound_to 10162
  157.1503  131.0562  151.2283 H   0  0  0  0  0  0  0  0  0  0  0  0  # atno 10718 bound_to 10713
  154.5623  135.2821  155.0907 H   0  0  0  0  0  0  0  0  0  0  0  0  # atno 10763 bound_to 10752
  154.2311  135.6374  153.5179 H   0  0  0  0  0  0  0  0  0  0  0  0  # atno 10764 bound_to 10752
  153.0033  135.5537  154.6222 H   0  0  0  0  0  0  0  0  0  0  0  0  # atno 10765 bound_to 10752
  141.1086  133.8750  157.1650 H   0  0  0  0  0  0  0  0  0  0  0  0  # atno 11005 bound_to 11000
  146.3508  140.1398  142.8595 LP  0  0  0  0  0  0  0  0  0  0  0  0  # atno 17320 bound_to 7965
  145.0569  140.9059  143.4962 LP  0  0  0  0  0  0  0  0  0  0  0  0  # atno 17321 bound_to 7965
  139.6717  144.0009  152.2757 LP  0  0  0  0  0  0  0  0  0  0  0  0  # atno 17342 bound_to 10162
  139.9610  144.6558  150.8080 LP  0  0  0  0  0  0  0  0  0  0  0  0  # atno 17343 bound_to 10162
  157.4226  130.7446  149.6925 LP  0  0  0  0  0  0  0  0  0  0  0  0  # atno 17370 bound_to 10713
  155.9772  130.4066  150.3730 LP  0  0  0  0  0  0  0  0  0  0  0  0  # atno 17371 bound_to 10713
  139.9968  135.0044  157.0099 LP  0  0  0  0  0  0  0  0  0  0  0  0  # atno 17394 bound_to 11000
  140.4837  134.1263  155.7221 LP  0  0  0  0  0  0  0  0  0  0  0  0  # atno 17395 bound_to 11000

$$$$
