#       Name:                AV-unprocessed.smi:686
#       Creating user name   scv26
#       Creation time:       Fri Mar 27 00:32:18 2020


#       File generated by GOLD software.
#

@<TRIPOS>MOLECULE
AV-unprocessed.smi:686
    44    45     1
SMALL
NO_CHARGES


@<TRIPOS>ATOM
      1 ****        -0.0584   0.0239  -3.1072 C.3            1 S1                 0.0000
      2 ****        -0.9694  -0.1612  -1.8755 C.3            1 S1                 0.0000
      3 ****        -1.2961  -1.6232  -1.5261 C.3            1 S1                 0.0000
      4 ****        -1.4552  -1.6859  -0.0501 N.4            1 S1                 1.0000
      5 ****        -2.6013  -2.5046   0.4362 C.3            1 S1                 0.0000
      6 ****        -2.7318  -2.4516   1.9706 C.3            1 S1                 0.0000
      7 ****        -2.4632  -3.9702  -0.0169 C.3            1 S1                 0.0000
      8 ****        -1.3955  -0.2921   0.4504 C.3            1 S1                 0.0000
      9 ****        -0.5096   0.4629  -0.5461 C.3            1 S1                 0.0000
     10 ****         0.8988   0.1692  -0.2817 N.pl3          1 S1                -1.0000
     11 ****         1.7534   1.0115   0.8175 S.o2           1 S1                 0.0000
     12 ****         0.9659   1.4283   1.9904 O.2            1 S1                 0.0000
     13 ****         3.0413   0.3563   1.0913 O.2            1 S1                 0.0000
     14 ****         2.1724   2.5550  -0.1132 C.3            1 S1                 0.0000
     15 ****         3.0188   3.4556   0.7419 C.2            1 S1                 0.0000
     16 ****         4.4010   3.3364   1.0566 C.2            1 S1                 0.0000
     17 ****         4.6409   4.4160   1.8564 C.2            1 S1                 0.0000
     18 ****         3.5104   5.1486   2.0172 O.3            1 S1                 0.0000
     19 ****         2.4809   4.5295   1.2994 N.2            1 S1                 0.0000
     20 ****         0.9071  -0.4706  -2.9883 H              1 S1                 0.0000
     21 ****         0.1289   1.0780  -3.3187 H              1 S1                 0.0000
     22 ****        -0.5280  -0.4032  -3.9935 H              1 S1                 0.0000
     23 ****        -1.9189   0.3192  -2.1189 H              1 S1                 0.0000
     24 ****        -2.1977  -1.9377  -2.0539 H              1 S1                 0.0000
     25 ****        -0.4914  -2.3004  -1.8180 H              1 S1                 0.0000
     26 ****        -3.5163  -2.0946   0.0059 H              1 S1                 0.0000
     27 ****        -3.5401  -3.0970   2.3161 H              1 S1                 0.0000
     28 ****        -2.9584  -1.4470   2.3281 H              1 S1                 0.0000
     29 ****        -1.8143  -2.7825   2.4584 H              1 S1                 0.0000
     30 ****        -3.2930  -4.5729   0.3534 H              1 S1                 0.0000
     31 ****        -1.5405  -4.4141   0.3585 H              1 S1                 0.0000
     32 ****        -2.4607  -4.0679  -1.1024 H              1 S1                 0.0000
     33 ****        -2.3976   0.1400   0.4405 H              1 S1                 0.0000
     34 ****        -1.0266  -0.2457   1.4755 H              1 S1                 0.0000
     35 ****        -0.7188   1.5328  -0.5307 H              1 S1                 0.0000
     36 ****         2.7027   2.2721  -1.0222 H              1 S1                 0.0000
     37 ****         1.2485   3.0515  -0.4094 H              1 S1                 0.0000
     38 ****         5.1014   2.5738   0.7501 H              1 S1                 0.0000
     39 ****         5.5211   4.7835   2.3625 H              1 S1                 0.0000
     40 ****        -0.6115  -2.1225   0.2940 H              1 S1                 0.0000
     41 ****         1.3473  -0.5669  -0.7886 LP             1 S1                 0.0000
     42 ****         3.6554   6.0751   1.6698 LP             1 S1                 0.0000
     43 ****         3.2693   5.1902   2.9868 LP             1 S1                 0.0000
     44 ****         1.5321   4.8358   1.2231 LP             1 S1                 0.0000
@<TRIPOS>BOND
    1    1    2 1     
    2    1   20 1     
    3    1   21 1     
    4    1   22 1     
    5    2    9 1     
    6    2    3 1     
    7    2   23 1     
    8    3    4 1     
    9    3   24 1     
   10    3   25 1     
   11    4    5 1     
   12    4    8 1     
   13    4   40 1     
   14    5    6 1     
   15    5    7 1     
   16    5   26 1     
   17    6   27 1     
   18    6   28 1     
   19    6   29 1     
   20    7   30 1     
   21    7   31 1     
   22    7   32 1     
   23    8    9 1     
   24    8   33 1     
   25    8   34 1     
   26    9   10 1     
   27    9   35 1     
   28   10   11 1     
   29   11   12 2     
   30   11   13 2     
   31   11   14 1     
   32   14   15 1     
   33   14   36 1     
   34   14   37 1     
   35   15   19 2     
   36   15   16 1     
   37   16   17 2     
   38   16   38 1     
   39   17   18 1     
   40   17   39 1     
   41   18   19 1     
   42   10   41 1     
   43   18   42 1     
   44   18   43 1     
   45   19   44 1     
@<TRIPOS>SUBSTRUCTURE
      1 S1             1
@<TRIPOS>SET
LONE_PAIRS      STATIC     ATOMS    <user>   **** ""
6 41 12 13 42 43 44
DONOR_HYDROGENS      STATIC     ATOMS    <user>   **** ""
1 40
ATOM$BLUE        STATIC     ATOMS    COLORGROUP SYSTEM
6 41 12 13 42 43 44
ATOM$RED        STATIC     ATOMS    COLORGROUP SYSTEM
1 40
