#       Name:                AV-unprocessed.smi:2095
#       Creating user name   scv26
#       Creation time:       Fri Mar 27 11:28:51 2020


#       File generated by GOLD software.
#

@<TRIPOS>MOLECULE
AV-unprocessed.smi:2095
    47    48     1
SMALL
NO_CHARGES


@<TRIPOS>ATOM
      1 ****        -2.3594  -3.7444   1.5276 C.3            1 S1                 0.0000
      2 ****        -2.1856  -2.2599   1.8776 C.3            1 S1                 0.0000
      3 ****        -1.5089  -2.0791   3.2476 C.3            1 S1                 0.0000
      4 ****        -1.3234  -0.5881   3.5596 C.3            1 S1                 0.0000
      5 ****        -0.5495   0.1145   2.4337 C.3            1 S1                 0.0000
      6 ****        -1.2397  -0.0711   1.1283 N.4            1 S1                 1.0000
      7 ****        -0.7119   0.7531   0.0022 C.3            1 S1                 0.0000
      8 ****        -1.1403   2.2244   0.1600 C.3            1 S1                 0.0000
      9 ****         0.8161   0.5963  -0.2060 C.3            1 S1                 0.0000
     10 ****         1.2893   1.3101  -1.3868 N.am           1 S1                 0.0000
     11 ****         1.1766   0.8664  -2.6488 C.2            1 S1                 0.0000
     12 ****         0.6514  -0.2070  -2.9428 O.2            1 S1                 0.0000
     13 ****         1.7274   1.7751  -3.7488 C.3            1 S1                 0.0000
     14 ****         3.1753   1.8515  -3.6935 N.pl3          1 S1                 0.0000
     15 ****         4.1164   1.0471  -4.1921 C.2            1 S1                 0.0000
     16 ****         5.3334   1.4795  -3.8992 N.2            1 S1                 0.0000
     17 ****         5.0916   2.6319  -3.1700 N.2            1 S1                 0.0000
     18 ****         3.8129   2.8581  -3.0449 N.2            1 S1                 0.0000
     19 ****        -1.3945  -1.5106   0.7862 C.3            1 S1                 0.0000
     20 ****        -1.3961  -4.2500   1.4516 H              1 S1                 0.0000
     21 ****        -2.8754  -3.8655   0.5746 H              1 S1                 0.0000
     22 ****        -2.9472  -4.2605   2.2874 H              1 S1                 0.0000
     23 ****        -3.1819  -1.8185   1.9335 H              1 S1                 0.0000
     24 ****        -2.1054  -2.5496   4.0301 H              1 S1                 0.0000
     25 ****        -0.5386  -2.5781   3.2529 H              1 S1                 0.0000
     26 ****        -2.2978  -0.1144   3.6866 H              1 S1                 0.0000
     27 ****        -0.7950  -0.4692   4.5061 H              1 S1                 0.0000
     28 ****        -0.4602   1.1740   2.6715 H              1 S1                 0.0000
     29 ****         0.4628  -0.2882   2.3838 H              1 S1                 0.0000
     30 ****        -1.2112   0.3989  -0.9009 H              1 S1                 0.0000
     31 ****        -0.9167   2.8005  -0.7383 H              1 S1                 0.0000
     32 ****        -0.6323   2.7112   0.9922 H              1 S1                 0.0000
     33 ****        -2.2142   2.3038   0.3316 H              1 S1                 0.0000
     34 ****         1.3617   0.9979   0.6480 H              1 S1                 0.0000
     35 ****         1.0971  -0.4547  -0.2841 H              1 S1                 0.0000
     36 ****         1.7384   2.2022  -1.2346 H              1 S1                 0.0000
     37 ****         1.4348   1.3965  -4.7291 H              1 S1                 0.0000
     38 ****         1.3059   2.7766  -3.6506 H              1 S1                 0.0000
     39 ****         3.9120   0.1516  -4.7603 H              1 S1                 0.0000
     40 ****        -0.4131  -1.9674   0.6515 H              1 S1                 0.0000
     41 ****        -1.9209  -1.6073  -0.1644 H              1 S1                 0.0000
     42 ****        -2.1825   0.2623   1.2700 H              1 S1                 0.0000
     43 ****         0.2824  -0.7965  -2.2242 LP             1 S1                 0.0000
     44 ****         0.5936  -0.4897  -3.9002 LP             1 S1                 0.0000
     45 ****         6.2132   1.0727  -4.1448 LP             1 S1                 0.0000
     46 ****         5.8069   3.2168  -2.7876 LP             1 S1                 0.0000
     47 ****         3.3859   3.6242  -2.5645 LP             1 S1                 0.0000
@<TRIPOS>BOND
    1    1    2 1     
    2    1   20 1     
    3    1   21 1     
    4    1   22 1     
    5    2   19 1     
    6    2    3 1     
    7    2   23 1     
    8    3    4 1     
    9    3   24 1     
   10    3   25 1     
   11    4    5 1     
   12    4   26 1     
   13    4   27 1     
   14    5    6 1     
   15    5   28 1     
   16    5   29 1     
   17    6    7 1     
   18    6   19 1     
   19    6   42 1     
   20    7    8 1     
   21    7    9 1     
   22    7   30 1     
   23    8   31 1     
   24    8   32 1     
   25    8   33 1     
   26    9   10 1     
   27    9   34 1     
   28    9   35 1     
   29   10   11 am    
   30   10   36 1     
   31   11   12 2     
   32   11   13 1     
   33   13   14 1     
   34   13   37 1     
   35   13   38 1     
   36   14   18 1     
   37   14   15 1     
   38   15   16 2     
   39   15   39 1     
   40   16   17 1     
   41   17   18 2     
   42   19   40 1     
   43   19   41 1     
   44   12   43 1     
   45   12   44 1     
   46   16   45 1     
   47   17   46 1     
   48   18   47 1     
@<TRIPOS>SUBSTRUCTURE
      1 S1             1
@<TRIPOS>SET
LONE_PAIRS      STATIC     ATOMS    <user>   **** ""
5 43 44 45 46 47
DONOR_HYDROGENS      STATIC     ATOMS    <user>   **** ""
2 42 36
ATOM$BLUE        STATIC     ATOMS    COLORGROUP SYSTEM
5 43 44 45 46 47
ATOM$RED        STATIC     ATOMS    COLORGROUP SYSTEM
2 42 36
