AV-unprocessed.smi:2276|AV-procd|sdf|9175|dock2
  -GOLD-   2272012393D 1   1.00000     0.00000
 Structure written by MMmdl.
 53 54  0  0  0  0  0  0  0  0  2 V2000
  152.4070  143.9015  161.2205 C   0  0  0  0  0  0  0  0  0  0  0  0
  152.4342  142.8280  160.1526 C   0  0  0  0  0  0  0  0  0  0  0  0
  153.3589  141.7682  160.2160 C   0  0  0  0  0  0  0  0  0  0  0  0
  153.3340  140.8019  159.1913 C   0  0  0  0  0  0  0  0  0  0  0  0
  154.2970  139.6333  159.1976 C   0  0  0  0  0  0  0  0  0  0  0  0
  152.4686  140.8485  158.1558 N   0  0  0  0  0  0  0  0  0  0  0  0
  151.5733  141.8644  158.0847 C   0  0  0  0  0  0  0  0  0  0  0  0
  150.6220  142.0041  157.0395 N   0  0  0  0  0  0  0  0  0  0  0  0
  150.3927  141.1720  156.0083 C   0  0  0  0  0  0  0  0  0  0  0  0
  150.9886  140.1153  155.7980 O   0  0  0  0  0  0  0  0  0  0  0  0
  149.4225  141.6421  155.2107 N   0  0  0  0  0  0  0  0  0  0  0  0
  148.9347  140.9828  154.0022 C   0  0  0  0  0  0  0  0  0  0  0  0
  147.5654  140.2925  154.1980 C   0  0  1  0  0  0  0  0  0  0  0  0
  146.4861  141.3449  154.5036 C   0  0  0  0  0  0  0  0  0  0  0  0
  147.1726  139.4258  152.9784 C   0  0  0  0  0  0  0  0  0  0  0  0
  145.7853  138.9035  153.0653 N   0  3  0  0  0  0  0  0  0  0  0  0
  145.4752  138.2570  154.3654 C   0  0  0  0  0  0  0  0  0  0  0  0
  143.9975  137.8145  154.4116 C   0  0  0  0  0  0  0  0  0  0  0  0
  143.6541  136.9143  153.3094 N   0  0  0  0  0  0  0  0  0  0  0  0
  144.2366  135.5846  153.4527 C   0  0  0  0  0  0  0  0  0  0  0  0
  143.9748  137.5474  152.0291 C   0  0  0  0  0  0  0  0  0  0  0  0
  145.4525  137.9852  151.9500 C   0  0  0  0  0  0  0  0  0  0  0  0
  151.5313  142.8749  159.0712 C   0  0  0  0  0  0  0  0  0  0  0  0
  153.0171  143.6209  162.0796 H   0  0  0  0  0  0  0  0  0  0  0  0
  151.3868  144.0660  161.5678 H   0  0  0  0  0  0  0  0  0  0  0  0
  152.7902  144.8403  160.8203 H   0  0  0  0  0  0  0  0  0  0  0  0
  154.0673  141.6972  161.0284 H   0  0  0  0  0  0  0  0  0  0  0  0
  154.9785  139.6865  160.0468 H   0  0  0  0  0  0  0  0  0  0  0  0
  154.8920  139.6266  158.2839 H   0  0  0  0  0  0  0  0  0  0  0  0
  153.7496  138.6923  159.2586 H   0  0  0  0  0  0  0  0  0  0  0  0
  150.0518  142.8356  157.0826 H   0  0  0  0  0  0  0  0  0  0  0  0
  148.9810  142.5144  155.4627 H   0  0  0  0  0  0  0  0  0  0  0  0
  148.8778  141.7165  153.1963 H   0  0  0  0  0  0  0  0  0  0  0  0
  149.6811  140.2493  153.6952 H   0  0  0  0  0  0  0  0  0  0  0  0
  147.6481  139.6548  155.0772 H   0  0  0  0  0  0  0  0  0  0  0  0
  146.3387  142.0198  153.6597 H   0  0  0  0  0  0  0  0  0  0  0  0
  146.7627  141.9504  155.3673 H   0  0  0  0  0  0  0  0  0  0  0  0
  145.5263  140.8803  154.7299 H   0  0  0  0  0  0  0  0  0  0  0  0
  147.2804  140.0349  152.0796 H   0  0  0  0  0  0  0  0  0  0  0  0
  147.8523  138.5824  152.8518 H   0  0  0  0  0  0  0  0  0  0  0  0
  146.1420  137.4104  154.5326 H   0  0  0  0  0  0  0  0  0  0  0  0
  145.6545  138.9543  155.1829 H   0  0  0  0  0  0  0  0  0  0  0  0
  143.7745  137.3304  155.3632 H   0  0  0  0  0  0  0  0  0  0  0  0
  143.3533  138.6931  154.3548 H   0  0  0  0  0  0  0  0  0  0  0  0
  143.8951  134.9352  152.6460 H   0  0  0  0  0  0  0  0  0  0  0  0
  143.9208  135.1340  154.3941 H   0  0  0  0  0  0  0  0  0  0  0  0
  145.3257  135.5990  153.4354 H   0  0  0  0  0  0  0  0  0  0  0  0
  143.7351  136.8650  151.2126 H   0  0  0  0  0  0  0  0  0  0  0  0
  143.3301  138.4184  151.9020 H   0  0  0  0  0  0  0  0  0  0  0  0
  145.6181  138.4951  151.0002 H   0  0  0  0  0  0  0  0  0  0  0  0
  146.1217  137.1240  151.9612 H   0  0  0  0  0  0  0  0  0  0  0  0
  150.8137  143.6800  159.0034 H   0  0  0  0  0  0  0  0  0  0  0  0
  145.1680  139.6975  152.9714 H   0  0  0  0  0  0  0  0  0  0  0  0
  1  2  1  0  0  0  0
  1 24  1  0  0  0  0
  1 25  1  0  0  0  0
  1 26  1  0  0  0  0
  2 23  1  0  0  0  0
  2  3  2  0  0  0  0
  3  4  1  0  0  0  0
  3 27  1  0  0  0  0
  4  5  1  0  0  0  0
  4  6  2  0  0  0  0
  5 28  1  0  0  0  0
  5 29  1  0  0  0  0
  5 30  1  0  0  0  0
  6  7  1  0  0  0  0
  7  8  1  0  0  0  0
  7 23  2  0  0  0  0
  8  9  1  0  0  0  0
  8 31  1  0  0  0  0
  9 10  2  0  0  0  0
  9 11  1  0  0  0  0
 11 12  1  0  0  0  0
 11 32  1  0  0  0  0
 12 13  1  0  0  0  0
 12 33  1  0  0  0  0
 12 34  1  0  0  0  0
 13 14  1  0  0  0  0
 13 15  1  0  0  0  0
 13 35  1  0  0  0  0
 14 36  1  0  0  0  0
 14 37  1  0  0  0  0
 14 38  1  0  0  0  0
 15 16  1  0  0  0  0
 15 39  1  0  0  0  0
 15 40  1  0  0  0  0
 16 22  1  0  0  0  0
 16 17  1  0  0  0  0
 16 53  1  0  0  0  0
 17 18  1  0  0  0  0
 17 41  1  0  0  0  0
 17 42  1  0  0  0  0
 18 19  1  0  0  0  0
 18 43  1  0  0  0  0
 18 44  1  0  0  0  0
 19 20  1  0  0  0  0
 19 21  1  0  0  0  0
 20 45  1  0  0  0  0
 20 46  1  0  0  0  0
 20 47  1  0  0  0  0
 21 22  1  0  0  0  0
 21 48  1  0  0  0  0
 21 49  1  0  0  0  0
 22 50  1  0  0  0  0
 22 51  1  0  0  0  0
 23 52  1  0  0  0  0
M  CHG  1  16   1
M  END
> <s_m_source_file>
AV-unprocessed.smi

> <i_m_source_file_index>
2276

> <i_lp_mmshare_version>
43012

> <i_f3d_flags>
0

> <s_epik_input>
W0NIM11jMVtjSF1jKFtDSDNdKW5jKFtjSF0xKVtOSF1DKD1PKVtOSF1bQ0gyXVtDQEhdKFtDSDNdKVtDSDJdTjJbQ0gyXVtDSDJdTihbQ0gzXSlbQ0gyXVtDSDJdMg==

> <s_epik_cmdline>
J2VwaWtfcHl0aG9uJywgJy1waCcsICc3LjAnLCAnLXRuJywgJzgnLCAnLW1hJywgJzIwMCcsICctbWV0YWxfYmluZGluZycsICctaW1hZScsICc8aW5maWxlLm1hZT4nLCAnLW9tYWUnLCAnPG91dGZpbGUubWFlPic=

> <r_epik_Ionization_Penalty>
0.0485334

> <r_epik_Ionization_Penalty_Charging>
0.0462531

> <r_epik_Ionization_Penalty_Neutral>
0.00228028

> <r_epik_State_Penalty>
0.692588

> <r_epik_Charging_Adjusted_Penalty>
0.738841

> <i_epik_Tot_Q>
1

> <i_epik_Tot_abs_Q>
1

> <r_epik_Metal_State_Penalty>
0.692605

> <b_epik_Metal_Only>
0

> <s_lp_Force_Field>
OPLS_2005

> <r_lp_Energy>
21.6891

> <b_lp_Chiralities_Consistent>
1

> <s_lp_Variant>
AV-unprocessed.smi:2276-4

> <Gold.Version>
5.8.1

> <Gold.Id.Protein>
6NUR|6NUR_protein|mol2

> <Gold.PLP.Fitness>
55.7707

> <Gold.PLP.PLP>
-44.2250

> <Gold.PLP.part.hbond>
-3.0000

> <Gold.PLP.part.metal>
0.0000

> <Gold.PLP.part.buried>
-4.8686

> <Gold.PLP.part.nonpolar>
-37.9470

> <Gold.PLP.part.repulsive>
0.3631

> <Gold.PLP.ligand.clash>
0.0000

> <Gold.PLP.ligand.torsion>
0.2074

> <Gold.PLP.Chemscore.Hbond>
3.9440

> <Gold.PLP.Chemscore.CHOScore>
0.0000

> <Gold.PLP.Chemscore.Metal>
0.0000

> <Gold.Chemscore.Hbonds>
donor molecule, donor type, donor heavy atom, donor atom, acceptor molecule, acceptor atom, score
      L1  H    11    32       P1  8028  0.55
      L1  H    16    53       P1 10175  2.00

> <Gold.PLP.Chemscore.Internal.Correction>
0.1285

> <Gold.Rescore>
     Score         DG    S(hbond)    S(metal)    S(lipo)     H(rot)  DE(clash)    DE(int)     intcor
     20.85     -23.08       2.88        0.00     103.87       1.63       0.55       1.68       ----

> <Gold.Chemscore.Fitness>
20.8521

> <Gold.Chemscore.DG>
-23.0840

> <Gold.Chemscore.ZeroCoef>
-5.4800

> <Gold.Chemscore.Hbond>
2.8800

> <Gold.Chemscore.Metal>
0.0000

> <Gold.Chemscore.Lipo>
103.8710

> <Gold.Chemscore.Internal_Hbond>
0.0000

> <Gold.Chemscore.DEClash>
0.5503

> <Gold.Chemscore.DEInternal>
1.6816

> <Gold.Chemscore.Rot>
1.6282

> <Gold.Chemscore.Internal.Correction>
   9.000000E+99

> <Gold.Chemscore.Hbonds>
donor molecule, donor type, donor heavy atom, donor atom, acceptor molecule, acceptor atom, score
      L1  H    11    32       P1  8028  0.53
      L1  H    16    53       P1 10175  0.97

> <Gold.Chemscore.Hbond.Weighted>
-9.6193

> <Gold.Chemscore.Metal.Weighted>
-0.0000

> <Gold.Chemscore.Lipo.Weighted>
-12.1529

> <Gold.Chemscore.Internal_Hbond.Weighted>
0.0000

> <Gold.Chemscore.DEClash.Weighted>
0.5503

> <Gold.Chemscore.DEInternal.Weighted>
1.6816

> <Gold.Chemscore.Rot.Weighted>
4.1682

> <Gold.Chemscore.Internal.Correction.Weighted>
   9.000000E+99

> <Gold.Protein.RotatedTorsions>
[ 6907 6896 6895 6894 ] final  -43.13 input  -60.11 | X-H torsion
[ 7974 7965 7964 7962 ] final   92.81 input  175.53 | X-H torsion
[ 8008 7997 7996 7995 ] final  157.53 input   59.86 | X-H torsion
[ 10167 10162 10161 10158 ] final -110.91 input  -65.29 | X-H torsion
[ 10718 10713 10712 10709 ] final  108.47 input   66.30 | X-H torsion
[ 10763 10752 10751 10750 ] final  -92.82 input  -60.55 | X-H torsion
[ 11005 11000 10999 10996 ] final -118.98 input  -57.11 | X-H torsion

> <Gold.Protein.ActiveResidues>
 VAL166  LYS551  ARG553  GLY616  TRP617  ASP618  TYR619  PRO620  LYS621  CYS622 
 ASP623  PHE694  ASN695  SER759  ASP760  ASP761  ALA762  ILE779  LEU786  VAL792 
 PHE793  MET794  SER795  GLU796  ALA797  LYS798  CYS799  TRP800  GLU811  SER814 

> <Gold.Protein.RotatedAtoms>
  150.9474  134.8878  159.7650 H   0  0  0  0  0  0  0  0  0  0  0  0  # atno 6907 bound_to 6896
  152.5106  134.3855  159.9376 H   0  0  0  0  0  0  0  0  0  0  0  0  # atno 6908 bound_to 6896
  151.3872  133.3761  159.2751 H   0  0  0  0  0  0  0  0  0  0  0  0  # atno 6909 bound_to 6896
  145.4873  139.2277  143.2849 H   0  0  0  0  0  0  0  0  0  0  0  0  # atno 7974 bound_to 7965
  156.2358  140.1883  156.7122 H   0  0  0  0  0  0  0  0  0  0  0  0  # atno 8008 bound_to 7997
  154.6104  140.0623  156.9514 H   0  0  0  0  0  0  0  0  0  0  0  0  # atno 8009 bound_to 7997
  155.2025  140.3293  155.4343 H   0  0  0  0  0  0  0  0  0  0  0  0  # atno 8010 bound_to 7997
  140.1393  143.4293  152.1573 H   0  0  0  0  0  0  0  0  0  0  0  0  # atno 10167 bound_to 10162
  157.6585  131.0894  150.6310 H   0  0  0  0  0  0  0  0  0  0  0  0  # atno 10718 bound_to 10713
  154.6898  135.5217  153.8377 H   0  0  0  0  0  0  0  0  0  0  0  0  # atno 10763 bound_to 10752
  153.0624  135.6573  154.0441 H   0  0  0  0  0  0  0  0  0  0  0  0  # atno 10764 bound_to 10752
  154.0317  135.2985  155.3347 H   0  0  0  0  0  0  0  0  0  0  0  0  # atno 10765 bound_to 10752
  141.0248  134.0070  157.3231 H   0  0  0  0  0  0  0  0  0  0  0  0  # atno 11005 bound_to 11000
  146.2305  140.5664  142.8977 LP  0  0  0  0  0  0  0  0  0  0  0  0  # atno 17320 bound_to 7965
  144.7854  140.5926  143.6577 LP  0  0  0  0  0  0  0  0  0  0  0  0  # atno 17321 bound_to 7965
  139.5480  144.7314  151.4523 LP  0  0  0  0  0  0  0  0  0  0  0  0  # atno 17342 bound_to 10162
  140.6770  143.8167  150.7071 LP  0  0  0  0  0  0  0  0  0  0  0  0  # atno 17343 bound_to 10162
  156.6614  130.4513  149.5686 LP  0  0  0  0  0  0  0  0  0  0  0  0  # atno 17370 bound_to 10713
  156.2064  130.6652  151.1223 LP  0  0  0  0  0  0  0  0  0  0  0  0  # atno 17371 bound_to 10713
  139.9169  135.0197  156.7914 LP  0  0  0  0  0  0  0  0  0  0  0  0  # atno 17394 bound_to 11000
  140.6511  133.9731  155.7755 LP  0  0  0  0  0  0  0  0  0  0  0  0  # atno 17395 bound_to 11000

$$$$
