AV-unprocessed.smi:3046|AV-procd|sdf|11614|dock4
  -GOLD-   2272016593D 1   1.00000     0.00000
 Structure written by MMmdl.
 38 38  0  0  0  0  0  0  0  0  2 V2000
  148.5561  141.3683  155.5514 C   0  0  0  0  0  0  0  0  0  0  0  0
  149.2073  140.7926  154.5296 C   0  0  0  0  0  0  0  0  0  0  0  0
  149.4517  139.3022  154.3991 C   0  0  0  0  0  0  0  0  0  0  0  0
  148.4771  138.6766  153.5137 N   0  0  0  0  0  0  0  0  0  0  0  0
  147.1544  138.9044  153.5355 C   0  0  0  0  0  0  0  0  0  0  0  0
  146.6154  139.6828  154.3232 O   0  0  0  0  0  0  0  0  0  0  0  0
  146.3095  138.1216  152.5200 C   0  0  1  0  0  0  0  0  0  0  0  0
  146.6457  138.5862  151.0948 C   0  0  0  0  0  0  0  0  0  0  0  0
  146.5294  136.6589  152.6314 N   0  3  0  0  0  0  0  0  0  0  0  0
  145.5388  135.7928  151.9491 C   0  0  2  0  0  0  0  0  0  0  0  0
  144.1382  136.0831  152.5132 C   0  0  0  0  0  0  0  0  0  0  0  0
  145.9255  134.3019  152.0806 C   0  0  0  0  0  0  0  0  0  0  0  0
  145.3726  133.4813  151.0185 N   0  0  0  0  0  0  0  0  0  0  0  0
  146.0210  132.5789  150.2011 C   0  0  0  0  0  0  0  0  0  0  0  0
  145.0874  132.0572  149.3524 C   0  0  0  0  0  0  0  0  0  0  0  0
  143.8830  132.7160  149.7271 C   0  0  0  0  0  0  0  0  0  0  0  0
  144.0581  133.5704  150.7224 N   0  0  0  0  0  0  0  0  0  0  0  0
  148.1532  140.7809  156.3635 H   0  0  0  0  0  0  0  0  0  0  0  0
  148.4179  142.4391  155.5883 H   0  0  0  0  0  0  0  0  0  0  0  0
  149.6000  141.4158  153.7391 H   0  0  0  0  0  0  0  0  0  0  0  0
  150.4651  139.1351  154.0305 H   0  0  0  0  0  0  0  0  0  0  0  0
  149.3902  138.8267  155.3787 H   0  0  0  0  0  0  0  0  0  0  0  0
  148.8366  138.0166  152.8390 H   0  0  0  0  0  0  0  0  0  0  0  0
  145.2563  138.3372  152.7014 H   0  0  0  0  0  0  0  0  0  0  0  0
  146.4821  139.6583  150.9764 H   0  0  0  0  0  0  0  0  0  0  0  0
  146.0182  138.0796  150.3608 H   0  0  0  0  0  0  0  0  0  0  0  0
  147.6864  138.3791  150.8401 H   0  0  0  0  0  0  0  0  0  0  0  0
  147.4430  136.4365  152.2638 H   0  0  0  0  0  0  0  0  0  0  0  0
  145.5179  136.0598  150.8918 H   0  0  0  0  0  0  0  0  0  0  0  0
  143.3672  135.5251  151.9813 H   0  0  0  0  0  0  0  0  0  0  0  0
  143.8908  137.1411  152.4193 H   0  0  0  0  0  0  0  0  0  0  0  0
  144.0724  135.8183  153.5690 H   0  0  0  0  0  0  0  0  0  0  0  0
  147.0079  134.1735  152.0674 H   0  0  0  0  0  0  0  0  0  0  0  0
  145.5792  133.9067  153.0367 H   0  0  0  0  0  0  0  0  0  0  0  0
  147.0792  132.3824  150.2916 H   0  0  0  0  0  0  0  0  0  0  0  0
  145.2411  131.3187  148.5795 H   0  0  0  0  0  0  0  0  0  0  0  0
  142.8944  132.6004  149.3078 H   0  0  0  0  0  0  0  0  0  0  0  0
  146.5185  136.4345  153.6164 H   0  0  0  0  0  0  0  0  0  0  0  0
  1  2  2  0  0  0  0
  1 18  1  0  0  0  0
  1 19  1  0  0  0  0
  2  3  1  0  0  0  0
  2 20  1  0  0  0  0
  3  4  1  0  0  0  0
  3 21  1  0  0  0  0
  3 22  1  0  0  0  0
  4  5  1  0  0  0  0
  4 23  1  0  0  0  0
  5  6  2  0  0  0  0
  5  7  1  0  0  0  0
  7  8  1  0  0  0  0
  7  9  1  0  0  0  0
  7 24  1  0  0  0  0
  8 25  1  0  0  0  0
  8 26  1  0  0  0  0
  8 27  1  0  0  0  0
  9 10  1  0  0  0  0
  9 28  1  0  0  0  0
  9 38  1  0  0  0  0
 10 11  1  0  0  0  0
 10 12  1  0  0  0  0
 10 29  1  0  0  0  0
 11 30  1  0  0  0  0
 11 31  1  0  0  0  0
 11 32  1  0  0  0  0
 12 13  1  0  0  0  0
 12 33  1  0  0  0  0
 12 34  1  0  0  0  0
 13 17  1  0  0  0  0
 13 14  1  0  0  0  0
 14 15  2  0  0  0  0
 14 35  1  0  0  0  0
 15 16  1  0  0  0  0
 15 36  1  0  0  0  0
 16 17  2  0  0  0  0
 16 37  1  0  0  0  0
M  CHG  1   9   1
M  END
> <s_m_source_file>
AV-unprocessed.smi

> <i_m_source_file_index>
3046

> <i_lp_mmshare_version>
43012

> <i_f3d_flags>
0

> <s_epik_input>
W0NIMl09W0NIXVtDSDJdW05IXUMoPU8pW0NASF0oW0NIM10pW05IXVtDQEhdKFtDSDNdKVtDSDJdbjFbY0hdW2NIXVtjSF1uMQ==

> <s_epik_cmdline>
J2VwaWtfcHl0aG9uJywgJy1waCcsICc3LjAnLCAnLXRuJywgJzgnLCAnLW1hJywgJzIwMCcsICctbWV0YWxfYmluZGluZycsICctaW1hZScsICc8aW5maWxlLm1hZT4nLCAnLW9tYWUnLCAnPG91dGZpbGUubWFlPic=

> <r_lp_tautomer_probability>
1

> <r_epik_Ionization_Penalty>
0.132961

> <r_epik_Ionization_Penalty_Charging>
0.132956

> <r_epik_Ionization_Penalty_Neutral>
5.00268e-06

> <r_epik_State_Penalty>
0.122332

> <r_epik_Charging_Adjusted_Penalty>
0.255288

> <i_epik_Tot_Q>
1

> <i_epik_Tot_abs_Q>
1

> <r_epik_Metal_State_Penalty>
0.122338

> <b_epik_Metal_Only>
0

> <s_lp_Force_Field>
OPLS_2005

> <r_lp_Energy>
6.33671

> <b_lp_Chiralities_Consistent>
1

> <s_lp_Variant>
AV-unprocessed.smi:3046-2

> <Gold.Version>
5.8.1

> <Gold.Id.Protein>
6NUR|6NUR_protein|mol2

> <Gold.PLP.Fitness>
46.6971

> <Gold.PLP.PLP>
-33.4583

> <Gold.PLP.part.hbond>
-3.0000

> <Gold.PLP.part.metal>
0.0000

> <Gold.PLP.part.buried>
-1.2785

> <Gold.PLP.part.nonpolar>
-31.4193

> <Gold.PLP.part.repulsive>
0.3666

> <Gold.PLP.ligand.clash>
0.0000

> <Gold.PLP.ligand.torsion>
0.7388

> <Gold.PLP.Chemscore.Hbond>
3.0000

> <Gold.PLP.Chemscore.CHOScore>
1.8922

> <Gold.PLP.Chemscore.Metal>
0.0000

> <Gold.Chemscore.Hbonds>
donor molecule, donor type, donor heavy atom, donor atom, acceptor molecule, acceptor atom, score
      L1  H     4    23       P1  7948  1.00
      L1  H     9    28       P1  7948  2.00
      L1  C    14    35       P1 10747  1.00
      L1  C    16    37       P1 10186  0.66

> <Gold.PLP.Chemscore.Internal.Correction>
0.0397

> <Gold.Rescore>
     Score         DG    S(hbond)    S(metal)    S(lipo)     H(rot)  DE(clash)    DE(int)     intcor
     14.31     -16.19       1.99        0.00      84.26       2.26       0.11       1.77       ----

> <Gold.Chemscore.Fitness>
14.3090

> <Gold.Chemscore.DG>
-16.1930

> <Gold.Chemscore.ZeroCoef>
-5.4800

> <Gold.Chemscore.Hbond>
1.9900

> <Gold.Chemscore.Metal>
0.0000

> <Gold.Chemscore.Lipo>
84.2624

> <Gold.Chemscore.Internal_Hbond>
0.0000

> <Gold.Chemscore.DEClash>
0.1147

> <Gold.Chemscore.DEInternal>
1.7693

> <Gold.Chemscore.Rot>
2.2626

> <Gold.Chemscore.Internal.Correction>
   9.000000E+99

> <Gold.Chemscore.Hbonds>
donor molecule, donor type, donor heavy atom, donor atom, acceptor molecule, acceptor atom, score
      L1  H     4    23       P1  7948  0.94
      L1  H     9    28       P1  7948  0.96

> <Gold.Chemscore.Hbond.Weighted>
-6.6465

> <Gold.Chemscore.Metal.Weighted>
-0.0000

> <Gold.Chemscore.Lipo.Weighted>
-9.8587

> <Gold.Chemscore.Internal_Hbond.Weighted>
0.0000

> <Gold.Chemscore.DEClash.Weighted>
0.1147

> <Gold.Chemscore.DEInternal.Weighted>
1.7693

> <Gold.Chemscore.Rot.Weighted>
5.7922

> <Gold.Chemscore.Internal.Correction.Weighted>
   9.000000E+99

> <Gold.Protein.RotatedTorsions>
[ 6907 6896 6895 6894 ] final  -60.00 input  -60.11 | X-H torsion
[ 7974 7965 7964 7962 ] final   95.41 input  175.53 | X-H torsion
[ 8008 7997 7996 7995 ] final    0.52 input   59.86 | X-H torsion
[ 10167 10162 10161 10158 ] final  138.65 input  -65.29 | X-H torsion
[ 10718 10713 10712 10709 ] final -175.89 input   66.30 | X-H torsion
[ 10763 10752 10751 10750 ] final -117.60 input  -60.55 | X-H torsion
[ 11005 11000 10999 10996 ] final -137.84 input  -57.11 | X-H torsion

> <Gold.Protein.ActiveResidues>
 VAL166  LYS551  ARG553  GLY616  TRP617  ASP618  TYR619  PRO620  LYS621  CYS622 
 ASP623  PHE694  ASN695  SER759  ASP760  ASP761  ALA762  ILE779  LEU786  VAL792 
 PHE793  MET794  SER795  GLU796  ALA797  LYS798  CYS799  TRP800  GLU811  SER814 

> <Gold.Protein.RotatedAtoms>
  150.7888  134.6894  159.6488 H   0  0  0  0  0  0  0  0  0  0  0  0  # atno 6907 bound_to 6896
  152.3990  134.6315  160.0086 H   0  0  0  0  0  0  0  0  0  0  0  0  # atno 6908 bound_to 6896
  151.6592  133.3281  159.3206 H   0  0  0  0  0  0  0  0  0  0  0  0  # atno 6909 bound_to 6896
  145.4526  139.2292  143.3031 H   0  0  0  0  0  0  0  0  0  0  0  0  # atno 7974 bound_to 7965
  154.6691  140.2608  155.7027 H   0  0  0  0  0  0  0  0  0  0  0  0  # atno 8008 bound_to 7997
  156.2651  140.2833  156.1114 H   0  0  0  0  0  0  0  0  0  0  0  0  # atno 8009 bound_to 7997
  155.1195  140.0377  157.2736 H   0  0  0  0  0  0  0  0  0  0  0  0  # atno 8010 bound_to 7997
  139.5104  144.6341  151.5742 H   0  0  0  0  0  0  0  0  0  0  0  0  # atno 10167 bound_to 10162
  156.8065  130.9571  151.3117 H   0  0  0  0  0  0  0  0  0  0  0  0  # atno 10718 bound_to 10713
  154.8560  135.4304  154.2005 H   0  0  0  0  0  0  0  0  0  0  0  0  # atno 10763 bound_to 10752
  153.3053  135.6972  153.7171 H   0  0  0  0  0  0  0  0  0  0  0  0  # atno 10764 bound_to 10752
  153.6285  135.3489  155.3008 H   0  0  0  0  0  0  0  0  0  0  0  0  # atno 10765 bound_to 10752
  140.8673  134.2095  157.4672 H   0  0  0  0  0  0  0  0  0  0  0  0  # atno 11005 bound_to 11000
  146.2496  140.5287  142.8899 LP  0  0  0  0  0  0  0  0  0  0  0  0  # atno 17320 bound_to 7965
  144.8052  140.6286  143.6452 LP  0  0  0  0  0  0  0  0  0  0  0  0  # atno 17321 bound_to 7965
  140.6084  143.9482  150.6435 LP  0  0  0  0  0  0  0  0  0  0  0  0  # atno 17342 bound_to 10162
  140.2717  143.3451  152.1232 LP  0  0  0  0  0  0  0  0  0  0  0  0  # atno 17343 bound_to 10162
  157.6527  130.8898  149.9666 LP  0  0  0  0  0  0  0  0  0  0  0  0  # atno 17370 bound_to 10713
  156.1070  130.3652  150.0117 LP  0  0  0  0  0  0  0  0  0  0  0  0  # atno 17371 bound_to 10713
  139.8710  134.9757  156.4895 LP  0  0  0  0  0  0  0  0  0  0  0  0  # atno 17394 bound_to 11000
  140.8614  133.8056  155.9269 LP  0  0  0  0  0  0  0  0  0  0  0  0  # atno 17395 bound_to 11000

$$$$
