#       Name:                AV-unprocessed.smi:1677
#       Creating user name   scv26
#       Creation time:       Fri Mar 27 07:47:14 2020


#       File generated by GOLD software.
#

@<TRIPOS>MOLECULE
AV-unprocessed.smi:1677
    39    40     1
SMALL
NO_CHARGES


@<TRIPOS>ATOM
      1 ****        -0.4281  -2.3633  -1.7065 C.3            1 S1                 0.0000
      2 ****         0.1284  -1.6174  -0.4826 C.3            1 S1                 0.0000
      3 ****         1.6704  -1.6352  -0.4064 C.3            1 S1                 0.0000
      4 ****         2.2157  -2.9792  -0.3801 N.pl3          1 S1                 0.0000
      5 ****         2.2400  -3.8501   0.7012 C.2            1 S1                 0.0000
      6 ****         2.8530  -5.0026   0.2641 C.2            1 S1                 0.0000
      7 ****         3.2143  -4.8629  -1.0740 N.2            1 S1                 0.0000
      8 ****         2.8079  -3.6389  -1.3854 C.2            1 S1                 0.0000
      9 ****        -0.3562  -0.2406  -0.5035 N.am           1 S1                 0.0000
     10 ****        -0.5574   0.5314   0.5761 C.2            1 S1                 0.0000
     11 ****        -0.3365   0.1541   1.7273 O.2            1 S1                 0.0000
     12 ****        -1.0850   1.9480   0.3130 C.3            1 S1                 0.0000
     13 ****        -2.5279   2.1120   0.8421 C.3            1 S1                 0.0000
     14 ****        -2.9847   3.5600   0.8164 C.2            1 S1                 0.0000
     15 ****        -2.1414   4.5987   0.6878 C.2            1 S1                 0.0000
     16 ****        -0.6362   4.4426   0.5600 C.3            1 S1                 0.0000
     17 ****        -0.1632   3.0222   0.9253 C.3            1 S1                 0.0000
     18 ****        -0.1652  -3.4210  -1.6845 H              1 S1                 0.0000
     19 ****        -0.0433  -1.9431  -2.6363 H              1 S1                 0.0000
     20 ****        -1.5165  -2.3033  -1.7394 H              1 S1                 0.0000
     21 ****        -0.2682  -2.1128   0.4059 H              1 S1                 0.0000
     22 ****         2.0986  -1.1035  -1.2575 H              1 S1                 0.0000
     23 ****         2.0138  -1.1163   0.4897 H              1 S1                 0.0000
     24 ****         1.8291  -3.5847   1.6643 H              1 S1                 0.0000
     25 ****         3.0606  -5.9138   0.8056 H              1 S1                 0.0000
     26 ****         2.9390  -3.2141  -2.3699 H              1 S1                 0.0000
     27 ****        -0.5612   0.1544  -1.4098 H              1 S1                 0.0000
     28 ****        -1.1013   2.1087  -0.7668 H              1 S1                 0.0000
     29 ****        -3.2132   1.5207   0.2336 H              1 S1                 0.0000
     30 ****        -2.6189   1.7488   1.8668 H              1 S1                 0.0000
     31 ****        -4.0450   3.7386   0.9201 H              1 S1                 0.0000
     32 ****        -2.5306   5.6060   0.6622 H              1 S1                 0.0000
     33 ****        -0.3588   4.6800  -0.4675 H              1 S1                 0.0000
     34 ****        -0.1426   5.1744   1.1998 H              1 S1                 0.0000
     35 ****        -0.1557   2.9193   2.0119 H              1 S1                 0.0000
     36 ****         0.8676   2.8826   0.5967 H              1 S1                 0.0000
     37 ****         3.6726  -5.5292  -1.6622 LP             1 S1                 0.0000
     38 ****         0.0104  -0.7690   1.8930 LP             1 S1                 0.0000
     39 ****        -0.5041   0.7708   2.4964 LP             1 S1                 0.0000
@<TRIPOS>BOND
    1    1    2 1     
    2    1   18 1     
    3    1   19 1     
    4    1   20 1     
    5    2    3 1     
    6    2    9 1     
    7    2   21 1     
    8    3    4 1     
    9    3   22 1     
   10    3   23 1     
   11    4    8 1     
   12    4    5 1     
   13    5    6 2     
   14    5   24 1     
   15    6    7 1     
   16    6   25 1     
   17    7    8 2     
   18    8   26 1     
   19    9   10 am    
   20    9   27 1     
   21   10   11 2     
   22   10   12 1     
   23   12   17 1     
   24   12   13 1     
   25   12   28 1     
   26   13   14 1     
   27   13   29 1     
   28   13   30 1     
   29   14   15 2     
   30   14   31 1     
   31   15   16 1     
   32   15   32 1     
   33   16   17 1     
   34   16   33 1     
   35   16   34 1     
   36   17   35 1     
   37   17   36 1     
   38    7   37 1     
   39   11   38 1     
   40   11   39 1     
@<TRIPOS>SUBSTRUCTURE
      1 S1             1
@<TRIPOS>SET
LONE_PAIRS      STATIC     ATOMS    <user>   **** ""
3 37 38 39
DONOR_HYDROGENS      STATIC     ATOMS    <user>   **** ""
1 27
ATOM$BLUE        STATIC     ATOMS    COLORGROUP SYSTEM
3 37 38 39
ATOM$RED        STATIC     ATOMS    COLORGROUP SYSTEM
1 27
