AV-unprocessed.smi:530|AV-procd|sdf|2842|dock8
  -GOLD-   2262023333D 1   1.00000     0.00000
 Structure written by MMmdl.
 35 37  0  0  0  0  0  0  0  0  1 V2000
  154.0629  140.2567  161.0532 C   0  0  0  0  0  0  0  0  0  0  0  0
  153.3706  141.5272  160.6740 C   0  0  0  0  0  0  0  0  0  0  0  0
  153.2960  142.5701  161.5017 N   0  0  0  0  0  0  0  0  0  0  0  0
  152.5943  143.4985  160.7568 C   0  0  0  0  0  0  0  0  0  0  0  0
  152.1869  144.8140  161.0746 C   0  0  0  0  0  0  0  0  0  0  0  0
  151.4710  145.5860  160.1360 C   0  0  0  0  0  0  0  0  0  0  0  0
  151.1535  145.0556  158.8686 C   0  0  0  0  0  0  0  0  0  0  0  0
  151.5483  143.7465  158.5324 C   0  0  0  0  0  0  0  0  0  0  0  0
  152.2610  142.9799  159.4735 C   0  0  0  0  0  0  0  0  0  0  0  0
  152.7806  141.6899  159.4639 N   0  0  0  0  0  0  0  0  0  0  0  0
  152.6914  140.7395  158.3636 C   0  0  0  0  0  0  0  0  0  0  0  0
  151.2606  140.2011  158.1647 C   0  0  2  0  0  0  0  0  0  0  0  0
  150.9963  139.1739  159.1006 O   0  0  0  0  0  0  0  0  0  0  0  0
  151.0339  139.7471  156.7312 C   0  0  0  0  0  0  0  0  0  0  0  0
  150.0085  140.3363  155.9606 C   0  0  0  0  0  0  0  0  0  0  0  0
  149.7947  139.9266  154.6302 C   0  0  0  0  0  0  0  0  0  0  0  0
  150.6065  138.9266  154.0617 C   0  0  0  0  0  0  0  0  0  0  0  0
  151.6343  138.3388  154.8234 C   0  0  0  0  0  0  0  0  0  0  0  0
  151.8489  138.7486  156.1537 C   0  0  0  0  0  0  0  0  0  0  0  0
  154.4103  140.3034  162.0858 H   0  0  0  0  0  0  0  0  0  0  0  0
  154.9257  140.0923  160.4077 H   0  0  0  0  0  0  0  0  0  0  0  0
  153.3831  139.4101  160.9586 H   0  0  0  0  0  0  0  0  0  0  0  0
  152.4260  145.2299  162.0420 H   0  0  0  0  0  0  0  0  0  0  0  0
  151.1646  146.5902  160.3893 H   0  0  0  0  0  0  0  0  0  0  0  0
  150.6062  145.6539  158.1550 H   0  0  0  0  0  0  0  0  0  0  0  0
  151.3060  143.3359  157.5634 H   0  0  0  0  0  0  0  0  0  0  0  0
  153.0245  141.2478  157.4578 H   0  0  0  0  0  0  0  0  0  0  0  0
  153.3923  139.9205  158.5255 H   0  0  0  0  0  0  0  0  0  0  0  0
  150.5519  141.0019  158.3798 H   0  0  0  0  0  0  0  0  0  0  0  0
  150.8501  139.5700  159.9461 H   0  0  0  0  0  0  0  0  0  0  0  0
  149.3822  141.1065  156.3866 H   0  0  0  0  0  0  0  0  0  0  0  0
  149.0080  140.3800  154.0453 H   0  0  0  0  0  0  0  0  0  0  0  0
  150.4422  138.6118  153.0415 H   0  0  0  0  0  0  0  0  0  0  0  0
  152.2591  137.5738  154.3867 H   0  0  0  0  0  0  0  0  0  0  0  0
  152.6426  138.2948  156.7290 H   0  0  0  0  0  0  0  0  0  0  0  0
  1  2  1  0  0  0  0
  1 20  1  0  0  0  0
  1 21  1  0  0  0  0
  1 22  1  0  0  0  0
  2 10  1  0  0  0  0
  2  3  2  0  0  0  0
  3  4  1  0  0  0  0
  4  9  2  0  0  0  0
  4  5  1  0  0  0  0
  5  6  2  0  0  0  0
  5 23  1  0  0  0  0
  6  7  1  0  0  0  0
  6 24  1  0  0  0  0
  7  8  2  0  0  0  0
  7 25  1  0  0  0  0
  8  9  1  0  0  0  0
  8 26  1  0  0  0  0
  9 10  1  0  0  0  0
 10 11  1  0  0  0  0
 11 12  1  0  0  0  0
 11 27  1  0  0  0  0
 11 28  1  0  0  0  0
 12 13  1  0  0  0  0
 12 14  1  0  0  0  0
 12 29  1  0  0  0  0
 13 30  1  0  0  0  0
 14 19  1  0  0  0  0
 14 15  2  0  0  0  0
 15 16  1  0  0  0  0
 15 31  1  0  0  0  0
 16 17  2  0  0  0  0
 16 32  1  0  0  0  0
 17 18  1  0  0  0  0
 17 33  1  0  0  0  0
 18 19  2  0  0  0  0
 18 34  1  0  0  0  0
 19 35  1  0  0  0  0
M  END
> <s_m_source_file>
AV-unprocessed.smi

> <i_m_source_file_index>
530

> <i_lp_mmshare_version>
43012

> <i_f3d_flags>
0

> <s_epik_input>
W2NIXTFbY0hdW2NIXVtjSF1jKGMxMiluKGMobjIpW0NIM10pW0NIMl1bQ0BIXShbT0hdKWMzW2NIXVtjSF1bY0hdW2NIXVtjSF0z

> <s_epik_cmdline>
J2VwaWtfcHl0aG9uJywgJy1waCcsICc3LjAnLCAnLXRuJywgJzgnLCAnLW1hJywgJzIwMCcsICctbWV0YWxfYmluZGluZycsICctaW1hZScsICc8aW5maWxlLm1hZT4nLCAnLW9tYWUnLCAnPG91dGZpbGUubWFlPic=

> <r_epik_Ionization_Penalty>
0.129663

> <r_epik_Ionization_Penalty_Charging>
0

> <r_epik_Ionization_Penalty_Neutral>
0.129663

> <r_epik_State_Penalty>
0.119073

> <r_epik_Charging_Adjusted_Penalty>
0.119073

> <i_epik_Tot_Q>
0

> <i_epik_Tot_abs_Q>
0

> <r_epik_Metal_State_Penalty>
0.000131867

> <b_epik_Metal_Only>
0

> <s_lp_Force_Field>
OPLS_2005

> <r_lp_Energy>
11.6946

> <b_lp_Chiralities_Consistent>
1

> <s_lp_Variant>
AV-unprocessed.smi:530-1

> <Gold.Version>
5.8.1

> <Gold.Id.Protein>
6NUR|6NUR_protein|mol2

> <Gold.PLP.Fitness>
45.1011

> <Gold.PLP.PLP>
-45.8289

> <Gold.PLP.part.hbond>
-0.4246

> <Gold.PLP.part.metal>
0.0000

> <Gold.PLP.part.buried>
-4.8945

> <Gold.PLP.part.nonpolar>
-40.6159

> <Gold.PLP.part.repulsive>
0.0311

> <Gold.PLP.ligand.clash>
0.0000

> <Gold.PLP.ligand.torsion>
0.3770

> <Gold.PLP.Chemscore.Hbond>
0.0000

> <Gold.PLP.Chemscore.CHOScore>
0.0000

> <Gold.PLP.Chemscore.Metal>
0.0000

> <Gold.PLP.Chemscore.Internal.Correction>
0.0262

> <Gold.Rescore>
     Score         DG    S(hbond)    S(metal)    S(lipo)     H(rot)  DE(clash)    DE(int)     intcor
     16.02     -16.48       0.00        0.00     131.21       1.70       0.05       0.40       ----

> <Gold.Chemscore.Fitness>
16.0230

> <Gold.Chemscore.DG>
-16.4757

> <Gold.Chemscore.ZeroCoef>
-5.4800

> <Gold.Chemscore.Hbond>
0.0000

> <Gold.Chemscore.Metal>
0.0000

> <Gold.Chemscore.Lipo>
131.2052

> <Gold.Chemscore.Internal_Hbond>
0.0000

> <Gold.Chemscore.DEClash>
0.0515

> <Gold.Chemscore.DEInternal>
0.4011

> <Gold.Chemscore.Rot>
1.7013

> <Gold.Chemscore.Internal.Correction>
   9.000000E+99

> <Gold.Chemscore.Hbond.Weighted>
-0.0000

> <Gold.Chemscore.Metal.Weighted>
-0.0000

> <Gold.Chemscore.Lipo.Weighted>
-15.3510

> <Gold.Chemscore.Internal_Hbond.Weighted>
0.0000

> <Gold.Chemscore.DEClash.Weighted>
0.0515

> <Gold.Chemscore.DEInternal.Weighted>
0.4011

> <Gold.Chemscore.Rot.Weighted>
4.3554

> <Gold.Chemscore.Internal.Correction.Weighted>
   9.000000E+99

> <Gold.Protein.RotatedTorsions>
[ 6907 6896 6895 6894 ] final   60.80 input  -60.11 | X-H torsion
[ 7974 7965 7964 7962 ] final  134.85 input  175.53 | X-H torsion
[ 8008 7997 7996 7995 ] final   57.77 input   59.86 | X-H torsion
[ 10167 10162 10161 10158 ] final  -28.90 input  -65.29 | X-H torsion
[ 10718 10713 10712 10709 ] final  -83.49 input   66.30 | X-H torsion
[ 10763 10752 10751 10750 ] final -116.35 input  -60.55 | X-H torsion
[ 11005 11000 10999 10996 ] final   42.50 input  -57.11 | X-H torsion

> <Gold.Protein.ActiveResidues>
 VAL166  LYS551  ARG553  GLY616  TRP617  ASP618  TYR619  PRO620  LYS621  CYS622 
 ASP623  PHE694  ASN695  SER759  ASP760  ASP761  ALA762  ILE779  LEU786  VAL792 
 PHE793  MET794  SER795  GLU796  ALA797  LYS798  CYS799  TRP800  GLU811  SER814 

> <Gold.Protein.RotatedAtoms>
  152.4034  134.6248  160.0059 H   0  0  0  0  0  0  0  0  0  0  0  0  # atno 6907 bound_to 6896
  151.6446  133.3318  159.3146 H   0  0  0  0  0  0  0  0  0  0  0  0  # atno 6908 bound_to 6896
  150.7932  134.7013  159.6596 H   0  0  0  0  0  0  0  0  0  0  0  0  # atno 6909 bound_to 6896
  144.9722  139.4594  143.5427 H   0  0  0  0  0  0  0  0  0  0  0  0  # atno 7974 bound_to 7965
  155.5392  140.3484  155.4443 H   0  0  0  0  0  0  0  0  0  0  0  0  # atno 8008 bound_to 7997
  156.0664  140.1352  156.9908 H   0  0  0  0  0  0  0  0  0  0  0  0  # atno 8009 bound_to 7997
  154.4505  140.0975  156.6578 H   0  0  0  0  0  0  0  0  0  0  0  0  # atno 8010 bound_to 7997
  140.7265  143.3972  151.1327 H   0  0  0  0  0  0  0  0  0  0  0  0  # atno 10167 bound_to 10162
  156.0018  130.4667  150.4265 H   0  0  0  0  0  0  0  0  0  0  0  0  # atno 10718 bound_to 10713
  154.8516  135.4348  154.1808 H   0  0  0  0  0  0  0  0  0  0  0  0  # atno 10763 bound_to 10752
  153.2899  135.6960  153.7309 H   0  0  0  0  0  0  0  0  0  0  0  0  # atno 10764 bound_to 10752
  153.6480  135.3456  155.3066 H   0  0  0  0  0  0  0  0  0  0  0  0  # atno 10765 bound_to 10752
  140.1733  134.4195  155.8244 H   0  0  0  0  0  0  0  0  0  0  0  0  # atno 11005 bound_to 11000
  146.3385  139.8941  142.8804 LP  0  0  0  0  0  0  0  0  0  0  0  0  # atno 17320 bound_to 7965
  145.2543  141.0055  143.3863 LP  0  0  0  0  0  0  0  0  0  0  0  0  # atno 17321 bound_to 7965
  139.7586  143.8669  152.3095 LP  0  0  0  0  0  0  0  0  0  0  0  0  # atno 17342 bound_to 10162
  139.8548  144.7147  150.9171 LP  0  0  0  0  0  0  0  0  0  0  0  0  # atno 17343 bound_to 10162
  157.2317  131.0505  151.2488 LP  0  0  0  0  0  0  0  0  0  0  0  0  # atno 17370 bound_to 10713
  157.3704  130.7178  149.6561 LP  0  0  0  0  0  0  0  0  0  0  0  0  # atno 17371 bound_to 10713
  141.2219  133.6966  156.7802 LP  0  0  0  0  0  0  0  0  0  0  0  0  # atno 17394 bound_to 11000
  140.2352  134.8655  157.3517 LP  0  0  0  0  0  0  0  0  0  0  0  0  # atno 17395 bound_to 11000

$$$$
