#       Name:                AV-unprocessed.smi:1762
#       Creating user name   scv26
#       Creation time:       Fri Mar 27 08:35:48 2020


#       File generated by GOLD software.
#

@<TRIPOS>MOLECULE
AV-unprocessed.smi:1762
    58    59     1
SMALL
NO_CHARGES


@<TRIPOS>ATOM
      1 ****        -4.3086   3.2411  -1.1612 C.3            1 S1                 0.0000
      2 ****        -2.7902   3.1172  -0.9929 C.3            1 S1                 0.0000
      3 ****        -2.3560   1.6683  -0.7008 C.3            1 S1                 0.0000
      4 ****        -0.8873   1.5829  -0.4699 N.4            1 S1                 1.0000
      5 ****        -0.3618   0.1971  -0.2235 C.3            1 S1                 0.0000
      6 ****         1.1867   0.1922  -0.2037 C.2            1 S1                 0.0000
      7 ****         1.7897   0.7027  -1.1545 O.2            1 S1                 0.0000
      8 ****         1.6660  -0.3879   0.9302 N.pl3          1 S1                -1.0000
      9 ****         3.0862  -0.6149   1.1912 C.3            1 S1                 0.0000
     10 ****         3.2752  -1.8409   2.1148 C.3            1 S1                 0.0000
     11 ****         2.8630  -3.1813   1.5087 C.ar           1 S1                 0.0000
     12 ****         1.5879  -3.7292   1.7774 C.ar           1 S1                 0.0000
     13 ****         1.2486  -4.9675   1.2001 C.ar           1 S1                 0.0000
     14 ****         2.1947  -5.6180   0.3860 C.ar           1 S1                 0.0000
     15 ****         3.4446  -4.9991   0.1870 C.ar           1 S1                 0.0000
     16 ****         3.7805  -3.8119   0.7351 N.ar           1 S1                 0.0000
     17 ****        -0.9139  -0.8944  -1.2041 C.3            1 S1                 0.0000
     18 ****        -0.4648  -2.3212  -0.8335 C.3            1 S1                 0.0000
     19 ****        -0.6238  -0.6188  -2.6944 C.3            1 S1                 0.0000
     20 ****        -0.5084   2.5494   0.6011 C.3            1 S1                 0.0000
     21 ****        -0.9869   3.9721   0.2625 C.3            1 S1                 0.0000
     22 ****        -0.6600   4.9720   1.3773 C.3            1 S1                 0.0000
     23 ****        -2.3967   3.9543   0.0855 O.3            1 S1                 0.0000
     24 ****        -4.6645   2.6253  -1.9875 H              1 S1                 0.0000
     25 ****        -4.5944   4.2724  -1.3693 H              1 S1                 0.0000
     26 ****        -4.8331   2.9260  -0.2589 H              1 S1                 0.0000
     27 ****        -2.3121   3.4646  -1.9106 H              1 S1                 0.0000
     28 ****        -2.8834   1.2800   0.1720 H              1 S1                 0.0000
     29 ****        -2.6569   1.0659  -1.5555 H              1 S1                 0.0000
     30 ****        -0.7316  -0.0766   0.7680 H              1 S1                 0.0000
     31 ****         3.6612  -0.7700   0.2769 H              1 S1                 0.0000
     32 ****         3.5323   0.2552   1.6740 H              1 S1                 0.0000
     33 ****         4.3260  -1.9077   2.3997 H              1 S1                 0.0000
     34 ****         2.7292  -1.6885   3.0468 H              1 S1                 0.0000
     35 ****         0.8808  -3.2023   2.4012 H              1 S1                 0.0000
     36 ****         0.2792  -5.4089   1.3773 H              1 S1                 0.0000
     37 ****         1.9692  -6.5685  -0.0741 H              1 S1                 0.0000
     38 ****         4.1957  -5.4718  -0.4282 H              1 S1                 0.0000
     39 ****        -1.9961  -0.9258  -1.0869 H              1 S1                 0.0000
     40 ****         0.6059  -2.4665  -0.9822 H              1 S1                 0.0000
     41 ****        -0.9795  -3.0642  -1.4430 H              1 S1                 0.0000
     42 ****        -0.6894  -2.5432   0.2100 H              1 S1                 0.0000
     43 ****         0.4359  -0.7252  -2.9258 H              1 S1                 0.0000
     44 ****        -0.9280   0.3838  -2.9933 H              1 S1                 0.0000
     45 ****        -1.1624  -1.3233  -3.3287 H              1 S1                 0.0000
     46 ****        -0.9391   2.2241   1.5497 H              1 S1                 0.0000
     47 ****         0.5718   2.5801   0.7424 H              1 S1                 0.0000
     48 ****        -0.5097   4.3123  -0.6584 H              1 S1                 0.0000
     49 ****         0.4151   5.0316   1.5488 H              1 S1                 0.0000
     50 ****        -1.1336   4.6852   2.3167 H              1 S1                 0.0000
     51 ****        -1.0104   5.9717   1.1193 H              1 S1                 0.0000
     52 ****        -0.4414   1.9001  -1.3189 H              1 S1                 0.0000
     53 ****         1.2776   1.1062  -1.9127 LP             1 S1                 0.0000
     54 ****         2.7896   0.7122  -1.1654 LP             1 S1                 0.0000
     55 ****         1.0078  -0.6758   1.6258 LP             1 S1                 0.0000
     56 ****         4.6814  -3.4087   0.5748 LP             1 S1                 0.0000
     57 ****        -2.8229   3.6191   0.9258 LP             1 S1                 0.0000
     58 ****        -2.7102   4.8859  -0.0986 LP             1 S1                 0.0000
@<TRIPOS>BOND
    1    1    2 1     
    2    1   24 1     
    3    1   25 1     
    4    1   26 1     
    5    2   23 1     
    6    2    3 1     
    7    2   27 1     
    8    3    4 1     
    9    3   28 1     
   10    3   29 1     
   11    4    5 1     
   12    4   20 1     
   13    4   52 1     
   14    5    6 1     
   15    5   17 1     
   16    5   30 1     
   17    6    7 2     
   18    6    8 1     
   19    8    9 1     
   20    9   10 1     
   21    9   31 1     
   22    9   32 1     
   23   10   11 1     
   24   10   33 1     
   25   10   34 1     
   26   11   16 ar    
   27   11   12 ar    
   28   12   13 ar    
   29   12   35 1     
   30   13   14 ar    
   31   13   36 1     
   32   14   15 ar    
   33   14   37 1     
   34   15   16 ar    
   35   15   38 1     
   36   17   18 1     
   37   17   19 1     
   38   17   39 1     
   39   18   40 1     
   40   18   41 1     
   41   18   42 1     
   42   19   43 1     
   43   19   44 1     
   44   19   45 1     
   45   20   21 1     
   46   20   46 1     
   47   20   47 1     
   48   21   22 1     
   49   21   23 1     
   50   21   48 1     
   51   22   49 1     
   52   22   50 1     
   53   22   51 1     
   54    7   53 1     
   55    7   54 1     
   56    8   55 1     
   57   16   56 1     
   58   23   57 1     
   59   23   58 1     
@<TRIPOS>SUBSTRUCTURE
      1 S1             1
@<TRIPOS>SET
LONE_PAIRS      STATIC     ATOMS    <user>   **** ""
6 53 54 55 56 57 58
DONOR_HYDROGENS      STATIC     ATOMS    <user>   **** ""
1 52
ATOM$BLUE        STATIC     ATOMS    COLORGROUP SYSTEM
6 53 54 55 56 57 58
ATOM$RED        STATIC     ATOMS    COLORGROUP SYSTEM
1 52
