#       Name:                AV-unprocessed.smi:1802
#       Creating user name   scv26
#       Creation time:       Fri Mar 27 08:52:54 2020


#       File generated by GOLD software.
#

@<TRIPOS>MOLECULE
AV-unprocessed.smi:1802
    45    46     1
SMALL
NO_CHARGES


@<TRIPOS>ATOM
      1 ****        -2.0160   3.5301   1.7447 C.3            1 S1                 0.0000
      2 ****        -2.2182   2.7667   0.4281 C.3            1 S1                 0.0000
      3 ****        -3.6755   2.8575  -0.0546 C.3            1 S1                 0.0000
      4 ****        -3.8520   2.0693  -1.3578 C.3            1 S1                 0.0000
      5 ****        -3.3858   0.6154  -1.1861 C.3            1 S1                 0.0000
      6 ****        -1.9748   0.5546  -0.7237 N.4            1 S1                 1.0000
      7 ****        -1.4641  -0.8393  -0.6806 C.3            1 S1                 0.0000
      8 ****         0.0717  -0.9128  -0.7399 C.3            1 S1                 0.0000
      9 ****         0.5788  -2.3631  -0.8090 C.3            1 S1                 0.0000
     10 ****         2.0350  -2.4276  -0.8630 N.am           1 S1                 0.0000
     11 ****         2.8469  -2.3127   0.1980 C.2            1 S1                 0.0000
     12 ****         2.4391  -2.1092   1.3420 O.2            1 S1                 0.0000
     13 ****         4.1370  -2.4479  -0.1567 N.am           1 S1                 0.0000
     14 ****         5.2859  -2.4173   0.6776 C.2            1 S1                 0.0000
     15 ****         5.2372  -2.2195   2.0044 N.2            1 S1                 0.0000
     16 ****         6.5012  -2.2394   2.5793 N.2            1 S1                 0.0000
     17 ****         7.4521  -2.4501   1.6649 C.2            1 S1                 0.0000
     18 ****         6.8966  -2.6451   0.0115 S.3            1 S1                 0.0000
     19 ****        -1.7880   1.2908   0.5565 C.3            1 S1                 0.0000
     20 ****        -2.6264   3.1108   2.5451 H              1 S1                 0.0000
     21 ****        -2.2873   4.5804   1.6345 H              1 S1                 0.0000
     22 ****        -0.9746   3.4923   2.0656 H              1 S1                 0.0000
     23 ****        -1.5835   3.2379  -0.3241 H              1 S1                 0.0000
     24 ****        -4.3470   2.4605   0.7082 H              1 S1                 0.0000
     25 ****        -3.9601   3.8989  -0.2095 H              1 S1                 0.0000
     26 ****        -4.8973   2.0913  -1.6676 H              1 S1                 0.0000
     27 ****        -3.2822   2.5463  -2.1565 H              1 S1                 0.0000
     28 ****        -4.0267   0.0951  -0.4723 H              1 S1                 0.0000
     29 ****        -3.4859   0.0954  -2.1397 H              1 S1                 0.0000
     30 ****        -1.8429  -1.3464   0.2082 H              1 S1                 0.0000
     31 ****        -1.8571  -1.3879  -1.5378 H              1 S1                 0.0000
     32 ****         0.4300  -0.3625  -1.6110 H              1 S1                 0.0000
     33 ****         0.5051  -0.4259   0.1332 H              1 S1                 0.0000
     34 ****         0.2137  -2.9368   0.0448 H              1 S1                 0.0000
     35 ****         0.1868  -2.8525  -1.7009 H              1 S1                 0.0000
     36 ****         2.4517  -2.5938  -1.7677 H              1 S1                 0.0000
     37 ****         4.3193  -2.6060  -1.1368 H              1 S1                 0.0000
     38 ****         8.4882  -2.4909   1.9665 H              1 S1                 0.0000
     39 ****        -0.7420   1.2563   0.8589 H              1 S1                 0.0000
     40 ****        -2.3591   0.7980   1.3450 H              1 S1                 0.0000
     41 ****        -1.4296   1.0377  -1.4234 H              1 S1                 0.0000
     42 ****         1.4581  -2.0214   1.5149 LP             1 S1                 0.0000
     43 ****         3.0890  -2.0317   2.0981 LP             1 S1                 0.0000
     44 ****         4.3913  -2.0750   2.5178 LP             1 S1                 0.0000
     45 ****         6.6775  -2.1120   3.5554 LP             1 S1                 0.0000
@<TRIPOS>BOND
    1    1    2 1     
    2    1   20 1     
    3    1   21 1     
    4    1   22 1     
    5    2   19 1     
    6    2    3 1     
    7    2   23 1     
    8    3    4 1     
    9    3   24 1     
   10    3   25 1     
   11    4    5 1     
   12    4   26 1     
   13    4   27 1     
   14    5    6 1     
   15    5   28 1     
   16    5   29 1     
   17    6    7 1     
   18    6   19 1     
   19    6   41 1     
   20    7    8 1     
   21    7   30 1     
   22    7   31 1     
   23    8    9 1     
   24    8   32 1     
   25    8   33 1     
   26    9   10 1     
   27    9   34 1     
   28    9   35 1     
   29   10   11 am    
   30   10   36 1     
   31   11   12 2     
   32   11   13 am    
   33   13   14 1     
   34   13   37 1     
   35   14   18 1     
   36   14   15 2     
   37   15   16 1     
   38   16   17 2     
   39   17   18 1     
   40   17   38 1     
   41   19   39 1     
   42   19   40 1     
   43   12   42 1     
   44   12   43 1     
   45   15   44 1     
   46   16   45 1     
@<TRIPOS>SUBSTRUCTURE
      1 S1             1
@<TRIPOS>SET
LONE_PAIRS      STATIC     ATOMS    <user>   **** ""
4 42 43 44 45
DONOR_HYDROGENS      STATIC     ATOMS    <user>   **** ""
3 41 36 37
ATOM$BLUE        STATIC     ATOMS    COLORGROUP SYSTEM
4 42 43 44 45
ATOM$RED        STATIC     ATOMS    COLORGROUP SYSTEM
3 41 36 37
