AV-unprocessed.smi:1005|AV-procd|sdf|4383|dock7
  -GOLD-   22720 2303D 1   1.00000     0.00000
 Structure written by MMmdl.
 58 60  0  0  0  0  0  0  0  0  4 V2000
  152.1655  144.0711  161.1091 C   0  0  0  0  0  0  0  0  0  0  0  0
  152.0807  143.0727  159.9671 C   0  0  0  0  0  0  0  0  0  0  0  0
  151.3081  143.4090  158.8328 C   0  0  0  0  0  0  0  0  0  0  0  0
  151.2513  142.4761  157.8044 C   0  0  0  0  0  0  0  0  0  0  0  0
  150.5893  142.5110  156.5758 N   0  3  0  0  0  0  0  0  0  0  0  0
  150.8329  141.3573  155.8951 C   0  0  0  0  0  0  0  0  0  0  0  0
  151.6422  140.5845  156.6700 N   0  0  0  0  0  0  0  0  0  0  0  0
  152.2008  139.2504  156.4028 C   0  0  0  0  0  0  0  0  0  0  0  0
  151.8954  138.7471  154.9773 C   0  0  1  0  0  0  0  0  0  0  0  0
  152.9776  137.9673  154.5062 O   0  0  0  0  0  0  0  0  0  0  0  0
  150.6120  137.8929  154.9289 C   0  0  0  0  0  0  0  0  0  0  0  0
  150.8294  136.5146  155.4471 N   0  3  1  0  0  0  0  0  0  0  0  0
  150.3867  136.3246  156.8497 C   0  0  0  0  0  0  0  0  0  0  0  0
  148.8623  136.1389  156.9307 C   0  0  0  0  0  0  0  0  0  0  0  0
  148.4820  135.0340  156.1198 O   0  0  0  0  0  0  0  0  0  0  0  0
  148.7785  135.2387  154.7418 C   0  0  2  0  0  0  0  0  0  0  0  0
  148.2796  134.0075  153.9604 C   0  0  0  0  0  0  0  0  0  0  0  0
  147.4903  134.3623  152.7522 N   0  3  0  0  0  0  0  0  0  0  0  0
  146.3438  135.2397  153.0780 C   0  0  0  0  0  0  0  0  0  0  0  0
  147.0635  133.1883  151.9558 C   0  0  0  0  0  0  0  0  0  0  0  0
  150.3050  135.4272  154.5803 C   0  0  0  0  0  0  0  0  0  0  0  0
  151.9272  141.2419  157.8741 C   0  0  0  0  0  0  0  0  0  0  0  0
  152.6909  140.8946  158.9867 C   0  0  0  0  0  0  0  0  0  0  0  0
  152.7637  141.8314  160.0424 C   0  0  0  0  0  0  0  0  0  0  0  0
  153.5933  141.4810  161.2660 C   0  0  0  0  0  0  0  0  0  0  0  0
  151.5936  144.9742  160.8934 H   0  0  0  0  0  0  0  0  0  0  0  0
  153.2000  144.3668  161.2848 H   0  0  0  0  0  0  0  0  0  0  0  0
  151.7683  143.6369  162.0271 H   0  0  0  0  0  0  0  0  0  0  0  0
  150.7854  144.3523  158.7680 H   0  0  0  0  0  0  0  0  0  0  0  0
  150.4526  141.1038  154.9161 H   0  0  0  0  0  0  0  0  0  0  0  0
  153.2725  139.2610  156.6026 H   0  0  0  0  0  0  0  0  0  0  0  0
  151.7628  138.5711  157.1352 H   0  0  0  0  0  0  0  0  0  0  0  0
  151.7966  139.6124  154.3226 H   0  0  0  0  0  0  0  0  0  0  0  0
  153.3944  138.4240  153.7912 H   0  0  0  0  0  0  0  0  0  0  0  0
  149.8469  138.3931  155.5248 H   0  0  0  0  0  0  0  0  0  0  0  0
  150.2203  137.8527  153.9125 H   0  0  0  0  0  0  0  0  0  0  0  0
  150.8780  135.4349  157.2462 H   0  0  0  0  0  0  0  0  0  0  0  0
  150.7124  137.1557  157.4763 H   0  0  0  0  0  0  0  0  0  0  0  0
  148.5646  135.9381  157.9601 H   0  0  0  0  0  0  0  0  0  0  0  0
  148.3344  137.0412  156.6181 H   0  0  0  0  0  0  0  0  0  0  0  0
  148.2650  136.1320  154.3877 H   0  0  0  0  0  0  0  0  0  0  0  0
  149.1180  133.3722  153.6706 H   0  0  0  0  0  0  0  0  0  0  0  0
  147.6589  133.4088  154.6289 H   0  0  0  0  0  0  0  0  0  0  0  0
  145.6304  134.7269  153.7243 H   0  0  0  0  0  0  0  0  0  0  0  0
  145.8227  135.5484  152.1712 H   0  0  0  0  0  0  0  0  0  0  0  0
  146.6786  136.1443  153.5866 H   0  0  0  0  0  0  0  0  0  0  0  0
  146.4330  132.5222  152.5458 H   0  0  0  0  0  0  0  0  0  0  0  0
  147.9168  132.6190  151.5902 H   0  0  0  0  0  0  0  0  0  0  0  0
  146.4936  133.5060  151.0819 H   0  0  0  0  0  0  0  0  0  0  0  0
  150.5610  135.6018  153.5359 H   0  0  0  0  0  0  0  0  0  0  0  0
  150.8140  134.5051  154.8649 H   0  0  0  0  0  0  0  0  0  0  0  0
  153.2135  139.9521  159.0476 H   0  0  0  0  0  0  0  0  0  0  0  0
  154.0564  140.4989  161.1669 H   0  0  0  0  0  0  0  0  0  0  0  0
  152.9694  141.4662  162.1600 H   0  0  0  0  0  0  0  0  0  0  0  0
  154.3900  142.2108  161.4110 H   0  0  0  0  0  0  0  0  0  0  0  0
  148.0984  134.9121  152.1617 H   0  0  0  0  0  0  0  0  0  0  0  0
  151.8343  136.4076  155.4641 H   0  0  0  0  0  0  0  0  0  0  0  0
  150.0132  143.2661  156.2257 H   0  0  0  0  0  0  0  0  0  0  0  0
  1  2  1  0  0  0  0
  1 26  1  0  0  0  0
  1 27  1  0  0  0  0
  1 28  1  0  0  0  0
  2 24  1  0  0  0  0
  2  3  2  0  0  0  0
  3  4  1  0  0  0  0
  3 29  1  0  0  0  0
  4 22  2  0  0  0  0
  4  5  1  0  0  0  0
  5  6  2  0  0  0  0
  5 58  1  0  0  0  0
  6  7  1  0  0  0  0
  6 30  1  0  0  0  0
  7  8  1  0  0  0  0
  7 22  1  0  0  0  0
  8  9  1  0  0  0  0
  8 31  1  0  0  0  0
  8 32  1  0  0  0  0
  9 10  1  0  0  0  0
  9 11  1  0  0  0  0
  9 33  1  0  0  0  0
 10 34  1  0  0  0  0
 11 12  1  0  0  0  0
 11 35  1  0  0  0  0
 11 36  1  0  0  0  0
 12 21  1  0  0  0  0
 12 13  1  0  0  0  0
 12 57  1  0  0  0  0
 13 14  1  0  0  0  0
 13 37  1  0  0  0  0
 13 38  1  0  0  0  0
 14 15  1  0  0  0  0
 14 39  1  0  0  0  0
 14 40  1  0  0  0  0
 15 16  1  0  0  0  0
 16 17  1  0  0  0  0
 16 21  1  0  0  0  0
 16 41  1  0  0  0  0
 17 18  1  0  0  0  0
 17 42  1  0  0  0  0
 17 43  1  0  0  0  0
 18 19  1  0  0  0  0
 18 20  1  0  0  0  0
 18 56  1  0  0  0  0
 19 44  1  0  0  0  0
 19 45  1  0  0  0  0
 19 46  1  0  0  0  0
 20 47  1  0  0  0  0
 20 48  1  0  0  0  0
 20 49  1  0  0  0  0
 21 50  1  0  0  0  0
 21 51  1  0  0  0  0
 22 23  1  0  0  0  0
 23 24  2  0  0  0  0
 23 52  1  0  0  0  0
 24 25  1  0  0  0  0
 25 53  1  0  0  0  0
 25 54  1  0  0  0  0
 25 55  1  0  0  0  0
M  CHG  1   5   1
M  CHG  1  12   1
M  CHG  1  18   1
M  END
> <s_m_source_file>
AV-unprocessed.smi

> <i_m_source_file_index>
1005

> <i_lp_mmshare_version>
43012

> <i_f3d_flags>
0

> <s_epik_input>
W0NIM11jKFtjSF0xKWMoW0NIM10pW2NIXWMoYzEyKW4oW2NIXW4yKVtDSDJdW0NASF0oW09IXSlbQ0gyXU4zW0NIMl1bQ0gyXU9bQ0BIXShbQ0gyXTMpW0NIMl1OKFtDSDNdKVtDSDNd

> <s_epik_cmdline>
J2VwaWtfcHl0aG9uJywgJy1waCcsICc3LjAnLCAnLXRuJywgJzgnLCAnLW1hJywgJzIwMCcsICctbWV0YWxfYmluZGluZycsICctaW1hZScsICc8aW5maWxlLm1hZT4nLCAnLW9tYWUnLCAnPG91dGZpbGUubWFlPic=

> <r_epik_Ionization_Penalty>
2.30802

> <r_epik_Ionization_Penalty_Charging>
2.30798

> <r_epik_Ionization_Penalty_Neutral>
3.4851e-05

> <r_epik_State_Penalty>
2.52618

> <r_epik_Charging_Adjusted_Penalty>
4.83416

> <i_epik_Tot_Q>
3

> <i_epik_Tot_abs_Q>
3

> <r_epik_Metal_State_Penalty>
6.53149

> <b_epik_Metal_Only>
0

> <s_lp_Force_Field>
OPLS_2005

> <r_lp_Energy>
46.6994

> <b_lp_Chiralities_Consistent>
1

> <s_lp_Variant>
AV-unprocessed.smi:1005-22

> <Gold.Version>
5.8.1

> <Gold.Id.Protein>
6NUR|6NUR_protein|mol2

> <Gold.PLP.Fitness>
57.4480

> <Gold.PLP.PLP>
-48.9734

> <Gold.PLP.part.hbond>
-3.0000

> <Gold.PLP.part.metal>
0.0000

> <Gold.PLP.part.buried>
-6.0213

> <Gold.PLP.part.nonpolar>
-40.2153

> <Gold.PLP.part.repulsive>
0.1759

> <Gold.PLP.ligand.clash>
0.0000

> <Gold.PLP.ligand.torsion>
1.9060

> <Gold.PLP.Chemscore.Hbond>
4.0359

> <Gold.PLP.Chemscore.CHOScore>
0.0000

> <Gold.PLP.Chemscore.Metal>
0.0000

> <Gold.Chemscore.Hbonds>
donor molecule, donor type, donor heavy atom, donor atom, acceptor molecule, acceptor atom, score
      L1  H     5    58       P1  8028  2.00
      L1  H    18    56       P1  7948  2.00
      P1  H 10752 10765       L1    10  0.13

> <Gold.PLP.Chemscore.Internal.Correction>
0.1790

> <Gold.Rescore>
     Score         DG    S(hbond)    S(metal)    S(lipo)     H(rot)  DE(clash)    DE(int)     intcor
     18.75     -20.73       2.04        0.00     128.08       2.56       0.08       1.91       ----

> <Gold.Chemscore.Fitness>
18.7486

> <Gold.Chemscore.DG>
-20.7349

> <Gold.Chemscore.ZeroCoef>
-5.4800

> <Gold.Chemscore.Hbond>
2.0403

> <Gold.Chemscore.Metal>
0.0000

> <Gold.Chemscore.Lipo>
128.0784

> <Gold.Chemscore.Internal_Hbond>
0.0000

> <Gold.Chemscore.DEClash>
0.0760

> <Gold.Chemscore.DEInternal>
1.9103

> <Gold.Chemscore.Rot>
2.5566

> <Gold.Chemscore.Internal.Correction>
   9.000000E+99

> <Gold.Chemscore.Hbonds>
donor molecule, donor type, donor heavy atom, donor atom, acceptor molecule, acceptor atom, score
      L1  H     5    58       P1  8028  1.00
      L1  H    18    56       P1  7948  0.42
      P1  H 10752 10765       L1    10  0.09

> <Gold.Chemscore.Hbond.Weighted>
-6.8147

> <Gold.Chemscore.Metal.Weighted>
-0.0000

> <Gold.Chemscore.Lipo.Weighted>
-14.9852

> <Gold.Chemscore.Internal_Hbond.Weighted>
0.0000

> <Gold.Chemscore.DEClash.Weighted>
0.0760

> <Gold.Chemscore.DEInternal.Weighted>
1.9103

> <Gold.Chemscore.Rot.Weighted>
6.5450

> <Gold.Chemscore.Internal.Correction.Weighted>
   9.000000E+99

> <Gold.Protein.RotatedTorsions>
[ 6907 6896 6895 6894 ] final  151.24 input  -60.11 | X-H torsion
[ 7974 7965 7964 7962 ] final  153.90 input  175.53 | X-H torsion
[ 8008 7997 7996 7995 ] final  128.16 input   59.86 | X-H torsion
[ 10167 10162 10161 10158 ] final  -60.66 input  -65.29 | X-H torsion
[ 10718 10713 10712 10709 ] final -134.10 input   66.30 | X-H torsion
[ 10763 10752 10751 10750 ] final  149.78 input  -60.55 | X-H torsion
[ 11005 11000 10999 10996 ] final -139.12 input  -57.11 | X-H torsion

> <Gold.Protein.ActiveResidues>
 VAL166  LYS551  ARG553  GLY616  TRP617  ASP618  TYR619  PRO620  LYS621  CYS622 
 ASP623  PHE694  ASN695  SER759  ASP760  ASP761  ALA762  ILE779  LEU786  VAL792 
 PHE793  MET794  SER795  GLU796  ALA797  LYS798  CYS799  TRP800  GLU811  SER814 

> <Gold.Protein.RotatedAtoms>
  152.1034  133.4262  159.4597 H   0  0  0  0  0  0  0  0  0  0  0  0  # atno 6907 bound_to 6896
  150.6865  134.2734  159.4606 H   0  0  0  0  0  0  0  0  0  0  0  0  # atno 6908 bound_to 6896
  152.0596  134.9602  160.0625 H   0  0  0  0  0  0  0  0  0  0  0  0  # atno 6909 bound_to 6896
  144.8124  139.6862  143.6136 H   0  0  0  0  0  0  0  0  0  0  0  0  # atno 7974 bound_to 7965
  156.2908  140.2651  156.2391 H   0  0  0  0  0  0  0  0  0  0  0  0  # atno 8008 bound_to 7997
  154.9995  140.0388  157.2372 H   0  0  0  0  0  0  0  0  0  0  0  0  # atno 8009 bound_to 7997
  154.7614  140.2761  155.6216 H   0  0  0  0  0  0  0  0  0  0  0  0  # atno 8010 bound_to 7997
  140.6057  143.2373  151.5827 H   0  0  0  0  0  0  0  0  0  0  0  0  # atno 10167 bound_to 10162
  156.2519  130.7158  151.1060 H   0  0  0  0  0  0  0  0  0  0  0  0  # atno 10718 bound_to 10713
  154.0767  135.2862  155.3298 H   0  0  0  0  0  0  0  0  0  0  0  0  # atno 10763 bound_to 10752
  154.6711  135.5299  153.8142 H   0  0  0  0  0  0  0  0  0  0  0  0  # atno 10764 bound_to 10752
  153.0464  135.6558  154.0945 H   0  0  0  0  0  0  0  0  0  0  0  0  # atno 10765 bound_to 10752
  140.8550  134.2238  157.4739 H   0  0  0  0  0  0  0  0  0  0  0  0  # atno 11005 bound_to 11000
  146.2424  139.6028  142.9483 LP  0  0  0  0  0  0  0  0  0  0  0  0  # atno 17320 bound_to 7965
  145.5293  141.0428  143.2392 LP  0  0  0  0  0  0  0  0  0  0  0  0  # atno 17321 bound_to 7965
  139.5323  144.2881  152.1175 LP  0  0  0  0  0  0  0  0  0  0  0  0  # atno 17342 bound_to 10162
  140.2070  144.4601  150.6404 LP  0  0  0  0  0  0  0  0  0  0  0  0  # atno 17343 bound_to 10162
  157.7217  131.0677  150.6105 LP  0  0  0  0  0  0  0  0  0  0  0  0  # atno 17370 bound_to 10713
  156.6186  130.4399  149.5831 LP  0  0  0  0  0  0  0  0  0  0  0  0  # atno 17371 bound_to 10713
  139.8705  134.9702  156.4693 LP  0  0  0  0  0  0  0  0  0  0  0  0  # atno 17394 bound_to 11000
  140.8747  133.7962  155.9402 LP  0  0  0  0  0  0  0  0  0  0  0  0  # atno 17395 bound_to 11000

$$$$
