#       Name:                AV-unprocessed.smi:1734
#       Creating user name   scv26
#       Creation time:       Fri Mar 27 08:19:32 2020


#       File generated by GOLD software.
#

@<TRIPOS>MOLECULE
AV-unprocessed.smi:1734
    58    60     1
SMALL
NO_CHARGES


@<TRIPOS>ATOM
      1 ****        -5.3606  -0.5254   0.4254 C.3            1 S1                 0.0000
      2 ****        -5.1595   0.9069   0.8936 C.ar           1 S1                 0.0000
      3 ****        -6.2839   1.7438   1.0564 C.ar           1 S1                 0.0000
      4 ****        -6.0967   3.0677   1.4888 C.ar           1 S1                 0.0000
      5 ****        -4.7842   3.5019   1.7409 C.ar           1 S1                 0.0000
      6 ****        -3.7041   2.7091   1.5882 N.ar           1 S1                 0.0000
      7 ****        -3.8672   1.4277   1.1729 C.ar           1 S1                 0.0000
      8 ****        -2.7740   0.5343   0.9902 N.am           1 S1                 0.0000
      9 ****        -1.4654   0.7567   1.2058 C.2            1 S1                 0.0000
     10 ****        -0.9803   1.8092   1.6216 O.2            1 S1                 0.0000
     11 ****        -0.7369  -0.3281   0.9052 N.am           1 S1                 0.0000
     12 ****         0.7156  -0.4362   1.0142 C.3            1 S1                 0.0000
     13 ****         1.3450  -1.0264  -0.2762 C.3            1 S1                 0.0000
     14 ****         0.9613  -0.2132  -1.5527 C.3            1 S1                 0.0000
     15 ****         1.6881  -0.5854  -2.8487 C.3            1 S1                 0.0000
     16 ****         2.2305   0.7471  -3.3617 C.3            1 S1                 0.0000
     17 ****         1.3403   1.7086  -2.8211 O.3            1 S1                 0.0000
     18 ****         1.0719   1.3198  -1.4832 C.3            1 S1                 0.0000
     19 ****         2.7738  -1.3861  -0.1622 N.3            1 S1                 0.0000
     20 ****         3.0218  -2.4778   0.7777 C.3            1 S1                 0.0000
     21 ****         4.4932  -2.9220   0.7618 C.3            1 S1                 0.0000
     22 ****         5.3242  -1.8051   1.0585 O.3            1 S1                 0.0000
     23 ****         5.1561  -0.7378   0.1317 C.3            1 S1                 0.0000
     24 ****         3.6870  -0.2789   0.1151 C.3            1 S1                 0.0000
     25 ****        -6.4167  -0.7477   0.2692 H              1 S1                 0.0000
     26 ****        -4.9768  -1.2272   1.1666 H              1 S1                 0.0000
     27 ****        -4.8390  -0.6954  -0.5171 H              1 S1                 0.0000
     28 ****        -7.2800   1.3783   0.8532 H              1 S1                 0.0000
     29 ****        -6.9367   3.7330   1.6237 H              1 S1                 0.0000
     30 ****        -4.5957   4.5117   2.0742 H              1 S1                 0.0000
     31 ****        -3.0213  -0.3849   0.6555 H              1 S1                 0.0000
     32 ****        -1.2245  -1.1463   0.5711 H              1 S1                 0.0000
     33 ****         1.1677   0.5284   1.2478 H              1 S1                 0.0000
     34 ****         0.9104  -1.0761   1.8733 H              1 S1                 0.0000
     35 ****         0.8313  -1.9772  -0.4273 H              1 S1                 0.0000
     36 ****        -0.0939  -0.4171  -1.7421 H              1 S1                 0.0000
     37 ****         2.4825  -1.3218  -2.7331 H              1 S1                 0.0000
     38 ****         0.9746  -0.9958  -3.5644 H              1 S1                 0.0000
     39 ****         3.2363   0.9287  -2.9802 H              1 S1                 0.0000
     40 ****         2.2645   0.7966  -4.4502 H              1 S1                 0.0000
     41 ****         0.1526   1.7852  -1.1281 H              1 S1                 0.0000
     42 ****         1.8779   1.6624  -0.8381 H              1 S1                 0.0000
     43 ****         2.7675  -2.1715   1.7921 H              1 S1                 0.0000
     44 ****         2.3859  -3.3301   0.5360 H              1 S1                 0.0000
     45 ****         4.6626  -3.7008   1.5055 H              1 S1                 0.0000
     46 ****         4.7622  -3.3405  -0.2093 H              1 S1                 0.0000
     47 ****         5.8071   0.0886   0.4169 H              1 S1                 0.0000
     48 ****         5.4679  -1.0613  -0.8626 H              1 S1                 0.0000
     49 ****         3.5936   0.4903  -0.6464 H              1 S1                 0.0000
     50 ****         3.4426   0.1807   1.0732 H              1 S1                 0.0000
     51 ****        -2.7888   3.0633   1.7798 LP             1 S1                 0.0000
     52 ****        -1.5746   2.5865   1.8278 LP             1 S1                 0.0000
     53 ****         0.0080   1.8867   1.7531 LP             1 S1                 0.0000
     54 ****         0.4919   1.7268  -3.3502 LP             1 S1                 0.0000
     55 ****         1.7627   2.6149  -2.8372 LP             1 S1                 0.0000
     56 ****         2.9853  -1.6976  -1.0887 LP             1 S1                 0.0000
     57 ****         6.2791  -2.1013   1.0365 LP             1 S1                 0.0000
     58 ****         5.0994  -1.4727   1.9744 LP             1 S1                 0.0000
@<TRIPOS>BOND
    1    1    2 1     
    2    1   25 1     
    3    1   26 1     
    4    1   27 1     
    5    2    7 ar    
    6    2    3 ar    
    7    3    4 ar    
    8    3   28 1     
    9    4    5 ar    
   10    4   29 1     
   11    5    6 ar    
   12    5   30 1     
   13    6    7 ar    
   14    7    8 1     
   15    8    9 am    
   16    8   31 1     
   17    9   10 2     
   18    9   11 am    
   19   11   12 1     
   20   11   32 1     
   21   12   13 1     
   22   12   33 1     
   23   12   34 1     
   24   13   14 1     
   25   13   19 1     
   26   13   35 1     
   27   14   18 1     
   28   14   15 1     
   29   14   36 1     
   30   15   16 1     
   31   15   37 1     
   32   15   38 1     
   33   16   17 1     
   34   16   39 1     
   35   16   40 1     
   36   17   18 1     
   37   18   41 1     
   38   18   42 1     
   39   19   24 1     
   40   19   20 1     
   41   20   21 1     
   42   20   43 1     
   43   20   44 1     
   44   21   22 1     
   45   21   45 1     
   46   21   46 1     
   47   22   23 1     
   48   23   24 1     
   49   23   47 1     
   50   23   48 1     
   51   24   49 1     
   52   24   50 1     
   53    6   51 1     
   54   10   52 1     
   55   10   53 1     
   56   17   54 1     
   57   17   55 1     
   58   19   56 1     
   59   22   57 1     
   60   22   58 1     
@<TRIPOS>SUBSTRUCTURE
      1 S1             1
@<TRIPOS>SET
LONE_PAIRS      STATIC     ATOMS    <user>   **** ""
8 51 52 53 54 55 56 57 58
DONOR_HYDROGENS      STATIC     ATOMS    <user>   **** ""
2 31 32
ATOM$BLUE        STATIC     ATOMS    COLORGROUP SYSTEM
8 51 52 53 54 55 56 57 58
ATOM$RED        STATIC     ATOMS    COLORGROUP SYSTEM
2 31 32
