AV-unprocessed.smi:2027|AV-procd|sdf|8210|dock2
  -GOLD-   2272010473D 1   1.00000     0.00000
 Structure written by MMmdl.
 49 51  0  0  0  0  0  0  0  0  1 V2000
  151.8834  144.5188  161.2812 C   0  0  0  0  0  0  0  0  0  0  0  0
  152.5008  143.1496  161.0573 C   0  0  0  0  0  0  0  0  0  0  0  0
  152.4466  142.5736  159.7671 C   0  0  0  0  0  0  0  0  0  0  0  0
  153.0070  141.3013  159.5176 C   0  0  0  0  0  0  0  0  0  0  0  0
  153.0692  140.5538  158.3532 N   0  0  0  0  0  0  0  0  0  0  0  0
  153.7117  139.4640  158.7659 C   0  0  0  0  0  0  0  0  0  0  0  0
  154.0696  139.4176  160.0631 N   0  0  0  0  0  0  0  0  0  0  0  0
  154.7693  138.3553  160.7578 C   0  0  0  0  0  0  0  0  0  0  0  0
  153.7948  137.4165  161.4975 C   0  0  1  0  0  0  0  0  0  0  0  0
  152.9632  136.7815  160.5484 O   0  0  0  0  0  0  0  0  0  0  0  0
  154.5204  136.3346  162.3241 C   0  0  0  0  0  0  0  0  0  0  0  0
  154.9185  136.7503  163.6720 N   0  0  0  0  0  0  0  0  0  0  0  0
  153.7644  136.7534  164.5653 C   0  0  0  0  0  0  0  0  0  0  0  0
  155.5955  138.0509  163.6897 C   0  0  0  0  0  0  0  0  0  0  0  0
  155.7959  138.5851  165.0831 C   0  0  0  0  0  0  0  0  0  0  0  0
  156.5018  137.9779  166.1605 C   0  0  0  0  0  0  0  0  0  0  0  0
  156.4684  138.6994  167.2694 N   0  0  0  0  0  0  0  0  0  0  0  0
  155.7408  139.7868  166.9410 N   0  0  0  0  0  0  0  0  0  0  0  0
  155.4881  140.8065  167.9363 C   0  0  0  0  0  0  0  0  0  0  0  0
  155.3208  139.7444  165.6298 C   0  0  0  0  0  0  0  0  0  0  0  0
  153.6258  140.6178  160.6034 C   0  0  0  0  0  0  0  0  0  0  0  0
  153.6872  141.1797  161.8903 C   0  0  0  0  0  0  0  0  0  0  0  0
  153.1253  142.4515  162.1224 C   0  0  0  0  0  0  0  0  0  0  0  0
  153.1997  143.0475  163.5173 C   0  0  0  0  0  0  0  0  0  0  0  0
  151.3780  144.8790  160.3846 H   0  0  0  0  0  0  0  0  0  0  0  0
  152.6530  145.2439  161.5472 H   0  0  0  0  0  0  0  0  0  0  0  0
  151.1485  144.4814  162.0855 H   0  0  0  0  0  0  0  0  0  0  0  0
  151.9723  143.1059  158.9558 H   0  0  0  0  0  0  0  0  0  0  0  0
  153.9322  138.6522  158.0880 H   0  0  0  0  0  0  0  0  0  0  0  0
  155.3896  137.8031  160.0503 H   0  0  0  0  0  0  0  0  0  0  0  0
  155.4538  138.8294  161.4618 H   0  0  0  0  0  0  0  0  0  0  0  0
  153.1346  137.9992  162.1380 H   0  0  0  0  0  0  0  0  0  0  0  0
  152.2713  137.3795  160.3101 H   0  0  0  0  0  0  0  0  0  0  0  0
  153.8950  135.4429  162.3914 H   0  0  0  0  0  0  0  0  0  0  0  0
  155.4084  136.0347  161.7654 H   0  0  0  0  0  0  0  0  0  0  0  0
  154.0555  136.9978  165.5871 H   0  0  0  0  0  0  0  0  0  0  0  0
  153.2914  135.7710  164.5901 H   0  0  0  0  0  0  0  0  0  0  0  0
  153.0182  137.4802  164.2413 H   0  0  0  0  0  0  0  0  0  0  0  0
  156.5724  137.9750  163.2180 H   0  0  0  0  0  0  0  0  0  0  0  0
  155.0390  138.7598  163.0748 H   0  0  0  0  0  0  0  0  0  0  0  0
  157.0317  137.0368  166.1697 H   0  0  0  0  0  0  0  0  0  0  0  0
  155.1143  141.7113  167.4560 H   0  0  0  0  0  0  0  0  0  0  0  0
  156.4094  141.0447  168.4695 H   0  0  0  0  0  0  0  0  0  0  0  0
  154.7433  140.4483  168.6471 H   0  0  0  0  0  0  0  0  0  0  0  0
  154.7203  140.5314  165.1973 H   0  0  0  0  0  0  0  0  0  0  0  0
  154.1620  140.6339  162.6917 H   0  0  0  0  0  0  0  0  0  0  0  0
  153.7911  142.4210  164.1860 H   0  0  0  0  0  0  0  0  0  0  0  0
  152.2007  143.1445  163.9430 H   0  0  0  0  0  0  0  0  0  0  0  0
  153.6627  144.0340  163.4898 H   0  0  0  0  0  0  0  0  0  0  0  0
  1  2  1  0  0  0  0
  1 25  1  0  0  0  0
  1 26  1  0  0  0  0
  1 27  1  0  0  0  0
  2 23  1  0  0  0  0
  2  3  2  0  0  0  0
  3  4  1  0  0  0  0
  3 28  1  0  0  0  0
  4 21  2  0  0  0  0
  4  5  1  0  0  0  0
  5  6  2  0  0  0  0
  6  7  1  0  0  0  0
  6 29  1  0  0  0  0
  7  8  1  0  0  0  0
  7 21  1  0  0  0  0
  8  9  1  0  0  0  0
  8 30  1  0  0  0  0
  8 31  1  0  0  0  0
  9 10  1  0  0  0  0
  9 11  1  0  0  0  0
  9 32  1  0  0  0  0
 10 33  1  0  0  0  0
 11 12  1  0  0  0  0
 11 34  1  0  0  0  0
 11 35  1  0  0  0  0
 12 13  1  0  0  0  0
 12 14  1  0  0  0  0
 13 36  1  0  0  0  0
 13 37  1  0  0  0  0
 13 38  1  0  0  0  0
 14 15  1  0  0  0  0
 14 39  1  0  0  0  0
 14 40  1  0  0  0  0
 15 20  2  0  0  0  0
 15 16  1  0  0  0  0
 16 17  2  0  0  0  0
 16 41  1  0  0  0  0
 17 18  1  0  0  0  0
 18 19  1  0  0  0  0
 18 20  1  0  0  0  0
 19 42  1  0  0  0  0
 19 43  1  0  0  0  0
 19 44  1  0  0  0  0
 20 45  1  0  0  0  0
 21 22  1  0  0  0  0
 22 23  2  0  0  0  0
 22 46  1  0  0  0  0
 23 24  1  0  0  0  0
 24 47  1  0  0  0  0
 24 48  1  0  0  0  0
 24 49  1  0  0  0  0
M  END
> <s_m_source_file>
AV-unprocessed.smi

> <i_m_source_file_index>
2027

> <i_lp_mmshare_version>
43012

> <i_f3d_flags>
0

> <s_epik_input>
W0NIM11jKFtjSF0xKWMoW0NIM10pW2NIXWMoYzEyKW4oW2NIXW4yKVtDSDJdW0NASF0oW09IXSlbQ0gyXU4oW0NIM10pW0NIMl1jM1tjSF1ubihbQ0gzXSlbY0hdMw==

> <s_epik_cmdline>
J2VwaWtfcHl0aG9uJywgJy1waCcsICc3LjAnLCAnLXRuJywgJzgnLCAnLW1hJywgJzIwMCcsICctbWV0YWxfYmluZGluZycsICctaW1hZScsICc8aW5maWxlLm1hZT4nLCAnLW9tYWUnLCAnPG91dGZpbGUubWFlPic=

> <r_lp_tautomer_probability>
1

> <r_epik_Ionization_Penalty>
0.374241

> <r_epik_Ionization_Penalty_Charging>
0

> <r_epik_Ionization_Penalty_Neutral>
0.374241

> <r_epik_State_Penalty>
0.350767

> <r_epik_Charging_Adjusted_Penalty>
0.350767

> <i_epik_Tot_Q>
0

> <i_epik_Tot_abs_Q>
0

> <r_epik_Metal_State_Penalty>
0.343203

> <b_epik_Metal_Only>
0

> <s_lp_Force_Field>
OPLS_2005

> <r_lp_Energy>
13.5697

> <b_lp_Chiralities_Consistent>
1

> <s_lp_Variant>
AV-unprocessed.smi:2027-2

> <Gold.Version>
5.8.1

> <Gold.Id.Protein>
6NUR|6NUR_protein|mol2

> <Gold.PLP.Fitness>
52.4337

> <Gold.PLP.PLP>
-50.6345

> <Gold.PLP.part.hbond>
-3.0000

> <Gold.PLP.part.metal>
0.0000

> <Gold.PLP.part.buried>
-2.5815

> <Gold.PLP.part.nonpolar>
-44.8275

> <Gold.PLP.part.repulsive>
0.0918

> <Gold.PLP.ligand.clash>
0.0000

> <Gold.PLP.ligand.torsion>
0.8117

> <Gold.PLP.Chemscore.Hbond>
1.0000

> <Gold.PLP.Chemscore.CHOScore>
0.0000

> <Gold.PLP.Chemscore.Metal>
0.0000

> <Gold.Chemscore.Hbonds>
donor molecule, donor type, donor heavy atom, donor atom, acceptor molecule, acceptor atom, score
      P1  H  6896  6908       L1    10  1.00

> <Gold.PLP.Chemscore.Internal.Correction>
0.4226

> <Gold.Rescore>
     Score         DG    S(hbond)    S(metal)    S(lipo)     H(rot)  DE(clash)    DE(int)     intcor
     16.45     -18.37       0.90        0.00     137.35       2.42       0.05       1.88       ----

> <Gold.Chemscore.Fitness>
16.4530

> <Gold.Chemscore.DG>
-18.3737

> <Gold.Chemscore.ZeroCoef>
-5.4800

> <Gold.Chemscore.Hbond>
0.9038

> <Gold.Chemscore.Metal>
0.0000

> <Gold.Chemscore.Lipo>
137.3471

> <Gold.Chemscore.Internal_Hbond>
0.0000

> <Gold.Chemscore.DEClash>
0.0456

> <Gold.Chemscore.DEInternal>
1.8751

> <Gold.Chemscore.Rot>
2.4198

> <Gold.Chemscore.Internal.Correction>
   9.000000E+99

> <Gold.Chemscore.Hbonds>
donor molecule, donor type, donor heavy atom, donor atom, acceptor molecule, acceptor atom, score
      P1  H  6896  6908       L1    10  0.28

> <Gold.Chemscore.Hbond.Weighted>
-3.0188

> <Gold.Chemscore.Metal.Weighted>
-0.0000

> <Gold.Chemscore.Lipo.Weighted>
-16.0696

> <Gold.Chemscore.Internal_Hbond.Weighted>
0.0000

> <Gold.Chemscore.DEClash.Weighted>
0.0456

> <Gold.Chemscore.DEInternal.Weighted>
1.8751

> <Gold.Chemscore.Rot.Weighted>
6.1948

> <Gold.Chemscore.Internal.Correction.Weighted>
   9.000000E+99

> <Gold.Protein.RotatedTorsions>
[ 6907 6896 6895 6894 ] final  -87.52 input  -60.11 | X-H torsion
[ 7974 7965 7964 7962 ] final   33.78 input  175.53 | X-H torsion
[ 8008 7997 7996 7995 ] final  151.90 input   59.86 | X-H torsion
[ 10167 10162 10161 10158 ] final  -88.04 input  -65.29 | X-H torsion
[ 10718 10713 10712 10709 ] final   19.12 input   66.30 | X-H torsion
[ 10763 10752 10751 10750 ] final  136.11 input  -60.55 | X-H torsion
[ 11005 11000 10999 10996 ] final  -79.58 input  -57.11 | X-H torsion

> <Gold.Protein.ActiveResidues>
 VAL166  LYS551  ARG553  GLY616  TRP617  ASP618  TYR619  PRO620  LYS621  CYS622 
 ASP623  PHE694  ASN695  SER759  ASP760  ASP761  ALA762  ILE779  LEU786  VAL792 
 PHE793  MET794  SER795  GLU796  ALA797  LYS798  CYS799  TRP800  GLU811  SER814 

> <Gold.Protein.RotatedAtoms>
  150.6866  134.2884  159.4656 H   0  0  0  0  0  0  0  0  0  0  0  0  # atno 6907 bound_to 6896
  152.0791  134.9480  160.0583 H   0  0  0  0  0  0  0  0  0  0  0  0  # atno 6908 bound_to 6896
  152.0840  133.4132  159.4551 H   0  0  0  0  0  0  0  0  0  0  0  0  # atno 6909 bound_to 6896
  146.1398  139.6353  142.9171 H   0  0  0  0  0  0  0  0  0  0  0  0  # atno 7974 bound_to 7965
  156.2653  140.2035  156.6249 H   0  0  0  0  0  0  0  0  0  0  0  0  # atno 8008 bound_to 7997
  154.6728  140.0548  157.0207 H   0  0  0  0  0  0  0  0  0  0  0  0  # atno 8009 bound_to 7997
  155.1113  140.3215  155.4524 H   0  0  0  0  0  0  0  0  0  0  0  0  # atno 8010 bound_to 7997
  140.3786  143.2760  151.9412 H   0  0  0  0  0  0  0  0  0  0  0  0  # atno 10167 bound_to 10162
  157.1060  130.6488  149.5885 H   0  0  0  0  0  0  0  0  0  0  0  0  # atno 10718 bound_to 10713
  153.8511  135.3079  155.3432 H   0  0  0  0  0  0  0  0  0  0  0  0  # atno 10763 bound_to 10752
  154.7891  135.4793  154.0015 H   0  0  0  0  0  0  0  0  0  0  0  0  # atno 10764 bound_to 10752
  153.1518  135.6844  153.8964 H   0  0  0  0  0  0  0  0  0  0  0  0  # atno 10765 bound_to 10752
  141.1667  133.7112  156.8144 H   0  0  0  0  0  0  0  0  0  0  0  0  # atno 11005 bound_to 11000
  145.5073  141.0436  143.2507 LP  0  0  0  0  0  0  0  0  0  0  0  0  # atno 17320 bound_to 7965
  144.7779  139.6589  143.7167 LP  0  0  0  0  0  0  0  0  0  0  0  0  # atno 17321 bound_to 7965
  139.4797  144.5840  151.7884 LP  0  0  0  0  0  0  0  0  0  0  0  0  # atno 17342 bound_to 10162
  140.4961  144.1238  150.5960 LP  0  0  0  0  0  0  0  0  0  0  0  0  # atno 17343 bound_to 10162
  155.9862  130.4895  150.7067 LP  0  0  0  0  0  0  0  0  0  0  0  0  # atno 17370 bound_to 10713
  157.4600  131.0882  151.0756 LP  0  0  0  0  0  0  0  0  0  0  0  0  # atno 17371 bound_to 10713
  140.2164  134.8789  157.3330 LP  0  0  0  0  0  0  0  0  0  0  0  0  # atno 17394 bound_to 11000
  140.2033  134.4228  155.7651 LP  0  0  0  0  0  0  0  0  0  0  0  0  # atno 17395 bound_to 11000

$$$$
