AV-unprocessed.smi:1762|AV-procd|sdf|7120|dock7
  -GOLD-   22720 8353D 1   1.00000     0.00000
 Structure written by MMmdl.
 52 53  0  0  0  0  0  0  0  0  3 V2000
  148.2352  141.7885  153.8370 C   0  0  0  0  0  0  0  0  0  0  0  0
  148.6240  140.4215  154.4101 C   0  0  1  0  0  0  0  0  0  0  0  0
  148.3360  139.2758  153.4193 C   0  0  0  0  0  0  0  0  0  0  0  0
  148.7627  137.9636  153.9770 N   0  3  2  0  0  0  0  0  0  0  0  0
  147.8893  137.3687  155.0519 C   0  0  2  0  0  0  0  0  0  0  0  0
  148.6363  136.3080  155.8996 C   0  0  0  0  0  0  0  0  0  0  0  0
  149.4312  135.5616  155.3187 O   0  0  0  0  0  0  0  0  0  0  0  0
  148.2732  136.3476  157.2140 N   0  5  0  0  0  0  0  0  0  0  0  0
  149.0799  135.7982  158.3024 C   0  0  0  0  0  0  0  0  0  0  0  0
  149.0643  136.7533  159.5184 C   0  0  0  0  0  0  0  0  0  0  0  0
  148.1590  136.3001  160.6593 C   0  0  0  0  0  0  0  0  0  0  0  0
  147.9320  134.9247  160.8938 C   0  0  0  0  0  0  0  0  0  0  0  0
  147.0997  134.5508  161.9663 C   0  0  0  0  0  0  0  0  0  0  0  0
  146.5295  135.5592  162.7660 C   0  0  0  0  0  0  0  0  0  0  0  0
  146.8190  136.9029  162.4569 C   0  0  0  0  0  0  0  0  0  0  0  0
  147.6168  137.2726  161.4324 N   0  0  0  0  0  0  0  0  0  0  0  0
  146.4959  136.8477  154.5574 C   0  0  0  0  0  0  0  0  0  0  0  0
  145.4641  136.7151  155.6948 C   0  0  0  0  0  0  0  0  0  0  0  0
  146.5475  135.5421  153.7369 C   0  0  0  0  0  0  0  0  0  0  0  0
  150.2098  138.0550  154.3262 C   0  0  0  0  0  0  0  0  0  0  0  0
  150.4910  139.2361  155.2805 C   0  0  1  0  0  0  0  0  0  0  0  0
  151.9883  139.4004  155.5627 C   0  0  0  0  0  0  0  0  0  0  0  0
  150.0201  140.4429  154.6889 O   0  0  0  0  0  0  0  0  0  0  0  0
  147.1701  141.8292  153.6074 H   0  0  0  0  0  0  0  0  0  0  0  0
  148.7840  142.0030  152.9195 H   0  0  0  0  0  0  0  0  0  0  0  0
  148.4516  142.5856  154.5487 H   0  0  0  0  0  0  0  0  0  0  0  0
  148.0705  140.2681  155.3377 H   0  0  0  0  0  0  0  0  0  0  0  0
  147.2961  139.2789  153.1005 H   0  0  0  0  0  0  0  0  0  0  0  0
  148.9043  139.4482  152.5039 H   0  0  0  0  0  0  0  0  0  0  0  0
  147.6598  138.1815  155.7407 H   0  0  0  0  0  0  0  0  0  0  0  0
  148.7341  134.8104  158.6105 H   0  0  0  0  0  0  0  0  0  0  0  0
  150.1122  135.6569  157.9814 H   0  0  0  0  0  0  0  0  0  0  0  0
  150.0770  136.8702  159.9071 H   0  0  0  0  0  0  0  0  0  0  0  0
  148.7480  137.7493  159.2042 H   0  0  0  0  0  0  0  0  0  0  0  0
  148.3830  134.1729  160.2630 H   0  0  0  0  0  0  0  0  0  0  0  0
  146.9027  133.5090  162.1720 H   0  0  0  0  0  0  0  0  0  0  0  0
  145.8861  135.3090  163.5963 H   0  0  0  0  0  0  0  0  0  0  0  0
  146.3998  137.7024  163.0492 H   0  0  0  0  0  0  0  0  0  0  0  0
  146.0737  137.6162  153.9111 H   0  0  0  0  0  0  0  0  0  0  0  0
  145.7131  135.9040  156.3798 H   0  0  0  0  0  0  0  0  0  0  0  0
  144.4702  136.5082  155.2971 H   0  0  0  0  0  0  0  0  0  0  0  0
  145.3977  137.6352  156.2762 H   0  0  0  0  0  0  0  0  0  0  0  0
  146.8047  134.6850  154.3591 H   0  0  0  0  0  0  0  0  0  0  0  0
  147.2764  135.5923  152.9288 H   0  0  0  0  0  0  0  0  0  0  0  0
  145.5774  135.3305  153.2865 H   0  0  0  0  0  0  0  0  0  0  0  0
  150.5897  137.1253  154.7485 H   0  0  0  0  0  0  0  0  0  0  0  0
  150.7689  138.2002  153.4008 H   0  0  0  0  0  0  0  0  0  0  0  0
  149.9840  139.0840  156.2338 H   0  0  0  0  0  0  0  0  0  0  0  0
  152.4001  138.5040  156.0269 H   0  0  0  0  0  0  0  0  0  0  0  0
  152.1678  140.2364  156.2390 H   0  0  0  0  0  0  0  0  0  0  0  0
  152.5454  139.5888  154.6447 H   0  0  0  0  0  0  0  0  0  0  0  0
  148.6993  137.2974  153.2195 H   0  0  0  0  0  0  0  0  0  0  0  0
  1  2  1  0  0  0  0
  1 24  1  0  0  0  0
  1 25  1  0  0  0  0
  1 26  1  0  0  0  0
  2 23  1  0  0  0  0
  2  3  1  0  0  0  0
  2 27  1  0  0  0  0
  3  4  1  0  0  0  0
  3 28  1  0  0  0  0
  3 29  1  0  0  0  0
  4  5  1  0  0  0  0
  4 20  1  0  0  0  0
  4 52  1  0  0  0  0
  5  6  1  0  0  0  0
  5 17  1  0  0  0  0
  5 30  1  0  0  0  0
  6  7  2  0  0  0  0
  6  8  1  0  0  0  0
  8  9  1  0  0  0  0
  9 10  1  0  0  0  0
  9 31  1  0  0  0  0
  9 32  1  0  0  0  0
 10 11  1  0  0  0  0
 10 33  1  0  0  0  0
 10 34  1  0  0  0  0
 11 16  1  0  0  0  0
 11 12  2  0  0  0  0
 12 13  1  0  0  0  0
 12 35  1  0  0  0  0
 13 14  2  0  0  0  0
 13 36  1  0  0  0  0
 14 15  1  0  0  0  0
 14 37  1  0  0  0  0
 15 16  2  0  0  0  0
 15 38  1  0  0  0  0
 17 18  1  0  0  0  0
 17 19  1  0  0  0  0
 17 39  1  0  0  0  0
 18 40  1  0  0  0  0
 18 41  1  0  0  0  0
 18 42  1  0  0  0  0
 19 43  1  0  0  0  0
 19 44  1  0  0  0  0
 19 45  1  0  0  0  0
 20 21  1  0  0  0  0
 20 46  1  0  0  0  0
 20 47  1  0  0  0  0
 21 22  1  0  0  0  0
 21 23  1  0  0  0  0
 21 48  1  0  0  0  0
 22 49  1  0  0  0  0
 22 50  1  0  0  0  0
 22 51  1  0  0  0  0
M  CHG  1   4   1
M  CHG  1   8  -1
M  END
> <s_m_source_file>
AV-unprocessed.smi

> <i_m_source_file_index>
1762

> <i_lp_mmshare_version>
43012

> <i_f3d_flags>
0

> <s_epik_input>
W0NIM11bQ0BASF0xW0NIMl1OKFtDSDJdW0NASF0oTzEpW0NIM10pW0NAQEhdKFtDSF0oW0NIM10pW0NIM10pQyg9TylbTkhdW0NIMl1bQ0gyXWMyW2NIXVtjSF1bY0hdW2NIXW4y

> <s_epik_cmdline>
J2VwaWtfcHl0aG9uJywgJy1waCcsICc3LjAnLCAnLXRuJywgJzgnLCAnLW1hJywgJzIwMCcsICctbWV0YWxfYmluZGluZycsICctaW1hZScsICc8aW5maWxlLm1hZT4nLCAnLW9tYWUnLCAnPG91dGZpbGUubWFlPic=

> <r_epik_Ionization_Penalty>
7.82966

> <r_epik_Ionization_Penalty_Charging>
7.7461

> <r_epik_Ionization_Penalty_Neutral>
0.0835571

> <r_epik_State_Penalty>
8.52273

> <r_epik_Charging_Adjusted_Penalty>
16.2688

> <i_epik_Tot_Q>
0

> <i_epik_Tot_abs_Q>
2

> <r_epik_Metal_State_Penalty>
4.47451

> <b_epik_Metal_Only>
1

> <s_lp_Force_Field>
OPLS_2005

> <r_lp_Energy>
23.0584

> <b_lp_Chiralities_Consistent>
1

> <s_lp_Variant>
AV-unprocessed.smi:1762-22

> <Gold.Version>
5.8.1

> <Gold.Id.Protein>
6NUR|6NUR_protein|mol2

> <Gold.PLP.Fitness>
45.3137

> <Gold.PLP.PLP>
-34.8527

> <Gold.PLP.part.hbond>
-4.0000

> <Gold.PLP.part.metal>
0.0000

> <Gold.PLP.part.buried>
1.1541

> <Gold.PLP.part.nonpolar>
-31.9410

> <Gold.PLP.part.repulsive>
0.2112

> <Gold.PLP.ligand.clash>
0.0000

> <Gold.PLP.ligand.torsion>
2.1353

> <Gold.PLP.Chemscore.Hbond>
4.7600

> <Gold.PLP.Chemscore.CHOScore>
0.0000

> <Gold.PLP.Chemscore.Metal>
0.0000

> <Gold.Chemscore.Hbonds>
donor molecule, donor type, donor heavy atom, donor atom, acceptor molecule, acceptor atom, score
      L1  H     4    52       P1  7948  2.00
      P1  H  6931  6943       L1    16  0.93
      P1  H  6934  6947       L1    16  0.82
      P1  H  7989  7998       L1    23  0.90

> <Gold.PLP.Chemscore.Internal.Correction>
0.4515

> <Gold.Rescore>
     Score         DG    S(hbond)    S(metal)    S(lipo)     H(rot)  DE(clash)    DE(int)     intcor
     16.69     -21.57       2.80        0.00      92.78       1.60       1.59       3.30       ----

> <Gold.Chemscore.Fitness>
16.6856

> <Gold.Chemscore.DG>
-21.5717

> <Gold.Chemscore.ZeroCoef>
-5.4800

> <Gold.Chemscore.Hbond>
2.7951

> <Gold.Chemscore.Metal>
0.0000

> <Gold.Chemscore.Lipo>
92.7772

> <Gold.Chemscore.Internal_Hbond>
0.0000

> <Gold.Chemscore.DEClash>
1.5865

> <Gold.Chemscore.DEInternal>
3.2995

> <Gold.Chemscore.Rot>
1.6012

> <Gold.Chemscore.Internal.Correction>
   9.000000E+99

> <Gold.Chemscore.Hbonds>
donor molecule, donor type, donor heavy atom, donor atom, acceptor molecule, acceptor atom, score
      L1  H     4    52       P1  7948  1.00
      P1  H  6931  6943       L1    16  0.35
      P1  H  6934  6947       L1    16  0.57
      P1  H  7989  7998       L1    23  0.21

> <Gold.Chemscore.Hbond.Weighted>
-9.3357

> <Gold.Chemscore.Metal.Weighted>
-0.0000

> <Gold.Chemscore.Lipo.Weighted>
-10.8549

> <Gold.Chemscore.Internal_Hbond.Weighted>
0.0000

> <Gold.Chemscore.DEClash.Weighted>
1.5865

> <Gold.Chemscore.DEInternal.Weighted>
3.2995

> <Gold.Chemscore.Rot.Weighted>
4.0990

> <Gold.Chemscore.Internal.Correction.Weighted>
   9.000000E+99

> <Gold.Protein.RotatedTorsions>
[ 6907 6896 6895 6894 ] final  -73.41 input  -60.11 | X-H torsion
[ 7974 7965 7964 7962 ] final  -10.17 input  175.53 | X-H torsion
[ 8008 7997 7996 7995 ] final  135.63 input   59.86 | X-H torsion
[ 10167 10162 10161 10158 ] final -131.45 input  -65.29 | X-H torsion
[ 10718 10713 10712 10709 ] final  101.25 input   66.30 | X-H torsion
[ 10763 10752 10751 10750 ] final  -14.27 input  -60.55 | X-H torsion
[ 11005 11000 10999 10996 ] final -132.90 input  -57.11 | X-H torsion

> <Gold.Protein.ActiveResidues>
 VAL166  LYS551  ARG553  GLY616  TRP617  ASP618  TYR619  PRO620  LYS621  CYS622 
 ASP623  PHE694  ASN695  SER759  ASP760  ASP761  ALA762  ILE779  LEU786  VAL792 
 PHE793  MET794  SER795  GLU796  ALA797  LYS798  CYS799  TRP800  GLU811  SER814 

> <Gold.Protein.RotatedAtoms>
  150.7131  134.5021  159.5566 H   0  0  0  0  0  0  0  0  0  0  0  0  # atno 6907 bound_to 6896
  152.2616  134.8025  160.0438 H   0  0  0  0  0  0  0  0  0  0  0  0  # atno 6908 bound_to 6896
  151.8736  133.3445  159.3780 H   0  0  0  0  0  0  0  0  0  0  0  0  # atno 6909 bound_to 6896
  146.2229  140.2725  142.8357 H   0  0  0  0  0  0  0  0  0  0  0  0  # atno 7974 bound_to 7965
  156.3003  140.2466  156.3613 H   0  0  0  0  0  0  0  0  0  0  0  0  # atno 8008 bound_to 7997
  154.8874  140.0410  157.1838 H   0  0  0  0  0  0  0  0  0  0  0  0  # atno 8009 bound_to 7997
  154.8633  140.2924  155.5530 H   0  0  0  0  0  0  0  0  0  0  0  0  # atno 8010 bound_to 7997
  139.9188  143.6407  152.2558 H   0  0  0  0  0  0  0  0  0  0  0  0  # atno 10167 bound_to 10162
  157.6834  131.0721  150.5223 H   0  0  0  0  0  0  0  0  0  0  0  0  # atno 10718 bound_to 10713
  153.5258  135.7015  153.5708 H   0  0  0  0  0  0  0  0  0  0  0  0  # atno 10763 bound_to 10752
  153.3737  135.3938  155.1807 H   0  0  0  0  0  0  0  0  0  0  0  0  # atno 10764 bound_to 10752
  154.8690  135.3818  154.4750 H   0  0  0  0  0  0  0  0  0  0  0  0  # atno 10765 bound_to 10752
  140.9129  134.1544  157.4375 H   0  0  0  0  0  0  0  0  0  0  0  0  # atno 11005 bound_to 11000
  144.9258  140.7919  143.5720 LP  0  0  0  0  0  0  0  0  0  0  0  0  # atno 17320 bound_to 7965
  145.2664  139.1971  143.4864 LP  0  0  0  0  0  0  0  0  0  0  0  0  # atno 17321 bound_to 7965
  139.6879  144.7650  151.1491 LP  0  0  0  0  0  0  0  0  0  0  0  0  # atno 17342 bound_to 10162
  140.7667  143.5631  150.9077 LP  0  0  0  0  0  0  0  0  0  0  0  0  # atno 17343 bound_to 10162
  156.5536  130.4238  149.6096 LP  0  0  0  0  0  0  0  0  0  0  0  0  # atno 17370 bound_to 10713
  156.2881  130.7109  151.1950 LP  0  0  0  0  0  0  0  0  0  0  0  0  # atno 17371 bound_to 10713
  139.8761  134.9942  156.5684 LP  0  0  0  0  0  0  0  0  0  0  0  0  # atno 17394 bound_to 11000
  140.8087  133.8447  155.8790 LP  0  0  0  0  0  0  0  0  0  0  0  0  # atno 17395 bound_to 11000

$$$$
