AV-unprocessed.smi:1802|AV-procd|sdf|7275|dock9
  -GOLD-   22720 8533D 1   1.00000     0.00000
 Structure written by MMmdl.
 40 41  0  0  0  0  0  0  0  0  3 V2000
  145.2567  135.0227  150.3444 C   0  0  0  0  0  0  0  0  0  0  0  0
  145.7427  133.5893  150.6018 C   0  0  2  0  0  0  0  0  0  0  0  0
  144.5719  132.5921  150.6082 C   0  0  0  0  0  0  0  0  0  0  0  0
  145.0831  131.1747  150.8935 C   0  0  0  0  0  0  0  0  0  0  0  0
  145.8914  131.1342  152.2000 C   0  0  0  0  0  0  0  0  0  0  0  0
  147.0170  132.1032  152.1640 N   0  3  2  0  0  0  0  0  0  0  0  0
  147.8943  131.9874  153.3565 C   0  0  0  0  0  0  0  0  0  0  0  0
  149.2093  132.7683  153.1953 C   0  0  0  0  0  0  0  0  0  0  0  0
  149.4289  133.7783  154.3286 C   0  0  0  0  0  0  0  0  0  0  0  0
  150.5585  134.6459  154.0252 N   0  0  0  0  0  0  0  0  0  0  0  0
  151.0416  135.5968  154.8354 C   0  0  0  0  0  0  0  0  0  0  0  0
  150.5145  135.7943  155.9324 O   0  0  0  0  0  0  0  0  0  0  0  0
  152.1064  136.2555  154.3252 N   0  5  0  0  0  0  0  0  0  0  0  0
  152.2894  137.5562  154.6068 C   0  0  0  0  0  0  0  0  0  0  0  0
  153.3389  138.2523  154.1411 N   0  0  0  0  0  0  0  0  0  0  0  0
  153.3416  139.5777  154.5545 N   0  0  0  0  0  0  0  0  0  0  0  0
  152.2932  139.8461  155.3322 C   0  0  0  0  0  0  0  0  0  0  0  0
  151.2086  138.5045  155.6318 S   0  0  0  0  0  0  0  0  0  0  0  0
  146.5363  133.4901  151.9203 C   0  0  0  0  0  0  0  0  0  0  0  0
  144.5805  135.3597  151.1308 H   0  0  0  0  0  0  0  0  0  0  0  0
  144.7241  135.0924  149.3956 H   0  0  0  0  0  0  0  0  0  0  0  0
  146.0934  135.7206  150.3031 H   0  0  0  0  0  0  0  0  0  0  0  0
  146.4129  133.3188  149.7840 H   0  0  0  0  0  0  0  0  0  0  0  0
  143.8418  132.8780  151.3669 H   0  0  0  0  0  0  0  0  0  0  0  0
  144.0508  132.6123  149.6503 H   0  0  0  0  0  0  0  0  0  0  0  0
  144.2437  130.4812  150.9524 H   0  0  0  0  0  0  0  0  0  0  0  0
  145.7067  130.8360  150.0652 H   0  0  0  0  0  0  0  0  0  0  0  0
  145.2456  131.3556  153.0512 H   0  0  0  0  0  0  0  0  0  0  0  0
  146.2770  130.1247  152.3475 H   0  0  0  0  0  0  0  0  0  0  0  0
  147.3569  132.3097  154.2497 H   0  0  0  0  0  0  0  0  0  0  0  0
  148.1466  130.9376  153.5119 H   0  0  0  0  0  0  0  0  0  0  0  0
  150.0455  132.0678  153.1715 H   0  0  0  0  0  0  0  0  0  0  0  0
  149.2230  133.3001  152.2440 H   0  0  0  0  0  0  0  0  0  0  0  0
  148.5365  134.3896  154.4700 H   0  0  0  0  0  0  0  0  0  0  0  0
  149.6141  133.2521  155.2665 H   0  0  0  0  0  0  0  0  0  0  0  0
  151.0152  134.5173  153.1341 H   0  0  0  0  0  0  0  0  0  0  0  0
  152.1590  140.8390  155.7344 H   0  0  0  0  0  0  0  0  0  0  0  0
  147.3816  134.1757  151.8742 H   0  0  0  0  0  0  0  0  0  0  0  0
  145.9170  133.8116  152.7594 H   0  0  0  0  0  0  0  0  0  0  0  0
  147.5836  131.8435  151.3692 H   0  0  0  0  0  0  0  0  0  0  0  0
  1  2  1  0  0  0  0
  1 20  1  0  0  0  0
  1 21  1  0  0  0  0
  1 22  1  0  0  0  0
  2 19  1  0  0  0  0
  2  3  1  0  0  0  0
  2 23  1  0  0  0  0
  3  4  1  0  0  0  0
  3 24  1  0  0  0  0
  3 25  1  0  0  0  0
  4  5  1  0  0  0  0
  4 26  1  0  0  0  0
  4 27  1  0  0  0  0
  5  6  1  0  0  0  0
  5 28  1  0  0  0  0
  5 29  1  0  0  0  0
  6  7  1  0  0  0  0
  6 19  1  0  0  0  0
  6 40  1  0  0  0  0
  7  8  1  0  0  0  0
  7 30  1  0  0  0  0
  7 31  1  0  0  0  0
  8  9  1  0  0  0  0
  8 32  1  0  0  0  0
  8 33  1  0  0  0  0
  9 10  1  0  0  0  0
  9 34  1  0  0  0  0
  9 35  1  0  0  0  0
 10 11  1  0  0  0  0
 10 36  1  0  0  0  0
 11 12  2  0  0  0  0
 11 13  1  0  0  0  0
 13 14  1  0  0  0  0
 14 18  1  0  0  0  0
 14 15  2  0  0  0  0
 15 16  1  0  0  0  0
 16 17  2  0  0  0  0
 17 18  1  0  0  0  0
 17 37  1  0  0  0  0
 19 38  1  0  0  0  0
 19 39  1  0  0  0  0
M  CHG  1   6   1
M  CHG  1  13  -1
M  END
> <s_m_source_file>
AV-unprocessed.smi

> <i_m_source_file_index>
1802

> <i_lp_mmshare_version>
43012

> <i_f3d_flags>
0

> <s_epik_input>
W0NIM11bQ0BASF0xW0NIMl1bQ0gyXVtDSDJdTihbQ0gyXTEpW0NIMl1bQ0gyXVtDSDJdW05IXUMoPU8pW05IXWMybm5bY0hdczI=

> <s_epik_cmdline>
J2VwaWtfcHl0aG9uJywgJy1waCcsICc3LjAnLCAnLXRuJywgJzgnLCAnLW1hJywgJzIwMCcsICctbWV0YWxfYmluZGluZycsICctaW1hZScsICc8aW5maWxlLm1hZT4nLCAnLW9tYWUnLCAnPG91dGZpbGUubWFlPic=

> <r_lp_tautomer_probability>
1

> <r_epik_Ionization_Penalty>
3.29702

> <r_epik_Ionization_Penalty_Charging>
3.26059

> <r_epik_Ionization_Penalty_Neutral>
0.0364294

> <r_epik_State_Penalty>
3.25788

> <r_epik_Charging_Adjusted_Penalty>
6.51847

> <i_epik_Tot_Q>
0

> <i_epik_Tot_abs_Q>
2

> <r_epik_Metal_State_Penalty>
0.477639

> <b_epik_Metal_Only>
1

> <s_lp_Force_Field>
OPLS_2005

> <r_lp_Energy>
10.8961

> <b_lp_Chiralities_Consistent>
1

> <s_lp_Variant>
AV-unprocessed.smi:1802-5

> <Gold.Version>
5.8.1

> <Gold.Id.Protein>
6NUR|6NUR_protein|mol2

> <Gold.PLP.Fitness>
45.6124

> <Gold.PLP.PLP>
-33.4730

> <Gold.PLP.part.hbond>
-5.8225

> <Gold.PLP.part.metal>
0.0000

> <Gold.PLP.part.buried>
-2.7011

> <Gold.PLP.part.nonpolar>
-25.7462

> <Gold.PLP.part.repulsive>
0.3030

> <Gold.PLP.ligand.clash>
0.0000

> <Gold.PLP.ligand.torsion>
0.6653

> <Gold.PLP.Chemscore.Hbond>
4.4688

> <Gold.PLP.Chemscore.CHOScore>
0.0000

> <Gold.PLP.Chemscore.Metal>
0.0000

> <Gold.Chemscore.Hbonds>
donor molecule, donor type, donor heavy atom, donor atom, acceptor molecule, acceptor atom, score
      L1  H     6    40       P1 10747  1.00
      L1  H    10    36       P1  7949  0.19
      P1  H  7997  8009       L1    16  0.30
      P1  H 10752 10764       L1    13  0.08

> <Gold.PLP.Chemscore.Internal.Correction>
0.0636

> <Gold.Rescore>
     Score         DG    S(hbond)    S(metal)    S(lipo)     H(rot)  DE(clash)    DE(int)     intcor
     13.88     -17.96       2.54        0.00      76.70       1.94       2.06       2.03       ----

> <Gold.Chemscore.Fitness>
13.8773

> <Gold.Chemscore.DG>
-17.9615

> <Gold.Chemscore.ZeroCoef>
-5.4800

> <Gold.Chemscore.Hbond>
2.5359

> <Gold.Chemscore.Metal>
0.0000

> <Gold.Chemscore.Lipo>
76.6994

> <Gold.Chemscore.Internal_Hbond>
0.0000

> <Gold.Chemscore.DEClash>
2.0577

> <Gold.Chemscore.DEInternal>
2.0266

> <Gold.Chemscore.Rot>
1.9383

> <Gold.Chemscore.Internal.Correction>
   9.000000E+99

> <Gold.Chemscore.Hbonds>
donor molecule, donor type, donor heavy atom, donor atom, acceptor molecule, acceptor atom, score
      L1  H     6    40       P1 10747  0.93
      L1  H    10    36       P1  7949  0.01
      P1  H 10752 10764       L1    13  0.02

> <Gold.Chemscore.Hbond.Weighted>
-8.4697

> <Gold.Chemscore.Metal.Weighted>
-0.0000

> <Gold.Chemscore.Lipo.Weighted>
-8.9738

> <Gold.Chemscore.Internal_Hbond.Weighted>
0.0000

> <Gold.Chemscore.DEClash.Weighted>
2.0577

> <Gold.Chemscore.DEInternal.Weighted>
2.0266

> <Gold.Chemscore.Rot.Weighted>
4.9620

> <Gold.Chemscore.Internal.Correction.Weighted>
   9.000000E+99

> <Gold.Protein.RotatedTorsions>
[ 6907 6896 6895 6894 ] final  109.84 input  -60.11 | X-H torsion
[ 7974 7965 7964 7962 ] final   36.07 input  175.53 | X-H torsion
[ 8008 7997 7996 7995 ] final -145.27 input   59.86 | X-H torsion
[ 10167 10162 10161 10158 ] final  139.45 input  -65.29 | X-H torsion
[ 10718 10713 10712 10709 ] final  150.61 input   66.30 | X-H torsion
[ 10763 10752 10751 10750 ] final  -52.36 input  -60.55 | X-H torsion
[ 11005 11000 10999 10996 ] final   49.87 input  -57.11 | X-H torsion

> <Gold.Protein.ActiveResidues>
 VAL166  LYS551  ARG553  GLY616  TRP617  ASP618  TYR619  PRO620  LYS621  CYS622 
 ASP623  PHE694  ASN695  SER759  ASP760  ASP761  ALA762  ILE779  LEU786  VAL792 
 PHE793  MET794  SER795  GLU796  ALA797  LYS798  CYS799  TRP800  GLU811  SER814 

> <Gold.Protein.RotatedAtoms>
  152.5048  133.8886  159.7382 H   0  0  0  0  0  0  0  0  0  0  0  0  # atno 6907 bound_to 6896
  150.9330  133.6735  159.2813 H   0  0  0  0  0  0  0  0  0  0  0  0  # atno 6908 bound_to 6896
  151.4073  135.0984  159.9627 H   0  0  0  0  0  0  0  0  0  0  0  0  # atno 6909 bound_to 6896
  146.1238  139.6063  142.9272 H   0  0  0  0  0  0  0  0  0  0  0  0  # atno 7974 bound_to 7965
  155.5404  140.0607  157.2871 H   0  0  0  0  0  0  0  0  0  0  0  0  # atno 8008 bound_to 7997
  154.4454  140.1920  156.0629 H   0  0  0  0  0  0  0  0  0  0  0  0  # atno 8009 bound_to 7997
  156.0588  140.3275  155.7441 H   0  0  0  0  0  0  0  0  0  0  0  0  # atno 8010 bound_to 7997
  139.5078  144.6294  151.5856 H   0  0  0  0  0  0  0  0  0  0  0  0  # atno 10167 bound_to 10162
  157.2812  131.0836  151.1530 H   0  0  0  0  0  0  0  0  0  0  0  0  # atno 10718 bound_to 10713
  154.1415  135.6504  153.4943 H   0  0  0  0  0  0  0  0  0  0  0  0  # atno 10763 bound_to 10752
  153.0164  135.5316  154.6900 H   0  0  0  0  0  0  0  0  0  0  0  0  # atno 10764 bound_to 10752
  154.6162  135.2959  155.0348 H   0  0  0  0  0  0  0  0  0  0  0  0  # atno 10765 bound_to 10752
  140.1066  134.5011  155.8715 H   0  0  0  0  0  0  0  0  0  0  0  0  # atno 11005 bound_to 11000
  145.5410  141.0421  143.2331 LP  0  0  0  0  0  0  0  0  0  0  0  0  # atno 17320 bound_to 7965
  144.7622  139.6929  143.7229 LP  0  0  0  0  0  0  0  0  0  0  0  0  # atno 17321 bound_to 7965
  140.6021  143.9590  150.6393 LP  0  0  0  0  0  0  0  0  0  0  0  0  # atno 17342 bound_to 10162
  140.2805  143.3393  152.1155 LP  0  0  0  0  0  0  0  0  0  0  0  0  # atno 17343 bound_to 10162
  157.2963  130.6821  149.6140 LP  0  0  0  0  0  0  0  0  0  0  0  0  # atno 17370 bound_to 10713
  155.9664  130.4405  150.5304 LP  0  0  0  0  0  0  0  0  0  0  0  0  # atno 17371 bound_to 10713
  141.2119  133.6713  156.6622 LP  0  0  0  0  0  0  0  0  0  0  0  0  # atno 17394 bound_to 11000
  140.3148  134.8056  157.4205 LP  0  0  0  0  0  0  0  0  0  0  0  0  # atno 17395 bound_to 11000

$$$$
