AV-unprocessed.smi:601|AV-procd|sdf|3033|dock2
  -GOLD-   2262023543D 1   1.00000     0.00000
 Structure written by MMmdl.
 49 50  0  0  0  0  0  0  0  0  2 V2000
  147.1723  140.8517  153.4461 C   0  0  0  0  0  0  0  0  0  0  0  0
  148.3045  141.6502  154.1060 C   0  0  0  0  0  0  0  0  0  0  0  0
  148.8038  141.0395  155.4251 C   0  0  0  0  0  0  0  0  0  0  0  0
  150.1263  141.6508  155.9280 C   0  0  0  0  0  0  0  0  0  0  0  0
  150.6961  140.8829  157.0456 N   0  0  0  0  0  0  0  0  0  0  0  0
  150.8704  141.4533  158.2674 C   0  0  0  0  0  0  0  0  0  0  0  0
  151.2615  140.7995  159.2372 O   0  0  0  0  0  0  0  0  0  0  0  0
  150.6148  142.9733  158.4438 C   0  0  2  0  0  0  0  0  0  0  0  0
  151.5911  143.8816  157.6841 C   0  0  0  0  0  0  0  0  0  0  0  0
  152.7712  144.0548  158.6328 C   0  0  0  0  0  0  0  0  0  0  0  0
  152.2498  143.5518  159.9820 C   0  0  0  0  0  0  0  0  0  0  0  0
  150.8526  143.3630  159.7912 O   0  0  0  0  0  0  0  0  0  0  0  0
  150.9860  139.5282  156.8000 C   0  0  0  0  0  0  0  0  0  0  0  0
  150.3095  138.5247  157.4188 C   0  0  0  0  0  0  0  0  0  0  0  0
  149.3150  138.8046  158.3455 N   0  0  0  0  0  0  0  0  0  0  0  0
  150.6193  137.1707  157.1207 N   0  0  0  0  0  0  0  0  0  0  0  0
  149.8963  136.0942  157.8307 C   0  0  0  0  0  0  0  0  0  0  0  0
  149.1728  135.1583  156.8471 C   0  0  0  0  0  0  0  0  0  0  0  0
  148.3814  134.0576  157.5610 C   0  0  0  0  0  0  0  0  0  0  0  0
  151.5573  136.8605  156.1735 C   0  0  0  0  0  0  0  0  0  0  0  0
  151.7762  135.6780  155.9060 O   0  0  0  0  0  0  0  0  0  0  0  0
  152.2246  137.8709  155.5458 N   0  5  0  0  0  0  0  0  0  0  0  0
  152.0014  139.1880  155.7964 C   0  0  0  0  0  0  0  0  0  0  0  0
  152.6129  140.0795  155.2069 O   0  0  0  0  0  0  0  0  0  0  0  0
  146.8088  141.3636  152.5548 H   0  0  0  0  0  0  0  0  0  0  0  0
  146.3282  140.7302  154.1255 H   0  0  0  0  0  0  0  0  0  0  0  0
  147.5041  139.8596  153.1411 H   0  0  0  0  0  0  0  0  0  0  0  0
  149.1360  141.7596  153.4091 H   0  0  0  0  0  0  0  0  0  0  0  0
  147.9430  142.6594  154.3054 H   0  0  0  0  0  0  0  0  0  0  0  0
  148.0370  141.1918  156.1852 H   0  0  0  0  0  0  0  0  0  0  0  0
  148.9021  139.9595  155.3104 H   0  0  0  0  0  0  0  0  0  0  0  0
  150.8546  141.7181  155.1187 H   0  0  0  0  0  0  0  0  0  0  0  0
  149.9453  142.6802  156.2415 H   0  0  0  0  0  0  0  0  0  0  0  0
  149.5906  143.2111  158.1555 H   0  0  0  0  0  0  0  0  0  0  0  0
  151.8872  143.4901  156.7100 H   0  0  0  0  0  0  0  0  0  0  0  0
  151.1191  144.8493  157.5100 H   0  0  0  0  0  0  0  0  0  0  0  0
  153.6305  143.4654  158.3115 H   0  0  0  0  0  0  0  0  0  0  0  0
  153.0805  145.0991  158.6829 H   0  0  0  0  0  0  0  0  0  0  0  0
  152.7134  142.6002  160.2463 H   0  0  0  0  0  0  0  0  0  0  0  0
  152.4389  144.2558  160.7922 H   0  0  0  0  0  0  0  0  0  0  0  0
  149.0646  139.7525  158.5873 H   0  0  0  0  0  0  0  0  0  0  0  0
  148.7446  138.0741  158.7461 H   0  0  0  0  0  0  0  0  0  0  0  0
  150.5747  135.5107  158.4553 H   0  0  0  0  0  0  0  0  0  0  0  0
  149.1863  136.5067  158.5476 H   0  0  0  0  0  0  0  0  0  0  0  0
  148.4949  135.7352  156.2173 H   0  0  0  0  0  0  0  0  0  0  0  0
  149.8996  134.6993  156.1759 H   0  0  0  0  0  0  0  0  0  0  0  0
  147.8889  133.4032  156.8416 H   0  0  0  0  0  0  0  0  0  0  0  0
  147.6121  134.4830  158.2061 H   0  0  0  0  0  0  0  0  0  0  0  0
  149.0349  133.4411  158.1787 H   0  0  0  0  0  0  0  0  0  0  0  0
  1  2  1  0  0  0  0
  1 25  1  0  0  0  0
  1 26  1  0  0  0  0
  1 27  1  0  0  0  0
  2  3  1  0  0  0  0
  2 28  1  0  0  0  0
  2 29  1  0  0  0  0
  3  4  1  0  0  0  0
  3 30  1  0  0  0  0
  3 31  1  0  0  0  0
  4  5  1  0  0  0  0
  4 32  1  0  0  0  0
  4 33  1  0  0  0  0
  5  6  1  0  0  0  0
  5 13  1  0  0  0  0
  6  7  2  0  0  0  0
  6  8  1  0  0  0  0
  8 12  1  0  0  0  0
  8  9  1  0  0  0  0
  8 34  1  0  0  0  0
  9 10  1  0  0  0  0
  9 35  1  0  0  0  0
  9 36  1  0  0  0  0
 10 11  1  0  0  0  0
 10 37  1  0  0  0  0
 10 38  1  0  0  0  0
 11 12  1  0  0  0  0
 11 39  1  0  0  0  0
 11 40  1  0  0  0  0
 13 23  1  0  0  0  0
 13 14  2  0  0  0  0
 14 15  1  0  0  0  0
 14 16  1  0  0  0  0
 15 41  1  0  0  0  0
 15 42  1  0  0  0  0
 16 17  1  0  0  0  0
 16 20  1  0  0  0  0
 17 18  1  0  0  0  0
 17 43  1  0  0  0  0
 17 44  1  0  0  0  0
 18 19  1  0  0  0  0
 18 45  1  0  0  0  0
 18 46  1  0  0  0  0
 19 47  1  0  0  0  0
 19 48  1  0  0  0  0
 19 49  1  0  0  0  0
 20 21  2  0  0  0  0
 20 22  1  0  0  0  0
 22 23  1  0  0  0  0
 23 24  2  0  0  0  0
M  CHG  1  22  -1
M  END
> <s_m_source_file>
AV-unprocessed.smi

> <i_m_source_file_index>
601

> <i_lp_mmshare_version>
43012

> <i_f3d_flags>
0

> <s_epik_input>
TzFbQ0gyXVtDSDJdW0NIMl1bQ0BIXTFDKD1PKU4oW0NIMl1bQ0gyXVtDSDJdW0NIM10pYzJjKFtOSDJdKW4oW0NIMl1bQ0gyXVtDSDNdKWMoPU8pW25IXWMyPU8=

> <s_epik_cmdline>
J2VwaWtfcHl0aG9uJywgJy1waCcsICc3LjAnLCAnLXRuJywgJzgnLCAnLW1hJywgJzIwMCcsICctbWV0YWxfYmluZGluZycsICctaW1hZScsICc8aW5maWxlLm1hZT4nLCAnLW9tYWUnLCAnPG91dGZpbGUubWFlPic=

> <r_lp_tautomer_probability>
1

> <r_epik_Ionization_Penalty>
5.90608

> <r_epik_Ionization_Penalty_Charging>
4.55687e-07

> <r_epik_Ionization_Penalty_Neutral>
5.90608

> <r_epik_State_Penalty>
5.90604

> <r_epik_Charging_Adjusted_Penalty>
5.90604

> <i_epik_Tot_Q>
-1

> <i_epik_Tot_abs_Q>
1

> <r_epik_Metal_State_Penalty>
1.84043

> <b_epik_Metal_Only>
1

> <s_lp_Force_Field>
OPLS_2005

> <r_lp_Energy>
51.8523

> <b_lp_Chiralities_Consistent>
1

> <s_lp_Variant>
AV-unprocessed.smi:601-3

> <Gold.Version>
5.8.1

> <Gold.Id.Protein>
6NUR|6NUR_protein|mol2

> <Gold.PLP.Fitness>
45.1245

> <Gold.PLP.PLP>
-37.8194

> <Gold.PLP.part.hbond>
-3.1909

> <Gold.PLP.part.metal>
0.0000

> <Gold.PLP.part.buried>
-3.7799

> <Gold.PLP.part.nonpolar>
-31.7882

> <Gold.PLP.part.repulsive>
0.3157

> <Gold.PLP.ligand.clash>
0.0000

> <Gold.PLP.ligand.torsion>
1.3392

> <Gold.PLP.Chemscore.Hbond>
2.5440

> <Gold.PLP.Chemscore.CHOScore>
0.0000

> <Gold.PLP.Chemscore.Metal>
0.0000

> <Gold.Chemscore.Hbonds>
donor molecule, donor type, donor heavy atom, donor atom, acceptor molecule, acceptor atom, score
      P1  H  7989  7998       L1    24  0.43
      P1  H  7997  8009       L1    24  1.00
      P1  H 10752 10764       L1    21  1.00

> <Gold.PLP.Chemscore.Internal.Correction>
2.3515

> <Gold.Rescore>
     Score         DG    S(hbond)    S(metal)    S(lipo)     H(rot)  DE(clash)    DE(int)     intcor
     14.02     -17.79       2.06        0.00      88.50       1.92       0.35       3.42       ----

> <Gold.Chemscore.Fitness>
14.0152

> <Gold.Chemscore.DG>
-17.7922

> <Gold.Chemscore.ZeroCoef>
-5.4800

> <Gold.Chemscore.Hbond>
2.0578

> <Gold.Chemscore.Metal>
0.0000

> <Gold.Chemscore.Lipo>
88.5008

> <Gold.Chemscore.Internal_Hbond>
0.0000

> <Gold.Chemscore.DEClash>
0.3547

> <Gold.Chemscore.DEInternal>
3.4223

> <Gold.Chemscore.Rot>
1.9201

> <Gold.Chemscore.Internal.Correction>
   9.000000E+99

> <Gold.Chemscore.Hbonds>
donor molecule, donor type, donor heavy atom, donor atom, acceptor molecule, acceptor atom, score
      P1  H  7989  7998       L1    24  0.40
      P1  H  7997  8009       L1    24  0.69
      P1  H 10752 10764       L1    21  0.84

> <Gold.Chemscore.Hbond.Weighted>
-6.8730

> <Gold.Chemscore.Metal.Weighted>
-0.0000

> <Gold.Chemscore.Lipo.Weighted>
-10.3546

> <Gold.Chemscore.Internal_Hbond.Weighted>
0.0000

> <Gold.Chemscore.DEClash.Weighted>
0.3547

> <Gold.Chemscore.DEInternal.Weighted>
3.4223

> <Gold.Chemscore.Rot.Weighted>
4.9154

> <Gold.Chemscore.Internal.Correction.Weighted>
   9.000000E+99

> <Gold.Protein.RotatedTorsions>
[ 6907 6896 6895 6894 ] final  -84.02 input  -60.11 | X-H torsion
[ 7974 7965 7964 7962 ] final  166.93 input  175.53 | X-H torsion
[ 8008 7997 7996 7995 ] final -137.67 input   59.86 | X-H torsion
[ 10167 10162 10161 10158 ] final  -12.76 input  -65.29 | X-H torsion
[ 10718 10713 10712 10709 ] final  -70.74 input   66.30 | X-H torsion
[ 10763 10752 10751 10750 ] final  -35.90 input  -60.55 | X-H torsion
[ 11005 11000 10999 10996 ] final  -86.59 input  -57.11 | X-H torsion

> <Gold.Protein.ActiveResidues>
 VAL166  LYS551  ARG553  GLY616  TRP617  ASP618  TYR619  PRO620  LYS621  CYS622 
 ASP623  PHE694  ASN695  SER759  ASP760  ASP761  ALA762  ILE779  LEU786  VAL792 
 PHE793  MET794  SER795  GLU796  ALA797  LYS798  CYS799  TRP800  GLU811  SER814 

> <Gold.Protein.RotatedAtoms>
  150.6880  134.3423  159.4872 H   0  0  0  0  0  0  0  0  0  0  0  0  # atno 6907 bound_to 6896
  152.1274  134.9157  160.0569 H   0  0  0  0  0  0  0  0  0  0  0  0  # atno 6908 bound_to 6896
  152.0340  133.3914  159.4346 H   0  0  0  0  0  0  0  0  0  0  0  0  # atno 6909 bound_to 6896
  144.7443  139.8686  143.6387 H   0  0  0  0  0  0  0  0  0  0  0  0  # atno 7974 bound_to 7965
  155.4156  140.0515  157.3029 H   0  0  0  0  0  0  0  0  0  0  0  0  # atno 8008 bound_to 7997
  154.4926  140.2126  155.9475 H   0  0  0  0  0  0  0  0  0  0  0  0  # atno 8009 bound_to 7997
  156.1363  140.3162  155.8430 H   0  0  0  0  0  0  0  0  0  0  0  0  # atno 8010 bound_to 7997
  140.7168  143.5498  150.9313 H   0  0  0  0  0  0  0  0  0  0  0  0  # atno 10167 bound_to 10162
  156.0394  130.4337  150.2340 H   0  0  0  0  0  0  0  0  0  0  0  0  # atno 10718 bound_to 10713
  153.8708  135.6831  153.4774 H   0  0  0  0  0  0  0  0  0  0  0  0  # atno 10763 bound_to 10752
  153.1288  135.4707  154.9313 H   0  0  0  0  0  0  0  0  0  0  0  0  # atno 10764 bound_to 10752
  154.7715  135.3240  154.8131 H   0  0  0  0  0  0  0  0  0  0  0  0  # atno 10765 bound_to 10752
  141.1628  133.7463  156.9183 H   0  0  0  0  0  0  0  0  0  0  0  0  # atno 11005 bound_to 11000
  146.1296  139.4329  143.0177 LP  0  0  0  0  0  0  0  0  0  0  0  0  # atno 17320 bound_to 7965
  145.7182  141.0084  143.1416 LP  0  0  0  0  0  0  0  0  0  0  0  0  # atno 17321 bound_to 7965
  139.9223  143.6592  152.3094 LP  0  0  0  0  0  0  0  0  0  0  0  0  # atno 17342 bound_to 10162
  139.7013  144.7634  151.1269 LP  0  0  0  0  0  0  0  0  0  0  0  0  # atno 17343 bound_to 10162
  157.0437  131.0042  151.3275 LP  0  0  0  0  0  0  0  0  0  0  0  0  # atno 17370 bound_to 10713
  157.5191  130.7986  149.7789 LP  0  0  0  0  0  0  0  0  0  0  0  0  # atno 17371 bound_to 10713
  140.1469  134.9256  157.2541 LP  0  0  0  0  0  0  0  0  0  0  0  0  # atno 17394 bound_to 11000
  140.2769  134.3395  155.7355 LP  0  0  0  0  0  0  0  0  0  0  0  0  # atno 17395 bound_to 11000

$$$$
