AV-unprocessed.smi:1893|AV-procd|sdf|7672|dock1
  -GOLD-   22720 9413D 1   1.00000     0.00000
 Structure written by MMmdl.
 43 44  0  0  0  0  0  0  0  0  2 V2000
  146.6854  132.0467  152.3850 C   0  0  0  0  0  0  0  0  0  0  0  0
  147.4688  133.2948  151.9230 C   0  0  1  0  0  0  0  0  0  0  0  0
  146.6266  134.2134  151.0125 C   0  0  0  0  0  0  0  0  0  0  0  0
  145.5536  134.9809  151.7990 C   0  0  0  0  0  0  0  0  0  0  0  0
  146.1993  135.7430  152.9627 C   0  0  0  0  0  0  0  0  0  0  0  0
  147.0289  134.8021  153.8511 C   0  0  0  0  0  0  0  0  0  0  0  0
  148.0553  134.0788  153.0510 N   0  3  1  0  0  0  0  0  0  0  0  0
  149.0187  133.3092  153.8789 C   0  0  0  0  0  0  0  0  0  0  0  0
  149.7493  134.2040  154.8986 C   0  0  0  0  0  0  0  0  0  0  0  0
  150.0439  135.5208  154.3470 N   0  0  0  0  0  0  0  0  0  0  0  0
  151.0138  136.3383  154.7872 C   0  0  0  0  0  0  0  0  0  0  0  0
  151.7834  136.0332  155.6991 O   0  0  0  0  0  0  0  0  0  0  0  0
  151.1209  137.7051  154.0940 C   0  0  2  0  0  0  0  0  0  0  0  0
  152.3914  138.4776  154.5034 C   0  0  0  0  0  0  0  0  0  0  0  0
  149.9043  138.4765  154.3204 N   0  0  0  0  0  0  0  0  0  0  0  0
  149.4884  139.6089  153.7487 C   0  0  0  0  0  0  0  0  0  0  0  0
  148.2939  140.0127  154.1575 N   0  0  0  0  0  0  0  0  0  0  0  0
  148.0021  139.0080  155.0357 C   0  0  0  0  0  0  0  0  0  0  0  0
  148.9262  138.0555  155.1607 N   0  0  0  0  0  0  0  0  0  0  0  0
  146.3005  131.4957  151.5266 H   0  0  0  0  0  0  0  0  0  0  0  0
  145.8326  132.2992  153.0141 H   0  0  0  0  0  0  0  0  0  0  0  0
  147.3166  131.3573  152.9455 H   0  0  0  0  0  0  0  0  0  0  0  0
  148.3030  132.9377  151.3174 H   0  0  0  0  0  0  0  0  0  0  0  0
  147.2853  134.9310  150.5210 H   0  0  0  0  0  0  0  0  0  0  0  0
  146.1623  133.6339  150.2138 H   0  0  0  0  0  0  0  0  0  0  0  0
  145.0313  135.6752  151.1400 H   0  0  0  0  0  0  0  0  0  0  0  0
  144.7999  134.2911  152.1795 H   0  0  0  0  0  0  0  0  0  0  0  0
  146.8409  136.5331  152.5699 H   0  0  0  0  0  0  0  0  0  0  0  0
  145.4302  136.2368  153.5577 H   0  0  0  0  0  0  0  0  0  0  0  0
  147.5072  135.3929  154.6314 H   0  0  0  0  0  0  0  0  0  0  0  0
  146.3796  134.0907  154.3621 H   0  0  0  0  0  0  0  0  0  0  0  0
  148.4991  132.4884  154.3758 H   0  0  0  0  0  0  0  0  0  0  0  0
  149.7708  132.8536  153.2328 H   0  0  0  0  0  0  0  0  0  0  0  0
  149.1276  134.3405  155.7840 H   0  0  0  0  0  0  0  0  0  0  0  0
  150.6777  133.7461  155.2410 H   0  0  0  0  0  0  0  0  0  0  0  0
  149.4538  135.8456  153.5943 H   0  0  0  0  0  0  0  0  0  0  0  0
  151.1884  137.5247  153.0197 H   0  0  0  0  0  0  0  0  0  0  0  0
  153.2898  137.9002  154.2836 H   0  0  0  0  0  0  0  0  0  0  0  0
  152.4051  138.7146  155.5681 H   0  0  0  0  0  0  0  0  0  0  0  0
  152.4662  139.4176  153.9561 H   0  0  0  0  0  0  0  0  0  0  0  0
  150.0689  140.1465  153.0133 H   0  0  0  0  0  0  0  0  0  0  0  0
  147.0776  138.9727  155.5928 H   0  0  0  0  0  0  0  0  0  0  0  0
  148.6068  134.7969  152.6034 H   0  0  0  0  0  0  0  0  0  0  0  0
  1  2  1  0  0  0  0
  1 20  1  0  0  0  0
  1 21  1  0  0  0  0
  1 22  1  0  0  0  0
  2  7  1  0  0  0  0
  2  3  1  0  0  0  0
  2 23  1  0  0  0  0
  3  4  1  0  0  0  0
  3 24  1  0  0  0  0
  3 25  1  0  0  0  0
  4  5  1  0  0  0  0
  4 26  1  0  0  0  0
  4 27  1  0  0  0  0
  5  6  1  0  0  0  0
  5 28  1  0  0  0  0
  5 29  1  0  0  0  0
  6  7  1  0  0  0  0
  6 30  1  0  0  0  0
  6 31  1  0  0  0  0
  7  8  1  0  0  0  0
  7 43  1  0  0  0  0
  8  9  1  0  0  0  0
  8 32  1  0  0  0  0
  8 33  1  0  0  0  0
  9 10  1  0  0  0  0
  9 34  1  0  0  0  0
  9 35  1  0  0  0  0
 10 11  1  0  0  0  0
 10 36  1  0  0  0  0
 11 12  2  0  0  0  0
 11 13  1  0  0  0  0
 13 14  1  0  0  0  0
 13 15  1  0  0  0  0
 13 37  1  0  0  0  0
 14 38  1  0  0  0  0
 14 39  1  0  0  0  0
 14 40  1  0  0  0  0
 15 19  1  0  0  0  0
 15 16  1  0  0  0  0
 16 17  2  0  0  0  0
 16 41  1  0  0  0  0
 17 18  1  0  0  0  0
 18 19  2  0  0  0  0
 18 42  1  0  0  0  0
M  CHG  1   7   1
M  END
> <s_m_source_file>
AV-unprocessed.smi

> <i_m_source_file_index>
1893

> <i_lp_mmshare_version>
43012

> <i_f3d_flags>
0

> <s_epik_input>
W0NIM11bQ0BASF0xW0NIMl1bQ0gyXVtDSDJdW0NIMl1OMVtDSDJdW0NIMl1bTkhdQyg9TylbQ0BIXShbQ0gzXSluMltjSF1uW2NIXW4y

> <s_epik_cmdline>
J2VwaWtfcHl0aG9uJywgJy1waCcsICc3LjAnLCAnLXRuJywgJzgnLCAnLW1hJywgJzIwMCcsICctbWV0YWxfYmluZGluZycsICctaW1hZScsICc8aW5maWxlLm1hZT4nLCAnLW9tYWUnLCAnPG91dGZpbGUubWFlPic=

> <r_lp_tautomer_probability>
1

> <r_epik_Ionization_Penalty>
0.00266409

> <r_epik_Ionization_Penalty_Charging>
0.00265606

> <r_epik_Ionization_Penalty_Neutral>
8.02794e-06

> <r_epik_State_Penalty>
0.00184955

> <r_epik_Charging_Adjusted_Penalty>
0.00450561

> <i_epik_Tot_Q>
1

> <i_epik_Tot_abs_Q>
1

> <r_epik_Metal_State_Penalty>
-0

> <b_epik_Metal_Only>
0

> <s_lp_Force_Field>
OPLS_2005

> <r_lp_Energy>
25.286

> <b_lp_Chiralities_Consistent>
1

> <s_lp_Variant>
AV-unprocessed.smi:1893-2

> <Gold.Version>
5.8.1

> <Gold.Id.Protein>
6NUR|6NUR_protein|mol2

> <Gold.PLP.Fitness>
43.3303

> <Gold.PLP.PLP>
-29.4363

> <Gold.PLP.part.hbond>
-3.3056

> <Gold.PLP.part.metal>
0.0000

> <Gold.PLP.part.buried>
-1.6839

> <Gold.PLP.part.nonpolar>
-24.6405

> <Gold.PLP.part.repulsive>
0.2359

> <Gold.PLP.ligand.clash>
0.0000

> <Gold.PLP.ligand.torsion>
0.4891

> <Gold.PLP.Chemscore.Hbond>
3.8800

> <Gold.PLP.Chemscore.CHOScore>
0.9975

> <Gold.PLP.Chemscore.Metal>
0.0000

> <Gold.Chemscore.Hbonds>
donor molecule, donor type, donor heavy atom, donor atom, acceptor molecule, acceptor atom, score
      L1  H     7    43       P1  7948  1.70
      L1  H    10    36       P1  7948  1.00
      P1  H 10752 10765       L1    12  0.70
      L1  C    16    41       P1  7957  0.56

> <Gold.PLP.Chemscore.Internal.Correction>
0.2398

> <Gold.Rescore>
     Score         DG    S(hbond)    S(metal)    S(lipo)     H(rot)  DE(clash)    DE(int)     intcor
     11.44     -13.25       2.39        0.00      53.58       2.54       0.01       1.79       ----

> <Gold.Chemscore.Fitness>
11.4413

> <Gold.Chemscore.DG>
-13.2485

> <Gold.Chemscore.ZeroCoef>
-5.4800

> <Gold.Chemscore.Hbond>
2.3942

> <Gold.Chemscore.Metal>
0.0000

> <Gold.Chemscore.Lipo>
53.5768

> <Gold.Chemscore.Internal_Hbond>
0.0000

> <Gold.Chemscore.DEClash>
0.0126

> <Gold.Chemscore.DEInternal>
1.7946

> <Gold.Chemscore.Rot>
2.5377

> <Gold.Chemscore.Internal.Correction>
   9.000000E+99

> <Gold.Chemscore.Hbonds>
donor molecule, donor type, donor heavy atom, donor atom, acceptor molecule, acceptor atom, score
      L1  H     7    43       P1  7948  0.14
      L1  H    10    36       P1  7948  0.39
      P1  H 10752 10765       L1    12  0.07

> <Gold.Chemscore.Hbond.Weighted>
-7.9966

> <Gold.Chemscore.Metal.Weighted>
-0.0000

> <Gold.Chemscore.Lipo.Weighted>
-6.2685

> <Gold.Chemscore.Internal_Hbond.Weighted>
0.0000

> <Gold.Chemscore.DEClash.Weighted>
0.0126

> <Gold.Chemscore.DEInternal.Weighted>
1.7946

> <Gold.Chemscore.Rot.Weighted>
6.4966

> <Gold.Chemscore.Internal.Correction.Weighted>
   9.000000E+99

> <Gold.Protein.RotatedTorsions>
[ 6907 6896 6895 6894 ] final  -68.44 input  -60.11 | X-H torsion
[ 7974 7965 7964 7962 ] final    0.62 input  175.53 | X-H torsion
[ 8008 7997 7996 7995 ] final   55.88 input   59.86 | X-H torsion
[ 10167 10162 10161 10158 ] final  101.35 input  -65.29 | X-H torsion
[ 10718 10713 10712 10709 ] final  -61.45 input   66.30 | X-H torsion
[ 10763 10752 10751 10750 ] final -175.57 input  -60.55 | X-H torsion
[ 11005 11000 10999 10996 ] final -100.57 input  -57.11 | X-H torsion

> <Gold.Protein.ActiveResidues>
 VAL166  LYS551  ARG553  GLY616  TRP617  ASP618  TYR619  PRO620  LYS621  CYS622 
 ASP623  PHE694  ASN695  SER759  ASP760  ASP761  ALA762  ILE779  LEU786  VAL792 
 PHE793  MET794  SER795  GLU796  ALA797  LYS798  CYS799  TRP800  GLU811  SER814 

> <Gold.Protein.RotatedAtoms>
  150.7356  134.5738  159.5903 H   0  0  0  0  0  0  0  0  0  0  0  0  # atno 6907 bound_to 6896
  152.3170  134.7424  160.0332 H   0  0  0  0  0  0  0  0  0  0  0  0  # atno 6908 bound_to 6896
  151.7953  133.3328  159.3547 H   0  0  0  0  0  0  0  0  0  0  0  0  # atno 6909 bound_to 6896
  146.2435  140.1110  142.8344 H   0  0  0  0  0  0  0  0  0  0  0  0  # atno 7974 bound_to 7965
  155.5084  140.3476  155.4384 H   0  0  0  0  0  0  0  0  0  0  0  0  # atno 8008 bound_to 7997
  156.0866  140.1400  156.9672 H   0  0  0  0  0  0  0  0  0  0  0  0  # atno 8009 bound_to 7997
  154.4610  140.0935  156.6870 H   0  0  0  0  0  0  0  0  0  0  0  0  # atno 8010 bound_to 7997
  139.7445  144.7002  151.0524 H   0  0  0  0  0  0  0  0  0  0  0  0  # atno 10167 bound_to 10162
  156.0921  130.4198  150.0995 H   0  0  0  0  0  0  0  0  0  0  0  0  # atno 10718 bound_to 10713
  154.5828  135.2838  155.0715 H   0  0  0  0  0  0  0  0  0  0  0  0  # atno 10763 bound_to 10752
  154.2044  135.6419  153.5100 H   0  0  0  0  0  0  0  0  0  0  0  0  # atno 10764 bound_to 10752
  153.0094  135.5477  154.6488 H   0  0  0  0  0  0  0  0  0  0  0  0  # atno 10765 bound_to 10752
  141.1265  133.8409  157.1119 H   0  0  0  0  0  0  0  0  0  0  0  0  # atno 11005 bound_to 11000
  145.0487  140.9001  143.5008 LP  0  0  0  0  0  0  0  0  0  0  0  0  # atno 17320 bound_to 7965
  145.1204  139.2697  143.5591 LP  0  0  0  0  0  0  0  0  0  0  0  0  # atno 17321 bound_to 7965
  140.7790  143.4883  150.9927 LP  0  0  0  0  0  0  0  0  0  0  0  0  # atno 17342 bound_to 10162
  139.8571  143.7362  152.3175 LP  0  0  0  0  0  0  0  0  0  0  0  0  # atno 17343 bound_to 10162
  156.9003  130.9618  151.3577 LP  0  0  0  0  0  0  0  0  0  0  0  0  # atno 17370 bound_to 10713
  157.6073  130.8556  149.8895 LP  0  0  0  0  0  0  0  0  0  0  0  0  # atno 17371 bound_to 10713
  140.0269  134.9919  157.0705 LP  0  0  0  0  0  0  0  0  0  0  0  0  # atno 17394 bound_to 11000
  140.4347  134.1743  155.7170 LP  0  0  0  0  0  0  0  0  0  0  0  0  # atno 17395 bound_to 11000

$$$$
