#       Name:                AV-unprocessed.smi:1616
#       Creating user name   scv26
#       Creation time:       Fri Mar 27 07:14:34 2020


#       File generated by GOLD software.
#

@<TRIPOS>MOLECULE
AV-unprocessed.smi:1616
    44    45     1
SMALL
NO_CHARGES


@<TRIPOS>ATOM
      1 ****        -4.5128   1.0614   1.7912 C.3            1 S1                 0.0000
      2 ****        -3.3355   0.1302   1.6835 C.2            1 S1                 0.0000
      3 ****        -2.1771   0.6764   1.5097 N.2            1 S1                 0.0000
      4 ****        -1.0319  -0.0874   1.3917 N.am           1 S1                 0.0000
      5 ****         0.1933   0.6967   1.1775 C.3            1 S1                 0.0000
      6 ****         0.6374   0.7389  -0.2920 C.2            1 S1                 0.0000
      7 ****        -0.1791   0.5858  -1.2015 O.2            1 S1                 0.0000
      8 ****         1.9419   0.9712  -0.5047 N.am           1 S1                 0.0000
      9 ****         2.5893   1.0510  -1.8105 C.3            1 S1                 0.0000
     10 ****         2.4559   2.4759  -2.3708 C.3            1 S1                 0.0000
     11 ****         4.0438   0.6226  -1.7622 C.3            1 S1                 0.0000
     12 ****         4.7577   0.1451  -3.0043 C.3            1 S1                 0.0000
     13 ****         4.4333  -0.8300  -1.8946 C.3            1 S1                 0.0000
     14 ****        -0.9977  -1.4500   1.4523 C.2            1 S1                 0.0000
     15 ****         0.0489  -2.0915   1.3465 O.2            1 S1                 0.0000
     16 ****        -2.3133  -2.0618   1.6515 C.2            1 S1                 0.0000
     17 ****        -2.3227  -3.4877   1.7156 C.1            1 S1                 0.0000
     18 ****        -2.3503  -4.6436   1.7725 N.1            1 S1                 0.0000
     19 ****        -3.4451  -1.3227   1.7656 C.2            1 S1                 0.0000
     20 ****        -4.8351  -1.9092   1.9718 C.3            1 S1                 0.0000
     21 ****        -4.9917   0.9682   2.7660 H              1 S1                 0.0000
     22 ****        -5.2556   0.8365   1.0256 H              1 S1                 0.0000
     23 ****        -4.2189   2.1048   1.6668 H              1 S1                 0.0000
     24 ****         0.0473   1.7246   1.5140 H              1 S1                 0.0000
     25 ****         1.0017   0.2997   1.7946 H              1 S1                 0.0000
     26 ****         2.5366   1.0900   0.3025 H              1 S1                 0.0000
     27 ****         2.0765   0.3720  -2.4945 H              1 S1                 0.0000
     28 ****         2.9061   2.5508  -3.3611 H              1 S1                 0.0000
     29 ****         2.9493   3.2038  -1.7257 H              1 S1                 0.0000
     30 ****         1.4099   2.7694  -2.4654 H              1 S1                 0.0000
     31 ****         4.6474   1.2132  -1.0752 H              1 S1                 0.0000
     32 ****         4.1810   0.0681  -3.9239 H              1 S1                 0.0000
     33 ****         5.7983   0.4370  -3.1293 H              1 S1                 0.0000
     34 ****         5.2571  -1.1865  -1.2797 H              1 S1                 0.0000
     35 ****         3.6409  -1.5535  -2.0772 H              1 S1                 0.0000
     36 ****        -4.8134  -2.9928   2.0840 H              1 S1                 0.0000
     37 ****        -5.4754  -1.6791   1.1199 H              1 S1                 0.0000
     38 ****        -5.2969  -1.4991   2.8704 H              1 S1                 0.0000
     39 ****        -2.1083   1.6728   1.4596 LP             1 S1                 0.0000
     40 ****        -1.1436   0.4319  -0.9869 LP             1 S1                 0.0000
     41 ****         0.1225   0.6154  -2.1545 LP             1 S1                 0.0000
     42 ****         0.9167  -1.6135   1.2105 LP             1 S1                 0.0000
     43 ****         0.0305  -3.0900   1.3966 LP             1 S1                 0.0000
     44 ****        -2.3742  -5.6421   1.8216 LP             1 S1                 0.0000
@<TRIPOS>BOND
    1    1    2 1     
    2    1   21 1     
    3    1   22 1     
    4    1   23 1     
    5    2   19 1     
    6    2    3 2     
    7    3    4 1     
    8    4    5 1     
    9    4   14 am    
   10    5    6 1     
   11    5   24 1     
   12    5   25 1     
   13    6    7 2     
   14    6    8 am    
   15    8    9 1     
   16    8   26 1     
   17    9   10 1     
   18    9   11 1     
   19    9   27 1     
   20   10   28 1     
   21   10   29 1     
   22   10   30 1     
   23   11   13 1     
   24   11   12 1     
   25   11   31 1     
   26   12   13 1     
   27   12   32 1     
   28   12   33 1     
   29   13   34 1     
   30   13   35 1     
   31   14   15 2     
   32   14   16 1     
   33   16   17 1     
   34   16   19 2     
   35   17   18 3     
   36   19   20 1     
   37   20   36 1     
   38   20   37 1     
   39   20   38 1     
   40    3   39 1     
   41    7   40 1     
   42    7   41 1     
   43   15   42 1     
   44   15   43 1     
   45   18   44 1     
@<TRIPOS>SUBSTRUCTURE
      1 S1             1
@<TRIPOS>SET
LONE_PAIRS      STATIC     ATOMS    <user>   **** ""
6 39 40 41 42 43 44
DONOR_HYDROGENS      STATIC     ATOMS    <user>   **** ""
1 26
ATOM$BLUE        STATIC     ATOMS    COLORGROUP SYSTEM
6 39 40 41 42 43 44
ATOM$RED        STATIC     ATOMS    COLORGROUP SYSTEM
1 26
