AV-unprocessed.smi:153|AV-procd|sdf|1253|dock2
  -GOLD-   2262018483D 1   1.00000     0.00000
 Structure written by MMmdl.
 60 63  0  0  0  0  0  0  0  0  2 V2000
  150.9914  139.2720  157.8656 C   0  0  0  0  0  0  0  0  0  0  0  0
  150.0864  140.4844  157.5939 C   0  0  1  0  0  0  0  0  0  0  0  0
  150.3675  141.3977  158.6570 O   0  0  0  0  0  0  0  0  0  0  0  0
  150.5882  142.7046  158.1515 C   0  0  0  0  0  0  0  0  0  0  0  0
  151.1582  142.4615  156.7621 C   0  0  0  0  0  0  0  0  0  0  0  0
  150.3496  141.2671  156.2770 C   0  0  2  0  0  0  0  0  0  0  0  0
  149.1072  141.7652  155.8099 O   0  0  0  0  0  0  0  0  0  0  0  0
  151.0403  140.5234  155.0995 C   0  0  0  0  0  0  0  0  0  0  0  0
  150.8703  139.0730  155.0741 N   0  0  0  0  0  0  0  0  0  0  0  0
  151.8482  138.1066  154.9843 C   0  0  0  0  0  0  0  0  0  0  0  0
  151.4198  136.8753  155.0124 N   0  0  0  0  0  0  0  0  0  0  0  0
  150.0418  136.9881  155.1537 C   0  0  0  0  0  0  0  0  0  0  0  0
  148.9651  136.0565  155.2694 C   0  0  0  0  0  0  0  0  0  0  0  0
  149.0994  134.7022  155.2401 N   0  0  0  0  0  0  0  0  0  0  0  0
  150.4273  134.1109  155.1333 C   0  0  0  0  0  0  0  0  0  0  0  0
  147.9879  133.8499  155.6685 C   0  0  0  0  0  0  0  0  0  0  0  0
  147.1846  133.2760  154.4835 C   0  0  2  0  0  0  0  0  0  0  0  0
  146.1370  132.4989  155.0281 O   0  0  0  0  0  0  0  0  0  0  0  0
  148.0293  132.3725  153.5571 C   0  0  0  0  0  0  0  0  0  0  0  0
  147.3182  132.0038  152.3073 N   0  3  0  0  0  0  0  0  0  0  0  0
  146.3404  130.9016  152.4889 C   0  0  0  0  0  0  0  0  0  0  0  0
  145.6672  130.5546  151.1503 C   0  0  0  0  0  0  0  0  0  0  0  0
  145.0432  131.7145  150.6143 O   0  0  0  0  0  0  0  0  0  0  0  0
  145.9820  132.7498  150.3521 C   0  0  0  0  0  0  0  0  0  0  0  0
  146.6670  133.1695  151.6636 C   0  0  0  0  0  0  0  0  0  0  0  0
  147.7199  136.5721  155.4438 N   0  0  0  0  0  0  0  0  0  0  0  0
  147.5277  137.8926  155.4894 C   0  0  0  0  0  0  0  0  0  0  0  0
  148.4298  138.8683  155.3891 N   0  0  0  0  0  0  0  0  0  0  0  0
  149.6865  138.3668  155.2198 C   0  0  0  0  0  0  0  0  0  0  0  0
  150.7534  138.4354  157.2129 H   0  0  0  0  0  0  0  0  0  0  0  0
  150.8582  138.9159  158.8875 H   0  0  0  0  0  0  0  0  0  0  0  0
  152.0453  139.5208  157.7389 H   0  0  0  0  0  0  0  0  0  0  0  0
  149.0444  140.1672  157.6602 H   0  0  0  0  0  0  0  0  0  0  0  0
  149.6374  143.2367  158.0963 H   0  0  0  0  0  0  0  0  0  0  0  0
  151.2624  143.2736  158.7916 H   0  0  0  0  0  0  0  0  0  0  0  0
  151.0874  143.3344  156.1119 H   0  0  0  0  0  0  0  0  0  0  0  0
  152.2124  142.1946  156.8490 H   0  0  0  0  0  0  0  0  0  0  0  0
  149.1318  142.7092  155.8419 H   0  0  0  0  0  0  0  0  0  0  0  0
  150.6767  140.9154  154.1487 H   0  0  0  0  0  0  0  0  0  0  0  0
  152.1085  140.7405  155.1146 H   0  0  0  0  0  0  0  0  0  0  0  0
  152.9008  138.3312  154.9015 H   0  0  0  0  0  0  0  0  0  0  0  0
  151.0284  134.6330  154.3881 H   0  0  0  0  0  0  0  0  0  0  0  0
  150.3590  133.0666  154.8278 H   0  0  0  0  0  0  0  0  0  0  0  0
  150.9452  134.1467  156.0920 H   0  0  0  0  0  0  0  0  0  0  0  0
  148.3151  133.0467  156.3291 H   0  0  0  0  0  0  0  0  0  0  0  0
  147.3291  134.4692  156.2788 H   0  0  0  0  0  0  0  0  0  0  0  0
  146.7335  134.0993  153.9309 H   0  0  0  0  0  0  0  0  0  0  0  0
  146.3039  131.5869  154.8471 H   0  0  0  0  0  0  0  0  0  0  0  0
  148.9652  132.8555  153.2790 H   0  0  0  0  0  0  0  0  0  0  0  0
  148.3107  131.4735  154.1085 H   0  0  0  0  0  0  0  0  0  0  0  0
  146.8313  130.0138  152.8856 H   0  0  0  0  0  0  0  0  0  0  0  0
  145.5837  131.1980  153.2172 H   0  0  0  0  0  0  0  0  0  0  0  0
  146.3935  130.1551  150.4407 H   0  0  0  0  0  0  0  0  0  0  0  0
  144.9108  129.7839  151.2992 H   0  0  0  0  0  0  0  0  0  0  0  0
  146.7162  132.4147  149.6175 H   0  0  0  0  0  0  0  0  0  0  0  0
  145.4580  133.5993  149.9135 H   0  0  0  0  0  0  0  0  0  0  0  0
  145.9339  133.6025  152.3461 H   0  0  0  0  0  0  0  0  0  0  0  0
  147.4095  133.9413  151.4574 H   0  0  0  0  0  0  0  0  0  0  0  0
  146.5050  138.2128  155.6241 H   0  0  0  0  0  0  0  0  0  0  0  0
  148.0199  131.6790  151.6578 H   0  0  0  0  0  0  0  0  0  0  0  0
  1  2  1  0  0  0  0
  1 30  1  0  0  0  0
  1 31  1  0  0  0  0
  1 32  1  0  0  0  0
  2  6  1  0  0  0  0
  2  3  1  0  0  0  0
  2 33  1  0  0  0  0
  3  4  1  0  0  0  0
  4  5  1  0  0  0  0
  4 34  1  0  0  0  0
  4 35  1  0  0  0  0
  5  6  1  0  0  0  0
  5 36  1  0  0  0  0
  5 37  1  0  0  0  0
  6  7  1  0  0  0  0
  6  8  1  0  0  0  0
  7 38  1  0  0  0  0
  8  9  1  0  0  0  0
  8 39  1  0  0  0  0
  8 40  1  0  0  0  0
  9 29  1  0  0  0  0
  9 10  1  0  0  0  0
 10 11  2  0  0  0  0
 10 41  1  0  0  0  0
 11 12  1  0  0  0  0
 12 29  2  0  0  0  0
 12 13  1  0  0  0  0
 13 14  1  0  0  0  0
 13 26  2  0  0  0  0
 14 15  1  0  0  0  0
 14 16  1  0  0  0  0
 15 42  1  0  0  0  0
 15 43  1  0  0  0  0
 15 44  1  0  0  0  0
 16 17  1  0  0  0  0
 16 45  1  0  0  0  0
 16 46  1  0  0  0  0
 17 18  1  0  0  0  0
 17 19  1  0  0  0  0
 17 47  1  0  0  0  0
 18 48  1  0  0  0  0
 19 20  1  0  0  0  0
 19 49  1  0  0  0  0
 19 50  1  0  0  0  0
 20 25  1  0  0  0  0
 20 21  1  0  0  0  0
 20 60  1  0  0  0  0
 21 22  1  0  0  0  0
 21 51  1  0  0  0  0
 21 52  1  0  0  0  0
 22 23  1  0  0  0  0
 22 53  1  0  0  0  0
 22 54  1  0  0  0  0
 23 24  1  0  0  0  0
 24 25  1  0  0  0  0
 24 55  1  0  0  0  0
 24 56  1  0  0  0  0
 25 57  1  0  0  0  0
 25 58  1  0  0  0  0
 26 27  1  0  0  0  0
 27 28  2  0  0  0  0
 27 59  1  0  0  0  0
 28 29  1  0  0  0  0
M  CHG  1  20   1
M  END
> <s_m_source_file>
AV-unprocessed.smi

> <i_m_source_file_index>
153

> <i_lp_mmshare_version>
43012

> <i_f3d_flags>
0

> <s_epik_input>
W0NIMl0xW0NIMl1PW0NAQEhdKFtDSDNdKVtDQEBdMShbT0hdKVtDSDJdbihbY0hdbjIpYyhjMjMpbltjSF1uYzNOKFtDSDNdKVtDSDJdW0NASF0oW09IXSlbQ0gyXU40W0NIMl1bQ0gyXU9bQ0gyXVtDSDJdNA==

> <s_epik_cmdline>
J2VwaWtfcHl0aG9uJywgJy1waCcsICc3LjAnLCAnLXRuJywgJzgnLCAnLW1hJywgJzIwMCcsICctbWV0YWxfYmluZGluZycsICctaW1hZScsICc8aW5maWxlLm1hZT4nLCAnLW9tYWUnLCAnPG91dGZpbGUubWFlPic=

> <r_lp_tautomer_probability>
1

> <r_epik_Ionization_Penalty>
0.403509

> <r_epik_Ionization_Penalty_Charging>
0.40072

> <r_epik_Ionization_Penalty_Neutral>
0.00278876

> <r_epik_State_Penalty>
0.400058

> <r_epik_Charging_Adjusted_Penalty>
0.800778

> <i_epik_Tot_Q>
1

> <i_epik_Tot_abs_Q>
1

> <r_epik_Metal_State_Penalty>
0.400321

> <b_epik_Metal_Only>
0

> <s_lp_Force_Field>
OPLS_2005

> <r_lp_Energy>
47.2205

> <b_lp_Chiralities_Consistent>
1

> <s_lp_Variant>
AV-unprocessed.smi:153-4

> <Gold.Version>
5.8.1

> <Gold.Id.Protein>
6NUR|6NUR_protein|mol2

> <Gold.PLP.Fitness>
44.6367

> <Gold.PLP.PLP>
-37.5016

> <Gold.PLP.part.hbond>
-3.0271

> <Gold.PLP.part.metal>
0.0000

> <Gold.PLP.part.buried>
-4.9252

> <Gold.PLP.part.nonpolar>
-30.4486

> <Gold.PLP.part.repulsive>
0.3706

> <Gold.PLP.ligand.clash>
0.0000

> <Gold.PLP.ligand.torsion>
1.3485

> <Gold.PLP.Chemscore.Hbond>
3.0000

> <Gold.PLP.Chemscore.CHOScore>
0.0000

> <Gold.PLP.Chemscore.Metal>
0.0000

> <Gold.Chemscore.Hbonds>
donor molecule, donor type, donor heavy atom, donor atom, acceptor molecule, acceptor atom, score
      L1  H     7    38       P1  8028  0.99
      L1  H    20    60       P1 10747  1.00
      P1  H 10752 10763       L1    11  1.00

> <Gold.PLP.Chemscore.Internal.Correction>
0.8321

> <Gold.Rescore>
     Score         DG    S(hbond)    S(metal)    S(lipo)     H(rot)  DE(clash)    DE(int)     intcor
      9.53     -16.03       2.64        0.00      94.05       3.62       1.58       4.92       ----

> <Gold.Chemscore.Fitness>
9.5281

> <Gold.Chemscore.DG>
-16.0344

> <Gold.Chemscore.ZeroCoef>
-5.4800

> <Gold.Chemscore.Hbond>
2.6385

> <Gold.Chemscore.Metal>
0.0000

> <Gold.Chemscore.Lipo>
94.0535

> <Gold.Chemscore.Internal_Hbond>
0.0000

> <Gold.Chemscore.DEClash>
1.5839

> <Gold.Chemscore.DEInternal>
4.9225

> <Gold.Chemscore.Rot>
3.6182

> <Gold.Chemscore.Internal.Correction>
   9.000000E+99

> <Gold.Chemscore.Hbonds>
donor molecule, donor type, donor heavy atom, donor atom, acceptor molecule, acceptor atom, score
      L1  H     7    38       P1  8028  0.92
      L1  H    20    60       P1 10747  1.00
      P1  H 10752 10763       L1    11  0.69

> <Gold.Chemscore.Hbond.Weighted>
-8.8126

> <Gold.Chemscore.Metal.Weighted>
-0.0000

> <Gold.Chemscore.Lipo.Weighted>
-11.0043

> <Gold.Chemscore.Internal_Hbond.Weighted>
0.0000

> <Gold.Chemscore.DEClash.Weighted>
1.5839

> <Gold.Chemscore.DEInternal.Weighted>
4.9225

> <Gold.Chemscore.Rot.Weighted>
9.2625

> <Gold.Chemscore.Internal.Correction.Weighted>
   9.000000E+99

> <Gold.Protein.RotatedTorsions>
[ 6907 6896 6895 6894 ] final   19.49 input  -60.11 | X-H torsion
[ 7974 7965 7964 7962 ] final -139.87 input  175.53 | X-H torsion
[ 8008 7997 7996 7995 ] final  157.04 input   59.86 | X-H torsion
[ 10167 10162 10161 10158 ] final   89.83 input  -65.29 | X-H torsion
[ 10718 10713 10712 10709 ] final  -43.33 input   66.30 | X-H torsion
[ 10763 10752 10751 10750 ] final   55.50 input  -60.55 | X-H torsion
[ 11005 11000 10999 10996 ] final -101.27 input  -57.11 | X-H torsion

> <Gold.Protein.ActiveResidues>
 VAL166  LYS551  ARG553  GLY616  TRP617  ASP618  TYR619  PRO620  LYS621  CYS622 
 ASP623  PHE694  ASN695  SER759  ASP760  ASP761  ALA762  ILE779  LEU786  VAL792 
 PHE793  MET794  SER795  GLU796  ALA797  LYS798  CYS799  TRP800  GLU811  SER814 

> <Gold.Protein.RotatedAtoms>
  151.8816  135.0451  160.0489 H   0  0  0  0  0  0  0  0  0  0  0  0  # atno 6907 bound_to 6896
  152.2508  133.5209  159.5332 H   0  0  0  0  0  0  0  0  0  0  0  0  # atno 6908 bound_to 6896
  150.7083  134.0879  159.3963 H   0  0  0  0  0  0  0  0  0  0  0  0  # atno 6909 bound_to 6896
  144.8642  140.6267  143.5308 H   0  0  0  0  0  0  0  0  0  0  0  0  # atno 7974 bound_to 7965
  156.2387  140.1896  156.7048 H   0  0  0  0  0  0  0  0  0  0  0  0  # atno 8008 bound_to 7997
  154.6156  140.0616  156.9576 H   0  0  0  0  0  0  0  0  0  0  0  0  # atno 8009 bound_to 7997
  155.1945  140.3287  155.4355 H   0  0  0  0  0  0  0  0  0  0  0  0  # atno 8010 bound_to 7997
  139.8533  144.6582  150.9144 H   0  0  0  0  0  0  0  0  0  0  0  0  # atno 10167 bound_to 10162
  156.2501  130.4187  149.8659 H   0  0  0  0  0  0  0  0  0  0  0  0  # atno 10718 bound_to 10713
  152.9818  135.5708  154.5076 H   0  0  0  0  0  0  0  0  0  0  0  0  # atno 10763 bound_to 10752
  154.4586  135.2781  155.1732 H   0  0  0  0  0  0  0  0  0  0  0  0  # atno 10764 bound_to 10752
  154.3329  135.6245  153.5613 H   0  0  0  0  0  0  0  0  0  0  0  0  # atno 10765 bound_to 10752
  141.1238  133.8464  157.1210 H   0  0  0  0  0  0  0  0  0  0  0  0  # atno 11005 bound_to 11000
  145.4253  139.1557  143.4051 LP  0  0  0  0  0  0  0  0  0  0  0  0  # atno 17320 bound_to 7965
  146.2883  140.4366  142.8749 LP  0  0  0  0  0  0  0  0  0  0  0  0  # atno 17321 bound_to 7965
  140.7785  143.3808  151.1480 LP  0  0  0  0  0  0  0  0  0  0  0  0  # atno 17342 bound_to 10162
  139.7444  143.8875  152.3059 LP  0  0  0  0  0  0  0  0  0  0  0  0  # atno 17343 bound_to 10162
  156.6211  130.8626  151.3475 LP  0  0  0  0  0  0  0  0  0  0  0  0  # atno 17370 bound_to 10713
  157.7211  130.9560  150.1442 LP  0  0  0  0  0  0  0  0  0  0  0  0  # atno 17371 bound_to 10713
  140.0217  134.9943  157.0605 LP  0  0  0  0  0  0  0  0  0  0  0  0  # atno 17394 bound_to 11000
  140.4429  134.1662  155.7175 LP  0  0  0  0  0  0  0  0  0  0  0  0  # atno 17395 bound_to 11000

$$$$
