#       Name:                AV-unprocessed.smi:1961
#       Creating user name   scv26
#       Creation time:       Fri Mar 27 10:08:53 2020


#       File generated by GOLD software.
#

@<TRIPOS>MOLECULE
AV-unprocessed.smi:1961
    42    43     1
SMALL
NO_CHARGES


@<TRIPOS>ATOM
      1 ****        -6.5760  -0.4054   0.5931 C.3            1 S1                 0.0000
      2 ****        -5.5184  -0.5121  -0.5150 C.3            1 S1                 0.0000
      3 ****        -5.8295  -1.6101  -1.5425 C.3            1 S1                 0.0000
      4 ****        -4.1324  -0.6327   0.0374 C.2            1 S1                 0.0000
      5 ****        -3.7249  -1.6752   0.7682 N.2            1 S1                 0.0000
      6 ****        -2.4002  -1.5545   1.1613 N.2            1 S1                 0.0000
      7 ****        -1.8204  -0.4304   0.7177 C.2            1 S1                 0.0000
      8 ****        -0.5417  -0.1223   0.9907 N.pl3          1 S1                -1.0000
      9 ****         0.4216  -0.3588   0.0711 C.2            1 S1                 0.0000
     10 ****         0.2604  -0.8594  -1.0446 O.2            1 S1                 0.0000
     11 ****         1.6478   0.0089   0.4647 N.am           1 S1                 0.0000
     12 ****         2.8578  -0.1241  -0.3352 C.3            1 S1                 0.0000
     13 ****         4.0789   0.3993   0.4335 C.3            1 S1                 0.0000
     14 ****         5.3978   0.2170  -0.3158 C.3            1 S1                 0.0000
     15 ****         6.2511   1.3032   0.2975 C.3            1 S1                 0.0000
     16 ****         5.2405   2.4334   0.4677 C.3            1 S1                 0.0000
     17 ****         3.9750   1.8047   0.6542 O.3            1 S1                 0.0000
     18 ****        -2.9034   0.5946  -0.2230 S.3            1 S1                 0.0000
     19 ****        -6.3693   0.4388   1.2518 H              1 S1                 0.0000
     20 ****        -6.6008  -1.3076   1.2052 H              1 S1                 0.0000
     21 ****        -7.5719  -0.2612   0.1737 H              1 S1                 0.0000
     22 ****        -5.5500   0.4328  -1.0592 H              1 S1                 0.0000
     23 ****        -5.1046  -1.6003  -2.3571 H              1 S1                 0.0000
     24 ****        -6.8188  -1.4709  -1.9787 H              1 S1                 0.0000
     25 ****        -5.8040  -2.6001  -1.0859 H              1 S1                 0.0000
     26 ****         1.7445   0.4188   1.3822 H              1 S1                 0.0000
     27 ****         3.0031  -1.1759  -0.5863 H              1 S1                 0.0000
     28 ****         2.7395   0.4197  -1.2737 H              1 S1                 0.0000
     29 ****         4.1528  -0.0898   1.4064 H              1 S1                 0.0000
     30 ****         5.8213  -0.7805  -0.1952 H              1 S1                 0.0000
     31 ****         5.2653   0.4064  -1.3821 H              1 S1                 0.0000
     32 ****         6.6239   0.9816   1.2707 H              1 S1                 0.0000
     33 ****         7.1037   1.5826  -0.3219 H              1 S1                 0.0000
     34 ****         5.4876   3.0877   1.3040 H              1 S1                 0.0000
     35 ****         5.1931   3.0421  -0.4362 H              1 S1                 0.0000
     36 ****        -4.3079  -2.4526   1.0043 LP             1 S1                 0.0000
     37 ****        -1.9263  -2.2363   1.7186 LP             1 S1                 0.0000
     38 ****        -0.3021   0.2818   1.8735 LP             1 S1                 0.0000
     39 ****        -0.6541  -1.1331  -1.3424 LP             1 S1                 0.0000
     40 ****         1.0443  -0.9916  -1.6513 LP             1 S1                 0.0000
     41 ****         3.6605   1.9688   1.5892 LP             1 S1                 0.0000
     42 ****         3.3168   2.1916   0.0084 LP             1 S1                 0.0000
@<TRIPOS>BOND
    1    1    2 1     
    2    1   19 1     
    3    1   20 1     
    4    1   21 1     
    5    2    3 1     
    6    2    4 1     
    7    2   22 1     
    8    3   23 1     
    9    3   24 1     
   10    3   25 1     
   11    4   18 1     
   12    4    5 2     
   13    5    6 1     
   14    6    7 2     
   15    7    8 1     
   16    7   18 1     
   17    8    9 1     
   18    9   10 2     
   19    9   11 am    
   20   11   12 1     
   21   11   26 1     
   22   12   13 1     
   23   12   27 1     
   24   12   28 1     
   25   13   17 1     
   26   13   14 1     
   27   13   29 1     
   28   14   15 1     
   29   14   30 1     
   30   14   31 1     
   31   15   16 1     
   32   15   32 1     
   33   15   33 1     
   34   16   17 1     
   35   16   34 1     
   36   16   35 1     
   37    5   36 1     
   38    6   37 1     
   39    8   38 1     
   40   10   39 1     
   41   10   40 1     
   42   17   41 1     
   43   17   42 1     
@<TRIPOS>SUBSTRUCTURE
      1 S1             1
@<TRIPOS>SET
LONE_PAIRS      STATIC     ATOMS    <user>   **** ""
7 36 37 38 39 40 41 42
DONOR_HYDROGENS      STATIC     ATOMS    <user>   **** ""
1 26
ATOM$BLUE        STATIC     ATOMS    COLORGROUP SYSTEM
7 36 37 38 39 40 41 42
ATOM$RED        STATIC     ATOMS    COLORGROUP SYSTEM
1 26
