#       Name:                AV-unprocessed.smi:3230
#       Creating user name   scv26
#       Creation time:       Fri Mar 27 18:18:16 2020


#       File generated by GOLD software.
#

@<TRIPOS>MOLECULE
AV-unprocessed.smi:3230
    47    47     1
SMALL
NO_CHARGES


@<TRIPOS>ATOM
      1 ****        -2.4683  -3.3993  -2.0192 C.3            1 S1                 0.0000
      2 ****        -3.0947  -2.0010  -2.1268 C.3            1 S1                 0.0000
      3 ****        -2.6219  -0.9959  -1.0456 C.3            1 S1                 0.0000
      4 ****        -3.4921   0.2877  -1.0446 C.3            1 S1                 0.0000
      5 ****        -4.9263   0.0804  -0.5348 C.3            1 S1                 0.0000
      6 ****        -1.1026  -0.6822  -1.1543 C.3            1 S1                 0.0000
      7 ****        -0.8630   0.0185  -2.3602 O.3            1 S1                 0.0000
      8 ****        -0.5603   0.1550   0.0273 C.3            1 S1                 0.0000
      9 ****         0.8305  -0.1636   0.3316 N.am           1 S1                 0.0000
     10 ****         1.8983   0.3569  -0.2931 C.2            1 S1                 0.0000
     11 ****         1.8165   1.1720  -1.2117 O.2            1 S1                 0.0000
     12 ****         3.2701  -0.1185   0.1867 C.3            1 S1                 0.0000
     13 ****         3.6760   0.6307   1.4269 C.2            1 S1                 0.0000
     14 ****         4.2533   1.9271   1.5268 C.2            1 S1                 0.0000
     15 ****         4.4177   2.1056   2.8709 C.2            1 S1                 0.0000
     16 ****         4.9635   3.2257   3.6884 C.3            1 S1                 0.0000
     17 ****         3.9815   1.0113   3.5459 O.3            1 S1                 0.0000
     18 ****         3.5118   0.0756   2.6176 N.2            1 S1                 0.0000
     19 ****        -2.9404  -4.0845  -2.7234 H              1 S1                 0.0000
     20 ****        -2.5967  -3.8143  -1.0193 H              1 S1                 0.0000
     21 ****        -1.4035  -3.3884  -2.2489 H              1 S1                 0.0000
     22 ****        -2.9131  -1.5963  -3.1229 H              1 S1                 0.0000
     23 ****        -4.1734  -2.1316  -2.0560 H              1 S1                 0.0000
     24 ****        -2.7711  -1.4805  -0.0795 H              1 S1                 0.0000
     25 ****        -3.0363   1.0449  -0.4078 H              1 S1                 0.0000
     26 ****        -3.5211   0.7205  -2.0453 H              1 S1                 0.0000
     27 ****        -5.4502   1.0342  -0.4700 H              1 S1                 0.0000
     28 ****        -4.9307  -0.3656   0.4600 H              1 S1                 0.0000
     29 ****        -5.5080  -0.5613  -1.1954 H              1 S1                 0.0000
     30 ****        -0.5484  -1.6194  -1.1896 H              1 S1                 0.0000
     31 ****         0.0587   0.2234  -2.4087 H              1 S1                 0.0000
     32 ****        -0.6915   1.2264  -0.1360 H              1 S1                 0.0000
     33 ****        -1.1222  -0.0827   0.9310 H              1 S1                 0.0000
     34 ****         0.9937  -0.8244   1.0779 H              1 S1                 0.0000
     35 ****         3.2411  -1.1939   0.3686 H              1 S1                 0.0000
     36 ****         4.0026   0.0399  -0.6055 H              1 S1                 0.0000
     37 ****         4.5050   2.6173   0.7354 H              1 S1                 0.0000
     38 ****         5.1659   4.0986   3.0676 H              1 S1                 0.0000
     39 ****         5.8948   2.9320   4.1725 H              1 S1                 0.0000
     40 ****         4.2558   3.5195   4.4639 H              1 S1                 0.0000
     41 ****        -1.3978   0.8634  -2.3717 LP             1 S1                 0.0000
     42 ****        -1.1236  -0.5515  -3.1394 LP             1 S1                 0.0000
     43 ****         0.9194   1.4796  -1.5289 LP             1 S1                 0.0000
     44 ****         2.6471   1.5267  -1.6409 LP             1 S1                 0.0000
     45 ****         3.2421   1.2707   4.1672 LP             1 S1                 0.0000
     46 ****         4.7351   0.6163   4.0712 LP             1 S1                 0.0000
     47 ****         3.1301  -0.8277   2.8135 LP             1 S1                 0.0000
@<TRIPOS>BOND
    1    1    2 1     
    2    1   19 1     
    3    1   20 1     
    4    1   21 1     
    5    2    3 1     
    6    2   22 1     
    7    2   23 1     
    8    3    4 1     
    9    3    6 1     
   10    3   24 1     
   11    4    5 1     
   12    4   25 1     
   13    4   26 1     
   14    5   27 1     
   15    5   28 1     
   16    5   29 1     
   17    6    7 1     
   18    6    8 1     
   19    6   30 1     
   20    7   31 1     
   21    8    9 1     
   22    8   32 1     
   23    8   33 1     
   24    9   10 am    
   25    9   34 1     
   26   10   11 2     
   27   10   12 1     
   28   12   13 1     
   29   12   35 1     
   30   12   36 1     
   31   13   18 2     
   32   13   14 1     
   33   14   15 2     
   34   14   37 1     
   35   15   16 1     
   36   15   17 1     
   37   16   38 1     
   38   16   39 1     
   39   16   40 1     
   40   17   18 1     
   41    7   41 1     
   42    7   42 1     
   43   11   43 1     
   44   11   44 1     
   45   17   45 1     
   46   17   46 1     
   47   18   47 1     
@<TRIPOS>SUBSTRUCTURE
      1 S1             1
@<TRIPOS>SET
LONE_PAIRS      STATIC     ATOMS    <user>   **** ""
7 41 42 43 44 45 46 47
DONOR_HYDROGENS      STATIC     ATOMS    <user>   **** ""
2 31 34
ATOM$BLUE        STATIC     ATOMS    COLORGROUP SYSTEM
7 41 42 43 44 45 46 47
ATOM$RED        STATIC     ATOMS    COLORGROUP SYSTEM
2 31 34
