AV-unprocessed.smi:1982|AV-procd|sdf|8026|dock2
  -GOLD-   2272010223D 1   1.00000     0.00000
 Structure written by MMmdl.
 36 37  0  0  0  0  0  0  0  0  1 V2000
  151.6973  145.8485  160.3960 C   0  0  0  0  0  0  0  0  0  0  0  0
  151.6086  144.3227  160.2270 C   0  0  2  0  0  0  0  0  0  0  0  0
  152.7990  143.6034  160.8929 C   0  0  0  0  0  0  0  0  0  0  0  0
  152.6494  142.0763  160.8130 C   0  0  0  0  0  0  0  0  0  0  0  0
  152.4476  141.6060  159.3652 C   0  0  0  0  0  0  0  0  0  0  0  0
  151.2554  142.3241  158.7039 C   0  0  2  0  0  0  0  0  0  0  0  0
  151.0842  141.8331  157.3396 N   0  0  0  0  0  0  0  0  0  0  0  0
  150.9300  140.5467  156.9868 C   0  0  0  0  0  0  0  0  0  0  0  0
  150.9789  139.6132  157.7869 O   0  0  0  0  0  0  0  0  0  0  0  0
  150.6737  140.2700  155.5043 C   0  0  0  0  0  0  0  0  0  0  0  0
  151.6045  139.2856  154.9824 N   0  0  0  0  0  0  0  0  0  0  0  0
  151.3958  138.0888  154.4299 C   0  0  0  0  0  0  0  0  0  0  0  0
  152.5336  137.4946  154.1055 N   0  0  0  0  0  0  0  0  0  0  0  0
  153.4917  138.4158  154.4948 N   0  0  0  0  0  0  0  0  0  0  0  0
  152.9466  139.4809  155.0153 N   0  0  0  0  0  0  0  0  0  0  0  0
  151.4155  143.8697  158.7550 C   0  0  2  0  0  0  0  0  0  0  0  0
  152.5046  144.4024  157.7938 C   0  0  0  0  0  0  0  0  0  0  0  0
  152.6198  146.2507  159.9773 H   0  0  0  0  0  0  0  0  0  0  0  0
  151.6747  146.1229  161.4511 H   0  0  0  0  0  0  0  0  0  0  0  0
  150.8594  146.3483  159.9093 H   0  0  0  0  0  0  0  0  0  0  0  0
  150.7119  144.0139  160.7668 H   0  0  0  0  0  0  0  0  0  0  0  0
  153.7344  143.9069  160.4219 H   0  0  0  0  0  0  0  0  0  0  0  0
  152.8748  143.9024  161.9389 H   0  0  0  0  0  0  0  0  0  0  0  0
  153.5278  141.5931  161.2423 H   0  0  0  0  0  0  0  0  0  0  0  0
  151.7983  141.7622  161.4183 H   0  0  0  0  0  0  0  0  0  0  0  0
  153.3596  141.7814  158.7935 H   0  0  0  0  0  0  0  0  0  0  0  0
  152.2844  140.5278  159.3551 H   0  0  0  0  0  0  0  0  0  0  0  0
  150.3618  142.0542  159.2703 H   0  0  0  0  0  0  0  0  0  0  0  0
  151.0362  142.5320  156.6127 H   0  0  0  0  0  0  0  0  0  0  0  0
  149.6557  139.9027  155.3700 H   0  0  0  0  0  0  0  0  0  0  0  0
  150.7670  141.1898  154.9249 H   0  0  0  0  0  0  0  0  0  0  0  0
  150.4194  137.6539  154.2746 H   0  0  0  0  0  0  0  0  0  0  0  0
  150.4735  144.3021  158.4137 H   0  0  0  0  0  0  0  0  0  0  0  0
  153.4979  144.0420  158.0586 H   0  0  0  0  0  0  0  0  0  0  0  0
  152.5386  145.4913  157.7920 H   0  0  0  0  0  0  0  0  0  0  0  0
  152.3118  144.1041  156.7631 H   0  0  0  0  0  0  0  0  0  0  0  0
  1  2  1  0  0  0  0
  1 18  1  0  0  0  0
  1 19  1  0  0  0  0
  1 20  1  0  0  0  0
  2 16  1  0  0  0  0
  2  3  1  0  0  0  0
  2 21  1  0  0  0  0
  3  4  1  0  0  0  0
  3 22  1  0  0  0  0
  3 23  1  0  0  0  0
  4  5  1  0  0  0  0
  4 24  1  0  0  0  0
  4 25  1  0  0  0  0
  5  6  1  0  0  0  0
  5 26  1  0  0  0  0
  5 27  1  0  0  0  0
  6  7  1  0  0  0  0
  6 16  1  0  0  0  0
  6 28  1  0  0  0  0
  7  8  1  0  0  0  0
  7 29  1  0  0  0  0
  8  9  2  0  0  0  0
  8 10  1  0  0  0  0
 10 11  1  0  0  0  0
 10 30  1  0  0  0  0
 10 31  1  0  0  0  0
 11 15  1  0  0  0  0
 11 12  1  0  0  0  0
 12 13  2  0  0  0  0
 12 32  1  0  0  0  0
 13 14  1  0  0  0  0
 14 15  2  0  0  0  0
 16 17  1  0  0  0  0
 16 33  1  0  0  0  0
 17 34  1  0  0  0  0
 17 35  1  0  0  0  0
 17 36  1  0  0  0  0
M  END
> <s_m_source_file>
AV-unprocessed.smi

> <i_m_source_file_index>
1982

> <i_lp_mmshare_version>
43012

> <i_f3d_flags>
0

> <s_epik_input>
W0NIM11bQ0BASF0xW0NIMl1bQ0gyXVtDSDJdW0NASF0oW0NASF0xW0NIM10pW05IXUMoPU8pW0NIMl1uMltjSF1ubm4y

> <s_epik_cmdline>
J2VwaWtfcHl0aG9uJywgJy1waCcsICc3LjAnLCAnLXRuJywgJzgnLCAnLW1hJywgJzIwMCcsICctbWV0YWxfYmluZGluZycsICctaW1hZScsICc8aW5maWxlLm1hZT4nLCAnLW9tYWUnLCAnPG91dGZpbGUubWFlPic=

> <r_lp_tautomer_probability>
1

> <r_epik_Ionization_Penalty>
5.03816e-07

> <r_epik_Ionization_Penalty_Charging>
0

> <r_epik_Ionization_Penalty_Neutral>
5.03816e-07

> <r_epik_State_Penalty>
-0

> <r_epik_Charging_Adjusted_Penalty>
0

> <i_epik_Tot_Q>
0

> <i_epik_Tot_abs_Q>
0

> <r_epik_Metal_State_Penalty>
-0

> <b_epik_Metal_Only>
0

> <s_lp_Force_Field>
OPLS_2005

> <r_lp_Energy>
15.5937

> <b_lp_Chiralities_Consistent>
1

> <s_lp_Variant>
AV-unprocessed.smi:1982-7

> <Gold.Version>
5.8.1

> <Gold.Id.Protein>
6NUR|6NUR_protein|mol2

> <Gold.PLP.Fitness>
45.7656

> <Gold.PLP.PLP>
-40.8205

> <Gold.PLP.part.hbond>
-3.2242

> <Gold.PLP.part.metal>
0.0000

> <Gold.PLP.part.buried>
-4.8436

> <Gold.PLP.part.nonpolar>
-32.8525

> <Gold.PLP.part.repulsive>
0.2169

> <Gold.PLP.ligand.clash>
0.0000

> <Gold.PLP.ligand.torsion>
0.0661

> <Gold.PLP.Chemscore.Hbond>
1.6880

> <Gold.PLP.Chemscore.CHOScore>
0.0000

> <Gold.PLP.Chemscore.Metal>
0.0000

> <Gold.Chemscore.Hbonds>
donor molecule, donor type, donor heavy atom, donor atom, acceptor molecule, acceptor atom, score
      P1  H  7997  8009       L1    15  1.00
      P1  H 10752 10764       L1    13  0.67

> <Gold.PLP.Chemscore.Internal.Correction>
0.0135

> <Gold.Rescore>
     Score         DG    S(hbond)    S(metal)    S(lipo)     H(rot)  DE(clash)    DE(int)     intcor
     14.18     -15.54       1.12        0.00      95.61       1.91       0.05       1.31       ----

> <Gold.Chemscore.Fitness>
14.1844

> <Gold.Chemscore.DG>
-15.5383

> <Gold.Chemscore.ZeroCoef>
-5.4800

> <Gold.Chemscore.Hbond>
1.1228

> <Gold.Chemscore.Metal>
0.0000

> <Gold.Chemscore.Lipo>
95.6140

> <Gold.Chemscore.Internal_Hbond>
0.0000

> <Gold.Chemscore.DEClash>
0.0450

> <Gold.Chemscore.DEInternal>
1.3088

> <Gold.Chemscore.Rot>
1.9058

> <Gold.Chemscore.Internal.Correction>
   9.000000E+99

> <Gold.Chemscore.Hbonds>
donor molecule, donor type, donor heavy atom, donor atom, acceptor molecule, acceptor atom, score
      P1  H  7997  8009       L1    15  0.30
      P1  H 10752 10764       L1    13  0.62

> <Gold.Chemscore.Hbond.Weighted>
-3.7503

> <Gold.Chemscore.Metal.Weighted>
-0.0000

> <Gold.Chemscore.Lipo.Weighted>
-11.1868

> <Gold.Chemscore.Internal_Hbond.Weighted>
0.0000

> <Gold.Chemscore.DEClash.Weighted>
0.0450

> <Gold.Chemscore.DEInternal.Weighted>
1.3088

> <Gold.Chemscore.Rot.Weighted>
4.8788

> <Gold.Chemscore.Internal.Correction.Weighted>
   9.000000E+99

> <Gold.Protein.RotatedTorsions>
[ 6907 6896 6895 6894 ] final -129.67 input  -60.11 | X-H torsion
[ 7974 7965 7964 7962 ] final   48.66 input  175.53 | X-H torsion
[ 8008 7997 7996 7995 ] final -146.50 input   59.86 | X-H torsion
[ 10167 10162 10161 10158 ] final   -9.71 input  -65.29 | X-H torsion
[ 10718 10713 10712 10709 ] final  122.41 input   66.30 | X-H torsion
[ 10763 10752 10751 10750 ] final  -94.70 input  -60.55 | X-H torsion
[ 11005 11000 10999 10996 ] final  125.73 input  -57.11 | X-H torsion

> <Gold.Protein.ActiveResidues>
 VAL166  LYS551  ARG553  GLY616  TRP617  ASP618  TYR619  PRO620  LYS621  CYS622 
 ASP623  PHE694  ASN695  SER759  ASP760  ASP761  ALA762  ILE779  LEU786  VAL792 
 PHE793  MET794  SER795  GLU796  ALA797  LYS798  CYS799  TRP800  GLU811  SER814 

> <Gold.Protein.RotatedAtoms>
  150.9312  133.6764  159.2810 H   0  0  0  0  0  0  0  0  0  0  0  0  # atno 6907 bound_to 6896
  151.4186  135.0993  159.9616 H   0  0  0  0  0  0  0  0  0  0  0  0  # atno 6908 bound_to 6896
  152.5027  133.8769  159.7381 H   0  0  0  0  0  0  0  0  0  0  0  0  # atno 6909 bound_to 6896
  146.0183  139.4622  142.9913 H   0  0  0  0  0  0  0  0  0  0  0  0  # atno 7974 bound_to 7965
  155.5604  140.0625  157.2830 H   0  0  0  0  0  0  0  0  0  0  0  0  # atno 8008 bound_to 7997
  154.4392  140.1887  156.0822 H   0  0  0  0  0  0  0  0  0  0  0  0  # atno 8009 bound_to 7997
  156.0451  140.3291  155.7291 H   0  0  0  0  0  0  0  0  0  0  0  0  # atno 8010 bound_to 7997
  140.7095  143.5827  150.8975 H   0  0  0  0  0  0  0  0  0  0  0  0  # atno 10167 bound_to 10162
  157.5744  131.1080  150.8306 H   0  0  0  0  0  0  0  0  0  0  0  0  # atno 10718 bound_to 10713
  154.7079  135.5148  153.8623 H   0  0  0  0  0  0  0  0  0  0  0  0  # atno 10763 bound_to 10752
  153.0757  135.6615  154.0161 H   0  0  0  0  0  0  0  0  0  0  0  0  # atno 10764 bound_to 10752
  154.0008  135.3011  155.3382 H   0  0  0  0  0  0  0  0  0  0  0  0  # atno 10765 bound_to 10752
  139.9421  134.9634  156.8602 H   0  0  0  0  0  0  0  0  0  0  0  0  # atno 11005 bound_to 11000
  145.7233  141.0067  143.1391 LP  0  0  0  0  0  0  0  0  0  0  0  0  # atno 17320 bound_to 7965
  144.6980  139.8897  143.7452 LP  0  0  0  0  0  0  0  0  0  0  0  0  # atno 17321 bound_to 7965
  139.9553  143.6225  152.3017 LP  0  0  0  0  0  0  0  0  0  0  0  0  # atno 17342 bound_to 10162
  139.6758  144.7658  151.1698 LP  0  0  0  0  0  0  0  0  0  0  0  0  # atno 17343 bound_to 10162
  156.8769  130.5165  149.5293 LP  0  0  0  0  0  0  0  0  0  0  0  0  # atno 17370 bound_to 10713
  156.0789  130.5804  150.9526 LP  0  0  0  0  0  0  0  0  0  0  0  0  # atno 17371 bound_to 10713
  140.5926  134.0247  155.7505 LP  0  0  0  0  0  0  0  0  0  0  0  0  # atno 17394 bound_to 11000
  141.1059  133.9694  157.2998 LP  0  0  0  0  0  0  0  0  0  0  0  0  # atno 17395 bound_to 11000

$$$$
