AV-unprocessed.smi:1995|AV-procd|sdf|8078|dock1
  -GOLD-   2272010293D 1   1.00000     0.00000
 Structure written by MMmdl.
 43 44  0  0  0  0  0  0  0  0  2 V2000
  144.7536  140.9293  155.8956 C   0  0  0  0  0  0  0  0  0  0  0  0
  146.2861  140.8522  155.7776 C   0  0  0  0  0  0  0  0  0  0  0  0
  146.8740  141.0518  154.3468 C   0  0  1  0  0  0  0  0  0  0  0  0
  146.4587  142.4492  153.8178 C   0  0  0  0  0  0  0  0  0  0  0  0
  148.4336  141.0169  154.4138 C   0  0  0  0  0  0  0  0  0  0  0  0
  149.0132  141.9882  155.3435 N   0  0  0  0  0  0  0  0  0  0  0  0
  149.9156  141.7149  156.2969 C   0  0  0  0  0  0  0  0  0  0  0  0
  150.3516  140.5847  156.5151 O   0  0  0  0  0  0  0  0  0  0  0  0
  150.2675  142.8268  156.9659 N   0  0  0  0  0  0  0  0  0  0  0  0
  151.1704  142.9454  158.0552 C   0  0  0  0  0  0  0  0  0  0  0  0
  151.6317  144.1085  158.5300 N   0  0  0  0  0  0  0  0  0  0  0  0
  152.5070  143.9261  159.6038 C   0  0  0  0  0  0  0  0  0  0  0  0
  152.7047  142.6083  159.9329 C   0  0  0  0  0  0  0  0  0  0  0  0
  151.7933  141.5373  158.9023 S   0  0  0  0  0  0  0  0  0  0  0  0
  146.3713  139.9859  153.4026 N   0  3  0  0  0  0  0  0  0  0  0  0
  147.0939  139.8803  152.1033 C   0  0  0  0  0  0  0  0  0  0  0  0
  146.3540  138.9243  151.1539 C   0  0  0  0  0  0  0  0  0  0  0  0
  146.2415  137.6454  151.7621 O   0  0  0  0  0  0  0  0  0  0  0  0
  145.4906  137.6989  152.9670 C   0  0  0  0  0  0  0  0  0  0  0  0
  146.1893  138.6231  153.9791 C   0  0  0  0  0  0  0  0  0  0  0  0
  144.4469  140.7875  156.9321 H   0  0  0  0  0  0  0  0  0  0  0  0
  144.2596  140.1565  155.3075 H   0  0  0  0  0  0  0  0  0  0  0  0
  144.3673  141.8973  155.5780 H   0  0  0  0  0  0  0  0  0  0  0  0
  146.6973  141.5978  156.4574 H   0  0  0  0  0  0  0  0  0  0  0  0
  146.5943  139.8858  156.1752 H   0  0  0  0  0  0  0  0  0  0  0  0
  147.0053  143.2499  154.3166 H   0  0  0  0  0  0  0  0  0  0  0  0
  145.4003  142.6531  153.9810 H   0  0  0  0  0  0  0  0  0  0  0  0
  146.6546  142.5512  152.7501 H   0  0  0  0  0  0  0  0  0  0  0  0
  148.7909  140.0158  154.6603 H   0  0  0  0  0  0  0  0  0  0  0  0
  148.8581  141.2238  153.4313 H   0  0  0  0  0  0  0  0  0  0  0  0
  148.7256  142.9493  155.2306 H   0  0  0  0  0  0  0  0  0  0  0  0
  149.8425  143.6903  156.6619 H   0  0  0  0  0  0  0  0  0  0  0  0
  152.9461  144.7925  160.0763 H   0  0  0  0  0  0  0  0  0  0  0  0
  153.3287  142.2045  160.7162 H   0  0  0  0  0  0  0  0  0  0  0  0
  147.1810  140.8479  151.6130 H   0  0  0  0  0  0  0  0  0  0  0  0
  148.1066  139.5091  152.2628 H   0  0  0  0  0  0  0  0  0  0  0  0
  145.3660  139.3121  150.8999 H   0  0  0  0  0  0  0  0  0  0  0  0
  146.9059  138.8213  150.2194 H   0  0  0  0  0  0  0  0  0  0  0  0
  144.4755  138.0432  152.7622 H   0  0  0  0  0  0  0  0  0  0  0  0
  145.4077  136.6910  153.3743 H   0  0  0  0  0  0  0  0  0  0  0  0
  147.1545  138.1971  154.2537 H   0  0  0  0  0  0  0  0  0  0  0  0
  145.5782  138.6428  154.8792 H   0  0  0  0  0  0  0  0  0  0  0  0
  145.4385  140.2900  153.1628 H   0  0  0  0  0  0  0  0  0  0  0  0
  1  2  1  0  0  0  0
  1 21  1  0  0  0  0
  1 22  1  0  0  0  0
  1 23  1  0  0  0  0
  2  3  1  0  0  0  0
  2 24  1  0  0  0  0
  2 25  1  0  0  0  0
  3  4  1  0  0  0  0
  3  5  1  0  0  0  0
  3 15  1  0  0  0  0
  4 26  1  0  0  0  0
  4 27  1  0  0  0  0
  4 28  1  0  0  0  0
  5  6  1  0  0  0  0
  5 29  1  0  0  0  0
  5 30  1  0  0  0  0
  6  7  1  0  0  0  0
  6 31  1  0  0  0  0
  7  8  2  0  0  0  0
  7  9  1  0  0  0  0
  9 10  1  0  0  0  0
  9 32  1  0  0  0  0
 10 14  1  0  0  0  0
 10 11  2  0  0  0  0
 11 12  1  0  0  0  0
 12 13  2  0  0  0  0
 12 33  1  0  0  0  0
 13 14  1  0  0  0  0
 13 34  1  0  0  0  0
 15 20  1  0  0  0  0
 15 16  1  0  0  0  0
 15 43  1  0  0  0  0
 16 17  1  0  0  0  0
 16 35  1  0  0  0  0
 16 36  1  0  0  0  0
 17 18  1  0  0  0  0
 17 37  1  0  0  0  0
 17 38  1  0  0  0  0
 18 19  1  0  0  0  0
 19 20  1  0  0  0  0
 19 39  1  0  0  0  0
 19 40  1  0  0  0  0
 20 41  1  0  0  0  0
 20 42  1  0  0  0  0
M  CHG  1  15   1
M  END
> <s_m_source_file>
AV-unprocessed.smi

> <i_m_source_file_index>
1995

> <i_lp_mmshare_version>
43012

> <i_f3d_flags>
0

> <s_epik_input>
W0NIMl0xW0NIMl1PW0NIMl1bQ0gyXU4xW0NAQF0oW0NIM10pKFtDSDJdW0NIM10pW0NIMl1bTkhdQyg9TylbTkhdYzJuW2NIXVtjSF1zMg==

> <s_epik_cmdline>
J2VwaWtfcHl0aG9uJywgJy1waCcsICc3LjAnLCAnLXRuJywgJzgnLCAnLW1hJywgJzIwMCcsICctbWV0YWxfYmluZGluZycsICctaW1hZScsICc8aW5maWxlLm1hZT4nLCAnLW9tYWUnLCAnPG91dGZpbGUubWFlPic=

> <r_lp_tautomer_probability>
0.999

> <r_epik_Ionization_Penalty>
0.55406

> <r_epik_Ionization_Penalty_Charging>
0.553838

> <r_epik_Ionization_Penalty_Neutral>
0.000222147

> <r_epik_State_Penalty>
0.564424

> <r_epik_Charging_Adjusted_Penalty>
1.11826

> <i_epik_Tot_Q>
1

> <i_epik_Tot_abs_Q>
1

> <r_epik_Metal_State_Penalty>
0.573776

> <b_epik_Metal_Only>
0

> <s_lp_Force_Field>
OPLS_2005

> <r_lp_Energy>
32.5614

> <b_lp_Chiralities_Consistent>
1

> <s_lp_Variant>
AV-unprocessed.smi:1995-3

> <Gold.Version>
5.8.1

> <Gold.Id.Protein>
6NUR|6NUR_protein|mol2

> <Gold.PLP.Fitness>
44.8835

> <Gold.PLP.PLP>
-33.9715

> <Gold.PLP.part.hbond>
-3.0000

> <Gold.PLP.part.metal>
0.0000

> <Gold.PLP.part.buried>
-1.4191

> <Gold.PLP.part.nonpolar>
-31.7268

> <Gold.PLP.part.repulsive>
1.0988

> <Gold.PLP.ligand.clash>
0.0000

> <Gold.PLP.ligand.torsion>
0.6116

> <Gold.PLP.Chemscore.Hbond>
4.0000

> <Gold.PLP.Chemscore.CHOScore>
0.0000

> <Gold.PLP.Chemscore.Metal>
0.0000

> <Gold.Chemscore.Hbonds>
donor molecule, donor type, donor heavy atom, donor atom, acceptor molecule, acceptor atom, score
      L1  H     6    31       P1  8028  1.00
      L1  H     9    32       P1  8028  1.00
      L1  H    15    43       P1 10175  2.00

> <Gold.PLP.Chemscore.Internal.Correction>
0.1352

> <Gold.Rescore>
     Score         DG    S(hbond)    S(metal)    S(lipo)     H(rot)  DE(clash)    DE(int)     intcor
     16.74     -20.27       2.94        0.00      81.80       1.79       1.82       1.71       ----

> <Gold.Chemscore.Fitness>
16.7380

> <Gold.Chemscore.DG>
-20.2688

> <Gold.Chemscore.ZeroCoef>
-5.4800

> <Gold.Chemscore.Hbond>
2.9374

> <Gold.Chemscore.Metal>
0.0000

> <Gold.Chemscore.Lipo>
81.8038

> <Gold.Chemscore.Internal_Hbond>
0.0000

> <Gold.Chemscore.DEClash>
1.8188

> <Gold.Chemscore.DEInternal>
1.7120

> <Gold.Chemscore.Rot>
1.7942

> <Gold.Chemscore.Internal.Correction>
   9.000000E+99

> <Gold.Chemscore.Hbonds>
donor molecule, donor type, donor heavy atom, donor atom, acceptor molecule, acceptor atom, score
      L1  H     6    31       P1  8028  0.96
      L1  H     9    32       P1  8028  0.99
      L1  H    15    43       P1 10175  0.98

> <Gold.Chemscore.Hbond.Weighted>
-9.8108

> <Gold.Chemscore.Metal.Weighted>
-0.0000

> <Gold.Chemscore.Lipo.Weighted>
-9.5710

> <Gold.Chemscore.Internal_Hbond.Weighted>
0.0000

> <Gold.Chemscore.DEClash.Weighted>
1.8188

> <Gold.Chemscore.DEInternal.Weighted>
1.7120

> <Gold.Chemscore.Rot.Weighted>
4.5931

> <Gold.Chemscore.Internal.Correction.Weighted>
   9.000000E+99

> <Gold.Protein.RotatedTorsions>
[ 6907 6896 6895 6894 ] final -172.33 input  -60.11 | X-H torsion
[ 7974 7965 7964 7962 ] final -141.62 input  175.53 | X-H torsion
[ 8008 7997 7996 7995 ] final -109.16 input   59.86 | X-H torsion
[ 10167 10162 10161 10158 ] final  154.25 input  -65.29 | X-H torsion
[ 10718 10713 10712 10709 ] final    1.80 input   66.30 | X-H torsion
[ 10763 10752 10751 10750 ] final   31.92 input  -60.55 | X-H torsion
[ 11005 11000 10999 10996 ] final -176.67 input  -57.11 | X-H torsion

> <Gold.Protein.ActiveResidues>
 VAL166  LYS551  ARG553  GLY616  TRP617  ASP618  TYR619  PRO620  LYS621  CYS622 
 ASP623  PHE694  ASN695  SER759  ASP760  ASP761  ALA762  ILE779  LEU786  VAL792 
 PHE793  MET794  SER795  GLU796  ALA797  LYS798  CYS799  TRP800  GLU811  SER814 

> <Gold.Protein.RotatedAtoms>
  151.5382  133.3437  159.2930 H   0  0  0  0  0  0  0  0  0  0  0  0  # atno 6907 bound_to 6896
  150.8552  134.7891  159.7051 H   0  0  0  0  0  0  0  0  0  0  0  0  # atno 6908 bound_to 6896
  152.4587  134.5241  159.9843 H   0  0  0  0  0  0  0  0  0  0  0  0  # atno 6909 bound_to 6896
  144.8506  140.6058  143.5393 H   0  0  0  0  0  0  0  0  0  0  0  0  # atno 7974 bound_to 7965
  154.9551  140.0400  157.2163 H   0  0  0  0  0  0  0  0  0  0  0  0  # atno 8008 bound_to 7997
  154.7941  140.2840  155.5947 H   0  0  0  0  0  0  0  0  0  0  0  0  # atno 8009 bound_to 7997
  156.2953  140.2567  156.2795 H   0  0  0  0  0  0  0  0  0  0  0  0  # atno 8010 bound_to 7997
  139.4824  144.5202  151.7887 H   0  0  0  0  0  0  0  0  0  0  0  0  # atno 10167 bound_to 10162
  156.8535  130.5562  149.5668 H   0  0  0  0  0  0  0  0  0  0  0  0  # atno 10718 bound_to 10713
  153.0290  135.6426  154.1274 H   0  0  0  0  0  0  0  0  0  0  0  0  # atno 10763 bound_to 10752
  154.0999  135.2860  155.3255 H   0  0  0  0  0  0  0  0  0  0  0  0  # atno 10764 bound_to 10752
  154.6406  135.5461  153.7848 H   0  0  0  0  0  0  0  0  0  0  0  0  # atno 10765 bound_to 10752
  140.4495  134.6357  157.4794 H   0  0  0  0  0  0  0  0  0  0  0  0  # atno 11005 bound_to 11000
  145.4508  139.1524  143.3919 LP  0  0  0  0  0  0  0  0  0  0  0  0  # atno 17320 bound_to 7965
  146.2781  140.4634  142.8787 LP  0  0  0  0  0  0  0  0  0  0  0  0  # atno 17321 bound_to 7965
  140.4716  144.1579  150.5919 LP  0  0  0  0  0  0  0  0  0  0  0  0  # atno 17342 bound_to 10162
  140.4376  143.2540  151.9515 LP  0  0  0  0  0  0  0  0  0  0  0  0  # atno 17343 bound_to 10162
  156.0815  130.5824  150.9571 LP  0  0  0  0  0  0  0  0  0  0  0  0  # atno 17370 bound_to 10713
  157.6290  131.0923  150.8478 LP  0  0  0  0  0  0  0  0  0  0  0  0  # atno 17371 bound_to 10713
  140.0016  134.6827  155.9521 LP  0  0  0  0  0  0  0  0  0  0  0  0  # atno 17394 bound_to 11000
  141.1670  133.6537  156.4516 LP  0  0  0  0  0  0  0  0  0  0  0  0  # atno 17395 bound_to 11000

$$$$
