AV-unprocessed.smi:508|AV-procd|sdf|2759|dock4
  -GOLD-   2262023223D 1   1.00000     0.00000
 Structure written by MMmdl.
 48 50  0  0  0  0  0  0  0  0  2 V2000
  149.0953  141.1185  154.5121 C   0  0  0  0  0  0  0  0  0  0  0  0
  149.9110  140.1477  155.3691 C   0  0  0  0  0  0  0  0  0  0  0  0
  151.2551  140.5948  155.4173 O   0  0  0  0  0  0  0  0  0  0  0  0
  151.9945  139.9953  156.4680 C   0  0  0  0  0  0  0  0  0  0  0  0
  151.5258  140.5986  157.7998 C   0  0  0  0  0  0  0  0  0  0  0  0
  152.4289  140.3019  158.9075 N   0  0  0  0  0  0  0  0  0  0  0  0
  153.0351  141.1749  159.7580 C   0  0  0  0  0  0  0  0  0  0  0  0
  152.8001  142.5509  159.7052 N   0  0  0  0  0  0  0  0  0  0  0  0
  152.8713  143.4379  160.8638 C   0  0  0  0  0  0  0  0  0  0  0  0
  151.6331  144.3312  161.0772 C   0  0  0  0  0  0  0  0  0  0  0  0
  151.5542  145.4970  160.0803 C   0  0  0  0  0  0  0  0  0  0  0  0
  150.9425  145.1429  158.7128 C   0  0  0  0  0  0  0  0  0  0  0  0
  151.3269  143.7721  158.1258 C   0  0  0  0  0  0  0  0  0  0  0  0
  152.7517  143.2949  158.4493 C   0  0  0  0  0  0  0  0  0  0  0  0
  153.8814  140.6116  160.6236 N   0  0  0  0  0  0  0  0  0  0  0  0
  153.7830  139.2631  160.3183 C   0  0  0  0  0  0  0  0  0  0  0  0
  152.9176  139.0497  159.2924 C   0  0  0  0  0  0  0  0  0  0  0  0
  152.6213  137.7137  158.7325 C   0  0  0  0  0  0  0  0  0  0  0  0
  151.8410  137.5779  157.7923 O   0  0  0  0  0  0  0  0  0  0  0  0
  153.3046  136.7189  159.3826 N   0  5  0  0  0  0  0  0  0  0  0  0
  154.1871  136.8894  160.4286 C   0  0  0  0  0  0  0  0  0  0  0  0
  154.7545  135.9316  160.9544 O   0  0  0  0  0  0  0  0  0  0  0  0
  154.4450  138.1510  160.9022 N   0  0  0  0  0  0  0  0  0  0  0  0
  155.3767  138.4178  162.0024 C   0  0  0  0  0  0  0  0  0  0  0  0
  148.0529  140.8050  154.4530 H   0  0  0  0  0  0  0  0  0  0  0  0
  149.4884  141.1682  153.4964 H   0  0  0  0  0  0  0  0  0  0  0  0
  149.1192  142.1245  154.9310 H   0  0  0  0  0  0  0  0  0  0  0  0
  149.4939  140.1013  156.3761 H   0  0  0  0  0  0  0  0  0  0  0  0
  149.8630  139.1443  154.9434 H   0  0  0  0  0  0  0  0  0  0  0  0
  151.8404  138.9174  156.4549 H   0  0  0  0  0  0  0  0  0  0  0  0
  153.0609  140.1690  156.3214 H   0  0  0  0  0  0  0  0  0  0  0  0
  151.4281  141.6801  157.7096 H   0  0  0  0  0  0  0  0  0  0  0  0
  150.5269  140.2476  158.0481 H   0  0  0  0  0  0  0  0  0  0  0  0
  153.0330  142.8297  161.7514 H   0  0  0  0  0  0  0  0  0  0  0  0
  153.7654  144.0568  160.7796 H   0  0  0  0  0  0  0  0  0  0  0  0
  150.7081  143.7567  161.0765 H   0  0  0  0  0  0  0  0  0  0  0  0
  151.7117  144.7571  162.0778 H   0  0  0  0  0  0  0  0  0  0  0  0
  150.9623  146.3016  160.5178 H   0  0  0  0  0  0  0  0  0  0  0  0
  152.5512  145.9162  159.9394 H   0  0  0  0  0  0  0  0  0  0  0  0
  149.8552  145.1895  158.7826 H   0  0  0  0  0  0  0  0  0  0  0  0
  151.2227  145.9251  158.0065 H   0  0  0  0  0  0  0  0  0  0  0  0
  150.6099  143.0160  158.4506 H   0  0  0  0  0  0  0  0  0  0  0  0
  151.2113  143.8287  157.0431 H   0  0  0  0  0  0  0  0  0  0  0  0
  153.4567  144.1271  158.4556 H   0  0  0  0  0  0  0  0  0  0  0  0
  153.0829  142.6312  157.6499 H   0  0  0  0  0  0  0  0  0  0  0  0
  155.9071  137.5378  162.3669 H   0  0  0  0  0  0  0  0  0  0  0  0
  154.8383  138.8485  162.8468 H   0  0  0  0  0  0  0  0  0  0  0  0
  156.1311  139.1378  161.6837 H   0  0  0  0  0  0  0  0  0  0  0  0
  1  2  1  0  0  0  0
  1 25  1  0  0  0  0
  1 26  1  0  0  0  0
  1 27  1  0  0  0  0
  2  3  1  0  0  0  0
  2 28  1  0  0  0  0
  2 29  1  0  0  0  0
  3  4  1  0  0  0  0
  4  5  1  0  0  0  0
  4 30  1  0  0  0  0
  4 31  1  0  0  0  0
  5  6  1  0  0  0  0
  5 32  1  0  0  0  0
  5 33  1  0  0  0  0
  6 17  1  0  0  0  0
  6  7  1  0  0  0  0
  7  8  1  0  0  0  0
  7 15  2  0  0  0  0
  8 14  1  0  0  0  0
  8  9  1  0  0  0  0
  9 10  1  0  0  0  0
  9 34  1  0  0  0  0
  9 35  1  0  0  0  0
 10 11  1  0  0  0  0
 10 36  1  0  0  0  0
 10 37  1  0  0  0  0
 11 12  1  0  0  0  0
 11 38  1  0  0  0  0
 11 39  1  0  0  0  0
 12 13  1  0  0  0  0
 12 40  1  0  0  0  0
 12 41  1  0  0  0  0
 13 14  1  0  0  0  0
 13 42  1  0  0  0  0
 13 43  1  0  0  0  0
 14 44  1  0  0  0  0
 14 45  1  0  0  0  0
 15 16  1  0  0  0  0
 16 23  1  0  0  0  0
 16 17  2  0  0  0  0
 17 18  1  0  0  0  0
 18 19  2  0  0  0  0
 18 20  1  0  0  0  0
 20 21  1  0  0  0  0
 21 22  2  0  0  0  0
 21 23  1  0  0  0  0
 23 24  1  0  0  0  0
 24 46  1  0  0  0  0
 24 47  1  0  0  0  0
 24 48  1  0  0  0  0
M  CHG  1  20  -1
M  END
> <s_m_source_file>
AV-unprocessed.smi

> <i_m_source_file_index>
508

> <i_lp_mmshare_version>
43012

> <i_f3d_flags>
0

> <s_epik_input>
W0NIM11uMWMoPU8pW25IXWMoPU8pYyhjMTIpbihbQ0gyXVtDSDJdT1tDSDJdW0NIM10pYyhuMilOM1tDSDJdW0NIMl1bQ0gyXVtDSDJdW0NIMl1bQ0gyXTM=

> <s_epik_cmdline>
J2VwaWtfcHl0aG9uJywgJy1waCcsICc3LjAnLCAnLXRuJywgJzgnLCAnLW1hJywgJzIwMCcsICctbWV0YWxfYmluZGluZycsICctaW1hZScsICc8aW5maWxlLm1hZT4nLCAnLW9tYWUnLCAnPG91dGZpbGUubWFlPic=

> <r_lp_tautomer_probability>
1

> <r_epik_Ionization_Penalty>
6.1764

> <r_epik_Ionization_Penalty_Charging>
0.0751667

> <r_epik_Ionization_Penalty_Neutral>
6.10123

> <r_epik_State_Penalty>
6.09793

> <r_epik_Charging_Adjusted_Penalty>
6.17309

> <i_epik_Tot_Q>
-1

> <i_epik_Tot_abs_Q>
1

> <r_epik_Metal_State_Penalty>
2.04406

> <b_epik_Metal_Only>
1

> <s_lp_Force_Field>
OPLS_2005

> <r_lp_Energy>
49.0985

> <b_lp_Chiralities_Consistent>
1

> <s_lp_Variant>
AV-unprocessed.smi:508-2

> <Gold.Version>
5.8.1

> <Gold.Id.Protein>
6NUR|6NUR_protein|mol2

> <Gold.PLP.Fitness>
58.0043

> <Gold.PLP.PLP>
-50.2905

> <Gold.PLP.part.hbond>
-2.0000

> <Gold.PLP.part.metal>
0.0000

> <Gold.PLP.part.buried>
-5.8000

> <Gold.PLP.part.nonpolar>
-41.8491

> <Gold.PLP.part.repulsive>
0.0317

> <Gold.PLP.ligand.clash>
0.0000

> <Gold.PLP.ligand.torsion>
0.7674

> <Gold.PLP.Chemscore.Hbond>
2.8320

> <Gold.PLP.Chemscore.CHOScore>
0.0000

> <Gold.PLP.Chemscore.Metal>
0.0000

> <Gold.Chemscore.Hbonds>
donor molecule, donor type, donor heavy atom, donor atom, acceptor molecule, acceptor atom, score
      P1  H  6896  6907       L1    20  1.00
      P1  H  7989  7998       L1     3  0.85

> <Gold.PLP.Chemscore.Internal.Correction>
0.7526

> <Gold.Rescore>
     Score         DG    S(hbond)    S(metal)    S(lipo)     H(rot)  DE(clash)    DE(int)     intcor
     14.90     -18.55       1.51        0.00     102.68       1.55       0.69       2.96       ----

> <Gold.Chemscore.Fitness>
14.9013

> <Gold.Chemscore.DG>
-18.5542

> <Gold.Chemscore.ZeroCoef>
-5.4800

> <Gold.Chemscore.Hbond>
1.5081

> <Gold.Chemscore.Metal>
0.0000

> <Gold.Chemscore.Lipo>
102.6832

> <Gold.Chemscore.Internal_Hbond>
0.0000

> <Gold.Chemscore.DEClash>
0.6949

> <Gold.Chemscore.DEInternal>
2.9580

> <Gold.Chemscore.Rot>
1.5534

> <Gold.Chemscore.Internal.Correction>
   9.000000E+99

> <Gold.Chemscore.Hbonds>
donor molecule, donor type, donor heavy atom, donor atom, acceptor molecule, acceptor atom, score
      P1  H  6896  6907       L1    20  0.20
      P1  H  7989  7998       L1     3  0.29

> <Gold.Chemscore.Hbond.Weighted>
-5.0371

> <Gold.Chemscore.Metal.Weighted>
-0.0000

> <Gold.Chemscore.Lipo.Weighted>
-12.0139

> <Gold.Chemscore.Internal_Hbond.Weighted>
0.0000

> <Gold.Chemscore.DEClash.Weighted>
0.6949

> <Gold.Chemscore.DEInternal.Weighted>
2.9580

> <Gold.Chemscore.Rot.Weighted>
3.9768

> <Gold.Chemscore.Internal.Correction.Weighted>
   9.000000E+99

> <Gold.Protein.RotatedTorsions>
[ 6907 6896 6895 6894 ] final   19.16 input  -60.11 | X-H torsion
[ 7974 7965 7964 7962 ] final   -5.26 input  175.53 | X-H torsion
[ 8008 7997 7996 7995 ] final -114.13 input   59.86 | X-H torsion
[ 10167 10162 10161 10158 ] final  163.10 input  -65.29 | X-H torsion
[ 10718 10713 10712 10709 ] final    6.45 input   66.30 | X-H torsion
[ 10763 10752 10751 10750 ] final  -36.77 input  -60.55 | X-H torsion
[ 11005 11000 10999 10996 ] final  136.26 input  -57.11 | X-H torsion

> <Gold.Protein.ActiveResidues>
 VAL166  LYS551  ARG553  GLY616  TRP617  ASP618  TYR619  PRO620  LYS621  CYS622 
 ASP623  PHE694  ASN695  SER759  ASP760  ASP761  ALA762  ILE779  LEU786  VAL792 
 PHE793  MET794  SER795  GLU796  ALA797  LYS798  CYS799  TRP800  GLU811  SER814 

> <Gold.Protein.RotatedAtoms>
  151.8766  135.0469  160.0484 H   0  0  0  0  0  0  0  0  0  0  0  0  # atno 6907 bound_to 6896
  152.2546  133.5240  159.5354 H   0  0  0  0  0  0  0  0  0  0  0  0  # atno 6908 bound_to 6896
  150.7095  134.0830  159.3947 H   0  0  0  0  0  0  0  0  0  0  0  0  # atno 6909 bound_to 6896
  146.2356  140.1994  142.8333 H   0  0  0  0  0  0  0  0  0  0  0  0  # atno 7974 bound_to 7965
  155.0316  140.0393  157.2476 H   0  0  0  0  0  0  0  0  0  0  0  0  # atno 8008 bound_to 7997
  154.7292  140.2727  155.6448 H   0  0  0  0  0  0  0  0  0  0  0  0  # atno 8009 bound_to 7997
  156.2837  140.2687  156.1987 H   0  0  0  0  0  0  0  0  0  0  0  0  # atno 8010 bound_to 7997
  139.4869  144.4371  151.8998 H   0  0  0  0  0  0  0  0  0  0  0  0  # atno 10167 bound_to 10162
  156.9223  130.5795  149.5648 H   0  0  0  0  0  0  0  0  0  0  0  0  # atno 10718 bound_to 10713
  153.8852  135.6817  153.4764 H   0  0  0  0  0  0  0  0  0  0  0  0  # atno 10763 bound_to 10752
  153.1211  135.4739  154.9195 H   0  0  0  0  0  0  0  0  0  0  0  0  # atno 10764 bound_to 10752
  154.7649  135.3221  154.8257 H   0  0  0  0  0  0  0  0  0  0  0  0  # atno 10765 bound_to 10752
  140.0034  134.9469  157.0122 H   0  0  0  0  0  0  0  0  0  0  0  0  # atno 11005 bound_to 11000
  144.9794  140.8445  143.5406 LP  0  0  0  0  0  0  0  0  0  0  0  0  # atno 17320 bound_to 7965
  145.1986  139.2264  143.5205 LP  0  0  0  0  0  0  0  0  0  0  0  0  # atno 17321 bound_to 7965
  140.3822  144.2722  150.5907 LP  0  0  0  0  0  0  0  0  0  0  0  0  # atno 17342 bound_to 10162
  140.5223  143.2263  151.8369 LP  0  0  0  0  0  0  0  0  0  0  0  0  # atno 17343 bound_to 10162
  156.0485  130.5558  150.8936 LP  0  0  0  0  0  0  0  0  0  0  0  0  # atno 17370 bound_to 10713
  157.5900  131.0944  150.9134 LP  0  0  0  0  0  0  0  0  0  0  0  0  # atno 17371 bound_to 10713
  140.4685  134.1410  155.7200 LP  0  0  0  0  0  0  0  0  0  0  0  0  # atno 17394 bound_to 11000
  141.1659  133.8704  157.1716 LP  0  0  0  0  0  0  0  0  0  0  0  0  # atno 17395 bound_to 11000

$$$$
