AV-unprocessed.smi:2812|AV-procd|sdf|10836|dock1
  -GOLD-   2272015273D 1   1.00000     0.00000
 Structure written by MMmdl.
 55 56  0  0  0  0  0  0  0  0  2 V2000
  151.2394  144.3131  158.8103 C   0  0  0  0  0  0  0  0  0  0  0  0
  152.1188  143.1404  159.2142 C   0  0  0  0  0  0  0  0  0  0  0  0
  152.9133  143.2383  160.4211 C   0  0  0  0  0  0  0  0  0  0  0  0
  153.6995  142.2137  160.7779 C   0  0  0  0  0  0  0  0  0  0  0  0
  153.7633  141.0358  160.0199 N   0  0  0  0  0  0  0  0  0  0  0  0
  154.6410  139.9658  160.5017 C   0  0  0  0  0  0  0  0  0  0  0  0
  153.0215  140.8549  158.8897 C   0  0  0  0  0  0  0  0  0  0  0  0
  153.0415  139.7790  158.2869 O   0  0  0  0  0  0  0  0  0  0  0  0
  152.1952  142.0107  158.4626 C   0  0  0  0  0  0  0  0  0  0  0  0
  151.4123  141.9108  157.3013 N   0  0  0  0  0  0  0  0  0  0  0  0
  150.4856  140.9690  157.0507 C   0  0  0  0  0  0  0  0  0  0  0  0
  150.2003  140.0420  157.8101 O   0  0  0  0  0  0  0  0  0  0  0  0
  149.9038  141.1531  155.8576 N   0  0  0  0  0  0  0  0  0  0  0  0
  148.8401  140.3123  155.3184 C   0  0  0  0  0  0  0  0  0  0  0  0
  149.3329  139.4076  154.1544 C   0  0  1  0  0  0  0  0  0  0  0  0
  150.8269  139.0228  154.2615 C   0  0  0  0  0  0  0  0  0  0  0  0
  151.0801  138.0101  155.3883 C   0  0  0  0  0  0  0  0  0  0  0  0
  150.1780  136.7829  155.2054 C   0  0  0  0  0  0  0  0  0  0  0  0
  148.6999  137.1882  155.0818 C   0  0  0  0  0  0  0  0  0  0  0  0
  148.5094  138.1746  153.9840 N   0  3  1  0  0  0  0  0  0  0  0  0
  147.0840  138.4420  153.6580 C   0  0  0  0  0  0  0  0  0  0  0  0
  146.7790  138.2734  152.1548 C   0  0  0  0  0  0  0  0  0  0  0  0
  146.8423  139.6155  151.4059 C   0  0  0  0  0  0  0  0  0  0  0  0
  145.4086  137.6103  151.9523 C   0  0  0  0  0  0  0  0  0  0  0  0
  151.3645  145.1537  159.4931 H   0  0  0  0  0  0  0  0  0  0  0  0
  150.1885  144.0232  158.8223 H   0  0  0  0  0  0  0  0  0  0  0  0
  151.4933  144.6574  157.8072 H   0  0  0  0  0  0  0  0  0  0  0  0
  152.8825  144.1304  161.0293 H   0  0  0  0  0  0  0  0  0  0  0  0
  154.3161  142.2302  161.6648 H   0  0  0  0  0  0  0  0  0  0  0  0
  155.3333  139.6515  159.7189 H   0  0  0  0  0  0  0  0  0  0  0  0
  154.0530  139.0985  160.8046 H   0  0  0  0  0  0  0  0  0  0  0  0
  155.2429  140.2696  161.3587 H   0  0  0  0  0  0  0  0  0  0  0  0
  151.6490  142.5467  156.5542 H   0  0  0  0  0  0  0  0  0  0  0  0
  150.2044  141.9341  155.2924 H   0  0  0  0  0  0  0  0  0  0  0  0
  148.4494  139.7146  156.1409 H   0  0  0  0  0  0  0  0  0  0  0  0
  148.0189  140.9545  154.9974 H   0  0  0  0  0  0  0  0  0  0  0  0
  149.2270  139.9739  153.2279 H   0  0  0  0  0  0  0  0  0  0  0  0
  151.1477  138.5838  153.3158 H   0  0  0  0  0  0  0  0  0  0  0  0
  151.4503  139.9059  154.4027 H   0  0  0  0  0  0  0  0  0  0  0  0
  152.1274  137.7063  155.3906 H   0  0  0  0  0  0  0  0  0  0  0  0
  150.8913  138.4707  156.3583 H   0  0  0  0  0  0  0  0  0  0  0  0
  150.4811  136.2393  154.3095 H   0  0  0  0  0  0  0  0  0  0  0  0
  150.3085  136.0958  156.0419 H   0  0  0  0  0  0  0  0  0  0  0  0
  148.1081  136.2942  154.8885 H   0  0  0  0  0  0  0  0  0  0  0  0
  148.3359  137.5971  156.0247 H   0  0  0  0  0  0  0  0  0  0  0  0
  146.4491  137.7865  154.2563 H   0  0  0  0  0  0  0  0  0  0  0  0
  146.8231  139.4620  153.9452 H   0  0  0  0  0  0  0  0  0  0  0  0
  147.5205  137.6087  151.7121 H   0  0  0  0  0  0  0  0  0  0  0  0
  146.1143  140.3252  151.8002 H   0  0  0  0  0  0  0  0  0  0  0  0
  146.6325  139.4818  150.3443 H   0  0  0  0  0  0  0  0  0  0  0  0
  147.8290  140.0726  151.4849 H   0  0  0  0  0  0  0  0  0  0  0  0
  144.6070  138.2183  152.3730 H   0  0  0  0  0  0  0  0  0  0  0  0
  145.3700  136.6315  152.4311 H   0  0  0  0  0  0  0  0  0  0  0  0
  145.1944  137.4649  150.8930 H   0  0  0  0  0  0  0  0  0  0  0  0
  148.8848  137.7344  153.1560 H   0  0  0  0  0  0  0  0  0  0  0  0
  1  2  1  0  0  0  0
  1 25  1  0  0  0  0
  1 26  1  0  0  0  0
  1 27  1  0  0  0  0
  2  9  2  0  0  0  0
  2  3  1  0  0  0  0
  3  4  2  0  0  0  0
  3 28  1  0  0  0  0
  4  5  1  0  0  0  0
  4 29  1  0  0  0  0
  5  6  1  0  0  0  0
  5  7  1  0  0  0  0
  6 30  1  0  0  0  0
  6 31  1  0  0  0  0
  6 32  1  0  0  0  0
  7  8  2  0  0  0  0
  7  9  1  0  0  0  0
  9 10  1  0  0  0  0
 10 11  1  0  0  0  0
 10 33  1  0  0  0  0
 11 12  2  0  0  0  0
 11 13  1  0  0  0  0
 13 14  1  0  0  0  0
 13 34  1  0  0  0  0
 14 15  1  0  0  0  0
 14 35  1  0  0  0  0
 14 36  1  0  0  0  0
 15 20  1  0  0  0  0
 15 16  1  0  0  0  0
 15 37  1  0  0  0  0
 16 17  1  0  0  0  0
 16 38  1  0  0  0  0
 16 39  1  0  0  0  0
 17 18  1  0  0  0  0
 17 40  1  0  0  0  0
 17 41  1  0  0  0  0
 18 19  1  0  0  0  0
 18 42  1  0  0  0  0
 18 43  1  0  0  0  0
 19 20  1  0  0  0  0
 19 44  1  0  0  0  0
 19 45  1  0  0  0  0
 20 21  1  0  0  0  0
 20 55  1  0  0  0  0
 21 22  1  0  0  0  0
 21 46  1  0  0  0  0
 21 47  1  0  0  0  0
 22 23  1  0  0  0  0
 22 24  1  0  0  0  0
 22 48  1  0  0  0  0
 23 49  1  0  0  0  0
 23 50  1  0  0  0  0
 23 51  1  0  0  0  0
 24 52  1  0  0  0  0
 24 53  1  0  0  0  0
 24 54  1  0  0  0  0
M  CHG  1  20   1
M  END
> <s_m_source_file>
AV-unprocessed.smi

> <i_m_source_file_index>
2812

> <i_lp_mmshare_version>
43012

> <i_f3d_flags>
0

> <s_epik_input>
W0NIM11jMVtjSF1bY0hdbihbQ0gzXSljKD1PKWMxW05IXUMoPU8pW05IXVtDSDJdW0NAQEhdMltDSDJdW0NIMl1bQ0gyXVtDSDJdTjJbQ0gyXVtDSF0oW0NIM10pW0NIM10=

> <s_epik_cmdline>
J2VwaWtfcHl0aG9uJywgJy1waCcsICc3LjAnLCAnLXRuJywgJzgnLCAnLW1hJywgJzIwMCcsICctbWV0YWxfYmluZGluZycsICctaW1hZScsICc8aW5maWxlLm1hZT4nLCAnLW9tYWUnLCAnPG91dGZpbGUubWFlPic=

> <r_lp_tautomer_probability>
1

> <r_epik_Ionization_Penalty>
0.0010902

> <r_epik_Ionization_Penalty_Charging>
0.00107091

> <r_epik_Ionization_Penalty_Neutral>
1.92854e-05

> <r_epik_State_Penalty>
0.000697184

> <r_epik_Charging_Adjusted_Penalty>
0.0017681

> <i_epik_Tot_Q>
1

> <i_epik_Tot_abs_Q>
1

> <r_epik_Metal_State_Penalty>
-0

> <b_epik_Metal_Only>
0

> <s_lp_Force_Field>
OPLS_2005

> <r_lp_Energy>
38.3811

> <b_lp_Chiralities_Consistent>
1

> <s_lp_Variant>
AV-unprocessed.smi:2812-4

> <Gold.Version>
5.8.1

> <Gold.Id.Protein>
6NUR|6NUR_protein|mol2

> <Gold.PLP.Fitness>
46.8891

> <Gold.PLP.PLP>
-41.3387

> <Gold.PLP.part.hbond>
-2.0000

> <Gold.PLP.part.metal>
0.0000

> <Gold.PLP.part.buried>
0.7118

> <Gold.PLP.part.nonpolar>
-39.3975

> <Gold.PLP.part.repulsive>
0.1480

> <Gold.PLP.ligand.clash>
0.0000

> <Gold.PLP.ligand.torsion>
2.0932

> <Gold.PLP.Chemscore.Hbond>
3.0000

> <Gold.PLP.Chemscore.CHOScore>
0.0000

> <Gold.PLP.Chemscore.Metal>
0.0000

> <Gold.Chemscore.Hbonds>
donor molecule, donor type, donor heavy atom, donor atom, acceptor molecule, acceptor atom, score
      L1  H    20    55       P1  7948  2.00
      P1  H  7997  8009       L1     8  1.00

> <Gold.PLP.Chemscore.Internal.Correction>
0.7369

> <Gold.Rescore>
     Score         DG    S(hbond)    S(metal)    S(lipo)     H(rot)  DE(clash)    DE(int)     intcor
     17.33     -20.91       1.87        0.00     111.64       1.52       1.82       1.77       ----

> <Gold.Chemscore.Fitness>
17.3250

> <Gold.Chemscore.DG>
-20.9080

> <Gold.Chemscore.ZeroCoef>
-5.4800

> <Gold.Chemscore.Hbond>
1.8703

> <Gold.Chemscore.Metal>
0.0000

> <Gold.Chemscore.Lipo>
111.6368

> <Gold.Chemscore.Internal_Hbond>
0.0000

> <Gold.Chemscore.DEClash>
1.8157

> <Gold.Chemscore.DEInternal>
1.7673

> <Gold.Chemscore.Rot>
1.5157

> <Gold.Chemscore.Internal.Correction>
   9.000000E+99

> <Gold.Chemscore.Hbonds>
donor molecule, donor type, donor heavy atom, donor atom, acceptor molecule, acceptor atom, score
      L1  H    20    55       P1  7948  0.95
      P1  H  7997  8009       L1     8  0.28

> <Gold.Chemscore.Hbond.Weighted>
-6.2468

> <Gold.Chemscore.Metal.Weighted>
-0.0000

> <Gold.Chemscore.Lipo.Weighted>
-13.0615

> <Gold.Chemscore.Internal_Hbond.Weighted>
0.0000

> <Gold.Chemscore.DEClash.Weighted>
1.8157

> <Gold.Chemscore.DEInternal.Weighted>
1.7673

> <Gold.Chemscore.Rot.Weighted>
3.8803

> <Gold.Chemscore.Internal.Correction.Weighted>
   9.000000E+99

> <Gold.Protein.RotatedTorsions>
[ 6907 6896 6895 6894 ] final -126.26 input  -60.11 | X-H torsion
[ 7974 7965 7964 7962 ] final  147.07 input  175.53 | X-H torsion
[ 8008 7997 7996 7995 ] final  148.58 input   59.86 | X-H torsion
[ 10167 10162 10161 10158 ] final   -4.56 input  -65.29 | X-H torsion
[ 10718 10713 10712 10709 ] final  -52.39 input   66.30 | X-H torsion
[ 10763 10752 10751 10750 ] final -108.23 input  -60.55 | X-H torsion
[ 11005 11000 10999 10996 ] final    2.29 input  -57.11 | X-H torsion

> <Gold.Protein.ActiveResidues>
 VAL166  LYS551  ARG553  GLY616  TRP617  ASP618  TYR619  PRO620  LYS621  CYS622 
 ASP623  PHE694  ASN695  SER759  ASP760  ASP761  ALA762  ILE779  LEU786  VAL792 
 PHE793  MET794  SER795  GLU796  ALA797  LYS798  CYS799  TRP800  GLU811  SER814 

> <Gold.Protein.RotatedAtoms>
  150.8951  133.7192  159.2893 H   0  0  0  0  0  0  0  0  0  0  0  0  # atno 6907 bound_to 6896
  151.4729  135.1045  159.9766 H   0  0  0  0  0  0  0  0  0  0  0  0  # atno 6908 bound_to 6896
  152.4843  133.8286  159.7147 H   0  0  0  0  0  0  0  0  0  0  0  0  # atno 6909 bound_to 6896
  144.8621  139.5983  143.5926 H   0  0  0  0  0  0  0  0  0  0  0  0  # atno 7974 bound_to 7965
  156.2786  140.2125  156.5720 H   0  0  0  0  0  0  0  0  0  0  0  0  # atno 8008 bound_to 7997
  154.7127  140.0510  157.0589 H   0  0  0  0  0  0  0  0  0  0  0  0  # atno 8009 bound_to 7997
  155.0583  140.3164  155.4672 H   0  0  0  0  0  0  0  0  0  0  0  0  # atno 8010 bound_to 7997
  140.6932  143.6409  150.8436 H   0  0  0  0  0  0  0  0  0  0  0  0  # atno 10167 bound_to 10162
  156.1626  130.4149  149.9769 H   0  0  0  0  0  0  0  0  0  0  0  0  # atno 10718 bound_to 10713
  154.8123  135.4646  154.0549 H   0  0  0  0  0  0  0  0  0  0  0  0  # atno 10763 bound_to 10752
  153.1970  135.6863  153.8286 H   0  0  0  0  0  0  0  0  0  0  0  0  # atno 10764 bound_to 10752
  153.7784  135.3260  155.3339 H   0  0  0  0  0  0  0  0  0  0  0  0  # atno 10765 bound_to 10752
  140.6059  133.9793  155.8154 H   0  0  0  0  0  0  0  0  0  0  0  0  # atno 11005 bound_to 11000
  146.2868  139.7026  142.9190 LP  0  0  0  0  0  0  0  0  0  0  0  0  # atno 17320 bound_to 7965
  145.4293  141.0413  143.2920 LP  0  0  0  0  0  0  0  0  0  0  0  0  # atno 17321 bound_to 7965
  140.0124  143.5628  152.2833 LP  0  0  0  0  0  0  0  0  0  0  0  0  # atno 17342 bound_to 10162
  139.6357  144.7649  151.2443 LP  0  0  0  0  0  0  0  0  0  0  0  0  # atno 17343 bound_to 10162
  156.7594  130.9145  151.3641 LP  0  0  0  0  0  0  0  0  0  0  0  0  # atno 17370 bound_to 10713
  157.6744  130.9081  150.0115 LP  0  0  0  0  0  0  0  0  0  0  0  0  # atno 17371 bound_to 10713
  141.0841  134.0018  157.3341 LP  0  0  0  0  0  0  0  0  0  0  0  0  # atno 17394 bound_to 11000
  139.9212  135.0200  156.8072 LP  0  0  0  0  0  0  0  0  0  0  0  0  # atno 17395 bound_to 11000

$$$$
