AV-unprocessed.smi:1005|AV-procd|sdf|4365|dock7
  -GOLD-   22720 2273D 1   1.00000     0.00000
 Structure written by MMmdl.
 56 58  0  0  0  0  0  0  0  0  2 V2000
  152.4722  143.7280  162.2564 C   0  0  0  0  0  0  0  0  0  0  0  0
  152.1625  143.1395  160.8911 C   0  0  0  0  0  0  0  0  0  0  0  0
  152.1843  141.7361  160.7268 C   0  0  0  0  0  0  0  0  0  0  0  0
  151.9031  141.1493  159.4736 C   0  0  0  0  0  0  0  0  0  0  0  0
  151.8686  139.8188  159.0920 N   0  0  0  0  0  0  0  0  0  0  0  0
  151.5495  139.9179  157.8049 C   0  0  0  0  0  0  0  0  0  0  0  0
  151.3735  141.1564  157.3062 N   0  0  0  0  0  0  0  0  0  0  0  0
  151.0252  141.5049  155.9400 C   0  0  0  0  0  0  0  0  0  0  0  0
  149.5207  141.3382  155.6525 C   0  0  1  0  0  0  0  0  0  0  0  0
  149.0756  142.4153  154.8502 O   0  0  0  0  0  0  0  0  0  0  0  0
  149.2328  140.0167  154.9106 C   0  0  0  0  0  0  0  0  0  0  0  0
  148.3722  139.0648  155.6165 N   0  0  0  0  0  0  0  0  0  0  0  0
  148.8598  138.7487  156.9573 C   0  0  0  0  0  0  0  0  0  0  0  0
  147.9667  137.7146  157.6621 C   0  0  0  0  0  0  0  0  0  0  0  0
  147.8634  136.5478  156.8539 O   0  0  0  0  0  0  0  0  0  0  0  0
  147.3157  136.8071  155.5638 C   0  0  2  0  0  0  0  0  0  0  0  0
  147.2231  135.4831  154.7806 C   0  0  0  0  0  0  0  0  0  0  0  0
  148.5314  135.0195  154.2486 N   0  3  0  0  0  0  0  0  0  0  0  0
  148.4896  133.6588  153.6649 C   0  0  0  0  0  0  0  0  0  0  0  0
  149.6097  135.1423  155.2550 C   0  0  0  0  0  0  0  0  0  0  0  0
  148.2368  137.8250  154.8593 C   0  0  0  0  0  0  0  0  0  0  0  0
  151.5977  142.0115  158.3800 C   0  0  0  0  0  0  0  0  0  0  0  0
  151.5712  143.4092  158.5316 C   0  0  0  0  0  0  0  0  0  0  0  0
  151.8541  143.9790  159.7907 C   0  0  0  0  0  0  0  0  0  0  0  0
  151.8225  145.4892  159.9442 C   0  0  0  0  0  0  0  0  0  0  0  0
  152.6931  142.9483  162.9860 H   0  0  0  0  0  0  0  0  0  0  0  0
  151.6219  144.3012  162.6267 H   0  0  0  0  0  0  0  0  0  0  0  0
  153.3379  144.3884  162.2004 H   0  0  0  0  0  0  0  0  0  0  0  0
  152.4176  141.0960  161.5649 H   0  0  0  0  0  0  0  0  0  0  0  0
  151.4360  139.0389  157.1871 H   0  0  0  0  0  0  0  0  0  0  0  0
  151.3428  142.5305  155.7480 H   0  0  0  0  0  0  0  0  0  0  0  0
  151.6071  140.8701  155.2705 H   0  0  0  0  0  0  0  0  0  0  0  0
  148.9876  141.3744  156.6015 H   0  0  0  0  0  0  0  0  0  0  0  0
  148.8929  143.1535  155.4106 H   0  0  0  0  0  0  0  0  0  0  0  0
  148.7823  140.2636  153.9480 H   0  0  0  0  0  0  0  0  0  0  0  0
  150.1793  139.5281  154.6738 H   0  0  0  0  0  0  0  0  0  0  0  0
  149.8793  138.3645  156.8996 H   0  0  0  0  0  0  0  0  0  0  0  0
  148.8976  139.6461  157.5728 H   0  0  0  0  0  0  0  0  0  0  0  0
  148.3910  137.4425  158.6285 H   0  0  0  0  0  0  0  0  0  0  0  0
  146.9735  138.1247  157.8514 H   0  0  0  0  0  0  0  0  0  0  0  0
  146.3183  137.2394  155.6654 H   0  0  0  0  0  0  0  0  0  0  0  0
  146.8602  134.7164  155.4669 H   0  0  0  0  0  0  0  0  0  0  0  0
  146.4833  135.5509  153.9814 H   0  0  0  0  0  0  0  0  0  0  0  0
  148.1291  132.9303  154.3923 H   0  0  0  0  0  0  0  0  0  0  0  0
  149.4827  133.3484  153.3383 H   0  0  0  0  0  0  0  0  0  0  0  0
  147.8440  133.6227  152.7885 H   0  0  0  0  0  0  0  0  0  0  0  0
  149.4153  134.5011  156.1159 H   0  0  0  0  0  0  0  0  0  0  0  0
  149.6988  136.1708  155.6067 H   0  0  0  0  0  0  0  0  0  0  0  0
  150.5721  134.8587  154.8274 H   0  0  0  0  0  0  0  0  0  0  0  0
  147.8357  138.0459  153.8694 H   0  0  0  0  0  0  0  0  0  0  0  0
  149.2203  137.3782  154.7033 H   0  0  0  0  0  0  0  0  0  0  0  0
  151.3338  144.0372  157.6858 H   0  0  0  0  0  0  0  0  0  0  0  0
  151.5537  145.9785  159.0076 H   0  0  0  0  0  0  0  0  0  0  0  0
  152.8008  145.8623  160.2479 H   0  0  0  0  0  0  0  0  0  0  0  0
  151.0902  145.7825  160.6968 H   0  0  0  0  0  0  0  0  0  0  0  0
  148.7791  135.6490  153.4985 H   0  0  0  0  0  0  0  0  0  0  0  0
  1  2  1  0  0  0  0
  1 26  1  0  0  0  0
  1 27  1  0  0  0  0
  1 28  1  0  0  0  0
  2 24  1  0  0  0  0
  2  3  2  0  0  0  0
  3  4  1  0  0  0  0
  3 29  1  0  0  0  0
  4 22  2  0  0  0  0
  4  5  1  0  0  0  0
  5  6  2  0  0  0  0
  6  7  1  0  0  0  0
  6 30  1  0  0  0  0
  7  8  1  0  0  0  0
  7 22  1  0  0  0  0
  8  9  1  0  0  0  0
  8 31  1  0  0  0  0
  8 32  1  0  0  0  0
  9 10  1  0  0  0  0
  9 11  1  0  0  0  0
  9 33  1  0  0  0  0
 10 34  1  0  0  0  0
 11 12  1  0  0  0  0
 11 35  1  0  0  0  0
 11 36  1  0  0  0  0
 12 21  1  0  0  0  0
 12 13  1  0  0  0  0
 13 14  1  0  0  0  0
 13 37  1  0  0  0  0
 13 38  1  0  0  0  0
 14 15  1  0  0  0  0
 14 39  1  0  0  0  0
 14 40  1  0  0  0  0
 15 16  1  0  0  0  0
 16 17  1  0  0  0  0
 16 21  1  0  0  0  0
 16 41  1  0  0  0  0
 17 18  1  0  0  0  0
 17 42  1  0  0  0  0
 17 43  1  0  0  0  0
 18 19  1  0  0  0  0
 18 20  1  0  0  0  0
 18 56  1  0  0  0  0
 19 44  1  0  0  0  0
 19 45  1  0  0  0  0
 19 46  1  0  0  0  0
 20 47  1  0  0  0  0
 20 48  1  0  0  0  0
 20 49  1  0  0  0  0
 21 50  1  0  0  0  0
 21 51  1  0  0  0  0
 22 23  1  0  0  0  0
 23 24  2  0  0  0  0
 23 52  1  0  0  0  0
 24 25  1  0  0  0  0
 25 53  1  0  0  0  0
 25 54  1  0  0  0  0
 25 55  1  0  0  0  0
M  CHG  1  18   1
M  END
> <s_m_source_file>
AV-unprocessed.smi

> <i_m_source_file_index>
1005

> <i_lp_mmshare_version>
43012

> <i_f3d_flags>
0

> <s_epik_input>
W0NIM11jKFtjSF0xKWMoW0NIM10pW2NIXWMoYzEyKW4oW2NIXW4yKVtDSDJdW0NASF0oW09IXSlbQ0gyXU4zW0NIMl1bQ0gyXU9bQ0BIXShbQ0gyXTMpW0NIMl1OKFtDSDNdKVtDSDNd

> <s_epik_cmdline>
J2VwaWtfcHl0aG9uJywgJy1waCcsICc3LjAnLCAnLXRuJywgJzgnLCAnLW1hJywgJzIwMCcsICctbWV0YWxfYmluZGluZycsICctaW1hZScsICc8aW5maWxlLm1hZT4nLCAnLW9tYWUnLCAnPG91dGZpbGUubWFlPic=

> <r_epik_Ionization_Penalty>
0.226781

> <r_epik_Ionization_Penalty_Charging>
0.00915946

> <r_epik_Ionization_Penalty_Neutral>
0.217622

> <r_epik_State_Penalty>
0.173018

> <r_epik_Charging_Adjusted_Penalty>
0.182178

> <i_epik_Tot_Q>
1

> <i_epik_Tot_abs_Q>
1

> <r_epik_Metal_State_Penalty>
0.0905268

> <b_epik_Metal_Only>
0

> <s_lp_Force_Field>
OPLS_2005

> <r_lp_Energy>
38.1997

> <b_lp_Chiralities_Consistent>
1

> <s_lp_Variant>
AV-unprocessed.smi:1005-4

> <Gold.Version>
5.8.1

> <Gold.Id.Protein>
6NUR|6NUR_protein|mol2

> <Gold.PLP.Fitness>
50.3753

> <Gold.PLP.PLP>
-45.0322

> <Gold.PLP.part.hbond>
-2.6847

> <Gold.PLP.part.metal>
0.0000

> <Gold.PLP.part.buried>
-7.0088

> <Gold.PLP.part.nonpolar>
-34.6134

> <Gold.PLP.part.repulsive>
0.0344

> <Gold.PLP.ligand.clash>
0.0000

> <Gold.PLP.ligand.torsion>
1.8186

> <Gold.PLP.Chemscore.Hbond>
2.9600

> <Gold.PLP.Chemscore.CHOScore>
0.0000

> <Gold.PLP.Chemscore.Metal>
0.0000

> <Gold.Chemscore.Hbonds>
donor molecule, donor type, donor heavy atom, donor atom, acceptor molecule, acceptor atom, score
      L1  H    10    34       P1  8028  0.99
      L1  H    18    56       P1  7948  2.00

> <Gold.PLP.Chemscore.Internal.Correction>
0.1002

> <Gold.Rescore>
     Score         DG    S(hbond)    S(metal)    S(lipo)     H(rot)  DE(clash)    DE(int)     intcor
     15.79     -20.30       2.06        0.00     120.58       2.41       0.32       4.18       ----

> <Gold.Chemscore.Fitness>
15.7946

> <Gold.Chemscore.DG>
-20.2991

> <Gold.Chemscore.ZeroCoef>
-5.4800

> <Gold.Chemscore.Hbond>
2.0628

> <Gold.Chemscore.Metal>
0.0000

> <Gold.Chemscore.Lipo>
120.5834

> <Gold.Chemscore.Internal_Hbond>
0.0000

> <Gold.Chemscore.DEClash>
0.3209

> <Gold.Chemscore.DEInternal>
4.1837

> <Gold.Chemscore.Rot>
2.4136

> <Gold.Chemscore.Internal.Correction>
   9.000000E+99

> <Gold.Chemscore.Hbonds>
donor molecule, donor type, donor heavy atom, donor atom, acceptor molecule, acceptor atom, score
      L1  H    10    34       P1  8028  0.91
      L1  H    18    56       P1  7948  0.95

> <Gold.Chemscore.Hbond.Weighted>
-6.8896

> <Gold.Chemscore.Metal.Weighted>
-0.0000

> <Gold.Chemscore.Lipo.Weighted>
-14.1083

> <Gold.Chemscore.Internal_Hbond.Weighted>
0.0000

> <Gold.Chemscore.DEClash.Weighted>
0.3209

> <Gold.Chemscore.DEInternal.Weighted>
4.1837

> <Gold.Chemscore.Rot.Weighted>
6.1788

> <Gold.Chemscore.Internal.Correction.Weighted>
   9.000000E+99

> <Gold.Protein.RotatedTorsions>
[ 6907 6896 6895 6894 ] final  -89.73 input  -60.11 | X-H torsion
[ 7974 7965 7964 7962 ] final  159.45 input  175.53 | X-H torsion
[ 8008 7997 7996 7995 ] final  154.32 input   59.86 | X-H torsion
[ 10167 10162 10161 10158 ] final  168.79 input  -65.29 | X-H torsion
[ 10718 10713 10712 10709 ] final   38.71 input   66.30 | X-H torsion
[ 10763 10752 10751 10750 ] final   48.38 input  -60.55 | X-H torsion
[ 11005 11000 10999 10996 ] final  -49.69 input  -57.11 | X-H torsion

> <Gold.Protein.ActiveResidues>
 VAL166  LYS551  ARG553  GLY616  TRP617  ASP618  TYR619  PRO620  LYS621  CYS622 
 ASP623  PHE694  ASN695  SER759  ASP760  ASP761  ALA762  ILE779  LEU786  VAL792 
 PHE793  MET794  SER795  GLU796  ALA797  LYS798  CYS799  TRP800  GLU811  SER814 

> <Gold.Protein.RotatedAtoms>
  150.6876  134.2541  159.4522 H   0  0  0  0  0  0  0  0  0  0  0  0  # atno 6907 bound_to 6896
  152.0476  134.9670  160.0583 H   0  0  0  0  0  0  0  0  0  0  0  0  # atno 6908 bound_to 6896
  152.1147  133.4285  159.4684 H   0  0  0  0  0  0  0  0  0  0  0  0  # atno 6909 bound_to 6896
  144.7790  139.7618  143.6267 H   0  0  0  0  0  0  0  0  0  0  0  0  # atno 7974 bound_to 7965
  156.2537  140.1969  156.6628 H   0  0  0  0  0  0  0  0  0  0  0  0  # atno 8008 bound_to 7997
  154.6451  140.0579  156.9917 H   0  0  0  0  0  0  0  0  0  0  0  0  # atno 8009 bound_to 7997
  155.1503  140.3250  155.4435 H   0  0  0  0  0  0  0  0  0  0  0  0  # atno 8010 bound_to 7997
  139.4976  144.3776  151.9657 H   0  0  0  0  0  0  0  0  0  0  0  0  # atno 10167 bound_to 10162
  157.3621  130.7655  149.7055 H   0  0  0  0  0  0  0  0  0  0  0  0  # atno 10718 bound_to 10713
  152.9792  135.5946  154.3916 H   0  0  0  0  0  0  0  0  0  0  0  0  # atno 10763 bound_to 10752
  154.3571  135.2767  155.2342 H   0  0  0  0  0  0  0  0  0  0  0  0  # atno 10764 bound_to 10752
  154.4356  135.6025  153.6151 H   0  0  0  0  0  0  0  0  0  0  0  0  # atno 10765 bound_to 10752
  141.0774  133.6662  156.3623 H   0  0  0  0  0  0  0  0  0  0  0  0  # atno 11005 bound_to 11000
  146.1987  139.5268  142.9758 LP  0  0  0  0  0  0  0  0  0  0  0  0  # atno 17320 bound_to 7965
  145.6104  141.0340  143.1969 LP  0  0  0  0  0  0  0  0  0  0  0  0  # atno 17321 bound_to 7965
  140.3213  144.3425  150.6009 LP  0  0  0  0  0  0  0  0  0  0  0  0  # atno 17342 bound_to 10162
  140.5720  143.2180  151.7581 LP  0  0  0  0  0  0  0  0  0  0  0  0  # atno 17343 bound_to 10162
  155.9739  130.4111  150.3963 LP  0  0  0  0  0  0  0  0  0  0  0  0  # atno 17370 bound_to 10713
  157.2042  131.0445  151.2634 LP  0  0  0  0  0  0  0  0  0  0  0  0  # atno 17371 bound_to 10713
  140.5544  134.5996  157.5416 LP  0  0  0  0  0  0  0  0  0  0  0  0  # atno 17394 bound_to 11000
  139.9586  134.7491  156.0286 LP  0  0  0  0  0  0  0  0  0  0  0  0  # atno 17395 bound_to 11000

$$$$
