AV-unprocessed.smi:3240|AV-procd|sdf|12382|dock2
  -GOLD-   2272018243D 1   1.00000     0.00000
 Structure written by MMmdl.
 44 45  0  0  0  0  0  0  0  0  2 V2000
  143.9326  132.5894  150.2177 C   0  0  0  0  0  0  0  0  0  0  0  0
  144.2437  133.8050  151.0426 C   0  0  0  0  0  0  0  0  0  0  0  0
  143.8867  134.0589  152.3974 C   0  0  0  0  0  0  0  0  0  0  0  0
  144.3154  135.2337  152.8298 N   0  0  0  0  0  0  0  0  0  0  0  0
  144.9576  135.7699  151.7709 N   0  0  0  0  0  0  0  0  0  0  0  0
  145.5708  137.0810  151.8797 C   0  0  0  0  0  0  0  0  0  0  0  0
  145.4277  137.6817  153.3001 C   0  0  1  0  0  0  0  0  0  0  0  0
  146.0553  136.7625  154.3578 C   0  0  0  0  0  0  0  0  0  0  0  0
  146.0485  139.0224  153.3916 N   0  3  0  0  0  0  0  0  0  0  0  0
  146.2944  139.5177  154.7637 C   0  0  0  0  0  0  0  0  0  0  0  0
  146.5579  141.0427  154.7993 C   0  0  0  0  0  0  0  0  0  0  0  0
  145.3671  141.6802  154.3769 O   0  0  0  0  0  0  0  0  0  0  0  0
  146.9210  141.5726  156.2087 C   0  0  0  0  0  0  0  0  0  0  0  0
  148.3185  141.1168  156.6645 C   0  0  0  0  0  0  0  0  0  0  0  0
  149.3955  141.5224  155.6460 C   0  0  0  0  0  0  0  0  0  0  0  0
  149.0640  141.0010  154.2391 C   0  0  0  0  0  0  0  0  0  0  0  0
  147.6600  141.4485  153.7922 C   0  0  0  0  0  0  0  0  0  0  0  0
  144.9306  134.9283  150.6792 C   0  0  0  0  0  0  0  0  0  0  0  0
  143.4199  131.8233  150.7998 H   0  0  0  0  0  0  0  0  0  0  0  0
  144.8379  132.1341  149.8152 H   0  0  0  0  0  0  0  0  0  0  0  0
  143.2899  132.8323  149.3715 H   0  0  0  0  0  0  0  0  0  0  0  0
  143.3312  133.4275  153.0752 H   0  0  0  0  0  0  0  0  0  0  0  0
  146.6223  136.9731  151.6097 H   0  0  0  0  0  0  0  0  0  0  0  0
  145.1407  137.7360  151.1197 H   0  0  0  0  0  0  0  0  0  0  0  0
  144.3717  137.7860  153.5572 H   0  0  0  0  0  0  0  0  0  0  0  0
  145.5843  135.7788  154.3511 H   0  0  0  0  0  0  0  0  0  0  0  0
  145.9353  137.1752  155.3601 H   0  0  0  0  0  0  0  0  0  0  0  0
  147.1224  136.6219  154.1812 H   0  0  0  0  0  0  0  0  0  0  0  0
  146.9461  138.9811  152.9298 H   0  0  0  0  0  0  0  0  0  0  0  0
  145.4349  139.2749  155.3842 H   0  0  0  0  0  0  0  0  0  0  0  0
  147.1456  138.9808  155.1855 H   0  0  0  0  0  0  0  0  0  0  0  0
  144.9768  141.1629  153.6883 H   0  0  0  0  0  0  0  0  0  0  0  0
  146.9027  142.6636  156.1997 H   0  0  0  0  0  0  0  0  0  0  0  0
  146.1751  141.2721  156.9450 H   0  0  0  0  0  0  0  0  0  0  0  0
  148.5497  141.5539  157.6364 H   0  0  0  0  0  0  0  0  0  0  0  0
  148.3329  140.0358  156.8068 H   0  0  0  0  0  0  0  0  0  0  0  0
  149.4792  142.6097  155.6196 H   0  0  0  0  0  0  0  0  0  0  0  0
  150.3687  141.1461  155.9627 H   0  0  0  0  0  0  0  0  0  0  0  0
  149.8082  141.3622  153.5286 H   0  0  0  0  0  0  0  0  0  0  0  0
  149.1356  139.9134  154.2224 H   0  0  0  0  0  0  0  0  0  0  0  0
  147.4412  141.0436  152.8032 H   0  0  0  0  0  0  0  0  0  0  0  0
  147.6672  142.5338  153.6770 H   0  0  0  0  0  0  0  0  0  0  0  0
  145.3974  135.1955  149.7424 H   0  0  0  0  0  0  0  0  0  0  0  0
  145.4678  139.6865  152.9004 H   0  0  0  0  0  0  0  0  0  0  0  0
  1  2  1  0  0  0  0
  1 19  1  0  0  0  0
  1 20  1  0  0  0  0
  1 21  1  0  0  0  0
  2 18  2  0  0  0  0
  2  3  1  0  0  0  0
  3  4  2  0  0  0  0
  3 22  1  0  0  0  0
  4  5  1  0  0  0  0
  5  6  1  0  0  0  0
  5 18  1  0  0  0  0
  6  7  1  0  0  0  0
  6 23  1  0  0  0  0
  6 24  1  0  0  0  0
  7  8  1  0  0  0  0
  7  9  1  0  0  0  0
  7 25  1  0  0  0  0
  8 26  1  0  0  0  0
  8 27  1  0  0  0  0
  8 28  1  0  0  0  0
  9 10  1  0  0  0  0
  9 29  1  0  0  0  0
  9 44  1  0  0  0  0
 10 11  1  0  0  0  0
 10 30  1  0  0  0  0
 10 31  1  0  0  0  0
 11 17  1  0  0  0  0
 11 12  1  0  0  0  0
 11 13  1  0  0  0  0
 12 32  1  0  0  0  0
 13 14  1  0  0  0  0
 13 33  1  0  0  0  0
 13 34  1  0  0  0  0
 14 15  1  0  0  0  0
 14 35  1  0  0  0  0
 14 36  1  0  0  0  0
 15 16  1  0  0  0  0
 15 37  1  0  0  0  0
 15 38  1  0  0  0  0
 16 17  1  0  0  0  0
 16 39  1  0  0  0  0
 16 40  1  0  0  0  0
 17 41  1  0  0  0  0
 17 42  1  0  0  0  0
 18 43  1  0  0  0  0
M  CHG  1   9   1
M  END
> <s_m_source_file>
AV-unprocessed.smi

> <i_m_source_file_index>
3240

> <i_lp_mmshare_version>
43012

> <i_f3d_flags>
0

> <s_epik_input>
W0NIM11jMVtjSF1ubihbY0hdMSlbQ0gyXVtDQEhdKFtDSDNdKVtOSF1bQ0gyXUMyKFtPSF0pW0NIMl1bQ0gyXVtDSDJdW0NIMl1bQ0gyXTI=

> <s_epik_cmdline>
J2VwaWtfcHl0aG9uJywgJy1waCcsICc3LjAnLCAnLXRuJywgJzgnLCAnLW1hJywgJzIwMCcsICctbWV0YWxfYmluZGluZycsICctaW1hZScsICc8aW5maWxlLm1hZT4nLCAnLW9tYWUnLCAnPG91dGZpbGUubWFlPic=

> <r_lp_tautomer_probability>
1

> <r_epik_Ionization_Penalty>
0.0111573

> <r_epik_Ionization_Penalty_Charging>
0.0111472

> <r_epik_Ionization_Penalty_Neutral>
1.01652e-05

> <r_epik_State_Penalty>
0.00856328

> <r_epik_Charging_Adjusted_Penalty>
0.0197104

> <i_epik_Tot_Q>
1

> <i_epik_Tot_abs_Q>
1

> <r_epik_Metal_State_Penalty>
0.00856448

> <b_epik_Metal_Only>
0

> <s_lp_Force_Field>
OPLS_2005

> <r_lp_Energy>
18.8853

> <b_lp_Chiralities_Consistent>
1

> <s_lp_Variant>
AV-unprocessed.smi:3240-2

> <Gold.Version>
5.8.1

> <Gold.Id.Protein>
6NUR|6NUR_protein|mol2

> <Gold.PLP.Fitness>
43.5083

> <Gold.PLP.PLP>
-29.0250

> <Gold.PLP.part.hbond>
-2.0000

> <Gold.PLP.part.metal>
0.0000

> <Gold.PLP.part.buried>
-4.1349

> <Gold.PLP.part.nonpolar>
-25.1105

> <Gold.PLP.part.repulsive>
0.0787

> <Gold.PLP.ligand.clash>
0.0000

> <Gold.PLP.ligand.torsion>
0.2509

> <Gold.PLP.Chemscore.Hbond>
2.9840

> <Gold.PLP.Chemscore.CHOScore>
2.0000

> <Gold.PLP.Chemscore.Metal>
0.0000

> <Gold.Chemscore.Hbonds>
donor molecule, donor type, donor heavy atom, donor atom, acceptor molecule, acceptor atom, score
      L1  H     9    44       P1 10175  2.00
      L1  H    12    32       P1 10175  1.00
      L1  C     3    22       P1 10957  1.00
      L1  C    18    43       P1  7921  1.00

> <Gold.PLP.Chemscore.Internal.Correction>
0.0331

> <Gold.Rescore>
     Score         DG    S(hbond)    S(metal)    S(lipo)     H(rot)  DE(clash)    DE(int)     intcor
     12.79     -14.65       1.92        0.00      69.89       2.12       0.07       1.78       ----

> <Gold.Chemscore.Fitness>
12.7936

> <Gold.Chemscore.DG>
-14.6493

> <Gold.Chemscore.ZeroCoef>
-5.4800

> <Gold.Chemscore.Hbond>
1.9214

> <Gold.Chemscore.Metal>
0.0000

> <Gold.Chemscore.Lipo>
69.8919

> <Gold.Chemscore.Internal_Hbond>
0.0000

> <Gold.Chemscore.DEClash>
0.0748

> <Gold.Chemscore.DEInternal>
1.7809

> <Gold.Chemscore.Rot>
2.1193

> <Gold.Chemscore.Internal.Correction>
   9.000000E+99

> <Gold.Chemscore.Hbonds>
donor molecule, donor type, donor heavy atom, donor atom, acceptor molecule, acceptor atom, score
      L1  H     9    44       P1 10175  0.93
      L1  H    12    32       P1 10175  0.55

> <Gold.Chemscore.Hbond.Weighted>
-6.4173

> <Gold.Chemscore.Metal.Weighted>
-0.0000

> <Gold.Chemscore.Lipo.Weighted>
-8.1774

> <Gold.Chemscore.Internal_Hbond.Weighted>
0.0000

> <Gold.Chemscore.DEClash.Weighted>
0.0748

> <Gold.Chemscore.DEInternal.Weighted>
1.7809

> <Gold.Chemscore.Rot.Weighted>
5.4254

> <Gold.Chemscore.Internal.Correction.Weighted>
   9.000000E+99

> <Gold.Protein.RotatedTorsions>
[ 6907 6896 6895 6894 ] final   31.19 input  -60.11 | X-H torsion
[ 7974 7965 7964 7962 ] final  109.17 input  175.53 | X-H torsion
[ 8008 7997 7996 7995 ] final  -17.01 input   59.86 | X-H torsion
[ 10167 10162 10161 10158 ] final  -24.69 input  -65.29 | X-H torsion
[ 10718 10713 10712 10709 ] final    8.74 input   66.30 | X-H torsion
[ 10763 10752 10751 10750 ] final  124.45 input  -60.55 | X-H torsion
[ 11005 11000 10999 10996 ] final  -11.79 input  -57.11 | X-H torsion

> <Gold.Protein.ActiveResidues>
 VAL166  LYS551  ARG553  GLY616  TRP617  ASP618  TYR619  PRO620  LYS621  CYS622 
 ASP623  PHE694  ASN695  SER759  ASP760  ASP761  ALA762  ILE779  LEU786  VAL792 
 PHE793  MET794  SER795  GLU796  ALA797  LYS798  CYS799  TRP800  GLU811  SER814 

> <Gold.Protein.RotatedAtoms>
  152.0568  134.9619  160.0574 H   0  0  0  0  0  0  0  0  0  0  0  0  # atno 6907 bound_to 6896
  152.0999  133.4239  159.4590 H   0  0  0  0  0  0  0  0  0  0  0  0  # atno 6908 bound_to 6896
  150.6839  134.2692  159.4624 H   0  0  0  0  0  0  0  0  0  0  0  0  # atno 6909 bound_to 6896
  145.2712  139.2666  143.3965 H   0  0  0  0  0  0  0  0  0  0  0  0  # atno 7974 bound_to 7965
  154.5010  140.2154  155.9347 H   0  0  0  0  0  0  0  0  0  0  0  0  # atno 8008 bound_to 7997
  156.1433  140.3175  155.8498 H   0  0  0  0  0  0  0  0  0  0  0  0  # atno 8009 bound_to 7997
  155.4078  140.0488  157.3024 H   0  0  0  0  0  0  0  0  0  0  0  0  # atno 8010 bound_to 7997
  140.7288  143.4331  151.0771 H   0  0  0  0  0  0  0  0  0  0  0  0  # atno 10167 bound_to 10162
  156.9561  130.5915  149.5659 H   0  0  0  0  0  0  0  0  0  0  0  0  # atno 10718 bound_to 10713
  153.6615  135.3345  155.3128 H   0  0  0  0  0  0  0  0  0  0  0  0  # atno 10763 bound_to 10752
  154.8513  135.4365  154.1799 H   0  0  0  0  0  0  0  0  0  0  0  0  # atno 10764 bound_to 10752
  153.2767  135.7005  153.7501 H   0  0  0  0  0  0  0  0  0  0  0  0  # atno 10765 bound_to 10752
  140.7589  133.8531  155.9108 H   0  0  0  0  0  0  0  0  0  0  0  0  # atno 11005 bound_to 11000
  146.3246  140.3155  142.8629 LP  0  0  0  0  0  0  0  0  0  0  0  0  # atno 17320 bound_to 7965
  144.9334  140.7999  143.5675 LP  0  0  0  0  0  0  0  0  0  0  0  0  # atno 17321 bound_to 7965
  139.7990  143.8111  152.3161 LP  0  0  0  0  0  0  0  0  0  0  0  0  # atno 17342 bound_to 10162
  139.8121  144.7331  150.9684 LP  0  0  0  0  0  0  0  0  0  0  0  0  # atno 17343 bound_to 10162
  156.0342  130.5431  150.8611 LP  0  0  0  0  0  0  0  0  0  0  0  0  # atno 17370 bound_to 10713
  157.5689  131.0946  150.9448 LP  0  0  0  0  0  0  0  0  0  0  0  0  # atno 17371 bound_to 10713
  140.9681  134.1567  157.4599 LP  0  0  0  0  0  0  0  0  0  0  0  0  # atno 17394 bound_to 11000
  139.8774  134.9969  156.5818 LP  0  0  0  0  0  0  0  0  0  0  0  0  # atno 17395 bound_to 11000

$$$$
