AV-unprocessed.smi:3141|AV-procd|sdf|11966|dock8
  -GOLD-   2272017363D 1   1.00000     0.00000
 Structure written by MMmdl.
 35 37  0  0  0  0  0  0  0  0  1 V2000
  150.9741  141.4839  156.7023 O   0  0  0  0  0  0  0  0  0  0  0  0
  150.3187  142.4342  156.2740 C   0  0  0  0  0  0  0  0  0  0  0  0
  150.3474  143.6670  156.7970 N   0  0  0  0  0  0  0  0  0  0  0  0
  151.1341  144.0711  157.9167 C   0  0  0  0  0  0  0  0  0  0  0  0
  150.4050  144.5170  159.1660 C   0  0  0  0  0  0  0  0  0  0  0  0
  151.1018  145.5337  158.3046 C   0  0  0  0  0  0  0  0  0  0  0  0
  149.4840  142.3588  155.2281 N   0  0  0  0  0  0  0  0  0  0  0  0
  149.2180  141.1463  154.4588 C   0  0  2  0  0  0  0  0  0  0  0  0
  147.9719  141.3326  153.5721 C   0  0  0  0  0  0  0  0  0  0  0  0
  146.8851  140.4345  154.1665 C   0  0  0  0  0  0  0  0  0  0  0  0
  147.6567  139.2762  154.7899 C   0  0  0  0  0  0  0  0  0  0  0  0
  148.9021  139.9456  155.3831 C   0  0  1  0  0  0  0  0  0  0  0  0
  150.0222  139.0328  155.5510 N   0  0  0  0  0  0  0  0  0  0  0  0
  150.6155  138.2576  154.5627 C   0  0  0  0  0  0  0  0  0  0  0  0
  151.6253  137.5465  155.1703 C   0  0  0  0  0  0  0  0  0  0  0  0
  151.6734  137.8648  156.5250 N   0  0  0  0  0  0  0  0  0  0  0  0
  150.6949  138.7477  156.6763 C   0  0  0  0  0  0  0  0  0  0  0  0
  149.7701  144.3764  156.3698 H   0  0  0  0  0  0  0  0  0  0  0  0
  152.0817  143.5574  158.0733 H   0  0  0  0  0  0  0  0  0  0  0  0
  149.3168  144.5084  159.1520 H   0  0  0  0  0  0  0  0  0  0  0  0
  150.8595  144.2757  160.1249 H   0  0  0  0  0  0  0  0  0  0  0  0
  152.0215  145.9709  158.6882 H   0  0  0  0  0  0  0  0  0  0  0  0
  150.4779  146.2041  157.7165 H   0  0  0  0  0  0  0  0  0  0  0  0
  148.9892  143.1936  154.9499 H   0  0  0  0  0  0  0  0  0  0  0  0
  150.0709  140.9394  153.8093 H   0  0  0  0  0  0  0  0  0  0  0  0
  147.6452  142.3706  153.4940 H   0  0  0  0  0  0  0  0  0  0  0  0
  148.2001  140.9943  152.5605 H   0  0  0  0  0  0  0  0  0  0  0  0
  146.3443  140.9758  154.9439 H   0  0  0  0  0  0  0  0  0  0  0  0
  146.1594  140.1049  153.4226 H   0  0  0  0  0  0  0  0  0  0  0  0
  147.0735  138.7396  155.5389 H   0  0  0  0  0  0  0  0  0  0  0  0
  147.9297  138.5653  154.0088 H   0  0  0  0  0  0  0  0  0  0  0  0
  148.6256  140.3184  156.3715 H   0  0  0  0  0  0  0  0  0  0  0  0
  150.2770  138.2721  153.5373 H   0  0  0  0  0  0  0  0  0  0  0  0
  152.3143  136.8350  154.7398 H   0  0  0  0  0  0  0  0  0  0  0  0
  150.4604  139.1969  157.6303 H   0  0  0  0  0  0  0  0  0  0  0  0
  1  2  2  0  0  0  0
  2  3  1  0  0  0  0
  2  7  1  0  0  0  0
  3  4  1  0  0  0  0
  3 18  1  0  0  0  0
  4  6  1  0  0  0  0
  4  5  1  0  0  0  0
  4 19  1  0  0  0  0
  5  6  1  0  0  0  0
  5 20  1  0  0  0  0
  5 21  1  0  0  0  0
  6 22  1  0  0  0  0
  6 23  1  0  0  0  0
  7  8  1  0  0  0  0
  7 24  1  0  0  0  0
  8 12  1  0  0  0  0
  8  9  1  0  0  0  0
  8 25  1  0  0  0  0
  9 10  1  0  0  0  0
  9 26  1  0  0  0  0
  9 27  1  0  0  0  0
 10 11  1  0  0  0  0
 10 28  1  0  0  0  0
 10 29  1  0  0  0  0
 11 12  1  0  0  0  0
 11 30  1  0  0  0  0
 11 31  1  0  0  0  0
 12 13  1  0  0  0  0
 12 32  1  0  0  0  0
 13 17  1  0  0  0  0
 13 14  1  0  0  0  0
 14 15  2  0  0  0  0
 14 33  1  0  0  0  0
 15 16  1  0  0  0  0
 15 34  1  0  0  0  0
 16 17  2  0  0  0  0
 17 35  1  0  0  0  0
M  END
> <s_m_source_file>
AV-unprocessed.smi

> <i_m_source_file_index>
3141

> <i_lp_mmshare_version>
43012

> <i_f3d_flags>
0

> <s_epik_input>
W0NIMl0xW0NIMl1bQ0hdMVtOSF1DKD1PKVtOSF1bQ0BASF0yW0NIMl1bQ0gyXVtDSDJdW0NASF0ybjNbY0hdW2NIXW5bY0hdMw==

> <s_epik_cmdline>
J2VwaWtfcHl0aG9uJywgJy1waCcsICc3LjAnLCAnLXRuJywgJzgnLCAnLW1hJywgJzIwMCcsICctbWV0YWxfYmluZGluZycsICctaW1hZScsICc8aW5maWxlLm1hZT4nLCAnLW9tYWUnLCAnPG91dGZpbGUubWFlPic=

> <r_lp_tautomer_probability>
1

> <r_epik_Ionization_Penalty>
0.728419

> <r_epik_Ionization_Penalty_Charging>
0.728357

> <r_epik_Ionization_Penalty_Neutral>
6.27871e-05

> <r_epik_State_Penalty>
0.753408

> <r_epik_Charging_Adjusted_Penalty>
1.48176

> <i_epik_Tot_Q>
0

> <i_epik_Tot_abs_Q>
0

> <r_epik_Metal_State_Penalty>
0.332413

> <b_epik_Metal_Only>
0

> <s_lp_Force_Field>
OPLS_2005

> <r_lp_Energy>
34.1677

> <b_lp_Chiralities_Consistent>
1

> <s_lp_Variant>
AV-unprocessed.smi:3141-5

> <Gold.Version>
5.8.1

> <Gold.Id.Protein>
6NUR|6NUR_protein|mol2

> <Gold.PLP.Fitness>
44.5238

> <Gold.PLP.PLP>
-32.3862

> <Gold.PLP.part.hbond>
-1.9919

> <Gold.PLP.part.metal>
0.0000

> <Gold.PLP.part.buried>
-4.8153

> <Gold.PLP.part.nonpolar>
-27.5925

> <Gold.PLP.part.repulsive>
0.2467

> <Gold.PLP.ligand.clash>
0.0000

> <Gold.PLP.ligand.torsion>
0.1896

> <Gold.PLP.Chemscore.Hbond>
1.8800

> <Gold.PLP.Chemscore.CHOScore>
2.2790

> <Gold.PLP.Chemscore.Metal>
0.0000

> <Gold.Chemscore.Hbonds>
donor molecule, donor type, donor heavy atom, donor atom, acceptor molecule, acceptor atom, score
      L1  H     3    18       P1  8028  0.08
      L1  H     7    24       P1  8028  0.66
      L1  C    14    33       P1  7948  0.06

> <Gold.PLP.Chemscore.Internal.Correction>
0.0398

> <Gold.Rescore>
     Score         DG    S(hbond)    S(metal)    S(lipo)     H(rot)  DE(clash)    DE(int)     intcor
     14.79     -17.38       1.89        0.00      82.10       1.57       0.13       2.45       ----

> <Gold.Chemscore.Fitness>
14.7949

> <Gold.Chemscore.DG>
-17.3797

> <Gold.Chemscore.ZeroCoef>
-5.4800

> <Gold.Chemscore.Hbond>
1.8907

> <Gold.Chemscore.Metal>
0.0000

> <Gold.Chemscore.Lipo>
82.0967

> <Gold.Chemscore.Internal_Hbond>
0.0000

> <Gold.Chemscore.DEClash>
0.1339

> <Gold.Chemscore.DEInternal>
2.4509

> <Gold.Chemscore.Rot>
1.5705

> <Gold.Chemscore.Internal.Correction>
   9.000000E+99

> <Gold.Chemscore.Hbonds>
donor molecule, donor type, donor heavy atom, donor atom, acceptor molecule, acceptor atom, score
      L1  H     3    18       P1  8028  0.11
      L1  H     7    24       P1  8028  0.66

> <Gold.Chemscore.Hbond.Weighted>
-6.3150

> <Gold.Chemscore.Metal.Weighted>
-0.0000

> <Gold.Chemscore.Lipo.Weighted>
-9.6053

> <Gold.Chemscore.Internal_Hbond.Weighted>
0.0000

> <Gold.Chemscore.DEClash.Weighted>
0.1339

> <Gold.Chemscore.DEInternal.Weighted>
2.4509

> <Gold.Chemscore.Rot.Weighted>
4.0206

> <Gold.Chemscore.Internal.Correction.Weighted>
   9.000000E+99

> <Gold.Protein.RotatedTorsions>
[ 6907 6896 6895 6894 ] final   58.53 input  -60.11 | X-H torsion
[ 7974 7965 7964 7962 ] final  100.86 input  175.53 | X-H torsion
[ 8008 7997 7996 7995 ] final  138.17 input   59.86 | X-H torsion
[ 10167 10162 10161 10158 ] final  142.48 input  -65.29 | X-H torsion
[ 10718 10713 10712 10709 ] final -103.57 input   66.30 | X-H torsion
[ 10763 10752 10751 10750 ] final  -48.48 input  -60.55 | X-H torsion
[ 11005 11000 10999 10996 ] final  103.18 input  -57.11 | X-H torsion

> <Gold.Protein.ActiveResidues>
 VAL166  LYS551  ARG553  GLY616  TRP617  ASP618  TYR619  PRO620  LYS621  CYS622 
 ASP623  PHE694  ASN695  SER759  ASP760  ASP761  ALA762  ILE779  LEU786  VAL792 
 PHE793  MET794  SER795  GLU796  ALA797  LYS798  CYS799  TRP800  GLU811  SER814 

> <Gold.Protein.RotatedAtoms>
  152.3832  134.6558  160.0134 H   0  0  0  0  0  0  0  0  0  0  0  0  # atno 6907 bound_to 6896
  151.6814  133.3306  159.3228 H   0  0  0  0  0  0  0  0  0  0  0  0  # atno 6908 bound_to 6896
  150.7764  134.6713  159.6438 H   0  0  0  0  0  0  0  0  0  0  0  0  # atno 6909 bound_to 6896
  145.3800  139.2381  143.3409 H   0  0  0  0  0  0  0  0  0  0  0  0  # atno 7974 bound_to 7965
  156.2999  140.2400  156.4029 H   0  0  0  0  0  0  0  0  0  0  0  0  # atno 8008 bound_to 7997
  154.8511  140.0424  157.1624 H   0  0  0  0  0  0  0  0  0  0  0  0  # atno 8009 bound_to 7997
  154.8998  140.2975  155.5328 H   0  0  0  0  0  0  0  0  0  0  0  0  # atno 8010 bound_to 7997
  139.4993  144.6104  151.6285 H   0  0  0  0  0  0  0  0  0  0  0  0  # atno 10167 bound_to 10162
  156.0270  130.5473  150.7272 H   0  0  0  0  0  0  0  0  0  0  0  0  # atno 10718 bound_to 10713
  154.0785  135.6594  153.4834 H   0  0  0  0  0  0  0  0  0  0  0  0  # atno 10763 bound_to 10752
  153.0364  135.5174  154.7497 H   0  0  0  0  0  0  0  0  0  0  0  0  # atno 10764 bound_to 10752
  154.6585  135.3011  154.9865 H   0  0  0  0  0  0  0  0  0  0  0  0  # atno 10765 bound_to 10752
  139.8782  134.9253  156.5171 H   0  0  0  0  0  0  0  0  0  0  0  0  # atno 11005 bound_to 11000
  146.2846  140.4465  142.8763 LP  0  0  0  0  0  0  0  0  0  0  0  0  # atno 17320 bound_to 7965
  144.8515  140.7007  143.6165 LP  0  0  0  0  0  0  0  0  0  0  0  0  # atno 17321 bound_to 7965
  140.5777  144.0000  150.6250 LP  0  0  0  0  0  0  0  0  0  0  0  0  # atno 17342 bound_to 10162
  140.3139  143.3180  152.0851 LP  0  0  0  0  0  0  0  0  0  0  0  0  # atno 17343 bound_to 10162
  157.4873  131.0908  151.0467 LP  0  0  0  0  0  0  0  0  0  0  0  0  # atno 17370 bound_to 10713
  157.0884  130.5932  149.5434 LP  0  0  0  0  0  0  0  0  0  0  0  0  # atno 17371 bound_to 10713
  140.8478  133.8155  155.9138 LP  0  0  0  0  0  0  0  0  0  0  0  0  # atno 17394 bound_to 11000
  140.9174  134.2184  157.4948 LP  0  0  0  0  0  0  0  0  0  0  0  0  # atno 17395 bound_to 11000

$$$$
