AV-unprocessed.smi:45|AV-procd|sdf|416|dock7
  -GOLD-   2262016293D 1   1.00000     0.00000
 Structure written by MMmdl.
 60 63  0  0  0  0  0  0  0  0  3 V2000
  145.6900  127.5223  155.9022 C   0  0  0  0  0  0  0  0  0  0  0  0
  146.4094  127.7949  154.7085 O   0  0  0  0  0  0  0  0  0  0  0  0
  147.3443  128.8092  154.7267 C   0  0  0  0  0  0  0  0  0  0  0  0
  147.7249  129.5101  155.8994 C   0  0  0  0  0  0  0  0  0  0  0  0
  148.6885  130.5350  155.8398 C   0  0  0  0  0  0  0  0  0  0  0  0
  149.2872  130.8777  154.6114 C   0  0  0  0  0  0  0  0  0  0  0  0
  150.3251  131.9805  154.5490 C   0  0  0  0  0  0  0  0  0  0  0  0
  149.8546  133.2397  155.1069 N   0  0  0  0  0  0  0  0  0  0  0  0
  148.5070  133.6289  155.0162 C   0  0  0  0  0  0  0  0  0  0  0  0
  147.8822  133.4710  153.8266 N   0  0  0  0  0  0  0  0  0  0  0  0
  146.5945  133.8128  153.6841 C   0  0  0  0  0  0  0  0  0  0  0  0
  145.9903  133.6265  152.4419 N   0  0  0  0  0  0  0  0  0  0  0  0
  145.9174  132.3103  151.8162 C   0  0  0  0  0  0  0  0  0  0  0  0
  144.6109  132.2914  151.0211 C   0  0  0  0  0  0  0  0  0  0  0  0
  144.4170  133.7540  150.6394 C   0  0  0  0  0  0  0  0  0  0  0  0
  144.9754  134.5042  151.8580 C   0  0  2  0  0  0  0  0  0  0  0  0
  145.4692  135.9375  151.5552 C   0  0  0  0  0  0  0  0  0  0  0  0
  145.6430  136.1497  150.1690 O   0  0  0  0  0  0  0  0  0  0  0  0
  145.8759  134.3111  154.7017 N   0  3  0  0  0  0  0  0  0  0  0  0
  146.4530  134.4888  155.9143 C   0  0  0  0  0  0  0  0  0  0  0  0
  147.8068  134.1506  156.1321 C   0  0  0  0  0  0  0  0  0  0  0  0
  148.4485  134.3793  157.4776 C   0  0  0  0  0  0  0  0  0  0  0  0
  149.1375  133.4760  157.9651 O   0  0  0  0  0  0  0  0  0  0  0  0
  148.1320  135.6025  157.9833 N   0  5  0  0  0  0  0  0  0  0  0  0
  148.8110  136.2136  159.1249 C   0  0  0  0  0  0  0  0  0  0  0  0
  148.1846  135.7848  160.4443 C   0  0  0  0  0  0  0  0  0  0  0  0
  147.7997  136.7605  161.2767 N   0  0  0  0  0  0  0  0  0  0  0  0
  147.2230  136.3832  162.4383 C   0  0  0  0  0  0  0  0  0  0  0  0
  147.0329  135.0259  162.7661 C   0  0  0  0  0  0  0  0  0  0  0  0
  147.4786  134.0869  161.8147 C   0  0  0  0  0  0  0  0  0  0  0  0
  148.0548  134.4690  160.6543 N   0  0  0  0  0  0  0  0  0  0  0  0
  148.9150  130.1861  153.4423 C   0  0  0  0  0  0  0  0  0  0  0  0
  147.9507  129.1607  153.4996 C   0  0  0  0  0  0  0  0  0  0  0  0
  147.5158  128.3335  152.0467 Cl  0  0  0  0  0  0  0  0  0  0  0  0
  144.1751  134.5738  152.5961 H   0  0  0  0  0  0  0  0  0  0  0  0
  145.0006  126.6967  155.7260 H   0  0  0  0  0  0  0  0  0  0  0  0
  145.0988  128.3833  156.2170 H   0  0  0  0  0  0  0  0  0  0  0  0
  146.3582  127.2263  156.7117 H   0  0  0  0  0  0  0  0  0  0  0  0
  147.2910  129.2804  156.8605 H   0  0  0  0  0  0  0  0  0  0  0  0
  148.9670  131.0593  156.7423 H   0  0  0  0  0  0  0  0  0  0  0  0
  151.2094  131.6514  155.0962 H   0  0  0  0  0  0  0  0  0  0  0  0
  150.6285  132.1389  153.5132 H   0  0  0  0  0  0  0  0  0  0  0  0
  150.5146  133.8437  155.5769 H   0  0  0  0  0  0  0  0  0  0  0  0
  146.7743  132.1926  151.1522 H   0  0  0  0  0  0  0  0  0  0  0  0
  145.9409  131.5002  152.5461 H   0  0  0  0  0  0  0  0  0  0  0  0
  144.6472  131.6240  150.1595 H   0  0  0  0  0  0  0  0  0  0  0  0
  143.7911  131.9685  151.6643 H   0  0  0  0  0  0  0  0  0  0  0  0
  144.9981  133.9664  149.7413 H   0  0  0  0  0  0  0  0  0  0  0  0
  143.3767  134.0046  150.4302 H   0  0  0  0  0  0  0  0  0  0  0  0
  144.7355  136.6584  151.9165 H   0  0  0  0  0  0  0  0  0  0  0  0
  146.4024  136.1668  152.0673 H   0  0  0  0  0  0  0  0  0  0  0  0
  145.0038  136.7829  149.8789 H   0  0  0  0  0  0  0  0  0  0  0  0
  145.8077  134.9029  156.6757 H   0  0  0  0  0  0  0  0  0  0  0  0
  149.8717  135.9573  159.1471 H   0  0  0  0  0  0  0  0  0  0  0  0
  148.7820  137.3031  159.0707 H   0  0  0  0  0  0  0  0  0  0  0  0
  146.9113  137.1691  163.1101 H   0  0  0  0  0  0  0  0  0  0  0  0
  146.5719  134.7225  163.6942 H   0  0  0  0  0  0  0  0  0  0  0  0
  147.3729  133.0258  161.9849 H   0  0  0  0  0  0  0  0  0  0  0  0
  149.3670  130.4418  152.4950 H   0  0  0  0  0  0  0  0  0  0  0  0
  144.8954  134.5609  154.5756 H   0  0  0  0  0  0  0  0  0  0  0  0
  1  2  1  0  0  0  0
  1 36  1  0  0  0  0
  1 37  1  0  0  0  0
  1 38  1  0  0  0  0
  2  3  1  0  0  0  0
  3 33  1  0  0  0  0
  3  4  2  0  0  0  0
  4  5  1  0  0  0  0
  4 39  1  0  0  0  0
  5  6  2  0  0  0  0
  5 40  1  0  0  0  0
  6  7  1  0  0  0  0
  6 32  1  0  0  0  0
  7  8  1  0  0  0  0
  7 41  1  0  0  0  0
  7 42  1  0  0  0  0
  8  9  1  0  0  0  0
  8 43  1  0  0  0  0
  9 21  1  0  0  0  0
  9 10  2  0  0  0  0
 10 11  1  0  0  0  0
 11 12  1  0  0  0  0
 11 19  2  0  0  0  0
 12 16  1  0  0  0  0
 12 13  1  0  0  0  0
 13 14  1  0  0  0  0
 13 44  1  0  0  0  0
 13 45  1  0  0  0  0
 14 15  1  0  0  0  0
 14 46  1  0  0  0  0
 14 47  1  0  0  0  0
 15 16  1  0  0  0  0
 15 48  1  0  0  0  0
 15 49  1  0  0  0  0
 16 35  1  0  0  0  0
 16 17  1  0  0  0  0
 17 18  1  0  0  0  0
 17 50  1  0  0  0  0
 17 51  1  0  0  0  0
 18 52  1  0  0  0  0
 19 20  1  0  0  0  0
 19 60  1  0  0  0  0
 20 21  2  0  0  0  0
 20 53  1  0  0  0  0
 21 22  1  0  0  0  0
 22 23  2  0  0  0  0
 22 24  1  0  0  0  0
 24 25  1  0  0  0  0
 25 26  1  0  0  0  0
 25 54  1  0  0  0  0
 25 55  1  0  0  0  0
 26 31  1  0  0  0  0
 26 27  2  0  0  0  0
 27 28  1  0  0  0  0
 28 29  2  0  0  0  0
 28 56  1  0  0  0  0
 29 30  1  0  0  0  0
 29 57  1  0  0  0  0
 30 31  2  0  0  0  0
 30 58  1  0  0  0  0
 32 33  2  0  0  0  0
 32 59  1  0  0  0  0
 33 34  1  0  0  0  0
M  CHG  1  19   1
M  CHG  1  24  -1
M  END
> <s_m_source_file>
AV-unprocessed.smi

> <i_m_source_file_index>
45

> <i_lp_mmshare_version>
43012

> <i_f3d_flags>
0

> <s_epik_input>
W0NIM11PYzFbY0hdW2NIXWMoW2NIXWMxQ2wpW0NIMl1bTkhdYzJuYyhOM1tDSDJdW0NIMl1bQ0gyXVtDQEhdM1tDSDJdW09IXSluW2NIXWMyQyg9TylbTkhdW0NIMl1jNG5bY0hdW2NIXVtjSF1uNA==

> <s_epik_cmdline>
J2VwaWtfcHl0aG9uJywgJy1waCcsICc3LjAnLCAnLXRuJywgJzgnLCAnLW1hJywgJzIwMCcsICctbWV0YWxfYmluZGluZycsICctaW1hZScsICc8aW5maWxlLm1hZT4nLCAnLW9tYWUnLCAnPG91dGZpbGUubWFlPic=

> <r_lp_tautomer_probability>
0.575011

> <r_epik_Ionization_Penalty>
6.73124

> <r_epik_Ionization_Penalty_Charging>
6.73106

> <r_epik_Ionization_Penalty_Neutral>
0.000179426

> <r_epik_State_Penalty>
8.26145

> <r_epik_Charging_Adjusted_Penalty>
14.9925

> <i_epik_Tot_Q>
0

> <i_epik_Tot_abs_Q>
2

> <r_epik_Metal_State_Penalty>
4.22532

> <b_epik_Metal_Only>
1

> <s_epik_Chemistry_Notes>
This compound contains an electron-poor aromatic ring that is susceptible to covalent hydrolysis at low pH, typically resulting in measured values for nitrogen ring protonation that are around two units higher than predicted values.

> <s_lp_Force_Field>
OPLS_2005

> <r_lp_Energy>
47.4245

> <b_lp_Chiralities_Consistent>
1

> <s_lp_Variant>
AV-unprocessed.smi:45-10

> <Gold.Version>
5.8.1

> <Gold.Id.Protein>
6NUR|6NUR_protein|mol2

> <Gold.PLP.Fitness>
52.1596

> <Gold.PLP.PLP>
-46.3330

> <Gold.PLP.part.hbond>
-4.9681

> <Gold.PLP.part.metal>
0.0000

> <Gold.PLP.part.buried>
-8.6619

> <Gold.PLP.part.nonpolar>
-32.7452

> <Gold.PLP.part.repulsive>
0.2155

> <Gold.PLP.ligand.clash>
0.6512

> <Gold.PLP.ligand.torsion>
3.1319

> <Gold.PLP.Chemscore.Hbond>
3.8553

> <Gold.PLP.Chemscore.CHOScore>
0.0000

> <Gold.PLP.Chemscore.Metal>
0.0000

> <Gold.Chemscore.Hbonds>
donor molecule, donor type, donor heavy atom, donor atom, acceptor molecule, acceptor atom, score
      L1  H    18    52       P1 10171  0.80
      P1  H  6896  6907       L1    23  0.76
      P1  H  6931  6943       L1    27  0.99
      P1  H  6934  6947       L1    27  0.14

> <Gold.PLP.Chemscore.Internal.Correction>
1.1757

> <Gold.Rescore>
     Score         DG    S(hbond)    S(metal)    S(lipo)     H(rot)  DE(clash)    DE(int)     intcor
     15.55     -19.87       3.25        0.00      93.68       2.90       0.01       4.30       ----

> <Gold.Chemscore.Fitness>
15.5538

> <Gold.Chemscore.DG>
-19.8719

> <Gold.Chemscore.ZeroCoef>
-5.4800

> <Gold.Chemscore.Hbond>
3.2490

> <Gold.Chemscore.Metal>
0.0000

> <Gold.Chemscore.Lipo>
93.6839

> <Gold.Chemscore.Internal_Hbond>
0.0000

> <Gold.Chemscore.DEClash>
0.0133

> <Gold.Chemscore.DEInternal>
4.3048

> <Gold.Chemscore.Rot>
2.8988

> <Gold.Chemscore.Internal.Correction>
   9.000000E+99

> <Gold.Chemscore.Hbonds>
donor molecule, donor type, donor heavy atom, donor atom, acceptor molecule, acceptor atom, score
      L1  H    18    52       P1 10171  0.78
      P1  H  6896  6907       L1    23  0.72
      P1  H  6931  6943       L1    27  0.27
      P1  H  6934  6947       L1    27  0.08

> <Gold.Chemscore.Hbond.Weighted>
-10.8518

> <Gold.Chemscore.Metal.Weighted>
-0.0000

> <Gold.Chemscore.Lipo.Weighted>
-10.9610

> <Gold.Chemscore.Internal_Hbond.Weighted>
0.0000

> <Gold.Chemscore.DEClash.Weighted>
0.0133

> <Gold.Chemscore.DEInternal.Weighted>
4.3048

> <Gold.Chemscore.Rot.Weighted>
7.4209

> <Gold.Chemscore.Internal.Correction.Weighted>
   9.000000E+99

> <Gold.Protein.RotatedTorsions>
[ 6907 6896 6895 6894 ] final -103.95 input  -60.11 | X-H torsion
[ 7974 7965 7964 7962 ] final  -33.17 input  175.53 | X-H torsion
[ 8008 7997 7996 7995 ] final -148.81 input   59.86 | X-H torsion
[ 10167 10162 10161 10158 ] final  141.81 input  -65.29 | X-H torsion
[ 10718 10713 10712 10709 ] final -118.29 input   66.30 | X-H torsion
[ 10763 10752 10751 10750 ] final   51.39 input  -60.55 | X-H torsion
[ 11005 11000 10999 10996 ] final  -57.68 input  -57.11 | X-H torsion

> <Gold.Protein.ActiveResidues>
 VAL166  LYS551  ARG553  GLY616  TRP617  ASP618  TYR619  PRO620  LYS621  CYS622 
 ASP623  PHE694  ASN695  SER759  ASP760  ASP761  ALA762  ILE779  LEU786  VAL792 
 PHE793  MET794  SER795  GLU796  ALA797  LYS798  CYS799  TRP800  GLU811  SER814 

> <Gold.Protein.RotatedAtoms>
  150.7264  134.0351  159.3746 H   0  0  0  0  0  0  0  0  0  0  0  0  # atno 6907 bound_to 6896
  151.8322  135.0615  160.0447 H   0  0  0  0  0  0  0  0  0  0  0  0  # atno 6908 bound_to 6896
  152.2925  133.5539  159.5603 H   0  0  0  0  0  0  0  0  0  0  0  0  # atno 6909 bound_to 6896
  146.0932  140.5884  142.8855 H   0  0  0  0  0  0  0  0  0  0  0  0  # atno 7974 bound_to 7965
  155.5976  140.0659  157.2742 H   0  0  0  0  0  0  0  0  0  0  0  0  # atno 8008 bound_to 7997
  154.4288  140.1824  156.1187 H   0  0  0  0  0  0  0  0  0  0  0  0  # atno 8009 bound_to 7997
  156.0184  140.3319  155.7017 H   0  0  0  0  0  0  0  0  0  0  0  0  # atno 8010 bound_to 7997
  139.5010  144.6148  151.6190 H   0  0  0  0  0  0  0  0  0  0  0  0  # atno 10167 bound_to 10162
  156.1095  130.6237  150.9272 H   0  0  0  0  0  0  0  0  0  0  0  0  # atno 10718 bound_to 10713
  152.9785  135.5847  154.4407 H   0  0  0  0  0  0  0  0  0  0  0  0  # atno 10763 bound_to 10752
  154.4009  135.2769  155.2099 H   0  0  0  0  0  0  0  0  0  0  0  0  # atno 10764 bound_to 10752
  154.3931  135.6121  153.5908 H   0  0  0  0  0  0  0  0  0  0  0  0  # atno 10765 bound_to 10752
  141.1175  133.6611  156.4806 H   0  0  0  0  0  0  0  0  0  0  0  0  # atno 11005 bound_to 11000
  144.7375  140.4850  143.6893 LP  0  0  0  0  0  0  0  0  0  0  0  0  # atno 17320 bound_to 7965
  145.6000  139.1503  143.3134 LP  0  0  0  0  0  0  0  0  0  0  0  0  # atno 17321 bound_to 7965
  140.5832  143.9909  150.6280 LP  0  0  0  0  0  0  0  0  0  0  0  0  # atno 17342 bound_to 10162
  140.3065  143.3226  152.0921 LP  0  0  0  0  0  0  0  0  0  0  0  0  # atno 17343 bound_to 10162
  157.6275  131.0924  150.8505 LP  0  0  0  0  0  0  0  0  0  0  0  0  # atno 17370 bound_to 10713
  156.8618  130.5116  149.5303 LP  0  0  0  0  0  0  0  0  0  0  0  0  # atno 17371 bound_to 10713
  140.4604  134.6847  157.5082 LP  0  0  0  0  0  0  0  0  0  0  0  0  # atno 17394 bound_to 11000
  140.0107  134.6694  155.9384 LP  0  0  0  0  0  0  0  0  0  0  0  0  # atno 17395 bound_to 11000

$$$$
