AV-unprocessed.smi:2270|AV-procd|sdf|9156|dock6
  -GOLD-   2272012363D 1   1.00000     0.00000
 Structure written by MMmdl.
 53 54  0  0  0  0  0  0  0  0  2 V2000
  153.0457  141.7669  160.7612 C   0  0  0  0  0  0  0  0  0  0  0  0
  152.3573  142.8303  159.9315 C   0  0  0  0  0  0  0  0  0  0  0  0
  152.6263  144.1974  160.1385 C   0  0  0  0  0  0  0  0  0  0  0  0
  151.9571  145.1344  159.3311 C   0  0  0  0  0  0  0  0  0  0  0  0
  151.0543  144.6691  158.3554 C   0  0  0  0  0  0  0  0  0  0  0  0
  150.8425  143.2795  158.2115 C   0  0  0  0  0  0  0  0  0  0  0  0
  149.9154  142.9133  157.2000 N   0  0  0  0  0  0  0  0  0  0  0  0
  149.4959  141.6802  156.8661 C   0  0  0  0  0  0  0  0  0  0  0  0
  149.8598  140.6318  157.3991 O   0  0  0  0  0  0  0  0  0  0  0  0
  148.5993  141.7256  155.8703 N   0  0  0  0  0  0  0  0  0  0  0  0
  147.9641  140.5584  155.2655 C   0  0  0  0  0  0  0  0  0  0  0  0
  146.6121  140.8581  154.5497 C   0  0  2  0  0  0  0  0  0  0  0  0
  145.5557  141.4837  155.5062 C   0  0  0  0  0  0  0  0  0  0  0  0
  145.7205  143.0123  155.6260 C   0  0  0  0  0  0  0  0  0  0  0  0
  145.5857  140.8701  156.9193 C   0  0  0  0  0  0  0  0  0  0  0  0
  146.0182  139.6775  153.8465 N   0  3  0  0  0  0  0  0  0  0  0  0
  145.3394  138.6703  154.7005 C   0  0  0  0  0  0  0  0  0  0  0  0
  144.5524  137.6762  153.8215 C   0  0  0  0  0  0  0  0  0  0  0  0
  145.4063  137.0195  152.8285 N   0  0  0  0  0  0  0  0  0  0  0  0
  146.3269  136.0502  153.4133 C   0  0  0  0  0  0  0  0  0  0  0  0
  146.0785  138.0236  152.0008 C   0  0  0  0  0  0  0  0  0  0  0  0
  146.8966  139.0210  152.8469 C   0  0  0  0  0  0  0  0  0  0  0  0
  151.4910  142.3837  158.9965 N   0  0  0  0  0  0  0  0  0  0  0  0
  153.5496  142.2046  161.6233 H   0  0  0  0  0  0  0  0  0  0  0  0
  153.7894  141.2436  160.1599 H   0  0  0  0  0  0  0  0  0  0  0  0
  152.3229  141.0368  161.1268 H   0  0  0  0  0  0  0  0  0  0  0  0
  153.3268  144.5219  160.8940 H   0  0  0  0  0  0  0  0  0  0  0  0
  152.1334  146.1926  159.4564 H   0  0  0  0  0  0  0  0  0  0  0  0
  150.5337  145.3764  157.7263 H   0  0  0  0  0  0  0  0  0  0  0  0
  149.5271  143.6804  156.6718 H   0  0  0  0  0  0  0  0  0  0  0  0
  148.3584  142.6279  155.4862 H   0  0  0  0  0  0  0  0  0  0  0  0
  148.6725  140.1107  154.5682 H   0  0  0  0  0  0  0  0  0  0  0  0
  147.8245  139.8214  156.0561 H   0  0  0  0  0  0  0  0  0  0  0  0
  146.8101  141.6172  153.7914 H   0  0  0  0  0  0  0  0  0  0  0  0
  144.5630  141.2947  155.0965 H   0  0  0  0  0  0  0  0  0  0  0  0
  146.7127  143.2759  155.9942 H   0  0  0  0  0  0  0  0  0  0  0  0
  144.9899  143.4329  156.3177 H   0  0  0  0  0  0  0  0  0  0  0  0
  145.5737  143.5172  154.6712 H   0  0  0  0  0  0  0  0  0  0  0  0
  146.5826  140.9294  157.3574 H   0  0  0  0  0  0  0  0  0  0  0  0
  145.2781  139.8251  156.9189 H   0  0  0  0  0  0  0  0  0  0  0  0
  144.9010  141.3915  157.5890 H   0  0  0  0  0  0  0  0  0  0  0  0
  146.0578  138.1381  155.3233 H   0  0  0  0  0  0  0  0  0  0  0  0
  144.6480  139.1706  155.3785 H   0  0  0  0  0  0  0  0  0  0  0  0
  144.0646  136.9232  154.4414 H   0  0  0  0  0  0  0  0  0  0  0  0
  143.7564  138.2064  153.2967 H   0  0  0  0  0  0  0  0  0  0  0  0
  146.8884  135.5432  152.6280 H   0  0  0  0  0  0  0  0  0  0  0  0
  145.7734  135.2903  153.9656 H   0  0  0  0  0  0  0  0  0  0  0  0
  147.0422  136.5080  154.0956 H   0  0  0  0  0  0  0  0  0  0  0  0
  146.7189  137.5289  151.2695 H   0  0  0  0  0  0  0  0  0  0  0  0
  145.3216  138.5653  151.4317 H   0  0  0  0  0  0  0  0  0  0  0  0
  147.3270  139.7741  152.1861 H   0  0  0  0  0  0  0  0  0  0  0  0
  147.7307  138.5143  153.3280 H   0  0  0  0  0  0  0  0  0  0  0  0
  145.2811  140.0807  153.2861 H   0  0  0  0  0  0  0  0  0  0  0  0
  1  2  1  0  0  0  0
  1 24  1  0  0  0  0
  1 25  1  0  0  0  0
  1 26  1  0  0  0  0
  2 23  1  0  0  0  0
  2  3  2  0  0  0  0
  3  4  1  0  0  0  0
  3 27  1  0  0  0  0
  4  5  2  0  0  0  0
  4 28  1  0  0  0  0
  5  6  1  0  0  0  0
  5 29  1  0  0  0  0
  6  7  1  0  0  0  0
  6 23  2  0  0  0  0
  7  8  1  0  0  0  0
  7 30  1  0  0  0  0
  8  9  2  0  0  0  0
  8 10  1  0  0  0  0
 10 11  1  0  0  0  0
 10 31  1  0  0  0  0
 11 12  1  0  0  0  0
 11 32  1  0  0  0  0
 11 33  1  0  0  0  0
 12 13  1  0  0  0  0
 12 16  1  0  0  0  0
 12 34  1  0  0  0  0
 13 14  1  0  0  0  0
 13 15  1  0  0  0  0
 13 35  1  0  0  0  0
 14 36  1  0  0  0  0
 14 37  1  0  0  0  0
 14 38  1  0  0  0  0
 15 39  1  0  0  0  0
 15 40  1  0  0  0  0
 15 41  1  0  0  0  0
 16 22  1  0  0  0  0
 16 17  1  0  0  0  0
 16 53  1  0  0  0  0
 17 18  1  0  0  0  0
 17 42  1  0  0  0  0
 17 43  1  0  0  0  0
 18 19  1  0  0  0  0
 18 44  1  0  0  0  0
 18 45  1  0  0  0  0
 19 20  1  0  0  0  0
 19 21  1  0  0  0  0
 20 46  1  0  0  0  0
 20 47  1  0  0  0  0
 20 48  1  0  0  0  0
 21 22  1  0  0  0  0
 21 49  1  0  0  0  0
 21 50  1  0  0  0  0
 22 51  1  0  0  0  0
 22 52  1  0  0  0  0
M  CHG  1  16   1
M  END
> <s_m_source_file>
AV-unprocessed.smi

> <i_m_source_file_index>
2270

> <i_lp_mmshare_version>
43012

> <i_f3d_flags>
0

> <s_epik_input>
W0NIM11jMVtjSF1bY0hdW2NIXWMobjEpW05IXUMoPU8pW05IXVtDSDJdW0NASF0oW0NIXShbQ0gzXSlbQ0gzXSlOMltDSDJdW0NIMl1OKFtDSDNdKVtDSDJdW0NIMl0y

> <s_epik_cmdline>
J2VwaWtfcHl0aG9uJywgJy1waCcsICc3LjAnLCAnLXRuJywgJzgnLCAnLW1hJywgJzIwMCcsICctbWV0YWxfYmluZGluZycsICctaW1hZScsICc8aW5maWxlLm1hZT4nLCAnLW9tYWUnLCAnPG91dGZpbGUubWFlPic=

> <r_epik_Ionization_Penalty>
0.201855

> <r_epik_Ionization_Penalty_Charging>
0.20006

> <r_epik_Ionization_Penalty_Neutral>
0.00179462

> <r_epik_State_Penalty>
1.43207

> <r_epik_Charging_Adjusted_Penalty>
1.63213

> <i_epik_Tot_Q>
1

> <i_epik_Tot_abs_Q>
1

> <r_epik_Metal_State_Penalty>
1.43208

> <b_epik_Metal_Only>
0

> <s_lp_Force_Field>
OPLS_2005

> <r_lp_Energy>
33.4642

> <b_lp_Chiralities_Consistent>
1

> <s_lp_Variant>
AV-unprocessed.smi:2270-3

> <Gold.Version>
5.8.1

> <Gold.Id.Protein>
6NUR|6NUR_protein|mol2

> <Gold.PLP.Fitness>
46.4154

> <Gold.PLP.PLP>
-37.3196

> <Gold.PLP.part.hbond>
-3.0000

> <Gold.PLP.part.metal>
0.0000

> <Gold.PLP.part.buried>
-3.4937

> <Gold.PLP.part.nonpolar>
-31.1202

> <Gold.PLP.part.repulsive>
0.3033

> <Gold.PLP.ligand.clash>
0.0000

> <Gold.PLP.ligand.torsion>
0.9022

> <Gold.PLP.Chemscore.Hbond>
3.5678

> <Gold.PLP.Chemscore.CHOScore>
0.0000

> <Gold.PLP.Chemscore.Metal>
0.0000

> <Gold.Chemscore.Hbonds>
donor molecule, donor type, donor heavy atom, donor atom, acceptor molecule, acceptor atom, score
      L1  H     7    30       P1  8028  1.00
      L1  H    10    31       P1  8028  0.58
      L1  H    16    53       P1 10175  2.00

> <Gold.PLP.Chemscore.Internal.Correction>
0.1966

> <Gold.Rescore>
     Score         DG    S(hbond)    S(metal)    S(lipo)     H(rot)  DE(clash)    DE(int)     intcor
     18.35     -20.84       2.53        0.00      94.15       1.61       0.45       2.04       ----

> <Gold.Chemscore.Fitness>
18.3460

> <Gold.Chemscore.DG>
-20.8396

> <Gold.Chemscore.ZeroCoef>
-5.4800

> <Gold.Chemscore.Hbond>
2.5325

> <Gold.Chemscore.Metal>
0.0000

> <Gold.Chemscore.Lipo>
94.1455

> <Gold.Chemscore.Internal_Hbond>
0.0000

> <Gold.Chemscore.DEClash>
0.4546

> <Gold.Chemscore.DEInternal>
2.0389

> <Gold.Chemscore.Rot>
1.6070

> <Gold.Chemscore.Internal.Correction>
   9.000000E+99

> <Gold.Chemscore.Hbonds>
donor molecule, donor type, donor heavy atom, donor atom, acceptor molecule, acceptor atom, score
      L1  H     7    30       P1  8028  0.96
      L1  H    10    31       P1  8028  0.57
      L1  H    16    53       P1 10175  1.00

> <Gold.Chemscore.Hbond.Weighted>
-8.4585

> <Gold.Chemscore.Metal.Weighted>
-0.0000

> <Gold.Chemscore.Lipo.Weighted>
-11.0150

> <Gold.Chemscore.Internal_Hbond.Weighted>
0.0000

> <Gold.Chemscore.DEClash.Weighted>
0.4546

> <Gold.Chemscore.DEInternal.Weighted>
2.0389

> <Gold.Chemscore.Rot.Weighted>
4.1140

> <Gold.Chemscore.Internal.Correction.Weighted>
   9.000000E+99

> <Gold.Protein.RotatedTorsions>
[ 6907 6896 6895 6894 ] final -143.24 input  -60.11 | X-H torsion
[ 7974 7965 7964 7962 ] final -170.57 input  175.53 | X-H torsion
[ 8008 7997 7996 7995 ] final  137.63 input   59.86 | X-H torsion
[ 10167 10162 10161 10158 ] final   78.62 input  -65.29 | X-H torsion
[ 10718 10713 10712 10709 ] final   99.94 input   66.30 | X-H torsion
[ 10763 10752 10751 10750 ] final  -96.88 input  -60.55 | X-H torsion
[ 11005 11000 10999 10996 ] final  -71.15 input  -57.11 | X-H torsion

> <Gold.Protein.ActiveResidues>
 VAL166  LYS551  ARG553  GLY616  TRP617  ASP618  TYR619  PRO620  LYS621  CYS622 
 ASP623  PHE694  ASN695  SER759  ASP760  ASP761  ALA762  ILE779  LEU786  VAL792 
 PHE793  MET794  SER795  GLU796  ALA797  LYS798  CYS799  TRP800  GLU811  SER814 

> <Gold.Protein.RotatedAtoms>
  151.0979  133.5266  159.2611 H   0  0  0  0  0  0  0  0  0  0  0  0  # atno 6907 bound_to 6896
  151.2108  135.0480  159.8920 H   0  0  0  0  0  0  0  0  0  0  0  0  # atno 6908 bound_to 6896
  152.5440  134.0794  159.8282 H   0  0  0  0  0  0  0  0  0  0  0  0  # atno 6909 bound_to 6896
  144.7168  140.2053  143.6333 H   0  0  0  0  0  0  0  0  0  0  0  0  # atno 7974 bound_to 7965
  156.3001  140.2414  156.3941 H   0  0  0  0  0  0  0  0  0  0  0  0  # atno 8008 bound_to 7997
  154.8586  140.0421  157.1671 H   0  0  0  0  0  0  0  0  0  0  0  0  # atno 8009 bound_to 7997
  154.8920  140.2964  155.5369 H   0  0  0  0  0  0  0  0  0  0  0  0  # atno 8010 bound_to 7997
  139.9690  144.5908  150.8003 H   0  0  0  0  0  0  0  0  0  0  0  0  # atno 10167 bound_to 10162
  157.6865  131.0684  150.5024 H   0  0  0  0  0  0  0  0  0  0  0  0  # atno 10718 bound_to 10713
  154.7279  135.5067  153.8916 H   0  0  0  0  0  0  0  0  0  0  0  0  # atno 10763 bound_to 10752
  153.0922  135.6662  153.9841 H   0  0  0  0  0  0  0  0  0  0  0  0  # atno 10764 bound_to 10752
  153.9649  135.3044  155.3410 H   0  0  0  0  0  0  0  0  0  0  0  0  # atno 10765 bound_to 10752
  141.1587  133.6809  156.6862 H   0  0  0  0  0  0  0  0  0  0  0  0  # atno 11005 bound_to 11000
  145.8642  139.2238  143.1699 LP  0  0  0  0  0  0  0  0  0  0  0  0  # atno 17320 bound_to 7965
  146.0145  140.8405  142.9954 LP  0  0  0  0  0  0  0  0  0  0  0  0  # atno 17321 bound_to 7965
  140.7528  143.2997  151.3112 LP  0  0  0  0  0  0  0  0  0  0  0  0  # atno 17342 bound_to 10162
  139.6496  144.0387  152.2616 LP  0  0  0  0  0  0  0  0  0  0  0  0  # atno 17343 bound_to 10162
  156.5345  130.4193  149.6185 LP  0  0  0  0  0  0  0  0  0  0  0  0  # atno 17370 bound_to 10713
  156.3039  130.7192  151.2070 LP  0  0  0  0  0  0  0  0  0  0  0  0  # atno 17371 bound_to 10713
  140.3065  134.8121  157.4141 LP  0  0  0  0  0  0  0  0  0  0  0  0  # atno 17394 bound_to 11000
  140.1216  134.5212  155.8179 LP  0  0  0  0  0  0  0  0  0  0  0  0  # atno 17395 bound_to 11000

$$$$
