#       Name:                AV-unprocessed.smi:1993
#       Creating user name   scv26
#       Creation time:       Fri Mar 27 10:28:04 2020


#       File generated by GOLD software.
#

@<TRIPOS>MOLECULE
AV-unprocessed.smi:1993
    58    59     1
SMALL
NO_CHARGES


@<TRIPOS>ATOM
      1 ****        -2.9587  -3.1434   4.0360 C.3            1 S1                 0.0000
      2 ****        -2.3195  -2.0317   3.2113 C.2            1 S1                 0.0000
      3 ****        -1.7796  -1.0787   3.7723 O.2            1 S1                 0.0000
      4 ****        -2.3841  -2.1683   1.8775 N.am           1 S1                 0.0000
      5 ****        -1.8262  -1.2318   0.9004 C.3            1 S1                 0.0000
      6 ****        -0.3288  -1.5483   0.7274 C.2            1 S1                 0.0000
      7 ****         0.0378  -2.6805   0.4074 O.2            1 S1                 0.0000
      8 ****         0.5211  -0.5301   0.9283 N.am           1 S1                 0.0000
      9 ****         1.9684  -0.6060   0.7734 C.3            1 S1                 0.0000
     10 ****         2.4109  -0.4595  -0.6767 C.ar           1 S1                 0.0000
     11 ****         2.8219  -1.6005  -1.3976 C.ar           1 S1                 0.0000
     12 ****         3.2231  -1.4573  -2.7383 C.ar           1 S1                 0.0000
     13 ****         3.1968  -0.1716  -3.3087 C.ar           1 S1                 0.0000
     14 ****         2.8046   0.9287  -2.6333 N.ar           1 S1                 0.0000
     15 ****         2.4187   0.7940  -1.3411 C.ar           1 S1                 0.0000
     16 ****         2.0009   1.9530  -0.6671 N.3            1 S1                 0.0000
     17 ****         0.6551   2.3725  -1.0321 C.3            1 S1                 0.0000
     18 ****         0.2034   3.5304  -0.1264 C.3            1 S1                 0.0000
     19 ****         1.1462   4.5961  -0.2066 O.3            1 S1                 0.0000
     20 ****         2.4469   4.1955   0.2163 C.3            1 S1                 0.0000
     21 ****         2.9538   3.0560  -0.6844 C.3            1 S1                 0.0000
     22 ****        -2.5727  -1.4144  -0.4547 C.3            1 S1                 0.0000
     23 ****        -2.0392  -0.4898  -1.5685 C.3            1 S1                 0.0000
     24 ****        -4.0918  -1.1974  -0.3080 C.3            1 S1                 0.0000
     25 ****        -3.9234  -3.4315   3.6169 H              1 S1                 0.0000
     26 ****        -3.1180  -2.8186   5.0647 H              1 S1                 0.0000
     27 ****        -2.3119  -4.0208   4.0508 H              1 S1                 0.0000
     28 ****        -2.8406  -2.9890   1.5070 H              1 S1                 0.0000
     29 ****        -1.9568  -0.2057   1.2513 H              1 S1                 0.0000
     30 ****         0.1368   0.3643   1.1960 H              1 S1                 0.0000
     31 ****         2.4231   0.1838   1.3718 H              1 S1                 0.0000
     32 ****         2.3424  -1.5440   1.1870 H              1 S1                 0.0000
     33 ****         2.8268  -2.5750  -0.9318 H              1 S1                 0.0000
     34 ****         3.5420  -2.3125  -3.3153 H              1 S1                 0.0000
     35 ****         3.4968  -0.0222  -4.3354 H              1 S1                 0.0000
     36 ****         0.6396   2.6861  -2.0768 H              1 S1                 0.0000
     37 ****        -0.0335   1.5339  -0.9368 H              1 S1                 0.0000
     38 ****        -0.7744   3.8949  -0.4411 H              1 S1                 0.0000
     39 ****         0.1025   3.1968   0.9077 H              1 S1                 0.0000
     40 ****         3.1201   5.0506   0.1566 H              1 S1                 0.0000
     41 ****         2.4200   3.8827   1.2613 H              1 S1                 0.0000
     42 ****         3.9281   2.7080  -0.3393 H              1 S1                 0.0000
     43 ****         3.0812   3.4218  -1.7041 H              1 S1                 0.0000
     44 ****        -2.4301  -2.4421  -0.7936 H              1 S1                 0.0000
     45 ****        -2.1406   0.5589  -1.2893 H              1 S1                 0.0000
     46 ****        -2.5924  -0.6368  -2.4963 H              1 S1                 0.0000
     47 ****        -0.9896  -0.6771  -1.7962 H              1 S1                 0.0000
     48 ****        -4.3128  -0.1968   0.0651 H              1 S1                 0.0000
     49 ****        -4.5433  -1.9152   0.3769 H              1 S1                 0.0000
     50 ****        -4.5993  -1.3127  -1.2662 H              1 S1                 0.0000
     51 ****        -1.7595  -1.0323   4.7711 LP             1 S1                 0.0000
     52 ****        -1.3610  -0.3506   3.2295 LP             1 S1                 0.0000
     53 ****        -0.6388  -3.4016   0.2581 LP             1 S1                 0.0000
     54 ****         1.0118  -2.8781   0.2971 LP             1 S1                 0.0000
     55 ****         2.7988   1.8249  -3.0769 LP             1 S1                 0.0000
     56 ****         1.9660   1.6698   0.2914 LP             1 S1                 0.0000
     57 ****         0.8346   5.3466   0.3764 LP             1 S1                 0.0000
     58 ****         1.1980   4.9099  -1.1546 LP             1 S1                 0.0000
@<TRIPOS>BOND
    1    1    2 1     
    2    1   25 1     
    3    1   26 1     
    4    1   27 1     
    5    2    3 2     
    6    2    4 am    
    7    4    5 1     
    8    4   28 1     
    9    5    6 1     
   10    5   22 1     
   11    5   29 1     
   12    6    7 2     
   13    6    8 am    
   14    8    9 1     
   15    8   30 1     
   16    9   10 1     
   17    9   31 1     
   18    9   32 1     
   19   10   15 ar    
   20   10   11 ar    
   21   11   12 ar    
   22   11   33 1     
   23   12   13 ar    
   24   12   34 1     
   25   13   14 ar    
   26   13   35 1     
   27   14   15 ar    
   28   15   16 1     
   29   16   21 1     
   30   16   17 1     
   31   17   18 1     
   32   17   36 1     
   33   17   37 1     
   34   18   19 1     
   35   18   38 1     
   36   18   39 1     
   37   19   20 1     
   38   20   21 1     
   39   20   40 1     
   40   20   41 1     
   41   21   42 1     
   42   21   43 1     
   43   22   23 1     
   44   22   24 1     
   45   22   44 1     
   46   23   45 1     
   47   23   46 1     
   48   23   47 1     
   49   24   48 1     
   50   24   49 1     
   51   24   50 1     
   52    3   51 1     
   53    3   52 1     
   54    7   53 1     
   55    7   54 1     
   56   14   55 1     
   57   16   56 1     
   58   19   57 1     
   59   19   58 1     
@<TRIPOS>SUBSTRUCTURE
      1 S1             1
@<TRIPOS>SET
LONE_PAIRS      STATIC     ATOMS    <user>   **** ""
8 51 52 53 54 55 56 57 58
DONOR_HYDROGENS      STATIC     ATOMS    <user>   **** ""
2 28 30
ATOM$BLUE        STATIC     ATOMS    COLORGROUP SYSTEM
8 51 52 53 54 55 56 57 58
ATOM$RED        STATIC     ATOMS    COLORGROUP SYSTEM
2 28 30
