#       Name:                AV-unprocessed.smi:2001
#       Creating user name   scv26
#       Creation time:       Fri Mar 27 10:33:29 2020


#       File generated by GOLD software.
#

@<TRIPOS>MOLECULE
AV-unprocessed.smi:2001
    60    61     1
SMALL
NO_CHARGES


@<TRIPOS>ATOM
      1 ****        -6.2993  -0.4695  -3.3652 C.3            1 S1                 0.0000
      2 ****        -6.1577   0.1294  -2.0893 O.3            1 S1                 0.0000
      3 ****        -5.2151  -0.5443  -1.2718 C.3            1 S1                 0.0000
      4 ****        -5.1074   0.1586   0.0915 C.3            1 S1                 0.0000
      5 ****        -4.4519   1.4667  -0.0206 N.am           1 S1                 0.0000
      6 ****        -3.0691   1.4079   0.0414 N.2            1 S1                 0.0000
      7 ****        -2.3668   2.4902  -0.0559 C.2            1 S1                 0.0000
      8 ****        -0.8788   2.4688   0.0107 C.2            1 S1                 0.0000
      9 ****        -0.2069   3.4982  -0.0731 O.2            1 S1                 0.0000
     10 ****        -0.3258   1.2545   0.1726 N.am           1 S1                 0.0000
     11 ****         1.1048   1.0094   0.2863 C.3            1 S1                 0.0000
     12 ****         1.3763  -0.4863   0.5132 C.3            1 S1                 0.0000
     13 ****         2.8184  -0.7801   0.7052 N.4            1 S1                 1.0000
     14 ****         3.0419  -2.0839   1.3712 C.3            1 S1                 0.0000
     15 ****         4.5399  -2.2970   1.6512 C.3            1 S1                 0.0000
     16 ****         4.8166  -3.6747   2.2631 C.3            1 S1                 0.0000
     17 ****         5.2673  -2.2033   0.4291 O.3            1 S1                 0.0000
     18 ****         5.1077  -0.9696  -0.2715 C.3            1 S1                 0.0000
     19 ****         5.8251   0.1975   0.4300 C.3            1 S1                 0.0000
     20 ****         3.6146  -0.6988  -0.5444 C.3            1 S1                 0.0000
     21 ****        -3.0096   3.7813  -0.2319 C.2            1 S1                 0.0000
     22 ****        -4.3586   3.8230  -0.2915 C.2            1 S1                 0.0000
     23 ****        -5.1773   2.6143  -0.1855 C.2            1 S1                 0.0000
     24 ****        -6.4065   2.6293  -0.2410 O.2            1 S1                 0.0000
     25 ****        -7.0326   0.0858  -3.9501 H              1 S1                 0.0000
     26 ****        -6.6462  -1.5003  -3.2810 H              1 S1                 0.0000
     27 ****        -5.3555  -0.4607  -3.9119 H              1 S1                 0.0000
     28 ****        -5.5385  -1.5756  -1.1229 H              1 S1                 0.0000
     29 ****        -4.2399  -0.5786  -1.7607 H              1 S1                 0.0000
     30 ****        -6.0929   0.2389   0.5536 H              1 S1                 0.0000
     31 ****        -4.5263  -0.4696   0.7689 H              1 S1                 0.0000
     32 ****        -0.9409   0.4551   0.2288 H              1 S1                 0.0000
     33 ****         1.5892   1.3627  -0.6242 H              1 S1                 0.0000
     34 ****         1.5075   1.5933   1.1156 H              1 S1                 0.0000
     35 ****         0.8304  -0.7970   1.4055 H              1 S1                 0.0000
     36 ****         0.9841  -1.0818  -0.3128 H              1 S1                 0.0000
     37 ****         2.4882  -2.1192   2.3103 H              1 S1                 0.0000
     38 ****         2.6543  -2.8861   0.7407 H              1 S1                 0.0000
     39 ****         4.8941  -1.5396   2.3509 H              1 S1                 0.0000
     40 ****         4.2878  -3.7979   3.2087 H              1 S1                 0.0000
     41 ****         5.8810  -3.8078   2.4588 H              1 S1                 0.0000
     42 ****         4.4983  -4.4755   1.5949 H              1 S1                 0.0000
     43 ****         5.6004  -1.1060  -1.2347 H              1 S1                 0.0000
     44 ****         5.8071   1.0920  -0.1933 H              1 S1                 0.0000
     45 ****         6.8699  -0.0478   0.6213 H              1 S1                 0.0000
     46 ****         5.3625   0.4578   1.3816 H              1 S1                 0.0000
     47 ****         3.2346  -1.4334  -1.2563 H              1 S1                 0.0000
     48 ****         3.5035   0.2782  -1.0137 H              1 S1                 0.0000
     49 ****        -2.4308   4.6899  -0.3135 H              1 S1                 0.0000
     50 ****        -4.8500   4.7760  -0.4217 H              1 S1                 0.0000
     51 ****         3.1771  -0.0750   1.3335 H              1 S1                 0.0000
     52 ****        -7.0458   0.1181  -1.6299 LP             1 S1                 0.0000
     53 ****        -5.8575   1.0755  -2.2112 LP             1 S1                 0.0000
     54 ****        -2.6124   0.5264   0.1617 LP             1 S1                 0.0000
     55 ****        -0.6592   4.3824  -0.1895 LP             1 S1                 0.0000
     56 ****         0.7908   3.4495  -0.0247 LP             1 S1                 0.0000
     57 ****         4.9632  -2.9431  -0.1711 LP             1 S1                 0.0000
     58 ****         6.2388  -2.3198   0.6359 LP             1 S1                 0.0000
     59 ****        -6.9209   1.7752  -0.1644 LP             1 S1                 0.0000
     60 ****        -6.8909   3.4956  -0.3627 LP             1 S1                 0.0000
@<TRIPOS>BOND
    1    1    2 1     
    2    1   25 1     
    3    1   26 1     
    4    1   27 1     
    5    2    3 1     
    6    3    4 1     
    7    3   28 1     
    8    3   29 1     
    9    4    5 1     
   10    4   30 1     
   11    4   31 1     
   12    5   23 am    
   13    5    6 1     
   14    6    7 2     
   15    7    8 1     
   16    7   21 1     
   17    8    9 2     
   18    8   10 am    
   19   10   11 1     
   20   10   32 1     
   21   11   12 1     
   22   11   33 1     
   23   11   34 1     
   24   12   13 1     
   25   12   35 1     
   26   12   36 1     
   27   13   20 1     
   28   13   14 1     
   29   13   51 1     
   30   14   15 1     
   31   14   37 1     
   32   14   38 1     
   33   15   16 1     
   34   15   17 1     
   35   15   39 1     
   36   16   40 1     
   37   16   41 1     
   38   16   42 1     
   39   17   18 1     
   40   18   19 1     
   41   18   20 1     
   42   18   43 1     
   43   19   44 1     
   44   19   45 1     
   45   19   46 1     
   46   20   47 1     
   47   20   48 1     
   48   21   22 2     
   49   21   49 1     
   50   22   23 1     
   51   22   50 1     
   52   23   24 2     
   53    2   52 1     
   54    2   53 1     
   55    6   54 1     
   56    9   55 1     
   57    9   56 1     
   58   17   57 1     
   59   17   58 1     
   60   24   59 1     
   61   24   60 1     
@<TRIPOS>SUBSTRUCTURE
      1 S1             1
@<TRIPOS>SET
LONE_PAIRS      STATIC     ATOMS    <user>   **** ""
9 52 53 54 55 56 57 58 59 60
DONOR_HYDROGENS      STATIC     ATOMS    <user>   **** ""
2 32 51
ATOM$BLUE        STATIC     ATOMS    COLORGROUP SYSTEM
9 52 53 54 55 56 57 58 59 60
ATOM$RED        STATIC     ATOMS    COLORGROUP SYSTEM
2 32 51
