AV-unprocessed.smi:1788|AV-procd|sdf|7211|dock8
  -GOLD-   22720 8453D 1   1.00000     0.00000
 Structure written by MMmdl.
 55 57  0  0  0  0  0  0  0  0  2 V2000
  148.3871  133.0955  152.7685 C   0  0  0  0  0  0  0  0  0  0  0  0
  146.8745  133.0129  153.0388 C   0  0  1  0  0  0  0  0  0  0  0  0
  146.5157  133.2748  154.5134 C   0  0  0  0  0  0  0  0  0  0  0  0
  146.6422  134.7646  154.8616 C   0  0  0  0  0  0  0  0  0  0  0  0
  145.8317  135.6306  153.8845 C   0  0  0  0  0  0  0  0  0  0  0  0
  146.2380  135.3758  152.4782 N   0  3  2  0  0  0  0  0  0  0  0  0
  145.5794  136.3047  151.5258 C   0  0  0  0  0  0  0  0  0  0  0  0
  145.8696  137.7825  151.8530 C   0  0  0  0  0  0  0  0  0  0  0  0
  147.2430  137.9717  152.3059 N   0  0  0  0  0  0  0  0  0  0  0  0
  147.6144  138.7914  153.2996 C   0  0  0  0  0  0  0  0  0  0  0  0
  146.8169  139.4654  153.9513 O   0  0  0  0  0  0  0  0  0  0  0  0
  148.9444  138.7551  153.4906 N   0  0  0  0  0  0  0  0  0  0  0  0
  149.7249  139.4809  154.4309 C   0  0  0  0  0  0  0  0  0  0  0  0
  150.9941  139.0716  154.9020 C   0  0  0  0  0  0  0  0  0  0  0  0
  151.6600  139.8709  155.8505 C   0  0  0  0  0  0  0  0  0  0  0  0
  151.0427  141.0562  156.3149 C   0  0  0  0  0  0  0  0  0  0  0  0
  151.6946  141.8702  157.2664 N   0  0  0  0  0  0  0  0  0  0  0  0
  151.1950  143.2299  157.4624 C   0  0  0  0  0  0  0  0  0  0  0  0
  152.1885  144.0487  158.3038 C   0  0  0  0  0  0  0  0  0  0  0  0
  152.4435  143.3761  159.5325 O   0  0  0  0  0  0  0  0  0  0  0  0
  153.0321  142.0967  159.3228 C   0  0  0  0  0  0  0  0  0  0  0  0
  152.0737  141.2072  158.5118 C   0  0  0  0  0  0  0  0  0  0  0  0
  149.8233  141.4419  155.8653 N   0  0  0  0  0  0  0  0  0  0  0  0
  149.1871  140.6717  154.9585 C   0  0  0  0  0  0  0  0  0  0  0  0
  146.0653  133.9433  152.1115 C   0  0  0  0  0  0  0  0  0  0  0  0
  148.7789  134.0975  152.9426 H   0  0  0  0  0  0  0  0  0  0  0  0
  148.6144  132.8290  151.7359 H   0  0  0  0  0  0  0  0  0  0  0  0
  148.9376  132.4077  153.4112 H   0  0  0  0  0  0  0  0  0  0  0  0
  146.5788  131.9878  152.8112 H   0  0  0  0  0  0  0  0  0  0  0  0
  145.4890  132.9540  154.6948 H   0  0  0  0  0  0  0  0  0  0  0  0
  147.1432  132.6757  155.1739 H   0  0  0  0  0  0  0  0  0  0  0  0
  146.2976  134.9359  155.8819 H   0  0  0  0  0  0  0  0  0  0  0  0
  147.6900  135.0659  154.8391 H   0  0  0  0  0  0  0  0  0  0  0  0
  144.7648  135.4316  153.9984 H   0  0  0  0  0  0  0  0  0  0  0  0
  145.9867  136.6817  154.1305 H   0  0  0  0  0  0  0  0  0  0  0  0
  145.8827  136.0566  150.5073 H   0  0  0  0  0  0  0  0  0  0  0  0
  144.4987  136.1592  151.5669 H   0  0  0  0  0  0  0  0  0  0  0  0
  145.7192  138.3953  150.9638 H   0  0  0  0  0  0  0  0  0  0  0  0
  145.1891  138.1682  152.6126 H   0  0  0  0  0  0  0  0  0  0  0  0
  147.9609  137.4505  151.8233 H   0  0  0  0  0  0  0  0  0  0  0  0
  149.4565  138.0921  152.9272 H   0  0  0  0  0  0  0  0  0  0  0  0
  151.4659  138.1611  154.5677 H   0  0  0  0  0  0  0  0  0  0  0  0
  152.6364  139.5713  156.2009 H   0  0  0  0  0  0  0  0  0  0  0  0
  151.0467  143.7207  156.4995 H   0  0  0  0  0  0  0  0  0  0  0  0
  150.2261  143.1909  157.9624 H   0  0  0  0  0  0  0  0  0  0  0  0
  153.1223  144.2048  157.7607 H   0  0  0  0  0  0  0  0  0  0  0  0
  151.7758  145.0348  158.5172 H   0  0  0  0  0  0  0  0  0  0  0  0
  153.9899  142.2044  158.8110 H   0  0  0  0  0  0  0  0  0  0  0  0
  153.2388  141.6390  160.2903 H   0  0  0  0  0  0  0  0  0  0  0  0
  151.1715  141.0072  159.0914 H   0  0  0  0  0  0  0  0  0  0  0  0
  152.5522  140.2458  158.3293 H   0  0  0  0  0  0  0  0  0  0  0  0
  148.2165  141.0236  154.6403 H   0  0  0  0  0  0  0  0  0  0  0  0
  146.3661  133.7699  151.0788 H   0  0  0  0  0  0  0  0  0  0  0  0
  145.0058  133.6878  152.1688 H   0  0  0  0  0  0  0  0  0  0  0  0
  147.2270  135.5751  152.4331 H   0  0  0  0  0  0  0  0  0  0  0  0
  1  2  1  0  0  0  0
  1 26  1  0  0  0  0
  1 27  1  0  0  0  0
  1 28  1  0  0  0  0
  2 25  1  0  0  0  0
  2  3  1  0  0  0  0
  2 29  1  0  0  0  0
  3  4  1  0  0  0  0
  3 30  1  0  0  0  0
  3 31  1  0  0  0  0
  4  5  1  0  0  0  0
  4 32  1  0  0  0  0
  4 33  1  0  0  0  0
  5  6  1  0  0  0  0
  5 34  1  0  0  0  0
  5 35  1  0  0  0  0
  6  7  1  0  0  0  0
  6 25  1  0  0  0  0
  6 55  1  0  0  0  0
  7  8  1  0  0  0  0
  7 36  1  0  0  0  0
  7 37  1  0  0  0  0
  8  9  1  0  0  0  0
  8 38  1  0  0  0  0
  8 39  1  0  0  0  0
  9 10  1  0  0  0  0
  9 40  1  0  0  0  0
 10 11  2  0  0  0  0
 10 12  1  0  0  0  0
 12 13  1  0  0  0  0
 12 41  1  0  0  0  0
 13 24  1  0  0  0  0
 13 14  2  0  0  0  0
 14 15  1  0  0  0  0
 14 42  1  0  0  0  0
 15 16  2  0  0  0  0
 15 43  1  0  0  0  0
 16 17  1  0  0  0  0
 16 23  1  0  0  0  0
 17 22  1  0  0  0  0
 17 18  1  0  0  0  0
 18 19  1  0  0  0  0
 18 44  1  0  0  0  0
 18 45  1  0  0  0  0
 19 20  1  0  0  0  0
 19 46  1  0  0  0  0
 19 47  1  0  0  0  0
 20 21  1  0  0  0  0
 21 22  1  0  0  0  0
 21 48  1  0  0  0  0
 21 49  1  0  0  0  0
 22 50  1  0  0  0  0
 22 51  1  0  0  0  0
 23 24  2  0  0  0  0
 24 52  1  0  0  0  0
 25 53  1  0  0  0  0
 25 54  1  0  0  0  0
M  CHG  1   6   1
M  END
> <s_m_source_file>
AV-unprocessed.smi

> <i_m_source_file_index>
1788

> <i_lp_mmshare_version>
43012

> <i_f3d_flags>
0

> <s_epik_input>
W0NIM11bQ0BASF0xW0NIMl1bQ0gyXVtDSDJdTihbQ0gyXTEpW0NIMl1bQ0gyXVtOSF1DKD1PKVtOSF1jMltjSF1bY0hdYyhuW2NIXTIpTjNbQ0gyXVtDSDJdT1tDSDJdW0NIMl0z

> <s_epik_cmdline>
J2VwaWtfcHl0aG9uJywgJy1waCcsICc3LjAnLCAnLXRuJywgJzgnLCAnLW1hJywgJzIwMCcsICctbWV0YWxfYmluZGluZycsICctaW1hZScsICc8aW5maWxlLm1hZT4nLCAnLW9tYWUnLCAnPG91dGZpbGUubWFlPic=

> <r_lp_tautomer_probability>
1

> <r_epik_Ionization_Penalty>
0.00340126

> <r_epik_Ionization_Penalty_Charging>
0.00171832

> <r_epik_Ionization_Penalty_Neutral>
0.00168294

> <r_epik_State_Penalty>
-0

> <r_epik_Charging_Adjusted_Penalty>
0.00171832

> <i_epik_Tot_Q>
1

> <i_epik_Tot_abs_Q>
1

> <r_epik_Metal_State_Penalty>
-0

> <b_epik_Metal_Only>
0

> <s_lp_Force_Field>
OPLS_2005

> <r_lp_Energy>
36.4544

> <b_lp_Chiralities_Consistent>
1

> <s_lp_Variant>
AV-unprocessed.smi:1788-2

> <Gold.Version>
5.8.1

> <Gold.Id.Protein>
6NUR|6NUR_protein|mol2

> <Gold.PLP.Fitness>
53.3147

> <Gold.PLP.PLP>
-43.5196

> <Gold.PLP.part.hbond>
-3.9144

> <Gold.PLP.part.metal>
0.0000

> <Gold.PLP.part.buried>
-1.3115

> <Gold.PLP.part.nonpolar>
-39.7710

> <Gold.PLP.part.repulsive>
0.4392

> <Gold.PLP.ligand.clash>
0.0000

> <Gold.PLP.ligand.torsion>
0.5759

> <Gold.PLP.Chemscore.Hbond>
3.5215

> <Gold.PLP.Chemscore.CHOScore>
0.0000

> <Gold.PLP.Chemscore.Metal>
0.0000

> <Gold.Chemscore.Hbonds>
donor molecule, donor type, donor heavy atom, donor atom, acceptor molecule, acceptor atom, score
      L1  H     6    55       P1  7948  2.00
      L1  H     9    40       P1  7948  0.98
      L1  H    12    41       P1  7948  0.49

> <Gold.PLP.Chemscore.Internal.Correction>
0.3824

> <Gold.Rescore>
     Score         DG    S(hbond)    S(metal)    S(lipo)     H(rot)  DE(clash)    DE(int)     intcor
     19.09     -21.55       2.50        0.00     100.84       1.60       0.50       1.96       ----

> <Gold.Chemscore.Fitness>
19.0877

> <Gold.Chemscore.DG>
-21.5456

> <Gold.Chemscore.ZeroCoef>
-5.4800

> <Gold.Chemscore.Hbond>
2.5020

> <Gold.Chemscore.Metal>
0.0000

> <Gold.Chemscore.Lipo>
100.8436

> <Gold.Chemscore.Internal_Hbond>
0.0000

> <Gold.Chemscore.DEClash>
0.4962

> <Gold.Chemscore.DEInternal>
1.9617

> <Gold.Chemscore.Rot>
1.5976

> <Gold.Chemscore.Internal.Correction>
   9.000000E+99

> <Gold.Chemscore.Hbonds>
donor molecule, donor type, donor heavy atom, donor atom, acceptor molecule, acceptor atom, score
      L1  H     6    55       P1  7948  0.99
      L1  H     9    40       P1  7948  0.88
      L1  H    12    41       P1  7948  0.43

> <Gold.Chemscore.Hbond.Weighted>
-8.3568

> <Gold.Chemscore.Metal.Weighted>
-0.0000

> <Gold.Chemscore.Lipo.Weighted>
-11.7987

> <Gold.Chemscore.Internal_Hbond.Weighted>
0.0000

> <Gold.Chemscore.DEClash.Weighted>
0.4962

> <Gold.Chemscore.DEInternal.Weighted>
1.9617

> <Gold.Chemscore.Rot.Weighted>
4.0899

> <Gold.Chemscore.Internal.Correction.Weighted>
   9.000000E+99

> <Gold.Protein.RotatedTorsions>
[ 6907 6896 6895 6894 ] final  -86.89 input  -60.11 | X-H torsion
[ 7974 7965 7964 7962 ] final  -16.06 input  175.53 | X-H torsion
[ 8008 7997 7996 7995 ] final  -11.21 input   59.86 | X-H torsion
[ 10167 10162 10161 10158 ] final -123.06 input  -65.29 | X-H torsion
[ 10718 10713 10712 10709 ] final   81.03 input   66.30 | X-H torsion
[ 10763 10752 10751 10750 ] final  -90.97 input  -60.55 | X-H torsion
[ 11005 11000 10999 10996 ] final  -45.06 input  -57.11 | X-H torsion

> <Gold.Protein.ActiveResidues>
 VAL166  LYS551  ARG553  GLY616  TRP617  ASP618  TYR619  PRO620  LYS621  CYS622 
 ASP623  PHE694  ASN695  SER759  ASP760  ASP761  ALA762  ILE779  LEU786  VAL792 
 PHE793  MET794  SER795  GLU796  ALA797  LYS798  CYS799  TRP800  GLU811  SER814 

> <Gold.Protein.RotatedAtoms>
  150.6866  134.2981  159.4694 H   0  0  0  0  0  0  0  0  0  0  0  0  # atno 6907 bound_to 6896
  152.0879  134.9424  160.0581 H   0  0  0  0  0  0  0  0  0  0  0  0  # atno 6908 bound_to 6896
  152.0751  133.4091  159.4513 H   0  0  0  0  0  0  0  0  0  0  0  0  # atno 6909 bound_to 6896
  146.2005  140.3581  142.8425 H   0  0  0  0  0  0  0  0  0  0  0  0  # atno 7974 bound_to 7965
  154.5485  140.2308  155.8523 H   0  0  0  0  0  0  0  0  0  0  0  0  # atno 8008 bound_to 7997
  156.1925  140.3073  155.9322 H   0  0  0  0  0  0  0  0  0  0  0  0  # atno 8009 bound_to 7997
  155.3117  140.0436  157.3026 H   0  0  0  0  0  0  0  0  0  0  0  0  # atno 8010 bound_to 7997
  140.0076  143.5475  152.2277 H   0  0  0  0  0  0  0  0  0  0  0  0  # atno 10167 bound_to 10162
  157.6822  130.9986  150.2167 H   0  0  0  0  0  0  0  0  0  0  0  0  # atno 10718 bound_to 10713
  154.6713  135.5285  153.8142 H   0  0  0  0  0  0  0  0  0  0  0  0  # atno 10763 bound_to 10752
  153.0503  135.6529  154.0721 H   0  0  0  0  0  0  0  0  0  0  0  0  # atno 10764 bound_to 10752
  154.0619  135.2961  155.3303 H   0  0  0  0  0  0  0  0  0  0  0  0  # atno 10765 bound_to 10752
  141.0491  133.6750  156.2960 H   0  0  0  0  0  0  0  0  0  0  0  0  # atno 11005 bound_to 11000
  144.8672  140.7222  143.6070 LP  0  0  0  0  0  0  0  0  0  0  0  0  # atno 17320 bound_to 7965
  145.3501  139.1708  143.4439 LP  0  0  0  0  0  0  0  0  0  0  0  0  # atno 17321 bound_to 7965
  139.6228  144.7632  151.2704 LP  0  0  0  0  0  0  0  0  0  0  0  0  # atno 17342 bound_to 10162
  140.7394  143.6618  150.8157 LP  0  0  0  0  0  0  0  0  0  0  0  0  # atno 17343 bound_to 10162
  156.2827  130.3735  149.7919 LP  0  0  0  0  0  0  0  0  0  0  0  0  # atno 17370 bound_to 10713
  156.5603  130.8380  151.3326 LP  0  0  0  0  0  0  0  0  0  0  0  0  # atno 17371 bound_to 10713
  140.6090  134.5478  157.5530 LP  0  0  0  0  0  0  0  0  0  0  0  0  # atno 17394 bound_to 11000
  139.9335  134.7918  156.0865 LP  0  0  0  0  0  0  0  0  0  0  0  0  # atno 17395 bound_to 11000

$$$$
