AV-unprocessed.smi:1723|AV-procd|sdf|6945|dock1
  -GOLD-   22720 8153D 1   1.00000     0.00000
 Structure written by MMmdl.
 38 38  0  0  0  0  0  0  0  0  1 V2000
  146.3663  134.9521  162.5441 C   0  0  0  0  0  0  0  0  0  0  0  0
  146.7776  135.0027  161.0686 C   0  0  0  0  0  0  0  0  0  0  0  0
  147.8617  136.0544  160.7948 C   0  0  0  0  0  0  0  0  0  0  0  0
  148.0826  136.2982  159.2977 C   0  0  0  0  0  0  0  0  0  0  0  0
  149.4546  136.6118  159.0894 O   0  0  0  0  0  0  0  0  0  0  0  0
  149.7476  137.3089  157.8815 C   0  0  2  0  0  0  0  0  0  0  0  0
  150.0149  136.2577  156.7936 C   0  0  0  0  0  0  0  0  0  0  0  0
  150.9619  138.2308  158.0802 C   0  0  0  0  0  0  0  0  0  0  0  0
  152.0426  137.9209  157.5797 O   0  0  0  0  0  0  0  0  0  0  0  0
  150.7400  139.3225  158.8392 N   0  0  0  0  0  0  0  0  0  0  0  0
  151.6222  140.3504  159.2142 C   0  0  0  0  0  0  0  0  0  0  0  0
  151.3353  141.6782  159.1780 C   0  0  0  0  0  0  0  0  0  0  0  0
  152.2960  142.6873  159.5915 C   0  0  0  0  0  0  0  0  0  0  0  0
  151.9948  144.1727  159.4642 C   0  0  0  0  0  0  0  0  0  0  0  0
  150.7433  144.3793  159.0521 F   0  0  0  0  0  0  0  0  0  0  0  0
  152.1592  144.7960  160.6313 F   0  0  0  0  0  0  0  0  0  0  0  0
  152.8203  144.7274  158.5776 F   0  0  0  0  0  0  0  0  0  0  0  0
  153.4939  142.2399  160.0106 C   0  0  0  0  0  0  0  0  0  0  0  0
  153.7890  140.8764  160.0737 N   0  0  0  0  0  0  0  0  0  0  0  0
  152.9352  139.8963  159.7023 C   0  0  0  0  0  0  0  0  0  0  0  0
  153.2728  138.7156  159.7834 O   0  0  0  0  0  0  0  0  0  0  0  0
  154.7035  140.6205  160.4173 H   0  0  0  0  0  0  0  0  0  0  0  0
  145.5994  134.1949  162.7079 H   0  0  0  0  0  0  0  0  0  0  0  0
  145.9631  135.9102  162.8733 H   0  0  0  0  0  0  0  0  0  0  0  0
  147.2160  134.7084  163.1823 H   0  0  0  0  0  0  0  0  0  0  0  0
  147.1363  134.0198  160.7608 H   0  0  0  0  0  0  0  0  0  0  0  0
  145.8986  135.2159  160.4592 H   0  0  0  0  0  0  0  0  0  0  0  0
  147.5866  136.9946  161.2744 H   0  0  0  0  0  0  0  0  0  0  0  0
  148.8003  135.7376  161.2508 H   0  0  0  0  0  0  0  0  0  0  0  0
  147.8151  135.4063  158.7293 H   0  0  0  0  0  0  0  0  0  0  0  0
  147.4377  137.1104  158.9602 H   0  0  0  0  0  0  0  0  0  0  0  0
  148.8774  137.8964  157.5818 H   0  0  0  0  0  0  0  0  0  0  0  0
  150.2692  136.7264  155.8423 H   0  0  0  0  0  0  0  0  0  0  0  0
  149.1318  135.6400  156.6295 H   0  0  0  0  0  0  0  0  0  0  0  0
  150.8340  135.5922  157.0698 H   0  0  0  0  0  0  0  0  0  0  0  0
  149.8120  139.4076  159.2290 H   0  0  0  0  0  0  0  0  0  0  0  0
  150.3702  142.0323  158.8560 H   0  0  0  0  0  0  0  0  0  0  0  0
  154.3083  142.8791  160.3184 H   0  0  0  0  0  0  0  0  0  0  0  0
  1  2  1  0  0  0  0
  1 23  1  0  0  0  0
  1 24  1  0  0  0  0
  1 25  1  0  0  0  0
  2  3  1  0  0  0  0
  2 26  1  0  0  0  0
  2 27  1  0  0  0  0
  3  4  1  0  0  0  0
  3 28  1  0  0  0  0
  3 29  1  0  0  0  0
  4  5  1  0  0  0  0
  4 30  1  0  0  0  0
  4 31  1  0  0  0  0
  5  6  1  0  0  0  0
  6  7  1  0  0  0  0
  6  8  1  0  0  0  0
  6 32  1  0  0  0  0
  7 33  1  0  0  0  0
  7 34  1  0  0  0  0
  7 35  1  0  0  0  0
  8  9  2  0  0  0  0
  8 10  1  0  0  0  0
 10 11  1  0  0  0  0
 10 36  1  0  0  0  0
 11 20  1  0  0  0  0
 11 12  2  0  0  0  0
 12 13  1  0  0  0  0
 12 37  1  0  0  0  0
 13 14  1  0  0  0  0
 13 18  2  0  0  0  0
 14 15  1  0  0  0  0
 14 16  1  0  0  0  0
 14 17  1  0  0  0  0
 18 19  1  0  0  0  0
 18 38  1  0  0  0  0
 19 22  1  0  0  0  0
 19 20  1  0  0  0  0
 20 21  2  0  0  0  0
M  END
> <s_m_source_file>
AV-unprocessed.smi

> <i_m_source_file_index>
1723

> <i_lp_mmshare_version>
43012

> <i_f3d_flags>
0

> <s_epik_input>
W0NIM11bQ0gyXVtDSDJdW0NIMl1PW0NASF0oW0NIM10pQyg9TylbTkhdYzFbY0hdYyhDKEYpKEYpRilbY0hdW25IXWMxPU8=

> <s_epik_cmdline>
J2VwaWtfcHl0aG9uJywgJy1waCcsICc3LjAnLCAnLXRuJywgJzgnLCAnLW1hJywgJzIwMCcsICctbWV0YWxfYmluZGluZycsICctaW1hZScsICc8aW5maWxlLm1hZT4nLCAnLW9tYWUnLCAnPG91dGZpbGUubWFlPic=

> <r_lp_tautomer_probability>
0.999

> <r_epik_Ionization_Penalty>
0.00763408

> <r_epik_Ionization_Penalty_Charging>
0.00763398

> <r_epik_Ionization_Penalty_Neutral>
9.29819e-08

> <r_epik_State_Penalty>
0.00571302

> <r_epik_Charging_Adjusted_Penalty>
0.013347

> <i_epik_Tot_Q>
0

> <i_epik_Tot_abs_Q>
0

> <r_epik_Metal_State_Penalty>
0.392814

> <b_epik_Metal_Only>
0

> <s_lp_Force_Field>
OPLS_2005

> <r_lp_Energy>
19.1413

> <b_lp_Chiralities_Consistent>
1

> <s_lp_Variant>
AV-unprocessed.smi:1723-1

> <Gold.Version>
5.8.1

> <Gold.Id.Protein>
6NUR|6NUR_protein|mol2

> <Gold.PLP.Fitness>
45.2898

> <Gold.PLP.PLP>
-44.7658

> <Gold.PLP.part.hbond>
-1.0000

> <Gold.PLP.part.metal>
0.0000

> <Gold.PLP.part.buried>
-7.1771

> <Gold.PLP.part.nonpolar>
-37.1951

> <Gold.PLP.part.repulsive>
0.2291

> <Gold.PLP.ligand.clash>
0.0000

> <Gold.PLP.ligand.torsion>
1.4337

> <Gold.PLP.Chemscore.Hbond>
1.0000

> <Gold.PLP.Chemscore.CHOScore>
0.0000

> <Gold.PLP.Chemscore.Metal>
0.0000

> <Gold.Chemscore.Hbonds>
donor molecule, donor type, donor heavy atom, donor atom, acceptor molecule, acceptor atom, score
      P1  H  6896  6908       L1     5  0.26

> <Gold.PLP.Chemscore.Internal.Correction>
0.3915

> <Gold.Rescore>
     Score         DG    S(hbond)    S(metal)    S(lipo)     H(rot)  DE(clash)    DE(int)     intcor
     11.06     -13.44       0.83        0.00      87.83       1.99       0.67       1.70       ----

> <Gold.Chemscore.Fitness>
11.0623

> <Gold.Chemscore.DG>
-13.4356

> <Gold.Chemscore.ZeroCoef>
-5.4800

> <Gold.Chemscore.Hbond>
0.8340

> <Gold.Chemscore.Metal>
0.0000

> <Gold.Chemscore.Lipo>
87.8311

> <Gold.Chemscore.Internal_Hbond>
0.0000

> <Gold.Chemscore.DEClash>
0.6691

> <Gold.Chemscore.DEInternal>
1.7043

> <Gold.Chemscore.Rot>
1.9946

> <Gold.Chemscore.Internal.Correction>
   9.000000E+99

> <Gold.Chemscore.Hbonds>
donor molecule, donor type, donor heavy atom, donor atom, acceptor molecule, acceptor atom, score
      P1  H  6896  6908       L1     5  0.23

> <Gold.Chemscore.Hbond.Weighted>
-2.7856

> <Gold.Chemscore.Metal.Weighted>
-0.0000

> <Gold.Chemscore.Lipo.Weighted>
-10.2762

> <Gold.Chemscore.Internal_Hbond.Weighted>
0.0000

> <Gold.Chemscore.DEClash.Weighted>
0.6691

> <Gold.Chemscore.DEInternal.Weighted>
1.7043

> <Gold.Chemscore.Rot.Weighted>
5.1062

> <Gold.Chemscore.Internal.Correction.Weighted>
   9.000000E+99

> <Gold.Protein.RotatedTorsions>
[ 6907 6896 6895 6894 ] final -157.92 input  -60.11 | X-H torsion
[ 7974 7965 7964 7962 ] final  -13.13 input  175.53 | X-H torsion
[ 8008 7997 7996 7995 ] final   86.27 input   59.86 | X-H torsion
[ 10167 10162 10161 10158 ] final   61.26 input  -65.29 | X-H torsion
[ 10718 10713 10712 10709 ] final   67.51 input   66.30 | X-H torsion
[ 10763 10752 10751 10750 ] final   75.85 input  -60.55 | X-H torsion
[ 11005 11000 10999 10996 ] final  132.33 input  -57.11 | X-H torsion

> <Gold.Protein.ActiveResidues>
 VAL166  LYS551  ARG553  GLY616  TRP617  ASP618  TYR619  PRO620  LYS621  CYS622 
 ASP623  PHE694  ASN695  SER759  ASP760  ASP761  ALA762  ILE779  LEU786  VAL792 
 PHE793  MET794  SER795  GLU796  ALA797  LYS798  CYS799  TRP800  GLU811  SER814 

> <Gold.Protein.RotatedAtoms>
  151.3102  133.4084  159.2646 H   0  0  0  0  0  0  0  0  0  0  0  0  # atno 6907 bound_to 6896
  151.0121  134.9405  159.8023 H   0  0  0  0  0  0  0  0  0  0  0  0  # atno 6908 bound_to 6896
  152.5303  134.3066  159.9150 H   0  0  0  0  0  0  0  0  0  0  0  0  # atno 6909 bound_to 6896
  146.2126  140.3158  142.8386 H   0  0  0  0  0  0  0  0  0  0  0  0  # atno 7974 bound_to 7965
  155.9607  140.3393  155.6488 H   0  0  0  0  0  0  0  0  0  0  0  0  # atno 8008 bound_to 7997
  155.6802  140.0737  157.2506 H   0  0  0  0  0  0  0  0  0  0  0  0  # atno 8009 bound_to 7997
  154.4142  140.1676  156.1961 H   0  0  0  0  0  0  0  0  0  0  0  0  # atno 8010 bound_to 7997
  140.1567  144.4410  150.6731 H   0  0  0  0  0  0  0  0  0  0  0  0  # atno 10167 bound_to 10162
  157.6234  130.9324  150.0252 H   0  0  0  0  0  0  0  0  0  0  0  0  # atno 10718 bound_to 10713
  153.0683  135.4973  154.8249 H   0  0  0  0  0  0  0  0  0  0  0  0  # atno 10763 bound_to 10752
  154.6986  135.2997  154.9377 H   0  0  0  0  0  0  0  0  0  0  0  0  # atno 10764 bound_to 10752
  154.0108  135.6754  153.4818 H   0  0  0  0  0  0  0  0  0  0  0  0  # atno 10765 bound_to 10752
  139.9784  134.9556  156.9567 H   0  0  0  0  0  0  0  0  0  0  0  0  # atno 11005 bound_to 11000
  144.8955  140.7578  143.5900 LP  0  0  0  0  0  0  0  0  0  0  0  0  # atno 17320 bound_to 7965
  145.3082  139.1827  143.4653 LP  0  0  0  0  0  0  0  0  0  0  0  0  # atno 17321 bound_to 7965
  140.6669  143.2271  151.5721 LP  0  0  0  0  0  0  0  0  0  0  0  0  # atno 17342 bound_to 10162
  139.5400  144.2673  152.1331 LP  0  0  0  0  0  0  0  0  0  0  0  0  # atno 17343 bound_to 10162
  156.1393  130.3642  149.9608 LP  0  0  0  0  0  0  0  0  0  0  0  0  # atno 17370 bound_to 10713
  156.7652  130.9166  151.3643 LP  0  0  0  0  0  0  0  0  0  0  0  0  # atno 17371 bound_to 10713
  140.5147  134.0967  155.7278 LP  0  0  0  0  0  0  0  0  0  0  0  0  # atno 17394 bound_to 11000
  141.1459  133.9057  157.2217 LP  0  0  0  0  0  0  0  0  0  0  0  0  # atno 17395 bound_to 11000

$$$$
