AV-unprocessed.smi:1586|AV-procd|sdf|6377|dock3
  -GOLD-   22720 7 03D 1   1.00000     0.00000
 Structure written by MMmdl.
 46 47  0  0  0  0  0  0  0  0  1 V2000
  151.7456  140.0345  157.7498 C   0  0  0  0  0  0  0  0  0  0  0  0
  152.2204  140.1957  156.2983 C   0  0  0  0  0  0  0  0  0  0  0  0
  151.1531  140.2136  155.3001 N   0  0  0  0  0  0  0  0  0  0  0  0
  150.4701  138.9262  155.1853 C   0  0  0  0  0  0  0  0  0  0  0  0
  149.3512  138.9685  154.1279 C   0  0  0  0  0  0  0  0  0  0  0  0
  148.3313  139.9877  154.4220 N   0  0  0  0  0  0  0  0  0  0  0  0
  147.2650  140.0403  153.3950 C   0  0  2  0  0  0  0  0  0  0  0  0
  146.5042  141.3907  153.3902 C   0  0  0  0  0  0  0  0  0  0  0  0
  146.2301  138.8841  153.5205 C   0  0  0  0  0  0  0  0  0  0  0  0
  146.6100  137.6818  152.7830 N   0  0  0  0  0  0  0  0  0  0  0  0
  145.7495  136.7950  152.2621 C   0  0  0  0  0  0  0  0  0  0  0  0
  144.5268  136.9086  152.3465 O   0  0  0  0  0  0  0  0  0  0  0  0
  146.3982  135.7887  151.6520 N   0  0  0  0  0  0  0  0  0  0  0  0
  145.8508  134.6611  150.9873 C   0  0  0  0  0  0  0  0  0  0  0  0
  144.5245  134.5417  150.4788 C   0  0  0  0  0  0  0  0  0  0  0  0
  144.5138  133.2845  149.9440 C   0  0  0  0  0  0  0  0  0  0  0  0
  143.4658  132.4891  149.2442 C   0  0  0  0  0  0  0  0  0  0  0  0
  145.7242  132.6877  150.1117 O   0  0  0  0  0  0  0  0  0  0  0  0
  146.5743  133.5760  150.7804 N   0  0  0  0  0  0  0  0  0  0  0  0
  149.0313  141.2736  154.5692 C   0  0  0  0  0  0  0  0  0  0  0  0
  150.1484  141.2203  155.6272 C   0  0  0  0  0  0  0  0  0  0  0  0
  152.5974  139.9217  158.4205 H   0  0  0  0  0  0  0  0  0  0  0  0
  151.1169  139.1508  157.8616 H   0  0  0  0  0  0  0  0  0  0  0  0
  151.1780  140.8995  158.0920 H   0  0  0  0  0  0  0  0  0  0  0  0
  152.8278  141.0978  156.2108 H   0  0  0  0  0  0  0  0  0  0  0  0
  152.8896  139.3622  156.0803 H   0  0  0  0  0  0  0  0  0  0  0  0
  151.1791  138.1482  154.9044 H   0  0  0  0  0  0  0  0  0  0  0  0
  150.0523  138.6351  156.1505 H   0  0  0  0  0  0  0  0  0  0  0  0
  149.7829  139.1438  153.1412 H   0  0  0  0  0  0  0  0  0  0  0  0
  148.9082  137.9754  154.1074 H   0  0  0  0  0  0  0  0  0  0  0  0
  147.7413  139.9421  152.4184 H   0  0  0  0  0  0  0  0  0  0  0  0
  145.6852  141.4052  152.6724 H   0  0  0  0  0  0  0  0  0  0  0  0
  147.1441  142.2243  153.1045 H   0  0  0  0  0  0  0  0  0  0  0  0
  146.0826  141.6090  154.3718 H   0  0  0  0  0  0  0  0  0  0  0  0
  146.0774  138.5787  154.5545 H   0  0  0  0  0  0  0  0  0  0  0  0
  145.2589  139.2153  153.1519 H   0  0  0  0  0  0  0  0  0  0  0  0
  147.5987  137.5131  152.6681 H   0  0  0  0  0  0  0  0  0  0  0  0
  147.4065  135.8332  151.6640 H   0  0  0  0  0  0  0  0  0  0  0  0
  143.7074  135.2467  150.4935 H   0  0  0  0  0  0  0  0  0  0  0  0
  142.6224  133.1194  148.9618 H   0  0  0  0  0  0  0  0  0  0  0  0
  143.0923  131.6920  149.8870 H   0  0  0  0  0  0  0  0  0  0  0  0
  143.8653  132.0346  148.3375 H   0  0  0  0  0  0  0  0  0  0  0  0
  149.4473  141.5857  153.6099 H   0  0  0  0  0  0  0  0  0  0  0  0
  148.3384  142.0526  154.8818 H   0  0  0  0  0  0  0  0  0  0  0  0
  149.7156  141.0145  156.6077 H   0  0  0  0  0  0  0  0  0  0  0  0
  150.6198  142.2013  155.6958 H   0  0  0  0  0  0  0  0  0  0  0  0
  1  2  1  0  0  0  0
  1 22  1  0  0  0  0
  1 23  1  0  0  0  0
  1 24  1  0  0  0  0
  2  3  1  0  0  0  0
  2 25  1  0  0  0  0
  2 26  1  0  0  0  0
  3 21  1  0  0  0  0
  3  4  1  0  0  0  0
  4  5  1  0  0  0  0
  4 27  1  0  0  0  0
  4 28  1  0  0  0  0
  5  6  1  0  0  0  0
  5 29  1  0  0  0  0
  5 30  1  0  0  0  0
  6  7  1  0  0  0  0
  6 20  1  0  0  0  0
  7  8  1  0  0  0  0
  7  9  1  0  0  0  0
  7 31  1  0  0  0  0
  8 32  1  0  0  0  0
  8 33  1  0  0  0  0
  8 34  1  0  0  0  0
  9 10  1  0  0  0  0
  9 35  1  0  0  0  0
  9 36  1  0  0  0  0
 10 11  1  0  0  0  0
 10 37  1  0  0  0  0
 11 12  2  0  0  0  0
 11 13  1  0  0  0  0
 13 14  1  0  0  0  0
 13 38  1  0  0  0  0
 14 19  2  0  0  0  0
 14 15  1  0  0  0  0
 15 16  2  0  0  0  0
 15 39  1  0  0  0  0
 16 17  1  0  0  0  0
 16 18  1  0  0  0  0
 17 40  1  0  0  0  0
 17 41  1  0  0  0  0
 17 42  1  0  0  0  0
 18 19  1  0  0  0  0
 20 21  1  0  0  0  0
 20 43  1  0  0  0  0
 20 44  1  0  0  0  0
 21 45  1  0  0  0  0
 21 46  1  0  0  0  0
M  END
> <s_m_source_file>
AV-unprocessed.smi

> <i_m_source_file_index>
1586

> <i_lp_mmshare_version>
43012

> <i_f3d_flags>
0

> <s_epik_input>
W0NIM11bQ0gyXU4xW0NIMl1bQ0gyXU4oW0NIMl1bQ0gyXTEpW0NASF0oW0NIM10pW0NIMl1bTkhdQyg9TylbTkhdYzJbY0hdYyhbQ0gzXSlvbjI=

> <s_epik_cmdline>
J2VwaWtfcHl0aG9uJywgJy1waCcsICc3LjAnLCAnLXRuJywgJzgnLCAnLW1hJywgJzIwMCcsICctbWV0YWxfYmluZGluZycsICctaW1hZScsICc8aW5maWxlLm1hZT4nLCAnLW9tYWUnLCAnPG91dGZpbGUubWFlPic=

> <r_epik_Ionization_Penalty>
2.42597

> <r_epik_Ionization_Penalty_Charging>
0

> <r_epik_Ionization_Penalty_Neutral>
2.42597

> <r_epik_State_Penalty>
1.76326

> <r_epik_Charging_Adjusted_Penalty>
1.76326

> <i_epik_Tot_Q>
0

> <i_epik_Tot_abs_Q>
0

> <r_epik_Metal_State_Penalty>
1.7742

> <b_epik_Metal_Only>
0

> <s_lp_Force_Field>
OPLS_2005

> <r_lp_Energy>
40.1671

> <b_lp_Chiralities_Consistent>
1

> <s_lp_Variant>
AV-unprocessed.smi:1586-5

> <Gold.Version>
5.8.1

> <Gold.Id.Protein>
6NUR|6NUR_protein|mol2

> <Gold.PLP.Fitness>
38.1510

> <Gold.PLP.PLP>
-31.7936

> <Gold.PLP.part.hbond>
-3.0000

> <Gold.PLP.part.metal>
0.0000

> <Gold.PLP.part.buried>
-0.9858

> <Gold.PLP.part.nonpolar>
-28.7648

> <Gold.PLP.part.repulsive>
0.8807

> <Gold.PLP.ligand.clash>
0.0000

> <Gold.PLP.ligand.torsion>
1.0697

> <Gold.PLP.Chemscore.Hbond>
2.8140

> <Gold.PLP.Chemscore.CHOScore>
0.0000

> <Gold.PLP.Chemscore.Metal>
0.0000

> <Gold.Chemscore.Hbonds>
donor molecule, donor type, donor heavy atom, donor atom, acceptor molecule, acceptor atom, score
      L1  H    10    37       P1  7948  0.86
      L1  H    13    38       P1  7948  1.00
      P1  H  7989  7998       L1     3  0.90

> <Gold.PLP.Chemscore.Internal.Correction>
0.0549

> <Gold.Rescore>
     Score         DG    S(hbond)    S(metal)    S(lipo)     H(rot)  DE(clash)    DE(int)     intcor
     15.60     -18.02       2.03        0.00      86.98       1.72       0.37       2.06       ----

> <Gold.Chemscore.Fitness>
15.5974

> <Gold.Chemscore.DG>
-18.0233

> <Gold.Chemscore.ZeroCoef>
-5.4800

> <Gold.Chemscore.Hbond>
2.0253

> <Gold.Chemscore.Metal>
0.0000

> <Gold.Chemscore.Lipo>
86.9787

> <Gold.Chemscore.Internal_Hbond>
0.0000

> <Gold.Chemscore.DEClash>
0.3655

> <Gold.Chemscore.DEInternal>
2.0605

> <Gold.Chemscore.Rot>
1.7178

> <Gold.Chemscore.Internal.Correction>
   9.000000E+99

> <Gold.Chemscore.Hbonds>
donor molecule, donor type, donor heavy atom, donor atom, acceptor molecule, acceptor atom, score
      L1  H    10    37       P1  7948  0.82
      L1  H    13    38       P1  7948  0.97
      P1  H  7989  7998       L1     3  0.12

> <Gold.Chemscore.Hbond.Weighted>
-6.7645

> <Gold.Chemscore.Metal.Weighted>
-0.0000

> <Gold.Chemscore.Lipo.Weighted>
-10.1765

> <Gold.Chemscore.Internal_Hbond.Weighted>
0.0000

> <Gold.Chemscore.DEClash.Weighted>
0.3655

> <Gold.Chemscore.DEInternal.Weighted>
2.0605

> <Gold.Chemscore.Rot.Weighted>
4.3976

> <Gold.Chemscore.Internal.Correction.Weighted>
   9.000000E+99

> <Gold.Protein.RotatedTorsions>
[ 6907 6896 6895 6894 ] final  154.25 input  -60.11 | X-H torsion
[ 7974 7965 7964 7962 ] final   64.34 input  175.53 | X-H torsion
[ 8008 7997 7996 7995 ] final -124.59 input   59.86 | X-H torsion
[ 10167 10162 10161 10158 ] final   70.86 input  -65.29 | X-H torsion
[ 10718 10713 10712 10709 ] final  172.40 input   66.30 | X-H torsion
[ 10763 10752 10751 10750 ] final   91.63 input  -60.55 | X-H torsion
[ 11005 11000 10999 10996 ] final  175.70 input  -57.11 | X-H torsion

> <Gold.Protein.ActiveResidues>
 VAL166  LYS551  ARG553  GLY616  TRP617  ASP618  TYR619  PRO620  LYS621  CYS622 
 ASP623  PHE694  ASN695  SER759  ASP760  ASP761  ALA762  ILE779  LEU786  VAL792 
 PHE793  MET794  SER795  GLU796  ALA797  LYS798  CYS799  TRP800  GLU811  SER814 

> <Gold.Protein.RotatedAtoms>
  152.0611  133.4062  159.4417 H   0  0  0  0  0  0  0  0  0  0  0  0  # atno 6907 bound_to 6896
  150.6866  134.3199  159.4791 H   0  0  0  0  0  0  0  0  0  0  0  0  # atno 6908 bound_to 6896
  152.1020  134.9334  160.0620 H   0  0  0  0  0  0  0  0  0  0  0  0  # atno 6909 bound_to 6896
  145.8514  139.3256  143.0873 H   0  0  0  0  0  0  0  0  0  0  0  0  # atno 7974 bound_to 7965
  155.1993  140.0415  157.2914 H   0  0  0  0  0  0  0  0  0  0  0  0  # atno 8008 bound_to 7997
  154.6085  140.2470  155.7671 H   0  0  0  0  0  0  0  0  0  0  0  0  # atno 8009 bound_to 7997
  156.2365  140.2919  156.0336 H   0  0  0  0  0  0  0  0  0  0  0  0  # atno 8010 bound_to 7997
  140.0523  144.5301  150.7354 H   0  0  0  0  0  0  0  0  0  0  0  0  # atno 10167 bound_to 10162
  156.9795  131.0114  151.2885 H   0  0  0  0  0  0  0  0  0  0  0  0  # atno 10718 bound_to 10713
  153.2104  135.4390  155.0372 H   0  0  0  0  0  0  0  0  0  0  0  0  # atno 10763 bound_to 10752
  154.8196  135.3331  154.7078 H   0  0  0  0  0  0  0  0  0  0  0  0  # atno 10764 bound_to 10752
  153.7516  135.6998  153.5000 H   0  0  0  0  0  0  0  0  0  0  0  0  # atno 10765 bound_to 10752
  140.3651  134.7079  157.4356 H   0  0  0  0  0  0  0  0  0  0  0  0  # atno 11005 bound_to 11000
  145.9354  140.9018  143.0335 LP  0  0  0  0  0  0  0  0  0  0  0  0  # atno 17320 bound_to 7965
  144.6729  140.1475  143.7432 LP  0  0  0  0  0  0  0  0  0  0  0  0  # atno 17321 bound_to 7965
  140.7211  143.2589  151.4276 LP  0  0  0  0  0  0  0  0  0  0  0  0  # atno 17342 bound_to 10162
  139.5945  144.1427  152.2128 LP  0  0  0  0  0  0  0  0  0  0  0  0  # atno 17343 bound_to 10162
  157.5536  130.8199  149.8176 LP  0  0  0  0  0  0  0  0  0  0  0  0  # atno 17370 bound_to 10713
  156.0250  130.3782  150.1849 LP  0  0  0  0  0  0  0  0  0  0  0  0  # atno 17371 bound_to 10713
  140.0596  134.6015  155.8765 LP  0  0  0  0  0  0  0  0  0  0  0  0  # atno 17394 bound_to 11000
  141.1972  133.6595  156.5730 LP  0  0  0  0  0  0  0  0  0  0  0  0  # atno 17395 bound_to 11000

$$$$
