AV-unprocessed.smi:33|AV-procd|sdf|205|dock9
  -GOLD-   2262015493D 1   1.00000     0.00000
 Structure written by MMmdl.
 67 72  0  0  0  0  0  0  0  0  1 V2000
  152.0266  139.8586  159.7181 O   0  0  0  0  0  0  0  0  0  0  0  0
  151.7159  140.7332  158.9071 C   0  0  0  0  0  0  0  0  0  0  0  0
  151.3808  140.4792  157.6276 O   0  0  0  0  0  0  0  0  0  0  0  0
  151.3244  139.1423  157.1567 C   0  0  0  0  0  0  0  0  0  0  0  0
  150.3737  139.0663  155.9519 C   0  0  2  0  0  0  0  0  0  0  0  0
  149.4202  138.0367  156.2132 O   0  0  0  0  0  0  0  0  0  0  0  0
  149.4296  137.0791  155.1964 C   0  0  2  0  0  0  0  0  0  0  0  0
  149.1183  135.7258  155.7669 N   0  0  0  0  0  0  0  0  0  0  0  0
  148.7334  135.4150  157.0552 C   0  0  0  0  0  0  0  0  0  0  0  0
  148.5797  134.1433  157.3071 N   0  0  0  0  0  0  0  0  0  0  0  0
  148.9173  133.5236  156.1122 C   0  0  0  0  0  0  0  0  0  0  0  0
  148.9930  132.1687  155.6902 C   0  0  0  0  0  0  0  0  0  0  0  0
  148.7008  131.1262  156.5032 N   0  0  0  0  0  0  0  0  0  0  0  0
  147.6354  131.3265  157.4971 C   0  0  0  0  0  0  0  0  0  0  0  0
  146.7602  132.1688  157.2872 O   0  0  0  0  0  0  0  0  0  0  0  0
  147.5736  130.4758  158.7341 C   0  0  0  0  0  0  0  0  0  0  0  0
  146.3308  129.9849  159.1911 C   0  0  0  0  0  0  0  0  0  0  0  0
  146.2630  129.2002  160.3585 C   0  0  0  0  0  0  0  0  0  0  0  0
  147.4343  128.9164  161.0864 C   0  0  0  0  0  0  0  0  0  0  0  0
  148.6727  129.4258  160.6519 C   0  0  0  0  0  0  0  0  0  0  0  0
  148.7414  130.2108  159.4849 C   0  0  0  0  0  0  0  0  0  0  0  0
  149.4809  129.8935  156.3213 C   0  0  0  0  0  0  0  0  0  0  0  0
  149.0022  128.8128  156.6699 O   0  0  0  0  0  0  0  0  0  0  0  0
  150.8353  129.9396  155.6726 C   0  0  0  0  0  0  0  0  0  0  0  0
  151.2069  128.9479  154.7385 C   0  0  0  0  0  0  0  0  0  0  0  0
  152.4790  128.9827  154.1348 C   0  0  0  0  0  0  0  0  0  0  0  0
  153.3945  129.9962  154.4770 C   0  0  0  0  0  0  0  0  0  0  0  0
  153.0412  130.9702  155.4303 C   0  0  0  0  0  0  0  0  0  0  0  0
  151.7686  130.9380  156.0321 C   0  0  0  0  0  0  0  0  0  0  0  0
  149.3918  131.9181  154.4165 N   0  0  0  0  0  0  0  0  0  0  0  0
  149.7019  132.9343  153.6070 C   0  0  0  0  0  0  0  0  0  0  0  0
  149.6794  134.2437  153.8651 N   0  0  0  0  0  0  0  0  0  0  0  0
  149.2707  134.5025  155.1422 C   0  0  0  0  0  0  0  0  0  0  0  0
  150.8160  137.1688  154.5448 C   0  0  2  0  0  0  0  0  0  0  0  0
  151.8101  136.4429  155.2484 O   0  0  0  0  0  0  0  0  0  0  0  0
  151.0392  138.6665  154.6279 C   0  0  2  0  0  0  0  0  0  0  0  0
  152.3184  139.0238  154.4989 F   0  0  0  0  0  0  0  0  0  0  0  0
  151.6730  142.1866  159.2394 C   0  0  0  0  0  0  0  0  0  0  0  0
  151.3825  143.1228  158.2197 C   0  0  0  0  0  0  0  0  0  0  0  0
  151.3353  144.5015  158.5040 C   0  0  0  0  0  0  0  0  0  0  0  0
  151.5790  144.9611  159.8112 C   0  0  0  0  0  0  0  0  0  0  0  0
  151.8696  144.0400  160.8344 C   0  0  0  0  0  0  0  0  0  0  0  0
  151.9163  142.6608  160.5523 C   0  0  0  0  0  0  0  0  0  0  0  0
  152.3176  138.7786  156.8916 H   0  0  0  0  0  0  0  0  0  0  0  0
  150.9510  138.5090  157.9624 H   0  0  0  0  0  0  0  0  0  0  0  0
  149.8446  140.0137  155.8423 H   0  0  0  0  0  0  0  0  0  0  0  0
  148.6184  137.2782  154.4945 H   0  0  0  0  0  0  0  0  0  0  0  0
  148.5653  136.1680  157.8115 H   0  0  0  0  0  0  0  0  0  0  0  0
  145.4254  130.1967  158.6406 H   0  0  0  0  0  0  0  0  0  0  0  0
  145.3114  128.8169  160.6959 H   0  0  0  0  0  0  0  0  0  0  0  0
  147.3815  128.3144  161.9816 H   0  0  0  0  0  0  0  0  0  0  0  0
  149.5706  129.2156  161.2144 H   0  0  0  0  0  0  0  0  0  0  0  0
  149.6970  130.6003  159.1643 H   0  0  0  0  0  0  0  0  0  0  0  0
  150.5117  128.1662  154.4677 H   0  0  0  0  0  0  0  0  0  0  0  0
  152.7529  128.2312  153.4090 H   0  0  0  0  0  0  0  0  0  0  0  0
  154.3696  130.0224  154.0136 H   0  0  0  0  0  0  0  0  0  0  0  0
  153.7467  131.7418  155.7012 H   0  0  0  0  0  0  0  0  0  0  0  0
  151.5095  131.6882  156.7656 H   0  0  0  0  0  0  0  0  0  0  0  0
  150.0152  132.6597  152.6108 H   0  0  0  0  0  0  0  0  0  0  0  0
  150.7740  136.8122  153.5152 H   0  0  0  0  0  0  0  0  0  0  0  0
  151.6826  136.5803  156.1747 H   0  0  0  0  0  0  0  0  0  0  0  0
  150.5056  139.1479  153.8072 H   0  0  0  0  0  0  0  0  0  0  0  0
  151.1918  142.7939  157.2081 H   0  0  0  0  0  0  0  0  0  0  0  0
  151.1118  145.2067  157.7171 H   0  0  0  0  0  0  0  0  0  0  0  0
  151.5431  146.0183  160.0289 H   0  0  0  0  0  0  0  0  0  0  0  0
  152.0572  144.3915  161.8383 H   0  0  0  0  0  0  0  0  0  0  0  0
  152.1424  141.9813  161.3610 H   0  0  0  0  0  0  0  0  0  0  0  0
  1  2  2  0  0  0  0
  2  3  1  0  0  0  0
  2 38  1  0  0  0  0
  3  4  1  0  0  0  0
  4  5  1  0  0  0  0
  4 44  1  0  0  0  0
  4 45  1  0  0  0  0
  5 36  1  0  0  0  0
  5  6  1  0  0  0  0
  5 46  1  0  0  0  0
  6  7  1  0  0  0  0
  7  8  1  0  0  0  0
  7 34  1  0  0  0  0
  7 47  1  0  0  0  0
  8 33  1  0  0  0  0
  8  9  1  0  0  0  0
  9 10  2  0  0  0  0
  9 48  1  0  0  0  0
 10 11  1  0  0  0  0
 11 33  2  0  0  0  0
 11 12  1  0  0  0  0
 12 13  1  0  0  0  0
 12 30  2  0  0  0  0
 13 14  1  0  0  0  0
 13 22  1  0  0  0  0
 14 15  2  0  0  0  0
 14 16  1  0  0  0  0
 16 21  1  0  0  0  0
 16 17  2  0  0  0  0
 17 18  1  0  0  0  0
 17 49  1  0  0  0  0
 18 19  2  0  0  0  0
 18 50  1  0  0  0  0
 19 20  1  0  0  0  0
 19 51  1  0  0  0  0
 20 21  2  0  0  0  0
 20 52  1  0  0  0  0
 21 53  1  0  0  0  0
 22 23  2  0  0  0  0
 22 24  1  0  0  0  0
 24 29  1  0  0  0  0
 24 25  2  0  0  0  0
 25 26  1  0  0  0  0
 25 54  1  0  0  0  0
 26 27  2  0  0  0  0
 26 55  1  0  0  0  0
 27 28  1  0  0  0  0
 27 56  1  0  0  0  0
 28 29  2  0  0  0  0
 28 57  1  0  0  0  0
 29 58  1  0  0  0  0
 30 31  1  0  0  0  0
 31 32  2  0  0  0  0
 31 59  1  0  0  0  0
 32 33  1  0  0  0  0
 34 35  1  0  0  0  0
 34 36  1  0  0  0  0
 34 60  1  0  0  0  0
 35 61  1  0  0  0  0
 36 37  1  0  0  0  0
 36 62  1  0  0  0  0
 38 43  1  0  0  0  0
 38 39  2  0  0  0  0
 39 40  1  0  0  0  0
 39 63  1  0  0  0  0
 40 41  2  0  0  0  0
 40 64  1  0  0  0  0
 41 42  1  0  0  0  0
 41 65  1  0  0  0  0
 42 43  2  0  0  0  0
 42 66  1  0  0  0  0
 43 67  1  0  0  0  0
M  END
> <s_m_source_file>
AV-unprocessed.smi

> <i_m_source_file_index>
33

> <i_lp_mmshare_version>
43012

> <i_f3d_flags>
0

> <s_epik_input>
W2NIXTFbY0hdW2NIXVtjSF1bY0hdYzFDKD1PKU9bQ0gyXVtDQEBIXTJPW0NASF0oW0NAQEhdKFtPSF0pW0NAQEhdMkYpbihbY0hdbjMpYyhjMzQpbltjSF1uYzROKEMoPU8pYzVbY0hdW2NIXVtjSF1bY0hdW2NIXTUpQyg9TyljNltjSF1bY0hdW2NIXVtjSF1bY0hdNg==

> <s_epik_cmdline>
J2VwaWtfcHl0aG9uJywgJy1waCcsICc3LjAnLCAnLXRuJywgJzgnLCAnLW1hJywgJzIwMCcsICctbWV0YWxfYmluZGluZycsICctaW1hZScsICc8aW5maWxlLm1hZT4nLCAnLW9tYWUnLCAnPG91dGZpbGUubWFlPic=

> <r_lp_tautomer_probability>
1

> <r_epik_Ionization_Penalty>
0.00067664

> <r_epik_Ionization_Penalty_Charging>
0

> <r_epik_Ionization_Penalty_Neutral>
0.00067664

> <r_epik_State_Penalty>
0.000428095

> <r_epik_Charging_Adjusted_Penalty>
0.000428095

> <i_epik_Tot_Q>
0

> <i_epik_Tot_abs_Q>
0

> <r_epik_Metal_State_Penalty>
-0

> <b_epik_Metal_Only>
0

> <s_epik_Chemistry_Notes>
This compound has an ester and may undergo hydrolysis at high or low pH. This compound contains an acetal/aminal-like group ( X-CH(R)-Y where X, Y are N, S, or O) that may be acid/base labile, releasing an aldehyde.

> <s_lp_Force_Field>
OPLS_2005

> <r_lp_Energy>
85.1188

> <b_lp_Chiralities_Consistent>
1

> <s_lp_Variant>
AV-unprocessed.smi:33-7

> <Gold.Version>
5.8.1

> <Gold.Id.Protein>
6NUR|6NUR_protein|mol2

> <Gold.PLP.Fitness>
58.8768

> <Gold.PLP.PLP>
-55.6742

> <Gold.PLP.part.hbond>
-1.9155

> <Gold.PLP.part.metal>
0.0000

> <Gold.PLP.part.buried>
-8.0238

> <Gold.PLP.part.nonpolar>
-45.9382

> <Gold.PLP.part.repulsive>
0.1324

> <Gold.PLP.ligand.clash>
0.0000

> <Gold.PLP.ligand.torsion>
3.3453

> <Gold.PLP.Chemscore.Hbond>
1.9510

> <Gold.PLP.Chemscore.CHOScore>
0.0000

> <Gold.PLP.Chemscore.Metal>
0.0000

> <Gold.Chemscore.Hbonds>
donor molecule, donor type, donor heavy atom, donor atom, acceptor molecule, acceptor atom, score
      P1  H 10752 10765       L1    35  1.00

> <Gold.PLP.Chemscore.Internal.Correction>
4.0403

> <Gold.Rescore>
     Score         DG    S(hbond)    S(metal)    S(lipo)     H(rot)  DE(clash)    DE(int)     intcor
     13.79     -18.92       1.05        0.00     140.05       2.52       0.07       5.06       ----

> <Gold.Chemscore.Fitness>
13.7855

> <Gold.Chemscore.DG>
-18.9196

> <Gold.Chemscore.ZeroCoef>
-5.4800

> <Gold.Chemscore.Hbond>
1.0530

> <Gold.Chemscore.Metal>
0.0000

> <Gold.Chemscore.Lipo>
140.0502

> <Gold.Chemscore.Internal_Hbond>
0.0000

> <Gold.Chemscore.DEClash>
0.0704

> <Gold.Chemscore.DEInternal>
5.0637

> <Gold.Chemscore.Rot>
2.5247

> <Gold.Chemscore.Internal.Correction>
   9.000000E+99

> <Gold.Chemscore.Hbonds>
donor molecule, donor type, donor heavy atom, donor atom, acceptor molecule, acceptor atom, score
      P1  H 10752 10765       L1    35  0.93

> <Gold.Chemscore.Hbond.Weighted>
-3.5169

> <Gold.Chemscore.Metal.Weighted>
-0.0000

> <Gold.Chemscore.Lipo.Weighted>
-16.3859

> <Gold.Chemscore.Internal_Hbond.Weighted>
0.0000

> <Gold.Chemscore.DEClash.Weighted>
0.0704

> <Gold.Chemscore.DEInternal.Weighted>
5.0637

> <Gold.Chemscore.Rot.Weighted>
6.4633

> <Gold.Chemscore.Internal.Correction.Weighted>
   9.000000E+99

> <Gold.Protein.RotatedTorsions>
[ 6907 6896 6895 6894 ] final -121.85 input  -60.11 | X-H torsion
[ 7974 7965 7964 7962 ] final   26.87 input  175.53 | X-H torsion
[ 8008 7997 7996 7995 ] final -149.59 input   59.86 | X-H torsion
[ 10167 10162 10161 10158 ] final   79.71 input  -65.29 | X-H torsion
[ 10718 10713 10712 10709 ] final   84.02 input   66.30 | X-H torsion
[ 10763 10752 10751 10750 ] final -174.07 input  -60.55 | X-H torsion
[ 11005 11000 10999 10996 ] final  121.67 input  -57.11 | X-H torsion

> <Gold.Protein.ActiveResidues>
 VAL166  LYS551  ARG553  GLY616  TRP617  ASP618  TYR619  PRO620  LYS621  CYS622 
 ASP623  PHE694  ASN695  SER759  ASP760  ASP761  ALA762  ILE779  LEU786  VAL792 
 PHE793  MET794  SER795  GLU796  ALA797  LYS798  CYS799  TRP800  GLU811  SER814 

> <Gold.Protein.RotatedAtoms>
  150.8521  133.7771  159.3021 H   0  0  0  0  0  0  0  0  0  0  0  0  # atno 6907 bound_to 6896
  151.5440  135.1066  159.9943 H   0  0  0  0  0  0  0  0  0  0  0  0  # atno 6908 bound_to 6896
  152.4561  133.7682  159.6840 H   0  0  0  0  0  0  0  0  0  0  0  0  # atno 6909 bound_to 6896
  146.1815  139.7269  142.8897 H   0  0  0  0  0  0  0  0  0  0  0  0  # atno 7974 bound_to 7965
  155.6100  140.0670  157.2709 H   0  0  0  0  0  0  0  0  0  0  0  0  # atno 8008 bound_to 7997
  154.4256  140.1803  156.1310 H   0  0  0  0  0  0  0  0  0  0  0  0  # atno 8009 bound_to 7997
  156.0092  140.3328  155.6927 H   0  0  0  0  0  0  0  0  0  0  0  0  # atno 8010 bound_to 7997
  139.9574  144.5984  150.8104 H   0  0  0  0  0  0  0  0  0  0  0  0  # atno 10167 bound_to 10162
  157.6890  131.0115  150.2610 H   0  0  0  0  0  0  0  0  0  0  0  0  # atno 10718 bound_to 10713
  154.6006  135.2854  155.0540 H   0  0  0  0  0  0  0  0  0  0  0  0  # atno 10763 bound_to 10752
  154.1806  135.6457  153.5037 H   0  0  0  0  0  0  0  0  0  0  0  0  # atno 10764 bound_to 10752
  153.0155  135.5422  154.6723 H   0  0  0  0  0  0  0  0  0  0  0  0  # atno 10765 bound_to 10752
  139.9235  134.9639  156.7993 H   0  0  0  0  0  0  0  0  0  0  0  0  # atno 11005 bound_to 11000
  145.4063  141.0391  143.3042 LP  0  0  0  0  0  0  0  0  0  0  0  0  # atno 17320 bound_to 7965
  144.8323  139.5608  143.6938 LP  0  0  0  0  0  0  0  0  0  0  0  0  # atno 17321 bound_to 7965
  140.7564  143.3065  151.2949 LP  0  0  0  0  0  0  0  0  0  0  0  0  # atno 17342 bound_to 10162
  139.6581  144.0240  152.2673 LP  0  0  0  0  0  0  0  0  0  0  0  0  # atno 17343 bound_to 10162
  156.3189  130.3783  149.7593 LP  0  0  0  0  0  0  0  0  0  0  0  0  # atno 17370 bound_to 10713
  156.5169  130.8197  151.3189 LP  0  0  0  0  0  0  0  0  0  0  0  0  # atno 17371 bound_to 10713
  140.6403  133.9824  155.7704 LP  0  0  0  0  0  0  0  0  0  0  0  0  # atno 17394 bound_to 11000
  141.0775  134.0112  157.3435 LP  0  0  0  0  0  0  0  0  0  0  0  0  # atno 17395 bound_to 11000

$$$$
