AV-unprocessed.smi:1323|AV-procd|sdf|5468|dock4
  -GOLD-   22720 5 43D 1   1.00000     0.00000
 Structure written by MMmdl.
 45 46  0  0  0  0  0  0  0  0  1 V2000
  153.4309  141.6708  160.8388 C   0  0  0  0  0  0  0  0  0  0  0  0
  152.2847  142.5265  160.2764 C   0  0  1  0  0  0  0  0  0  0  0  0
  152.7144  144.0032  160.1605 C   0  0  0  0  0  0  0  0  0  0  0  0
  151.5911  144.8826  159.5903 C   0  0  0  0  0  0  0  0  0  0  0  0
  151.1200  144.3554  158.2285 C   0  0  0  0  0  0  0  0  0  0  0  0
  150.6768  142.8906  158.3349 C   0  0  0  0  0  0  0  0  0  0  0  0
  151.7896  141.9906  158.9141 C   0  0  2  0  0  0  0  0  0  0  0  0
  151.2534  140.6901  159.1199 O   0  0  0  0  0  0  0  0  0  0  0  0
  152.1845  139.6348  158.9275 C   0  0  0  0  0  0  0  0  0  0  0  0
  151.4559  138.4365  158.2979 C   0  0  0  0  0  0  0  0  0  0  0  0
  150.1185  138.2597  158.8573 N   0  0  0  0  0  0  0  0  0  0  0  0
  149.5122  137.0806  159.0649 C   0  0  0  0  0  0  0  0  0  0  0  0
  150.0548  135.9952  158.8584 O   0  0  0  0  0  0  0  0  0  0  0  0
  148.0756  137.1336  159.5975 C   0  0  0  0  0  0  0  0  0  0  0  0
  147.8118  136.0605  160.5705 N   0  0  0  0  0  0  0  0  0  0  0  0
  147.9008  134.7374  160.0924 C   0  0  0  0  0  0  0  0  0  0  0  0
  147.6988  133.6770  160.8905 C   0  0  0  0  0  0  0  0  0  0  0  0
  147.3852  133.9178  162.2786 C   0  0  0  0  0  0  0  0  0  0  0  0
  147.2917  135.1784  162.7459 C   0  0  0  0  0  0  0  0  0  0  0  0
  147.5002  136.3407  161.8745 C   0  0  0  0  0  0  0  0  0  0  0  0
  147.4009  137.4941  162.2931 O   0  0  0  0  0  0  0  0  0  0  0  0
  154.2878  141.6644  160.1644 H   0  0  0  0  0  0  0  0  0  0  0  0
  153.1185  140.6371  160.9884 H   0  0  0  0  0  0  0  0  0  0  0  0
  153.7691  142.0521  161.8026 H   0  0  0  0  0  0  0  0  0  0  0  0
  151.4543  142.4764  160.9827 H   0  0  0  0  0  0  0  0  0  0  0  0
  153.0116  144.3826  161.1388 H   0  0  0  0  0  0  0  0  0  0  0  0
  153.5941  144.0817  159.5202 H   0  0  0  0  0  0  0  0  0  0  0  0
  150.7514  144.9036  160.2864 H   0  0  0  0  0  0  0  0  0  0  0  0
  151.9371  145.9118  159.4911 H   0  0  0  0  0  0  0  0  0  0  0  0
  150.2966  144.9662  157.8571 H   0  0  0  0  0  0  0  0  0  0  0  0
  151.9266  144.4428  157.4995 H   0  0  0  0  0  0  0  0  0  0  0  0
  149.8012  142.8292  158.9791 H   0  0  0  0  0  0  0  0  0  0  0  0
  150.3590  142.5368  157.3543 H   0  0  0  0  0  0  0  0  0  0  0  0
  152.6355  141.9504  158.2246 H   0  0  0  0  0  0  0  0  0  0  0  0
  153.0176  139.9378  158.2929 H   0  0  0  0  0  0  0  0  0  0  0  0
  152.6132  139.3589  159.8916 H   0  0  0  0  0  0  0  0  0  0  0  0
  151.3899  138.5588  157.2160 H   0  0  0  0  0  0  0  0  0  0  0  0
  152.0242  137.5232  158.4759 H   0  0  0  0  0  0  0  0  0  0  0  0
  149.5995  139.1009  159.0629 H   0  0  0  0  0  0  0  0  0  0  0  0
  147.9052  138.1103  160.0534 H   0  0  0  0  0  0  0  0  0  0  0  0
  147.3722  137.0854  158.7645 H   0  0  0  0  0  0  0  0  0  0  0  0
  148.1508  134.6416  159.0458 H   0  0  0  0  0  0  0  0  0  0  0  0
  147.7773  132.6706  160.5067 H   0  0  0  0  0  0  0  0  0  0  0  0
  147.2277  133.0835  162.9462 H   0  0  0  0  0  0  0  0  0  0  0  0
  147.0586  135.3395  163.7882 H   0  0  0  0  0  0  0  0  0  0  0  0
  1  2  1  0  0  0  0
  1 22  1  0  0  0  0
  1 23  1  0  0  0  0
  1 24  1  0  0  0  0
  2  7  1  0  0  0  0
  2  3  1  0  0  0  0
  2 25  1  0  0  0  0
  3  4  1  0  0  0  0
  3 26  1  0  0  0  0
  3 27  1  0  0  0  0
  4  5  1  0  0  0  0
  4 28  1  0  0  0  0
  4 29  1  0  0  0  0
  5  6  1  0  0  0  0
  5 30  1  0  0  0  0
  5 31  1  0  0  0  0
  6  7  1  0  0  0  0
  6 32  1  0  0  0  0
  6 33  1  0  0  0  0
  7  8  1  0  0  0  0
  7 34  1  0  0  0  0
  8  9  1  0  0  0  0
  9 10  1  0  0  0  0
  9 35  1  0  0  0  0
  9 36  1  0  0  0  0
 10 11  1  0  0  0  0
 10 37  1  0  0  0  0
 10 38  1  0  0  0  0
 11 12  1  0  0  0  0
 11 39  1  0  0  0  0
 12 13  2  0  0  0  0
 12 14  1  0  0  0  0
 14 15  1  0  0  0  0
 14 40  1  0  0  0  0
 14 41  1  0  0  0  0
 15 20  1  0  0  0  0
 15 16  1  0  0  0  0
 16 17  2  0  0  0  0
 16 42  1  0  0  0  0
 17 18  1  0  0  0  0
 17 43  1  0  0  0  0
 18 19  2  0  0  0  0
 18 44  1  0  0  0  0
 19 20  1  0  0  0  0
 19 45  1  0  0  0  0
 20 21  2  0  0  0  0
M  END
> <s_m_source_file>
AV-unprocessed.smi

> <i_m_source_file_index>
1323

> <i_lp_mmshare_version>
43012

> <i_f3d_flags>
0

> <s_epik_input>
W0NIM11bQ0BASF0xW0NIMl1bQ0gyXVtDSDJdW0NIMl1bQ0BIXTFPW0NIMl1bQ0gyXVtOSF1DKD1PKVtDSDJdbjJbY0hdW2NIXVtjSF1bY0hdYzI9Tw==

> <s_epik_cmdline>
J2VwaWtfcHl0aG9uJywgJy1waCcsICc3LjAnLCAnLXRuJywgJzgnLCAnLW1hJywgJzIwMCcsICctbWV0YWxfYmluZGluZycsICctaW1hZScsICc8aW5maWxlLm1hZT4nLCAnLW9tYWUnLCAnPG91dGZpbGUubWFlPic=

> <r_lp_tautomer_probability>
1

> <r_epik_Ionization_Penalty>
4.02412e-07

> <r_epik_Ionization_Penalty_Charging>
3.74552e-07

> <r_epik_Ionization_Penalty_Neutral>
2.78599e-08

> <r_epik_State_Penalty>
-0

> <r_epik_Charging_Adjusted_Penalty>
3.74552e-07

> <i_epik_Tot_Q>
0

> <i_epik_Tot_abs_Q>
0

> <r_epik_Metal_State_Penalty>
-0

> <b_epik_Metal_Only>
0

> <s_lp_Force_Field>
OPLS_2005

> <r_lp_Energy>
20.2591

> <b_lp_Chiralities_Consistent>
1

> <s_lp_Variant>
AV-unprocessed.smi:1323-4

> <Gold.Version>
5.8.1

> <Gold.Id.Protein>
6NUR|6NUR_protein|mol2

> <Gold.PLP.Fitness>
52.3381

> <Gold.PLP.PLP>
-47.9914

> <Gold.PLP.part.hbond>
-3.0000

> <Gold.PLP.part.metal>
0.0000

> <Gold.PLP.part.buried>
-5.5827

> <Gold.PLP.part.nonpolar>
-39.7276

> <Gold.PLP.part.repulsive>
0.2022

> <Gold.PLP.ligand.clash>
0.0000

> <Gold.PLP.ligand.torsion>
1.2831

> <Gold.PLP.Chemscore.Hbond>
2.2800

> <Gold.PLP.Chemscore.CHOScore>
0.0000

> <Gold.PLP.Chemscore.Metal>
0.0000

> <Gold.Chemscore.Hbonds>
donor molecule, donor type, donor heavy atom, donor atom, acceptor molecule, acceptor atom, score
      P1  H  6896  6907       L1    13  1.00
      P1  H  6931  6943       L1    21  0.70
      P1  H  6934  6947       L1    21  0.51

> <Gold.PLP.Chemscore.Internal.Correction>
0.0728

> <Gold.Rescore>
     Score         DG    S(hbond)    S(metal)    S(lipo)     H(rot)  DE(clash)    DE(int)     intcor
     19.34     -22.07       2.48        0.00     113.37       1.94       0.02       2.71       ----

> <Gold.Chemscore.Fitness>
19.3366

> <Gold.Chemscore.DG>
-22.0734

> <Gold.Chemscore.ZeroCoef>
-5.4800

> <Gold.Chemscore.Hbond>
2.4834

> <Gold.Chemscore.Metal>
0.0000

> <Gold.Chemscore.Lipo>
113.3729

> <Gold.Chemscore.Internal_Hbond>
0.0000

> <Gold.Chemscore.DEClash>
0.0234

> <Gold.Chemscore.DEInternal>
2.7134

> <Gold.Chemscore.Rot>
1.9398

> <Gold.Chemscore.Internal.Correction>
   9.000000E+99

> <Gold.Chemscore.Hbonds>
donor molecule, donor type, donor heavy atom, donor atom, acceptor molecule, acceptor atom, score
      P1  H  6896  6907       L1    13  0.99
      P1  H  6931  6943       L1    21  0.35
      P1  H  6934  6947       L1    21  0.47

> <Gold.Chemscore.Hbond.Weighted>
-8.2947

> <Gold.Chemscore.Metal.Weighted>
-0.0000

> <Gold.Chemscore.Lipo.Weighted>
-13.2646

> <Gold.Chemscore.Internal_Hbond.Weighted>
0.0000

> <Gold.Chemscore.DEClash.Weighted>
0.0234

> <Gold.Chemscore.DEInternal.Weighted>
2.7134

> <Gold.Chemscore.Rot.Weighted>
4.9659

> <Gold.Chemscore.Internal.Correction.Weighted>
   9.000000E+99

> <Gold.Protein.RotatedTorsions>
[ 6907 6896 6895 6894 ] final  -53.64 input  -60.11 | X-H torsion
[ 7974 7965 7964 7962 ] final  147.55 input  175.53 | X-H torsion
[ 8008 7997 7996 7995 ] final  179.25 input   59.86 | X-H torsion
[ 10167 10162 10161 10158 ] final  -90.58 input  -65.29 | X-H torsion
[ 10718 10713 10712 10709 ] final   96.23 input   66.30 | X-H torsion
[ 10763 10752 10751 10750 ] final  -43.34 input  -60.55 | X-H torsion
[ 11005 11000 10999 10996 ] final   13.17 input  -57.11 | X-H torsion

> <Gold.Protein.ActiveResidues>
 VAL166  LYS551  ARG553  GLY616  TRP617  ASP618  TYR619  PRO620  LYS621  CYS622 
 ASP623  PHE694  ASN695  SER759  ASP760  ASP761  ALA762  ILE779  LEU786  VAL792 
 PHE793  MET794  SER795  GLU796  ALA797  LYS798  CYS799  TRP800  GLU811  SER814 

> <Gold.Protein.RotatedAtoms>
  150.8409  134.7700  159.6931 H   0  0  0  0  0  0  0  0  0  0  0  0  # atno 6907 bound_to 6896
  152.4496  134.5418  159.9851 H   0  0  0  0  0  0  0  0  0  0  0  0  # atno 6908 bound_to 6896
  151.5558  133.3373  159.2997 H   0  0  0  0  0  0  0  0  0  0  0  0  # atno 6909 bound_to 6896
  144.8583  139.6042  143.5942 H   0  0  0  0  0  0  0  0  0  0  0  0  # atno 7974 bound_to 7965
  156.0455  140.1313  157.0109 H   0  0  0  0  0  0  0  0  0  0  0  0  # atno 8008 bound_to 7997
  154.4410  140.1021  156.6370 H   0  0  0  0  0  0  0  0  0  0  0  0  # atno 8009 bound_to 7997
  155.5603  140.3464  155.4492 H   0  0  0  0  0  0  0  0  0  0  0  0  # atno 8010 bound_to 7997
  140.3535  143.2879  151.9698 H   0  0  0  0  0  0  0  0  0  0  0  0  # atno 10167 bound_to 10162
  157.6929  131.0571  150.4459 H   0  0  0  0  0  0  0  0  0  0  0  0  # atno 10718 bound_to 10713
  153.9939  135.6702  153.4755 H   0  0  0  0  0  0  0  0  0  0  0  0  # atno 10763 bound_to 10752
  153.0692  135.4983  154.8264 H   0  0  0  0  0  0  0  0  0  0  0  0  # atno 10764 bound_to 10752
  154.7092  135.3094  154.9185 H   0  0  0  0  0  0  0  0  0  0  0  0  # atno 10765 bound_to 10752
  140.4838  134.0909  155.7756 H   0  0  0  0  0  0  0  0  0  0  0  0  # atno 11005 bound_to 11000
  146.2840  139.6955  142.9208 LP  0  0  0  0  0  0  0  0  0  0  0  0  # atno 17320 bound_to 7965
  145.4362  141.0419  143.2883 LP  0  0  0  0  0  0  0  0  0  0  0  0  # atno 17321 bound_to 7965
  139.4823  144.6055  151.7529 LP  0  0  0  0  0  0  0  0  0  0  0  0  # atno 17342 bound_to 10162
  140.5196  144.0900  150.6018 LP  0  0  0  0  0  0  0  0  0  0  0  0  # atno 17343 bound_to 10162
  156.4814  130.4074  149.6459 LP  0  0  0  0  0  0  0  0  0  0  0  0  # atno 17370 bound_to 10713
  156.3503  130.7429  151.2387 LP  0  0  0  0  0  0  0  0  0  0  0  0  # atno 17371 bound_to 10713
  141.1518  133.8955  157.2078 LP  0  0  0  0  0  0  0  0  0  0  0  0  # atno 17394 bound_to 11000
  139.9810  135.0098  156.9750 LP  0  0  0  0  0  0  0  0  0  0  0  0  # atno 17395 bound_to 11000

$$$$
