AV-unprocessed.smi:1558|AV-procd|sdf|6273|dock1
  -GOLD-   22720 6463D 1   1.00000     0.00000
 Structure written by MMmdl.
 36 37  0  0  0  0  0  0  0  0  1 V2000
  146.7284  136.4748  153.5944 N   0  0  0  0  0  0  0  0  0  0  0  0
  146.0699  137.6371  153.5955 C   0  0  0  0  0  0  0  0  0  0  0  0
  145.1555  137.8736  154.3817 O   0  0  0  0  0  0  0  0  0  0  0  0
  146.4994  138.6843  152.5664 C   0  0  0  0  0  0  0  0  0  0  0  0
  146.9329  139.9096  153.2142 N   0  0  0  0  0  0  0  0  0  0  0  0
  147.9686  140.0794  154.1125 C   0  0  0  0  0  0  0  0  0  0  0  0
  147.9730  141.4089  154.4266 C   0  0  0  0  0  0  0  0  0  0  0  0
  148.8299  142.1230  155.3019 N   0  0  0  0  0  0  0  0  0  0  0  0
  149.8018  141.6200  156.0803 C   0  0  0  0  0  0  0  0  0  0  0  0
  150.1036  140.4285  156.1537 O   0  0  0  0  0  0  0  0  0  0  0  0
  150.4163  142.5867  156.7765 N   0  0  0  0  0  0  0  0  0  0  0  0
  151.5361  142.3813  157.6883 C   0  0  0  0  0  0  0  0  0  0  0  0
  151.2748  143.0364  159.0542 C   0  0  1  0  0  0  0  0  0  0  0  0
  152.4471  142.9185  160.0250 C   0  0  0  0  0  0  0  0  0  0  0  0
  152.1598  144.0513  160.9841 C   0  0  0  0  0  0  0  0  0  0  0  0
  151.6031  145.1268  160.0535 C   0  0  0  0  0  0  0  0  0  0  0  0
  151.0715  144.4406  158.9225 O   0  0  0  0  0  0  0  0  0  0  0  0
  146.9089  141.9850  153.6852 C   0  0  0  0  0  0  0  0  0  0  0  0
  146.2851  141.0732  152.9548 N   0  0  0  0  0  0  0  0  0  0  0  0
  146.4743  135.7555  154.2560 H   0  0  0  0  0  0  0  0  0  0  0  0
  147.4746  136.3167  152.9330 H   0  0  0  0  0  0  0  0  0  0  0  0
  147.3107  138.2884  151.9531 H   0  0  0  0  0  0  0  0  0  0  0  0
  145.6739  138.9170  151.8924 H   0  0  0  0  0  0  0  0  0  0  0  0
  148.5895  139.2560  154.4329 H   0  0  0  0  0  0  0  0  0  0  0  0
  148.6943  143.1228  155.3318 H   0  0  0  0  0  0  0  0  0  0  0  0
  150.0994  143.5371  156.6534 H   0  0  0  0  0  0  0  0  0  0  0  0
  151.6614  141.3062  157.8182 H   0  0  0  0  0  0  0  0  0  0  0  0
  152.4676  142.7492  157.2547 H   0  0  0  0  0  0  0  0  0  0  0  0
  150.3847  142.6062  159.5164 H   0  0  0  0  0  0  0  0  0  0  0  0
  152.4989  141.9457  160.5146 H   0  0  0  0  0  0  0  0  0  0  0  0
  153.3932  143.0952  159.5108 H   0  0  0  0  0  0  0  0  0  0  0  0
  151.3979  143.7457  161.7024 H   0  0  0  0  0  0  0  0  0  0  0  0
  153.0392  144.3800  161.5383 H   0  0  0  0  0  0  0  0  0  0  0  0
  150.8406  145.7343  160.5411 H   0  0  0  0  0  0  0  0  0  0  0  0
  152.3980  145.7909  159.7123 H   0  0  0  0  0  0  0  0  0  0  0  0
  146.5754  143.0117  153.6519 H   0  0  0  0  0  0  0  0  0  0  0  0
  1  2  1  0  0  0  0
  1 20  1  0  0  0  0
  1 21  1  0  0  0  0
  2  3  2  0  0  0  0
  2  4  1  0  0  0  0
  4  5  1  0  0  0  0
  4 22  1  0  0  0  0
  4 23  1  0  0  0  0
  5 19  1  0  0  0  0
  5  6  1  0  0  0  0
  6  7  2  0  0  0  0
  6 24  1  0  0  0  0
  7  8  1  0  0  0  0
  7 18  1  0  0  0  0
  8  9  1  0  0  0  0
  8 25  1  0  0  0  0
  9 10  2  0  0  0  0
  9 11  1  0  0  0  0
 11 12  1  0  0  0  0
 11 26  1  0  0  0  0
 12 13  1  0  0  0  0
 12 27  1  0  0  0  0
 12 28  1  0  0  0  0
 13 17  1  0  0  0  0
 13 14  1  0  0  0  0
 13 29  1  0  0  0  0
 14 15  1  0  0  0  0
 14 30  1  0  0  0  0
 14 31  1  0  0  0  0
 15 16  1  0  0  0  0
 15 32  1  0  0  0  0
 15 33  1  0  0  0  0
 16 17  1  0  0  0  0
 16 34  1  0  0  0  0
 16 35  1  0  0  0  0
 18 19  2  0  0  0  0
 18 36  1  0  0  0  0
M  END
> <s_m_source_file>
AV-unprocessed.smi

> <i_m_source_file_index>
1558

> <i_lp_mmshare_version>
43012

> <i_f3d_flags>
0

> <s_epik_input>
W05IMl1DKD1PKVtDSDJdbjFbY0hdYyhbY0hdbjEpW05IXUMoPU8pW05IXVtDSDJdW0NAQEhdMltDSDJdW0NIMl1bQ0gyXU8y

> <s_epik_cmdline>
J2VwaWtfcHl0aG9uJywgJy1waCcsICc3LjAnLCAnLXRuJywgJzgnLCAnLW1hJywgJzIwMCcsICctbWV0YWxfYmluZGluZycsICctaW1hZScsICc8aW5maWxlLm1hZT4nLCAnLW9tYWUnLCAnPG91dGZpbGUubWFlPic=

> <r_lp_tautomer_probability>
1

> <r_epik_Ionization_Penalty>
4.01684e-05

> <r_epik_Ionization_Penalty_Charging>
0

> <r_epik_Ionization_Penalty_Neutral>
4.01684e-05

> <r_epik_State_Penalty>
-0

> <r_epik_Charging_Adjusted_Penalty>
0

> <i_epik_Tot_Q>
0

> <i_epik_Tot_abs_Q>
0

> <r_epik_Metal_State_Penalty>
-0

> <b_epik_Metal_Only>
0

> <s_lp_Force_Field>
OPLS_2005

> <r_lp_Energy>
20.8688

> <b_lp_Chiralities_Consistent>
1

> <s_lp_Variant>
AV-unprocessed.smi:1558-2

> <Gold.Version>
5.8.1

> <Gold.Id.Protein>
6NUR|6NUR_protein|mol2

> <Gold.PLP.Fitness>
43.5619

> <Gold.PLP.PLP>
-34.9853

> <Gold.PLP.part.hbond>
-3.0000

> <Gold.PLP.part.metal>
0.0000

> <Gold.PLP.part.buried>
-5.4864

> <Gold.PLP.part.nonpolar>
-27.9416

> <Gold.PLP.part.repulsive>
1.9573

> <Gold.PLP.ligand.clash>
0.0000

> <Gold.PLP.ligand.torsion>
0.0465

> <Gold.PLP.Chemscore.Hbond>
2.8800

> <Gold.PLP.Chemscore.CHOScore>
0.0000

> <Gold.PLP.Chemscore.Metal>
0.0000

> <Gold.Chemscore.Hbonds>
donor molecule, donor type, donor heavy atom, donor atom, acceptor molecule, acceptor atom, score
      L1  H     1    21       P1  7948  1.00
      L1  H     8    25       P1  8028  1.00
      L1  H    11    26       P1  8028  0.93

> <Gold.PLP.Chemscore.Internal.Correction>
0.0297

> <Gold.Rescore>
     Score         DG    S(hbond)    S(metal)    S(lipo)     H(rot)  DE(clash)    DE(int)     intcor
     16.33     -18.83       2.94        0.00      81.24       2.33       1.23       1.27       ----

> <Gold.Chemscore.Fitness>
16.3257

> <Gold.Chemscore.DG>
-18.8286

> <Gold.Chemscore.ZeroCoef>
-5.4800

> <Gold.Chemscore.Hbond>
2.9369

> <Gold.Chemscore.Metal>
0.0000

> <Gold.Chemscore.Lipo>
81.2389

> <Gold.Chemscore.Internal_Hbond>
0.0000

> <Gold.Chemscore.DEClash>
1.2338

> <Gold.Chemscore.DEInternal>
1.2691

> <Gold.Chemscore.Rot>
2.3303

> <Gold.Chemscore.Internal.Correction>
   9.000000E+99

> <Gold.Chemscore.Hbonds>
donor molecule, donor type, donor heavy atom, donor atom, acceptor molecule, acceptor atom, score
      L1  H     1    21       P1  7948  1.00
      L1  H     8    25       P1  8028  0.99
      L1  H    11    26       P1  8028  0.88

> <Gold.Chemscore.Hbond.Weighted>
-9.8093

> <Gold.Chemscore.Metal.Weighted>
-0.0000

> <Gold.Chemscore.Lipo.Weighted>
-9.5049

> <Gold.Chemscore.Internal_Hbond.Weighted>
0.0000

> <Gold.Chemscore.DEClash.Weighted>
1.2338

> <Gold.Chemscore.DEInternal.Weighted>
1.2691

> <Gold.Chemscore.Rot.Weighted>
5.9656

> <Gold.Chemscore.Internal.Correction.Weighted>
   9.000000E+99

> <Gold.Protein.RotatedTorsions>
[ 6907 6896 6895 6894 ] final  -49.54 input  -60.11 | X-H torsion
[ 7974 7965 7964 7962 ] final  109.06 input  175.53 | X-H torsion
[ 8008 7997 7996 7995 ] final  -20.34 input   59.86 | X-H torsion
[ 10167 10162 10161 10158 ] final  -76.59 input  -65.29 | X-H torsion
[ 10718 10713 10712 10709 ] final   23.40 input   66.30 | X-H torsion
[ 10763 10752 10751 10750 ] final  -91.20 input  -60.55 | X-H torsion
[ 11005 11000 10999 10996 ] final   50.67 input  -57.11 | X-H torsion

> <Gold.Protein.ActiveResidues>
 VAL166  LYS551  ARG553  GLY616  TRP617  ASP618  TYR619  PRO620  LYS621  CYS622 
 ASP623  PHE694  ASN695  SER759  ASP760  ASP761  ALA762  ILE779  LEU786  VAL792 
 PHE793  MET794  SER795  GLU796  ALA797  LYS798  CYS799  TRP800  GLU811  SER814 

> <Gold.Protein.RotatedAtoms>
  150.8795  134.8183  159.7214 H   0  0  0  0  0  0  0  0  0  0  0  0  # atno 6907 bound_to 6896
  152.4768  134.4819  159.9678 H   0  0  0  0  0  0  0  0  0  0  0  0  # atno 6908 bound_to 6896
  151.4896  133.3489  159.2886 H   0  0  0  0  0  0  0  0  0  0  0  0  # atno 6909 bound_to 6896
  145.2726  139.2661  143.3958 H   0  0  0  0  0  0  0  0  0  0  0  0  # atno 7974 bound_to 7965
  154.4776  140.2064  155.9840 H   0  0  0  0  0  0  0  0  0  0  0  0  # atno 8008 bound_to 7997
  156.1114  140.3228  155.8048 H   0  0  0  0  0  0  0  0  0  0  0  0  # atno 8009 bound_to 7997
  155.4627  140.0525  157.2979 H   0  0  0  0  0  0  0  0  0  0  0  0  # atno 8010 bound_to 7997
  140.4844  143.2394  151.8007 H   0  0  0  0  0  0  0  0  0  0  0  0  # atno 10167 bound_to 10162
  157.1655  130.6736  149.6059 H   0  0  0  0  0  0  0  0  0  0  0  0  # atno 10718 bound_to 10713
  154.6736  135.5276  153.8171 H   0  0  0  0  0  0  0  0  0  0  0  0  # atno 10763 bound_to 10752
  153.0518  135.6535  154.0686 H   0  0  0  0  0  0  0  0  0  0  0  0  # atno 10764 bound_to 10752
  154.0581  135.2964  155.3309 H   0  0  0  0  0  0  0  0  0  0  0  0  # atno 10765 bound_to 10752
  140.0997  134.5098  155.8774 H   0  0  0  0  0  0  0  0  0  0  0  0  # atno 11005 bound_to 11000
  146.3241  140.3173  142.8631 LP  0  0  0  0  0  0  0  0  0  0  0  0  # atno 17320 bound_to 7965
  144.9321  140.7987  143.5682 LP  0  0  0  0  0  0  0  0  0  0  0  0  # atno 17321 bound_to 7965
  139.4839  144.4731  151.9401 LP  0  0  0  0  0  0  0  0  0  0  0  0  # atno 17342 bound_to 10162
  140.3817  144.2728  150.5908 LP  0  0  0  0  0  0  0  0  0  0  0  0  # atno 17343 bound_to 10162
  155.9747  130.4697  150.6403 LP  0  0  0  0  0  0  0  0  0  0  0  0  # atno 17370 bound_to 10713
  157.4092  131.0821  151.1237 LP  0  0  0  0  0  0  0  0  0  0  0  0  # atno 17371 bound_to 10713
  141.2102  133.6692  156.6493 LP  0  0  0  0  0  0  0  0  0  0  0  0  # atno 17394 bound_to 11000
  140.3237  134.7987  157.4272 LP  0  0  0  0  0  0  0  0  0  0  0  0  # atno 17395 bound_to 11000

$$$$
