AV-unprocessed.smi:1535|AV-procd|sdf|6182|dock4
  -GOLD-   22720 6343D 1   1.00000     0.00000
 Structure written by MMmdl.
 47 48  0  0  0  0  0  0  0  0  2 V2000
  152.5173  143.2915  161.8605 C   0  0  0  0  0  0  0  0  0  0  0  0
  152.0056  142.9271  160.4779 C   0  0  0  0  0  0  0  0  0  0  0  0
  152.2242  141.6204  159.9868 C   0  0  0  0  0  0  0  0  0  0  0  0
  151.7633  141.2411  158.7073 C   0  0  0  0  0  0  0  0  0  0  0  0
  151.8636  140.0336  158.0378 N   0  0  0  0  0  0  0  0  0  0  0  0
  151.2441  140.3086  156.8944 C   0  0  0  0  0  0  0  0  0  0  0  0
  150.7585  141.5554  156.7402 N   0  0  0  0  0  0  0  0  0  0  0  0
  150.0572  142.0800  155.5827 C   0  0  0  0  0  0  0  0  0  0  0  0
  149.4232  140.9658  154.7247 C   0  0  2  0  0  0  0  0  0  0  0  0
  150.4126  140.3918  153.8947 O   0  0  0  0  0  0  0  0  0  0  0  0
  148.2913  141.4849  153.8172 C   0  0  0  0  0  0  0  0  0  0  0  0
  147.2743  142.2604  154.5743 N   0  3  2  0  0  0  0  0  0  0  0  0
  146.8789  141.5948  155.8378 C   0  0  0  0  0  0  0  0  0  0  0  0
  146.0954  142.6402  153.7541 C   0  0  0  0  0  0  0  0  0  0  0  0
  145.2672  143.7723  154.3946 C   0  0  1  0  0  0  0  0  0  0  0  0
  144.4572  144.5396  153.3424 C   0  0  0  0  0  0  0  0  0  0  0  0
  144.3886  143.2591  155.4579 C   0  0  0  0  0  0  0  0  0  0  0  0
  143.7015  142.8520  156.2941 N   0  0  0  0  0  0  0  0  0  0  0  0
  151.0752  142.2136  157.9242 C   0  0  0  0  0  0  0  0  0  0  0  0
  150.8528  143.5176  158.4012 C   0  0  0  0  0  0  0  0  0  0  0  0
  151.3160  143.8783  159.6839 C   0  0  0  0  0  0  0  0  0  0  0  0
  151.0641  145.2860  160.1946 C   0  0  0  0  0  0  0  0  0  0  0  0
  153.0324  142.4521  162.3285 H   0  0  0  0  0  0  0  0  0  0  0  0
  151.6906  143.5805  162.5097 H   0  0  0  0  0  0  0  0  0  0  0  0
  153.2195  144.1232  161.8016 H   0  0  0  0  0  0  0  0  0  0  0  0
  152.7490  140.8953  160.5911 H   0  0  0  0  0  0  0  0  0  0  0  0
  151.1400  139.5611  156.1213 H   0  0  0  0  0  0  0  0  0  0  0  0
  149.2908  142.7682  155.9406 H   0  0  0  0  0  0  0  0  0  0  0  0
  150.7534  142.6737  154.9889 H   0  0  0  0  0  0  0  0  0  0  0  0
  149.0500  140.1727  155.3731 H   0  0  0  0  0  0  0  0  0  0  0  0
  150.0318  140.2182  153.0467 H   0  0  0  0  0  0  0  0  0  0  0  0
  148.7344  142.0947  153.0304 H   0  0  0  0  0  0  0  0  0  0  0  0
  147.7993  140.6565  153.3042 H   0  0  0  0  0  0  0  0  0  0  0  0
  146.3579  140.6574  155.6388 H   0  0  0  0  0  0  0  0  0  0  0  0
  146.2163  142.2354  156.4209 H   0  0  0  0  0  0  0  0  0  0  0  0
  147.7465  141.3761  156.4598 H   0  0  0  0  0  0  0  0  0  0  0  0
  146.4226  142.9177  152.7507 H   0  0  0  0  0  0  0  0  0  0  0  0
  145.4452  141.7716  153.6365 H   0  0  0  0  0  0  0  0  0  0  0  0
  145.9318  144.4864  154.8793 H   0  0  0  0  0  0  0  0  0  0  0  0
  143.8983  145.3566  153.7996 H   0  0  0  0  0  0  0  0  0  0  0  0
  143.7408  143.8878  152.8408 H   0  0  0  0  0  0  0  0  0  0  0  0
  145.1077  144.9706  152.5809 H   0  0  0  0  0  0  0  0  0  0  0  0
  150.3289  144.2341  157.7859 H   0  0  0  0  0  0  0  0  0  0  0  0
  150.5266  145.8860  159.4599 H   0  0  0  0  0  0  0  0  0  0  0  0
  152.0065  145.7891  160.4125 H   0  0  0  0  0  0  0  0  0  0  0  0
  150.4664  145.2590  161.1060 H   0  0  0  0  0  0  0  0  0  0  0  0
  147.7140  143.1302  154.8406 H   0  0  0  0  0  0  0  0  0  0  0  0
  1  2  1  0  0  0  0
  1 23  1  0  0  0  0
  1 24  1  0  0  0  0
  1 25  1  0  0  0  0
  2 21  1  0  0  0  0
  2  3  2  0  0  0  0
  3  4  1  0  0  0  0
  3 26  1  0  0  0  0
  4 19  2  0  0  0  0
  4  5  1  0  0  0  0
  5  6  2  0  0  0  0
  6  7  1  0  0  0  0
  6 27  1  0  0  0  0
  7  8  1  0  0  0  0
  7 19  1  0  0  0  0
  8  9  1  0  0  0  0
  8 28  1  0  0  0  0
  8 29  1  0  0  0  0
  9 10  1  0  0  0  0
  9 11  1  0  0  0  0
  9 30  1  0  0  0  0
 10 31  1  0  0  0  0
 11 12  1  0  0  0  0
 11 32  1  0  0  0  0
 11 33  1  0  0  0  0
 12 13  1  0  0  0  0
 12 14  1  0  0  0  0
 12 47  1  0  0  0  0
 13 34  1  0  0  0  0
 13 35  1  0  0  0  0
 13 36  1  0  0  0  0
 14 15  1  0  0  0  0
 14 37  1  0  0  0  0
 14 38  1  0  0  0  0
 15 16  1  0  0  0  0
 15 17  1  0  0  0  0
 15 39  1  0  0  0  0
 16 40  1  0  0  0  0
 16 41  1  0  0  0  0
 16 42  1  0  0  0  0
 17 18  3  0  0  0  0
 19 20  1  0  0  0  0
 20 21  2  0  0  0  0
 20 43  1  0  0  0  0
 21 22  1  0  0  0  0
 22 44  1  0  0  0  0
 22 45  1  0  0  0  0
 22 46  1  0  0  0  0
M  CHG  1  12   1
M  END
> <s_m_source_file>
AV-unprocessed.smi

> <i_m_source_file_index>
1535

> <i_lp_mmshare_version>
43012

> <i_f3d_flags>
0

> <s_epik_input>
W0NIM11jKFtjSF0xKWMoW0NIM10pW2NIXWMoYzEyKW4oW2NIXW4yKVtDSDJdW0NASF0oW09IXSlbQ0gyXU4oW0NIM10pW0NIMl1bQ0BIXShbQ0gzXSlDI04=

> <s_epik_cmdline>
J2VwaWtfcHl0aG9uJywgJy1waCcsICc3LjAnLCAnLXRuJywgJzgnLCAnLW1hJywgJzIwMCcsICctbWV0YWxfYmluZGluZycsICctaW1hZScsICc8aW5maWxlLm1hZT4nLCAnLW9tYWUnLCAnPG91dGZpbGUubWFlPic=

> <r_epik_Ionization_Penalty>
2.21058

> <r_epik_Ionization_Penalty_Charging>
2.12381

> <r_epik_Ionization_Penalty_Neutral>
0.0867699

> <r_epik_State_Penalty>
2.36208

> <r_epik_Charging_Adjusted_Penalty>
4.48589

> <i_epik_Tot_Q>
1

> <i_epik_Tot_abs_Q>
1

> <r_epik_Metal_State_Penalty>
2.2818

> <b_epik_Metal_Only>
0

> <s_lp_Force_Field>
OPLS_2005

> <r_lp_Energy>
14.5369

> <b_lp_Chiralities_Consistent>
1

> <s_lp_Variant>
AV-unprocessed.smi:1535-13

> <Gold.Version>
5.8.1

> <Gold.Id.Protein>
6NUR|6NUR_protein|mol2

> <Gold.PLP.Fitness>
61.3580

> <Gold.PLP.PLP>
-50.9057

> <Gold.PLP.part.hbond>
-3.0000

> <Gold.PLP.part.metal>
0.0000

> <Gold.PLP.part.buried>
-6.4461

> <Gold.PLP.part.nonpolar>
-41.6172

> <Gold.PLP.part.repulsive>
0.1779

> <Gold.PLP.ligand.clash>
0.0000

> <Gold.PLP.ligand.torsion>
0.9127

> <Gold.PLP.Chemscore.Hbond>
3.9673

> <Gold.PLP.Chemscore.CHOScore>
0.0000

> <Gold.PLP.Chemscore.Metal>
0.0000

> <Gold.Chemscore.Hbonds>
donor molecule, donor type, donor heavy atom, donor atom, acceptor molecule, acceptor atom, score
      L1  H    10    31       P1  7957  1.00
      L1  H    12    47       P1  8028  1.66
      P1  H  7989  7998       L1    10  0.43

> <Gold.PLP.Chemscore.Internal.Correction>
0.3759

> <Gold.Rescore>
     Score         DG    S(hbond)    S(metal)    S(lipo)     H(rot)  DE(clash)    DE(int)     intcor
     16.67     -17.94       1.30        0.00     126.22       2.60       0.19       1.08       ----

> <Gold.Chemscore.Fitness>
16.6675

> <Gold.Chemscore.DG>
-17.9400

> <Gold.Chemscore.ZeroCoef>
-5.4800

> <Gold.Chemscore.Hbond>
1.3043

> <Gold.Chemscore.Metal>
0.0000

> <Gold.Chemscore.Lipo>
126.2184

> <Gold.Chemscore.Internal_Hbond>
0.0000

> <Gold.Chemscore.DEClash>
0.1893

> <Gold.Chemscore.DEInternal>
1.0832

> <Gold.Chemscore.Rot>
2.6031

> <Gold.Chemscore.Internal.Correction>
   9.000000E+99

> <Gold.Chemscore.Hbonds>
donor molecule, donor type, donor heavy atom, donor atom, acceptor molecule, acceptor atom, score
      L1  H    10    31       P1  7957  0.99
      L1  H    12    47       P1  8028  0.54
      P1  H  7989  7998       L1    10  0.09

> <Gold.Chemscore.Hbond.Weighted>
-4.3564

> <Gold.Chemscore.Metal.Weighted>
-0.0000

> <Gold.Chemscore.Lipo.Weighted>
-14.7676

> <Gold.Chemscore.Internal_Hbond.Weighted>
0.0000

> <Gold.Chemscore.DEClash.Weighted>
0.1893

> <Gold.Chemscore.DEInternal.Weighted>
1.0832

> <Gold.Chemscore.Rot.Weighted>
6.6640

> <Gold.Chemscore.Internal.Correction.Weighted>
   9.000000E+99

> <Gold.Protein.RotatedTorsions>
[ 6907 6896 6895 6894 ] final -131.95 input  -60.11 | X-H torsion
[ 7974 7965 7964 7962 ] final  147.31 input  175.53 | X-H torsion
[ 8008 7997 7996 7995 ] final    5.12 input   59.86 | X-H torsion
[ 10167 10162 10161 10158 ] final  164.54 input  -65.29 | X-H torsion
[ 10718 10713 10712 10709 ] final  137.24 input   66.30 | X-H torsion
[ 10763 10752 10751 10750 ] final   20.68 input  -60.55 | X-H torsion
[ 11005 11000 10999 10996 ] final -174.91 input  -57.11 | X-H torsion

> <Gold.Protein.ActiveResidues>
 VAL166  LYS551  ARG553  GLY616  TRP617  ASP618  TYR619  PRO620  LYS621  CYS622 
 ASP623  PHE694  ASN695  SER759  ASP760  ASP761  ALA762  ILE779  LEU786  VAL792 
 PHE793  MET794  SER795  GLU796  ALA797  LYS798  CYS799  TRP800  GLU811  SER814 

> <Gold.Protein.RotatedAtoms>
  150.9568  133.6489  159.2761 H   0  0  0  0  0  0  0  0  0  0  0  0  # atno 6907 bound_to 6896
  151.3826  135.0941  159.9510 H   0  0  0  0  0  0  0  0  0  0  0  0  # atno 6908 bound_to 6896
  152.5132  133.9099  159.7537 H   0  0  0  0  0  0  0  0  0  0  0  0  # atno 6909 bound_to 6896
  144.8601  139.6013  143.5934 H   0  0  0  0  0  0  0  0  0  0  0  0  # atno 7974 bound_to 7965
  154.7244  140.2718  155.6512 H   0  0  0  0  0  0  0  0  0  0  0  0  # atno 8008 bound_to 7997
  156.2833  140.2728  156.1850 H   0  0  0  0  0  0  0  0  0  0  0  0  # atno 8009 bound_to 7997
  155.0464  140.0371  157.2518 H   0  0  0  0  0  0  0  0  0  0  0  0  # atno 8010 bound_to 7997
  139.4890  144.4224  151.9170 H   0  0  0  0  0  0  0  0  0  0  0  0  # atno 10167 bound_to 10162
  157.4381  131.1055  151.0174 H   0  0  0  0  0  0  0  0  0  0  0  0  # atno 10718 bound_to 10713
  153.1057  135.6684  153.9591 H   0  0  0  0  0  0  0  0  0  0  0  0  # atno 10763 bound_to 10752
  153.9148  135.3021  155.3449 H   0  0  0  0  0  0  0  0  0  0  0  0  # atno 10764 bound_to 10752
  154.7478  135.5049  153.9311 H   0  0  0  0  0  0  0  0  0  0  0  0  # atno 10765 bound_to 10752
  140.4693  134.6181  157.4875 H   0  0  0  0  0  0  0  0  0  0  0  0  # atno 11005 bound_to 11000
  146.2854  139.6989  142.9199 LP  0  0  0  0  0  0  0  0  0  0  0  0  # atno 17320 bound_to 7965
  145.4329  141.0416  143.2901 LP  0  0  0  0  0  0  0  0  0  0  0  0  # atno 17321 bound_to 7965
  140.3669  144.2904  150.5925 LP  0  0  0  0  0  0  0  0  0  0  0  0  # atno 17342 bound_to 10162
  140.5353  143.2234  151.8172 LP  0  0  0  0  0  0  0  0  0  0  0  0  # atno 17343 bound_to 10162
  157.1046  130.5996  149.5468 LP  0  0  0  0  0  0  0  0  0  0  0  0  # atno 17370 bound_to 10713
  155.9938  130.5000  150.7396 LP  0  0  0  0  0  0  0  0  0  0  0  0  # atno 17371 bound_to 10713
  139.9895  134.7007  155.9714 LP  0  0  0  0  0  0  0  0  0  0  0  0  # atno 17394 bound_to 11000
  141.1585  133.6540  156.4239 LP  0  0  0  0  0  0  0  0  0  0  0  0  # atno 17395 bound_to 11000

$$$$
