AV-unprocessed.smi:2973|AV-procd|sdf|11338|dock6
  -GOLD-   2272016253D 1   1.00000     0.00000
 Structure written by MMmdl.
 49 51  0  0  0  0  0  0  0  0  1 V2000
  147.2566  135.5403  156.0905 C   0  0  0  0  0  0  0  0  0  0  0  0
  147.6814  134.1681  155.5245 C   0  0  1  0  0  0  0  0  0  0  0  0
  146.8776  133.8531  154.2440 C   0  0  0  0  0  0  0  0  0  0  0  0
  147.2184  132.4674  153.6739 C   0  0  0  0  0  0  0  0  0  0  0  0
  148.7234  132.3291  153.4054 C   0  0  0  0  0  0  0  0  0  0  0  0
  149.5360  132.6205  154.6767 C   0  0  0  0  0  0  0  0  0  0  0  0
  149.2127  134.0152  155.2646 C   0  0  1  0  0  0  0  0  0  0  0  0
  149.7345  135.0714  154.4129 N   0  0  0  0  0  0  0  0  0  0  0  0
  150.6860  135.8009  155.0090 C   0  0  0  0  0  0  0  0  0  0  0  0
  151.2874  136.7405  154.4916 O   0  0  0  0  0  0  0  0  0  0  0  0
  150.8688  135.3226  156.2536 N   0  0  0  0  0  0  0  0  0  0  0  0
  151.8482  135.8571  157.2121 C   0  0  0  0  0  0  0  0  0  0  0  0
  151.4033  137.1237  157.9642 C   0  0  0  0  0  0  0  0  0  0  0  0
  150.3126  137.1252  158.5336 O   0  0  0  0  0  0  0  0  0  0  0  0
  152.2234  138.1887  157.9657 N   0  0  0  0  0  0  0  0  0  0  0  0
  151.9395  139.4708  158.5987 C   0  0  0  0  0  0  0  0  0  0  0  0
  151.9303  140.6154  157.5715 C   0  0  0  0  0  0  0  0  0  0  0  0
  151.9395  141.9823  158.2289 C   0  0  0  0  0  0  0  0  0  0  0  0
  152.8899  142.2969  159.2237 C   0  0  0  0  0  0  0  0  0  0  0  0
  152.8547  143.5802  159.8032 C   0  0  0  0  0  0  0  0  0  0  0  0
  151.8769  144.4950  159.3669 C   0  0  0  0  0  0  0  0  0  0  0  0
  150.9759  144.0850  158.3641 C   0  0  0  0  0  0  0  0  0  0  0  0
  151.0009  142.8573  157.8016 N   0  0  0  0  0  0  0  0  0  0  0  0
  150.0626  134.2809  156.5012 C   0  0  0  0  0  0  0  0  0  0  0  0
  149.9969  133.6214  157.5387 O   0  0  0  0  0  0  0  0  0  0  0  0
  147.4907  136.3511  155.4002 H   0  0  0  0  0  0  0  0  0  0  0  0
  147.7456  135.7588  157.0399 H   0  0  0  0  0  0  0  0  0  0  0  0
  146.1821  135.5685  156.2724 H   0  0  0  0  0  0  0  0  0  0  0  0
  147.3999  133.4210  156.2688 H   0  0  0  0  0  0  0  0  0  0  0  0
  145.8087  133.9003  154.4553 H   0  0  0  0  0  0  0  0  0  0  0  0
  147.0719  134.6143  153.4873 H   0  0  0  0  0  0  0  0  0  0  0  0
  146.8995  131.6952  154.3749 H   0  0  0  0  0  0  0  0  0  0  0  0
  146.6602  132.2982  152.7528 H   0  0  0  0  0  0  0  0  0  0  0  0
  148.9448  131.3237  153.0461 H   0  0  0  0  0  0  0  0  0  0  0  0
  149.0204  133.0127  152.6091 H   0  0  0  0  0  0  0  0  0  0  0  0
  149.3165  131.8496  155.4174 H   0  0  0  0  0  0  0  0  0  0  0  0
  150.6015  132.5329  154.4564 H   0  0  0  0  0  0  0  0  0  0  0  0
  149.4095  135.2218  153.4690 H   0  0  0  0  0  0  0  0  0  0  0  0
  152.0913  135.0911  157.9502 H   0  0  0  0  0  0  0  0  0  0  0  0
  152.7875  136.0754  156.7012 H   0  0  0  0  0  0  0  0  0  0  0  0
  153.1039  138.1075  157.4784 H   0  0  0  0  0  0  0  0  0  0  0  0
  150.9882  139.4251  159.1318 H   0  0  0  0  0  0  0  0  0  0  0  0
  152.7095  139.6499  159.3496 H   0  0  0  0  0  0  0  0  0  0  0  0
  152.7975  140.5345  156.9147 H   0  0  0  0  0  0  0  0  0  0  0  0
  151.0529  140.5386  156.9279 H   0  0  0  0  0  0  0  0  0  0  0  0
  153.6286  141.5731  159.5360 H   0  0  0  0  0  0  0  0  0  0  0  0
  153.5644  143.8575  160.5687 H   0  0  0  0  0  0  0  0  0  0  0  0
  151.8192  145.4870  159.7898 H   0  0  0  0  0  0  0  0  0  0  0  0
  150.2139  144.7608  158.0051 H   0  0  0  0  0  0  0  0  0  0  0  0
  1  2  1  0  0  0  0
  1 26  1  0  0  0  0
  1 27  1  0  0  0  0
  1 28  1  0  0  0  0
  2  7  1  0  0  0  0
  2  3  1  0  0  0  0
  2 29  1  0  0  0  0
  3  4  1  0  0  0  0
  3 30  1  0  0  0  0
  3 31  1  0  0  0  0
  4  5  1  0  0  0  0
  4 32  1  0  0  0  0
  4 33  1  0  0  0  0
  5  6  1  0  0  0  0
  5 34  1  0  0  0  0
  5 35  1  0  0  0  0
  6  7  1  0  0  0  0
  6 36  1  0  0  0  0
  6 37  1  0  0  0  0
  7 24  1  0  0  0  0
  7  8  1  0  0  0  0
  8  9  1  0  0  0  0
  8 38  1  0  0  0  0
  9 10  2  0  0  0  0
  9 11  1  0  0  0  0
 11 12  1  0  0  0  0
 11 24  1  0  0  0  0
 12 13  1  0  0  0  0
 12 39  1  0  0  0  0
 12 40  1  0  0  0  0
 13 14  2  0  0  0  0
 13 15  1  0  0  0  0
 15 16  1  0  0  0  0
 15 41  1  0  0  0  0
 16 17  1  0  0  0  0
 16 42  1  0  0  0  0
 16 43  1  0  0  0  0
 17 18  1  0  0  0  0
 17 44  1  0  0  0  0
 17 45  1  0  0  0  0
 18 23  1  0  0  0  0
 18 19  2  0  0  0  0
 19 20  1  0  0  0  0
 19 46  1  0  0  0  0
 20 21  2  0  0  0  0
 20 47  1  0  0  0  0
 21 22  1  0  0  0  0
 21 48  1  0  0  0  0
 22 23  2  0  0  0  0
 22 49  1  0  0  0  0
 24 25  2  0  0  0  0
M  END
> <s_m_source_file>
AV-unprocessed.smi

> <i_m_source_file_index>
2973

> <i_lp_mmshare_version>
43012

> <i_f3d_flags>
0

> <s_epik_input>
W0NIMl0xW0NIMl1bQ0gyXVtDSDJdW0NAQEhdKFtDSDNdKVtDQF0xMltOSF1DKD1PKU4oQzI9TylbQ0gyXUMoPU8pW05IXVtDSDJdW0NIMl1jM1tjSF1bY0hdW2NIXVtjSF1uMw==

> <s_epik_cmdline>
J2VwaWtfcHl0aG9uJywgJy1waCcsICc3LjAnLCAnLXRuJywgJzgnLCAnLW1hJywgJzIwMCcsICctbWV0YWxfYmluZGluZycsICctaW1hZScsICc8aW5maWxlLm1hZT4nLCAnLW9tYWUnLCAnPG91dGZpbGUubWFlPic=

> <r_lp_tautomer_probability>
1

> <r_epik_Ionization_Penalty>
0.0245152

> <r_epik_Ionization_Penalty_Charging>
0

> <r_epik_Ionization_Penalty_Neutral>
0.0245152

> <r_epik_State_Penalty>
0.0198648

> <r_epik_Charging_Adjusted_Penalty>
0.0198648

> <i_epik_Tot_Q>
0

> <i_epik_Tot_abs_Q>
0

> <r_epik_Metal_State_Penalty>
0.0400162

> <b_epik_Metal_Only>
0

> <s_lp_Force_Field>
OPLS_2005

> <r_lp_Energy>
22.4148

> <b_lp_Chiralities_Consistent>
1

> <s_lp_Variant>
AV-unprocessed.smi:2973-2

> <Gold.Version>
5.8.1

> <Gold.Id.Protein>
6NUR|6NUR_protein|mol2

> <Gold.PLP.Fitness>
47.5734

> <Gold.PLP.PLP>
-37.8154

> <Gold.PLP.part.hbond>
-3.0000

> <Gold.PLP.part.metal>
0.0000

> <Gold.PLP.part.buried>
-5.6925

> <Gold.PLP.part.nonpolar>
-31.5578

> <Gold.PLP.part.repulsive>
0.8782

> <Gold.PLP.ligand.clash>
0.0000

> <Gold.PLP.ligand.torsion>
0.4746

> <Gold.PLP.Chemscore.Hbond>
2.4934

> <Gold.PLP.Chemscore.CHOScore>
1.0668

> <Gold.PLP.Chemscore.Metal>
0.0000

> <Gold.Chemscore.Hbonds>
donor molecule, donor type, donor heavy atom, donor atom, acceptor molecule, acceptor atom, score
      L1  H     8    38       P1  7948  0.75
      P1  H  6896  6908       L1    25  1.00
      P1  H 10752 10765       L1    10  0.74
      L1  C    22    49       P1  8028  0.46
      L1  C    22    49       P1  8029  0.36

> <Gold.PLP.Chemscore.Internal.Correction>
0.0264

> <Gold.Rescore>
     Score         DG    S(hbond)    S(metal)    S(lipo)     H(rot)  DE(clash)    DE(int)     intcor
     17.32     -17.84       1.89        0.00      92.29       1.86       0.04       0.49       ----

> <Gold.Chemscore.Fitness>
17.3155

> <Gold.Chemscore.DG>
-17.8367

> <Gold.Chemscore.ZeroCoef>
-5.4800

> <Gold.Chemscore.Hbond>
1.8888

> <Gold.Chemscore.Metal>
0.0000

> <Gold.Chemscore.Lipo>
92.2894

> <Gold.Chemscore.Internal_Hbond>
0.0000

> <Gold.Chemscore.DEClash>
0.0351

> <Gold.Chemscore.DEInternal>
0.4862

> <Gold.Chemscore.Rot>
1.8553

> <Gold.Chemscore.Internal.Correction>
   9.000000E+99

> <Gold.Chemscore.Hbonds>
donor molecule, donor type, donor heavy atom, donor atom, acceptor molecule, acceptor atom, score
      L1  H     8    38       P1  7948  0.09
      P1  H  6896  6908       L1    25  0.97
      P1  H 10752 10765       L1    10  0.08

> <Gold.Chemscore.Hbond.Weighted>
-6.3086

> <Gold.Chemscore.Metal.Weighted>
-0.0000

> <Gold.Chemscore.Lipo.Weighted>
-10.7979

> <Gold.Chemscore.Internal_Hbond.Weighted>
0.0000

> <Gold.Chemscore.DEClash.Weighted>
0.0351

> <Gold.Chemscore.DEInternal.Weighted>
0.4862

> <Gold.Chemscore.Rot.Weighted>
4.7497

> <Gold.Chemscore.Internal.Correction.Weighted>
   9.000000E+99

> <Gold.Protein.RotatedTorsions>
[ 6907 6896 6895 6894 ] final  109.71 input  -60.11 | X-H torsion
[ 7974 7965 7964 7962 ] final  149.69 input  175.53 | X-H torsion
[ 8008 7997 7996 7995 ] final   61.23 input   59.86 | X-H torsion
[ 10167 10162 10161 10158 ] final   14.72 input  -65.29 | X-H torsion
[ 10718 10713 10712 10709 ] final   81.33 input   66.30 | X-H torsion
[ 10763 10752 10751 10750 ] final  150.01 input  -60.55 | X-H torsion
[ 11005 11000 10999 10996 ] final  137.17 input  -57.11 | X-H torsion

> <Gold.Protein.ActiveResidues>
 VAL166  LYS551  ARG553  GLY616  TRP617  ASP618  TYR619  PRO620  LYS621  CYS622 
 ASP623  PHE694  ASN695  SER759  ASP760  ASP761  ALA762  ILE779  LEU786  VAL792 
 PHE793  MET794  SER795  GLU796  ALA797  LYS798  CYS799  TRP800  GLU811  SER814 

> <Gold.Protein.RotatedAtoms>
  152.5054  133.8905  159.7391 H   0  0  0  0  0  0  0  0  0  0  0  0  # atno 6907 bound_to 6896
  150.9345  133.6719  159.2810 H   0  0  0  0  0  0  0  0  0  0  0  0  # atno 6908 bound_to 6896
  151.4052  135.0981  159.9620 H   0  0  0  0  0  0  0  0  0  0  0  0  # atno 6909 bound_to 6896
  144.8419  139.6312  143.6012 H   0  0  0  0  0  0  0  0  0  0  0  0  # atno 7974 bound_to 7965
  155.5950  140.3493  155.4577 H   0  0  0  0  0  0  0  0  0  0  0  0  # atno 8008 bound_to 7997
  156.0272  140.1266  157.0321 H   0  0  0  0  0  0  0  0  0  0  0  0  # atno 8009 bound_to 7997
  154.4338  140.1050  156.6033 H   0  0  0  0  0  0  0  0  0  0  0  0  # atno 8010 bound_to 7997
  140.5917  143.8783  150.6879 H   0  0  0  0  0  0  0  0  0  0  0  0  # atno 10167 bound_to 10162
  157.6830  130.9999  150.2210 H   0  0  0  0  0  0  0  0  0  0  0  0  # atno 10718 bound_to 10713
  154.0806  135.2860  155.3291 H   0  0  0  0  0  0  0  0  0  0  0  0  # atno 10763 bound_to 10752
  154.6686  135.5308  153.8113 H   0  0  0  0  0  0  0  0  0  0  0  0  # atno 10764 bound_to 10752
  153.0450  135.6552  154.0981 H   0  0  0  0  0  0  0  0  0  0  0  0  # atno 10765 bound_to 10752
  140.0095  134.9445  157.0248 H   0  0  0  0  0  0  0  0  0  0  0  0  # atno 11005 bound_to 11000
  146.2710  139.6636  142.9296 LP  0  0  0  0  0  0  0  0  0  0  0  0  # atno 17320 bound_to 7965
  145.4676  141.0435  143.2717 LP  0  0  0  0  0  0  0  0  0  0  0  0  # atno 17321 bound_to 7965
  140.2307  143.3738  152.1568 LP  0  0  0  0  0  0  0  0  0  0  0  0  # atno 17342 bound_to 10162
  139.5231  144.7068  151.5330 LP  0  0  0  0  0  0  0  0  0  0  0  0  # atno 17343 bound_to 10162
  156.2862  130.3739  149.7886 LP  0  0  0  0  0  0  0  0  0  0  0  0  # atno 17370 bound_to 10713
  156.5560  130.8362  151.3314 LP  0  0  0  0  0  0  0  0  0  0  0  0  # atno 17371 bound_to 10713
  140.4579  134.1514  155.7188 LP  0  0  0  0  0  0  0  0  0  0  0  0  # atno 17394 bound_to 11000
  141.1701  133.8625  157.1596 LP  0  0  0  0  0  0  0  0  0  0  0  0  # atno 17395 bound_to 11000

$$$$
