AV-unprocessed.smi:691|AV-procd|sdf|3367|dock2
  -GOLD-   22720 0343D 1   1.00000     0.00000
 Structure written by MMmdl.
 37 38  0  0  0  0  0  0  0  0  1 V2000
  149.2740  140.4535  154.4095 C   0  0  0  0  0  0  0  0  0  0  0  0
  147.7687  140.8051  154.3469 C   0  0  2  0  0  0  0  0  0  0  0  0
  146.9659  139.5485  153.9151 C   0  0  0  0  0  0  0  0  0  0  0  0
  147.4888  138.9606  152.7405 O   0  0  0  0  0  0  0  0  0  0  0  0
  147.5147  141.9349  153.3322 C   0  0  0  0  0  0  0  0  0  0  0  0
  146.1825  142.5777  153.7326 C   0  0  0  0  0  0  0  0  0  0  0  0
  145.9873  142.2633  155.2217 C   0  0  0  0  0  0  0  0  0  0  0  0
  147.1923  141.4106  155.6565 C   0  0  2  0  0  0  0  0  0  0  0  0
  148.1599  142.2654  156.3499 N   0  0  0  0  0  0  0  0  0  0  0  0
  149.1300  141.8515  157.1779 C   0  0  0  0  0  0  0  0  0  0  0  0
  149.3232  140.6718  157.4700 O   0  0  0  0  0  0  0  0  0  0  0  0
  149.8372  142.8935  157.6479 N   0  0  0  0  0  0  0  0  0  0  0  0
  150.9449  142.8842  158.5385 C   0  0  0  0  0  0  0  0  0  0  0  0
  151.4342  144.1250  158.9959 C   0  0  0  0  0  0  0  0  0  0  0  0
  152.5414  144.1488  159.8650 C   0  0  0  0  0  0  0  0  0  0  0  0
  153.1259  142.9233  160.2382 C   0  0  0  0  0  0  0  0  0  0  0  0
  152.6808  141.7274  159.7985 N   0  0  0  0  0  0  0  0  0  0  0  0
  151.6167  141.7118  158.9665 C   0  0  0  0  0  0  0  0  0  0  0  0
  149.6080  139.9945  153.4785 H   0  0  0  0  0  0  0  0  0  0  0  0
  149.4856  139.7522  155.2174 H   0  0  0  0  0  0  0  0  0  0  0  0
  149.8977  141.3330  154.5711 H   0  0  0  0  0  0  0  0  0  0  0  0
  146.9603  138.7908  154.6990 H   0  0  0  0  0  0  0  0  0  0  0  0
  145.9236  139.8089  153.7277 H   0  0  0  0  0  0  0  0  0  0  0  0
  148.1767  139.5160  152.4063 H   0  0  0  0  0  0  0  0  0  0  0  0
  148.3007  142.6874  153.4118 H   0  0  0  0  0  0  0  0  0  0  0  0
  147.5131  141.5880  152.2983 H   0  0  0  0  0  0  0  0  0  0  0  0
  146.1860  143.6511  153.5403 H   0  0  0  0  0  0  0  0  0  0  0  0
  145.3652  142.1468  153.1529 H   0  0  0  0  0  0  0  0  0  0  0  0
  145.8822  143.1713  155.8178 H   0  0  0  0  0  0  0  0  0  0  0  0
  145.0657  141.6947  155.3532 H   0  0  0  0  0  0  0  0  0  0  0  0
  146.8536  140.6228  156.3312 H   0  0  0  0  0  0  0  0  0  0  0  0
  148.0826  143.2568  156.1771 H   0  0  0  0  0  0  0  0  0  0  0  0
  149.5084  143.8089  157.3777 H   0  0  0  0  0  0  0  0  0  0  0  0
  150.9663  145.0492  158.6891 H   0  0  0  0  0  0  0  0  0  0  0  0
  152.9342  145.0839  160.2361 H   0  0  0  0  0  0  0  0  0  0  0  0
  153.9769  142.9036  160.9028 H   0  0  0  0  0  0  0  0  0  0  0  0
  151.3246  140.7294  158.6299 H   0  0  0  0  0  0  0  0  0  0  0  0
  1  2  1  0  0  0  0
  1 19  1  0  0  0  0
  1 20  1  0  0  0  0
  1 21  1  0  0  0  0
  2  8  1  0  0  0  0
  2  3  1  0  0  0  0
  2  5  1  0  0  0  0
  3  4  1  0  0  0  0
  3 22  1  0  0  0  0
  3 23  1  0  0  0  0
  4 24  1  0  0  0  0
  5  6  1  0  0  0  0
  5 25  1  0  0  0  0
  5 26  1  0  0  0  0
  6  7  1  0  0  0  0
  6 27  1  0  0  0  0
  6 28  1  0  0  0  0
  7  8  1  0  0  0  0
  7 29  1  0  0  0  0
  7 30  1  0  0  0  0
  8  9  1  0  0  0  0
  8 31  1  0  0  0  0
  9 10  1  0  0  0  0
  9 32  1  0  0  0  0
 10 11  2  0  0  0  0
 10 12  1  0  0  0  0
 12 13  1  0  0  0  0
 12 33  1  0  0  0  0
 13 18  1  0  0  0  0
 13 14  2  0  0  0  0
 14 15  1  0  0  0  0
 14 34  1  0  0  0  0
 15 16  2  0  0  0  0
 15 35  1  0  0  0  0
 16 17  1  0  0  0  0
 16 36  1  0  0  0  0
 17 18  2  0  0  0  0
 18 37  1  0  0  0  0
M  END
> <s_m_source_file>
AV-unprocessed.smi

> <i_m_source_file_index>
691

> <i_lp_mmshare_version>
43012

> <i_f3d_flags>
0

> <s_epik_input>
W09IXVtDSDJdW0NAXTEoW0NIM10pW0NIMl1bQ0gyXVtDSDJdW0NASF0xW05IXUMoPU8pW05IXWMyW2NIXVtjSF1bY0hdbltjSF0y

> <s_epik_cmdline>
J2VwaWtfcHl0aG9uJywgJy1waCcsICc3LjAnLCAnLXRuJywgJzgnLCAnLW1hJywgJzIwMCcsICctbWV0YWxfYmluZGluZycsICctaW1hZScsICc8aW5maWxlLm1hZT4nLCAnLW9tYWUnLCAnPG91dGZpbGUubWFlPic=

> <r_epik_Ionization_Penalty>
0.00496828

> <r_epik_Ionization_Penalty_Charging>
0

> <r_epik_Ionization_Penalty_Neutral>
0.00496828

> <r_epik_State_Penalty>
0.00358054

> <r_epik_Charging_Adjusted_Penalty>
0.00358054

> <i_epik_Tot_Q>
0

> <i_epik_Tot_abs_Q>
0

> <r_epik_Metal_State_Penalty>
-0

> <b_epik_Metal_Only>
0

> <s_lp_Force_Field>
OPLS_2005

> <r_lp_Energy>
30.6456

> <b_lp_Chiralities_Consistent>
1

> <s_lp_Variant>
AV-unprocessed.smi:691-4

> <Gold.Version>
5.8.1

> <Gold.Id.Protein>
6NUR|6NUR_protein|mol2

> <Gold.PLP.Fitness>
41.6096

> <Gold.PLP.PLP>
-34.0599

> <Gold.PLP.part.hbond>
-3.4744

> <Gold.PLP.part.metal>
0.0000

> <Gold.PLP.part.buried>
-5.6596

> <Gold.PLP.part.nonpolar>
-24.4367

> <Gold.PLP.part.repulsive>
0.0822

> <Gold.PLP.ligand.clash>
0.0000

> <Gold.PLP.ligand.torsion>
0.3556

> <Gold.PLP.Chemscore.Hbond>
2.7440

> <Gold.PLP.Chemscore.CHOScore>
0.0000

> <Gold.PLP.Chemscore.Metal>
0.0000

> <Gold.Chemscore.Hbonds>
donor molecule, donor type, donor heavy atom, donor atom, acceptor molecule, acceptor atom, score
      L1  H     4    24       P1  7957  1.00
      L1  H     9    32       P1  8028  0.98
      L1  H    12    33       P1  8028  0.77

> <Gold.PLP.Chemscore.Internal.Correction>
0.0289

> <Gold.Rescore>
     Score         DG    S(hbond)    S(metal)    S(lipo)     H(rot)  DE(clash)    DE(int)     intcor
     18.81     -22.32       2.91        0.00     100.02       1.78       1.80       1.71       ----

> <Gold.Chemscore.Fitness>
18.8147

> <Gold.Chemscore.DG>
-22.3224

> <Gold.Chemscore.ZeroCoef>
-5.4800

> <Gold.Chemscore.Hbond>
2.9061

> <Gold.Chemscore.Metal>
0.0000

> <Gold.Chemscore.Lipo>
100.0215

> <Gold.Chemscore.Internal_Hbond>
0.0000

> <Gold.Chemscore.DEClash>
1.7973

> <Gold.Chemscore.DEInternal>
1.7104

> <Gold.Chemscore.Rot>
1.7838

> <Gold.Chemscore.Internal.Correction>
   9.000000E+99

> <Gold.Chemscore.Hbonds>
donor molecule, donor type, donor heavy atom, donor atom, acceptor molecule, acceptor atom, score
      L1  H     4    24       P1  7957  0.97
      L1  H     9    32       P1  8028  0.37
      L1  H    12    33       P1  8028  0.40

> <Gold.Chemscore.Hbond.Weighted>
-9.7064

> <Gold.Chemscore.Metal.Weighted>
-0.0000

> <Gold.Chemscore.Lipo.Weighted>
-11.7025

> <Gold.Chemscore.Internal_Hbond.Weighted>
0.0000

> <Gold.Chemscore.DEClash.Weighted>
1.7973

> <Gold.Chemscore.DEInternal.Weighted>
1.7104

> <Gold.Chemscore.Rot.Weighted>
4.5666

> <Gold.Chemscore.Internal.Correction.Weighted>
   9.000000E+99

> <Gold.Protein.RotatedTorsions>
[ 6907 6896 6895 6894 ] final  116.85 input  -60.11 | X-H torsion
[ 7974 7965 7964 7962 ] final  -65.02 input  175.53 | X-H torsion
[ 8008 7997 7996 7995 ] final -108.72 input   59.86 | X-H torsion
[ 10167 10162 10161 10158 ] final   47.85 input  -65.29 | X-H torsion
[ 10718 10713 10712 10709 ] final  -65.75 input   66.30 | X-H torsion
[ 10763 10752 10751 10750 ] final  -19.66 input  -60.55 | X-H torsion
[ 11005 11000 10999 10996 ] final  -13.66 input  -57.11 | X-H torsion

> <Gold.Protein.ActiveResidues>
 VAL166  LYS551  ARG553  GLY616  TRP617  ASP618  TYR619  PRO620  LYS621  CYS622 
 ASP623  PHE694  ASN695  SER759  ASP760  ASP761  ALA762  ILE779  LEU786  VAL792 
 PHE793  MET794  SER795  GLU796  ALA797  LYS798  CYS799  TRP800  GLU811  SER814 

> <Gold.Protein.RotatedAtoms>
  152.4651  133.7905  159.6898 H   0  0  0  0  0  0  0  0  0  0  0  0  # atno 6907 bound_to 6896
  150.8611  133.7632  159.2998 H   0  0  0  0  0  0  0  0  0  0  0  0  # atno 6908 bound_to 6896
  151.5197  135.1070  159.9927 H   0  0  0  0  0  0  0  0  0  0  0  0  # atno 6909 bound_to 6896
  145.7595  140.8869  143.0437 H   0  0  0  0  0  0  0  0  0  0  0  0  # atno 7974 bound_to 7965
  154.9486  140.0401  157.2132 H   0  0  0  0  0  0  0  0  0  0  0  0  # atno 8008 bound_to 7997
  154.8000  140.2850  155.5906 H   0  0  0  0  0  0  0  0  0  0  0  0  # atno 8009 bound_to 7997
  156.2960  140.2557  156.2866 H   0  0  0  0  0  0  0  0  0  0  0  0  # atno 8010 bound_to 7997
  140.2993  144.2953  150.6222 H   0  0  0  0  0  0  0  0  0  0  0  0  # atno 10167 bound_to 10162
  156.0651  130.4252  150.1610 H   0  0  0  0  0  0  0  0  0  0  0  0  # atno 10718 bound_to 10713
  153.6083  135.6997  153.5357 H   0  0  0  0  0  0  0  0  0  0  0  0  # atno 10763 bound_to 10752
  153.3038  135.4121  155.1276 H   0  0  0  0  0  0  0  0  0  0  0  0  # atno 10764 bound_to 10752
  154.8568  135.3655  154.5621 H   0  0  0  0  0  0  0  0  0  0  0  0  # atno 10765 bound_to 10752
  140.7784  133.8382  155.9270 H   0  0  0  0  0  0  0  0  0  0  0  0  # atno 11005 bound_to 11000
  144.6833  139.9702  143.7482 LP  0  0  0  0  0  0  0  0  0  0  0  0  # atno 17320 bound_to 7965
  146.0278  139.3308  143.0773 LP  0  0  0  0  0  0  0  0  0  0  0  0  # atno 17321 bound_to 7965
  140.5665  143.2185  151.7675 LP  0  0  0  0  0  0  0  0  0  0  0  0  # atno 17342 bound_to 10162
  139.4919  144.4277  151.9907 LP  0  0  0  0  0  0  0  0  0  0  0  0  # atno 17343 bound_to 10162
  156.9671  130.9823  151.3467 LP  0  0  0  0  0  0  0  0  0  0  0  0  # atno 17370 bound_to 10713
  157.5687  130.8296  149.8363 LP  0  0  0  0  0  0  0  0  0  0  0  0  # atno 17371 bound_to 10713
  140.9506  134.1783  157.4730 LP  0  0  0  0  0  0  0  0  0  0  0  0  # atno 17394 bound_to 11000
  139.8746  134.9908  156.5518 LP  0  0  0  0  0  0  0  0  0  0  0  0  # atno 17395 bound_to 11000

$$$$
