AV-unprocessed.smi:227|AV-procd|sdf|1738|dock10
  -GOLD-   2262020243D 1   1.00000     0.00000
 Structure written by MMmdl.
 54 58  0  0  0  0  0  0  0  0  1 V2000
  150.6226  143.1818  157.2392 O   0  0  0  0  0  0  0  0  0  0  0  0
  150.7463  141.8719  156.7239 C   0  0  0  0  0  0  0  0  0  0  0  0
  151.0491  140.8501  157.8467 C   0  0  1  0  0  0  0  0  0  0  0  0
  150.8435  139.4125  157.2918 C   0  0  0  0  0  0  0  0  0  0  0  0
  150.2271  138.4815  158.2202 N   0  0  0  0  0  0  0  0  0  0  0  0
  150.8758  137.6016  159.0557 C   0  0  0  0  0  0  0  0  0  0  0  0
  150.0954  136.8609  159.7934 N   0  0  0  0  0  0  0  0  0  0  0  0
  148.8092  137.2449  159.4307 C   0  0  0  0  0  0  0  0  0  0  0  0
  147.4987  136.8528  159.8320 C   0  0  0  0  0  0  0  0  0  0  0  0
  147.2468  135.9129  160.7841 N   0  0  0  0  0  0  0  0  0  0  0  0
  147.7253  136.1008  162.1441 C   0  0  1  0  0  0  0  0  0  0  0  0
  146.7851  137.1742  162.7269 C   0  0  0  0  0  0  0  0  0  0  0  0
  145.4586  136.8177  162.0380 C   0  0  0  0  0  0  0  0  0  0  0  0
  145.8797  135.6022  161.1834 C   0  0  2  0  0  0  0  0  0  0  0  0
  146.0630  134.3836  162.1151 C   0  0  1  0  0  0  0  0  0  0  0  0
  146.1097  133.0386  161.3674 C   0  0  0  0  0  0  0  0  0  0  0  0
  147.2041  133.0097  160.4759 O   0  0  0  0  0  0  0  0  0  0  0  0
  147.4039  134.7417  162.7877 C   0  0  0  0  0  0  0  0  0  0  0  0
  146.4523  137.4440  159.1957 N   0  0  0  0  0  0  0  0  0  0  0  0
  146.6627  138.3721  158.2586 C   0  0  0  0  0  0  0  0  0  0  0  0
  147.8218  138.8484  157.8033 N   0  0  0  0  0  0  0  0  0  0  0  0
  148.8780  138.2489  158.4220 C   0  0  0  0  0  0  0  0  0  0  0  0
  152.4654  141.0726  158.4586 C   0  0  1  0  0  0  0  0  0  0  0  0
  152.6113  142.3208  159.3174 C   0  0  0  0  0  0  0  0  0  0  0  0
  153.8693  142.0209  160.1175 C   0  0  0  0  0  0  0  0  0  0  0  0
  153.7681  140.6393  160.4193 O   0  0  0  0  0  0  0  0  0  0  0  0
  152.9405  139.9977  159.4534 C   0  0  0  0  0  0  0  0  0  0  0  0
  150.2261  143.7295  156.5791 H   0  0  0  0  0  0  0  0  0  0  0  0
  149.8336  141.6047  156.1902 H   0  0  0  0  0  0  0  0  0  0  0  0
  151.5480  141.9094  155.9879 H   0  0  0  0  0  0  0  0  0  0  0  0
  150.3193  141.0253  158.6384 H   0  0  0  0  0  0  0  0  0  0  0  0
  150.2118  139.4315  156.4036 H   0  0  0  0  0  0  0  0  0  0  0  0
  151.8014  138.9991  156.9733 H   0  0  0  0  0  0  0  0  0  0  0  0
  151.9525  137.5341  159.1114 H   0  0  0  0  0  0  0  0  0  0  0  0
  148.7787  136.3556  162.2448 H   0  0  0  0  0  0  0  0  0  0  0  0
  146.7233  137.1336  163.8150 H   0  0  0  0  0  0  0  0  0  0  0  0
  147.1099  138.1759  162.4419 H   0  0  0  0  0  0  0  0  0  0  0  0
  144.6619  136.5828  162.7446 H   0  0  0  0  0  0  0  0  0  0  0  0
  145.1170  137.6431  161.4124 H   0  0  0  0  0  0  0  0  0  0  0  0
  145.1953  135.4036  160.3578 H   0  0  0  0  0  0  0  0  0  0  0  0
  145.2668  134.3415  162.8600 H   0  0  0  0  0  0  0  0  0  0  0  0
  146.1884  132.2030  162.0637 H   0  0  0  0  0  0  0  0  0  0  0  0
  145.1951  132.8947  160.7912 H   0  0  0  0  0  0  0  0  0  0  0  0
  147.3460  132.1160  160.2036 H   0  0  0  0  0  0  0  0  0  0  0  0
  148.1785  134.0135  162.5428 H   0  0  0  0  0  0  0  0  0  0  0  0
  147.3302  134.7986  163.8742 H   0  0  0  0  0  0  0  0  0  0  0  0
  145.7750  138.7945  157.8116 H   0  0  0  0  0  0  0  0  0  0  0  0
  153.1946  141.1430  157.6497 H   0  0  0  0  0  0  0  0  0  0  0  0
  152.7073  143.2374  158.7345 H   0  0  0  0  0  0  0  0  0  0  0  0
  151.7581  142.4265  159.9891 H   0  0  0  0  0  0  0  0  0  0  0  0
  154.7595  142.1882  159.5097 H   0  0  0  0  0  0  0  0  0  0  0  0
  153.9513  142.6257  161.0208 H   0  0  0  0  0  0  0  0  0  0  0  0
  152.1010  139.5443  159.9812 H   0  0  0  0  0  0  0  0  0  0  0  0
  153.4996  139.2028  158.9618 H   0  0  0  0  0  0  0  0  0  0  0  0
  1  2  1  0  0  0  0
  1 28  1  0  0  0  0
  2  3  1  0  0  0  0
  2 29  1  0  0  0  0
  2 30  1  0  0  0  0
  3  4  1  0  0  0  0
  3 23  1  0  0  0  0
  3 31  1  0  0  0  0
  4  5  1  0  0  0  0
  4 32  1  0  0  0  0
  4 33  1  0  0  0  0
  5 22  1  0  0  0  0
  5  6  1  0  0  0  0
  6  7  2  0  0  0  0
  6 34  1  0  0  0  0
  7  8  1  0  0  0  0
  8 22  2  0  0  0  0
  8  9  1  0  0  0  0
  9 10  1  0  0  0  0
  9 19  2  0  0  0  0
 10 14  1  0  0  0  0
 10 11  1  0  0  0  0
 11 18  1  0  0  0  0
 11 12  1  0  0  0  0
 11 35  1  0  0  0  0
 12 13  1  0  0  0  0
 12 36  1  0  0  0  0
 12 37  1  0  0  0  0
 13 14  1  0  0  0  0
 13 38  1  0  0  0  0
 13 39  1  0  0  0  0
 14 15  1  0  0  0  0
 14 40  1  0  0  0  0
 15 16  1  0  0  0  0
 15 18  1  0  0  0  0
 15 41  1  0  0  0  0
 16 17  1  0  0  0  0
 16 42  1  0  0  0  0
 16 43  1  0  0  0  0
 17 44  1  0  0  0  0
 18 45  1  0  0  0  0
 18 46  1  0  0  0  0
 19 20  1  0  0  0  0
 20 21  2  0  0  0  0
 20 47  1  0  0  0  0
 21 22  1  0  0  0  0
 23 27  1  0  0  0  0
 23 24  1  0  0  0  0
 23 48  1  0  0  0  0
 24 25  1  0  0  0  0
 24 49  1  0  0  0  0
 24 50  1  0  0  0  0
 25 26  1  0  0  0  0
 25 51  1  0  0  0  0
 25 52  1  0  0  0  0
 26 27  1  0  0  0  0
 27 53  1  0  0  0  0
 27 54  1  0  0  0  0
M  END
> <s_m_source_file>
AV-unprocessed.smi

> <i_m_source_file_index>
227

> <i_lp_mmshare_version>
43012

> <i_f3d_flags>
0

> <s_epik_input>
W0NIMl0xT1tDSDJdW0NIMl1bQ0BIXTFbQ0BIXShbQ0gyXVtPSF0pW0NIMl1uKFtjSF1uMiljKGMyMyluW2NIXW5jM04oW0NASF00NSlbQ0BASF0oW0NIMl1bQ0gyXTQpW0NASF0oW0NIMl01KVtDSDJdW09IXQ==

> <s_epik_cmdline>
J2VwaWtfcHl0aG9uJywgJy1waCcsICc3LjAnLCAnLXRuJywgJzgnLCAnLW1hJywgJzIwMCcsICctbWV0YWxfYmluZGluZycsICctaW1hZScsICc8aW5maWxlLm1hZT4nLCAnLW9tYWUnLCAnPG91dGZpbGUubWFlPic=

> <r_lp_tautomer_probability>
1

> <r_epik_Ionization_Penalty>
0.0055791

> <r_epik_Ionization_Penalty_Charging>
0

> <r_epik_Ionization_Penalty_Neutral>
0.0055791

> <r_epik_State_Penalty>
0.00401299

> <r_epik_Charging_Adjusted_Penalty>
0.00401299

> <i_epik_Tot_Q>
0

> <i_epik_Tot_abs_Q>
0

> <r_epik_Metal_State_Penalty>
-0

> <b_epik_Metal_Only>
0

> <s_lp_Force_Field>
OPLS_2005

> <r_lp_Energy>
89.2194

> <b_lp_Chiralities_Consistent>
1

> <s_lp_Variant>
AV-unprocessed.smi:227-12

> <Gold.Version>
5.8.1

> <Gold.Id.Protein>
6NUR|6NUR_protein|mol2

> <Gold.PLP.Fitness>
50.4358

> <Gold.PLP.PLP>
-46.4540

> <Gold.PLP.part.hbond>
-2.4487

> <Gold.PLP.part.metal>
0.0000

> <Gold.PLP.part.buried>
-7.9578

> <Gold.PLP.part.nonpolar>
-36.4325

> <Gold.PLP.part.repulsive>
0.0000

> <Gold.PLP.ligand.clash>
0.0000

> <Gold.PLP.ligand.torsion>
1.0759

> <Gold.PLP.Chemscore.Hbond>
1.9913

> <Gold.PLP.Chemscore.CHOScore>
0.0000

> <Gold.PLP.Chemscore.Metal>
0.0000

> <Gold.Chemscore.Hbonds>
donor molecule, donor type, donor heavy atom, donor atom, acceptor molecule, acceptor atom, score
      L1  H     1    28       P1  8028  1.00
      P1  H  6896  6909       L1     7  0.96

> <Gold.PLP.Chemscore.Internal.Correction>
0.1599

> <Gold.Rescore>
     Score         DG    S(hbond)    S(metal)    S(lipo)     H(rot)  DE(clash)    DE(int)     intcor
     13.27     -14.61       1.71        0.00     108.03       3.61       0.00       1.33       ----

> <Gold.Chemscore.Fitness>
13.2742

> <Gold.Chemscore.DG>
-14.6088

> <Gold.Chemscore.ZeroCoef>
-5.4800

> <Gold.Chemscore.Hbond>
1.7136

> <Gold.Chemscore.Metal>
0.0000

> <Gold.Chemscore.Lipo>
108.0320

> <Gold.Chemscore.Internal_Hbond>
0.0000

> <Gold.Chemscore.DEClash>
0.0000

> <Gold.Chemscore.DEInternal>
1.3347

> <Gold.Chemscore.Rot>
3.6071

> <Gold.Chemscore.Internal.Correction>
   9.000000E+99

> <Gold.Chemscore.Hbonds>
donor molecule, donor type, donor heavy atom, donor atom, acceptor molecule, acceptor atom, score
      L1  H     1    28       P1  8028  0.99
      P1  H  6896  6909       L1     7  0.36

> <Gold.Chemscore.Hbond.Weighted>
-5.7233

> <Gold.Chemscore.Metal.Weighted>
-0.0000

> <Gold.Chemscore.Lipo.Weighted>
-12.6397

> <Gold.Chemscore.Internal_Hbond.Weighted>
0.0000

> <Gold.Chemscore.DEClash.Weighted>
0.0000

> <Gold.Chemscore.DEInternal.Weighted>
1.3347

> <Gold.Chemscore.Rot.Weighted>
9.2342

> <Gold.Chemscore.Internal.Correction.Weighted>
   9.000000E+99

> <Gold.Protein.RotatedTorsions>
[ 6907 6896 6895 6894 ] final   89.93 input  -60.11 | X-H torsion
[ 7974 7965 7964 7962 ] final   56.58 input  175.53 | X-H torsion
[ 8008 7997 7996 7995 ] final   93.47 input   59.86 | X-H torsion
[ 10167 10162 10161 10158 ] final   94.85 input  -65.29 | X-H torsion
[ 10718 10713 10712 10709 ] final  173.57 input   66.30 | X-H torsion
[ 10763 10752 10751 10750 ] final   28.81 input  -60.55 | X-H torsion
[ 11005 11000 10999 10996 ] final  -64.79 input  -57.11 | X-H torsion

> <Gold.Protein.ActiveResidues>
 VAL166  LYS551  ARG553  GLY616  TRP617  ASP618  TYR619  PRO620  LYS621  CYS622 
 ASP623  PHE694  ASN695  SER759  ASP760  ASP761  ALA762  ILE779  LEU786  VAL792 
 PHE793  MET794  SER795  GLU796  ALA797  LYS798  CYS799  TRP800  GLU811  SER814 

> <Gold.Protein.RotatedAtoms>
  152.5440  134.1890  159.8666 H   0  0  0  0  0  0  0  0  0  0  0  0  # atno 6907 bound_to 6896
  151.1887  133.4673  159.2602 H   0  0  0  0  0  0  0  0  0  0  0  0  # atno 6908 bound_to 6896
  151.1105  135.0036  159.8547 H   0  0  0  0  0  0  0  0  0  0  0  0  # atno 6909 bound_to 6896
  145.9383  139.3866  143.0379 H   0  0  0  0  0  0  0  0  0  0  0  0  # atno 7974 bound_to 7965
  156.0471  140.3312  155.7309 H   0  0  0  0  0  0  0  0  0  0  0  0  # atno 8008 bound_to 7997
  155.5657  140.0623  157.2836 H   0  0  0  0  0  0  0  0  0  0  0  0  # atno 8009 bound_to 7997
  154.4419  140.1869  156.0816 H   0  0  0  0  0  0  0  0  0  0  0  0  # atno 8010 bound_to 7997
  139.8044  144.6800  150.9722 H   0  0  0  0  0  0  0  0  0  0  0  0  # atno 10167 bound_to 10162
  156.9623  131.0064  151.2924 H   0  0  0  0  0  0  0  0  0  0  0  0  # atno 10718 bound_to 10713
  153.0469  135.6504  154.0794 H   0  0  0  0  0  0  0  0  0  0  0  0  # atno 10763 bound_to 10752
  154.0490  135.2897  155.3345 H   0  0  0  0  0  0  0  0  0  0  0  0  # atno 10764 bound_to 10752
  154.6732  135.5348  153.8231 H   0  0  0  0  0  0  0  0  0  0  0  0  # atno 10765 bound_to 10752
  141.1435  133.6671  156.5887 H   0  0  0  0  0  0  0  0  0  0  0  0  # atno 11005 bound_to 11000
  145.8334  140.9619  143.0837 LP  0  0  0  0  0  0  0  0  0  0  0  0  # atno 17320 bound_to 7965
  144.6775  140.0192  143.7484 LP  0  0  0  0  0  0  0  0  0  0  0  0  # atno 17321 bound_to 7965
  140.7819  143.4248  151.0785 LP  0  0  0  0  0  0  0  0  0  0  0  0  # atno 17342 bound_to 10162
  139.7918  143.8207  152.3152 LP  0  0  0  0  0  0  0  0  0  0  0  0  # atno 17343 bound_to 10162
  157.5649  130.8271  149.8314 LP  0  0  0  0  0  0  0  0  0  0  0  0  # atno 17370 bound_to 10713
  156.0317  130.3763  150.1670 LP  0  0  0  0  0  0  0  0  0  0  0  0  # atno 17371 bound_to 10713
  140.3780  134.7548  157.4643 LP  0  0  0  0  0  0  0  0  0  0  0  0  # atno 17394 bound_to 11000
  140.0659  134.5930  155.8696 LP  0  0  0  0  0  0  0  0  0  0  0  0  # atno 17395 bound_to 11000

$$$$
