AV-unprocessed.smi:2014|AV-procd|sdf|8162|dock9
  -GOLD-   2272010413D 1   1.00000     0.00000
 Structure written by MMmdl.
 46 48  0  0  0  0  0  0  0  0  1 V2000
  144.9097  145.0959  156.8615 C   0  0  0  0  0  0  0  0  0  0  0  0
  145.1742  144.1592  155.6742 C   0  0  2  0  0  0  0  0  0  0  0  0
  145.8093  142.8323  156.1334 C   0  0  0  0  0  0  0  0  0  0  0  0
  146.0946  141.8930  154.9463 C   0  0  0  0  0  0  0  0  0  0  0  0
  146.9646  142.5665  153.8672 C   0  0  2  0  0  0  0  0  0  0  0  0
  148.3214  142.7617  154.3738 N   0  0  0  0  0  0  0  0  0  0  0  0
  149.1833  141.7896  154.7071 C   0  0  0  0  0  0  0  0  0  0  0  0
  148.9030  140.5913  154.6709 O   0  0  0  0  0  0  0  0  0  0  0  0
  150.5758  142.2493  155.1575 C   0  0  0  0  0  0  0  0  0  0  0  0
  151.1575  141.3471  156.1740 N   0  0  0  0  0  0  0  0  0  0  0  0
  151.4242  140.0045  155.8011 C   0  0  0  0  0  0  0  0  0  0  0  0
  151.2024  139.6078  154.6552 O   0  0  0  0  0  0  0  0  0  0  0  0
  151.9542  139.1502  156.8609 C   0  0  0  0  0  0  0  0  0  0  0  0
  152.2039  137.7858  156.5322 C   0  0  0  0  0  0  0  0  0  0  0  0
  152.3893  136.6787  156.2500 N   0  0  0  0  0  0  0  0  0  0  0  0
  152.1882  139.6397  158.0959 C   0  0  0  0  0  0  0  0  0  0  0  0
  151.9591  140.9576  158.4269 N   0  0  0  0  0  0  0  0  0  0  0  0
  152.0645  141.4173  159.7831 C   0  0  0  0  0  0  0  0  0  0  0  0
  152.9044  142.6350  160.1166 C   0  0  0  0  0  0  0  0  0  0  0  0
  153.3816  141.2588  160.5112 C   0  0  0  0  0  0  0  0  0  0  0  0
  151.3849  141.8372  157.4829 C   0  0  0  0  0  0  0  0  0  0  0  0
  151.0809  142.9924  157.7904 O   0  0  0  0  0  0  0  0  0  0  0  0
  146.3256  143.8996  153.4195 C   0  0  0  0  0  0  0  0  0  0  0  0
  146.0534  144.8391  154.6072 C   0  0  0  0  0  0  0  0  0  0  0  0
  145.8379  145.3735  157.3621 H   0  0  0  0  0  0  0  0  0  0  0  0
  144.2617  144.6220  157.5993 H   0  0  0  0  0  0  0  0  0  0  0  0
  144.4196  146.0138  156.5358 H   0  0  0  0  0  0  0  0  0  0  0  0
  144.2108  143.9288  155.2168 H   0  0  0  0  0  0  0  0  0  0  0  0
  146.7360  143.0350  156.6719 H   0  0  0  0  0  0  0  0  0  0  0  0
  145.1491  142.3309  156.8419 H   0  0  0  0  0  0  0  0  0  0  0  0
  146.5724  140.9787  155.3008 H   0  0  0  0  0  0  0  0  0  0  0  0
  145.1478  141.5852  154.5010 H   0  0  0  0  0  0  0  0  0  0  0  0
  147.0217  141.8964  153.0077 H   0  0  0  0  0  0  0  0  0  0  0  0
  148.6425  143.7165  154.4426 H   0  0  0  0  0  0  0  0  0  0  0  0
  151.2405  142.3286  154.2952 H   0  0  0  0  0  0  0  0  0  0  0  0
  150.4935  143.2740  155.5223 H   0  0  0  0  0  0  0  0  0  0  0  0
  152.5751  138.9764  158.8562 H   0  0  0  0  0  0  0  0  0  0  0  0
  151.1701  141.2815  160.3888 H   0  0  0  0  0  0  0  0  0  0  0  0
  153.4363  143.1322  159.3075 H   0  0  0  0  0  0  0  0  0  0  0  0
  152.5451  143.2892  160.9083 H   0  0  0  0  0  0  0  0  0  0  0  0
  153.3419  140.9957  161.5661 H   0  0  0  0  0  0  0  0  0  0  0  0
  154.2265  140.8491  159.9609 H   0  0  0  0  0  0  0  0  0  0  0  0
  146.9539  144.4033  152.6845 H   0  0  0  0  0  0  0  0  0  0  0  0
  145.3840  143.6889  152.9112 H   0  0  0  0  0  0  0  0  0  0  0  0
  145.5674  145.7465  154.2478 H   0  0  0  0  0  0  0  0  0  0  0  0
  146.9990  145.1547  155.0505 H   0  0  0  0  0  0  0  0  0  0  0  0
  1  2  1  0  0  0  0
  1 25  1  0  0  0  0
  1 26  1  0  0  0  0
  1 27  1  0  0  0  0
  2 24  1  0  0  0  0
  2  3  1  0  0  0  0
  2 28  1  0  0  0  0
  3  4  1  0  0  0  0
  3 29  1  0  0  0  0
  3 30  1  0  0  0  0
  4  5  1  0  0  0  0
  4 31  1  0  0  0  0
  4 32  1  0  0  0  0
  5  6  1  0  0  0  0
  5 23  1  0  0  0  0
  5 33  1  0  0  0  0
  6  7  1  0  0  0  0
  6 34  1  0  0  0  0
  7  8  2  0  0  0  0
  7  9  1  0  0  0  0
  9 10  1  0  0  0  0
  9 35  1  0  0  0  0
  9 36  1  0  0  0  0
 10 21  1  0  0  0  0
 10 11  1  0  0  0  0
 11 12  2  0  0  0  0
 11 13  1  0  0  0  0
 13 14  1  0  0  0  0
 13 16  2  0  0  0  0
 14 15  3  0  0  0  0
 16 17  1  0  0  0  0
 16 37  1  0  0  0  0
 17 18  1  0  0  0  0
 17 21  1  0  0  0  0
 18 20  1  0  0  0  0
 18 19  1  0  0  0  0
 18 38  1  0  0  0  0
 19 20  1  0  0  0  0
 19 39  1  0  0  0  0
 19 40  1  0  0  0  0
 20 41  1  0  0  0  0
 20 42  1  0  0  0  0
 21 22  2  0  0  0  0
 23 24  1  0  0  0  0
 23 43  1  0  0  0  0
 23 44  1  0  0  0  0
 24 45  1  0  0  0  0
 24 46  1  0  0  0  0
M  END
> <s_m_source_file>
AV-unprocessed.smi

> <i_m_source_file_index>
2014

> <i_lp_mmshare_version>
43012

> <i_f3d_flags>
0

> <s_epik_input>
W0NIM11bQ0BASF0xW0NIMl1bQ0gyXVtDQEhdKFtDSDJdW0NIMl0xKVtOSF1DKD1PKVtDSDJdbjJjKD1PKWMoQyNOKVtjSF1uKGMyPU8pW0NIXTNbQ0gyXVtDSDJdMw==

> <s_epik_cmdline>
J2VwaWtfcHl0aG9uJywgJy1waCcsICc3LjAnLCAnLXRuJywgJzgnLCAnLW1hJywgJzIwMCcsICctbWV0YWxfYmluZGluZycsICctaW1hZScsICc8aW5maWxlLm1hZT4nLCAnLW9tYWUnLCAnPG91dGZpbGUubWFlPic=

> <r_lp_tautomer_probability>
1

> <r_epik_Ionization_Penalty>
1.91358e-08

> <r_epik_Ionization_Penalty_Charging>
8.89021e-11

> <r_epik_Ionization_Penalty_Neutral>
1.90469e-08

> <r_epik_State_Penalty>
-0

> <r_epik_Charging_Adjusted_Penalty>
8.89021e-11

> <i_epik_Tot_Q>
0

> <i_epik_Tot_abs_Q>
0

> <r_epik_Metal_State_Penalty>
-0

> <b_epik_Metal_Only>
0

> <s_lp_Force_Field>
OPLS_2005

> <r_lp_Energy>
34.0364

> <b_lp_Chiralities_Consistent>
1

> <s_lp_Variant>
AV-unprocessed.smi:2014-2

> <Gold.Version>
5.8.1

> <Gold.Id.Protein>
6NUR|6NUR_protein|mol2

> <Gold.PLP.Fitness>
47.9626

> <Gold.PLP.PLP>
-40.4575

> <Gold.PLP.part.hbond>
-3.0000

> <Gold.PLP.part.metal>
0.0000

> <Gold.PLP.part.buried>
-5.3279

> <Gold.PLP.part.nonpolar>
-33.0450

> <Gold.PLP.part.repulsive>
0.4376

> <Gold.PLP.ligand.clash>
0.0000

> <Gold.PLP.ligand.torsion>
0.5310

> <Gold.PLP.Chemscore.Hbond>
2.7840

> <Gold.PLP.Chemscore.CHOScore>
0.0000

> <Gold.PLP.Chemscore.Metal>
0.0000

> <Gold.Chemscore.Hbonds>
donor molecule, donor type, donor heavy atom, donor atom, acceptor molecule, acceptor atom, score
      L1  H     6    34       P1  8028  0.72
      P1  H  7989  7998       L1    12  1.00
      P1  H 10752 10765       L1    15  1.00

> <Gold.PLP.Chemscore.Internal.Correction>
0.2150

> <Gold.Rescore>
     Score         DG    S(hbond)    S(metal)    S(lipo)     H(rot)  DE(clash)    DE(int)     intcor
     11.55     -18.64       2.50        0.00      78.44       1.70       3.38       3.71       ----

> <Gold.Chemscore.Fitness>
11.5513

> <Gold.Chemscore.DG>
-18.6436

> <Gold.Chemscore.ZeroCoef>
-5.4800

> <Gold.Chemscore.Hbond>
2.4992

> <Gold.Chemscore.Metal>
0.0000

> <Gold.Chemscore.Lipo>
78.4444

> <Gold.Chemscore.Internal_Hbond>
0.0000

> <Gold.Chemscore.DEClash>
3.3809

> <Gold.Chemscore.DEInternal>
3.7114

> <Gold.Chemscore.Rot>
1.7038

> <Gold.Chemscore.Internal.Correction>
   9.000000E+99

> <Gold.Chemscore.Hbonds>
donor molecule, donor type, donor heavy atom, donor atom, acceptor molecule, acceptor atom, score
      L1  H     6    34       P1  8028  0.68
      P1  H  7989  7998       L1    12  0.74
      P1  H 10752 10765       L1    15  0.98

> <Gold.Chemscore.Hbond.Weighted>
-8.3474

> <Gold.Chemscore.Metal.Weighted>
-0.0000

> <Gold.Chemscore.Lipo.Weighted>
-9.1780

> <Gold.Chemscore.Internal_Hbond.Weighted>
0.0000

> <Gold.Chemscore.DEClash.Weighted>
3.3809

> <Gold.Chemscore.DEInternal.Weighted>
3.7114

> <Gold.Chemscore.Rot.Weighted>
4.3618

> <Gold.Chemscore.Internal.Correction.Weighted>
   9.000000E+99

> <Gold.Protein.RotatedTorsions>
[ 6907 6896 6895 6894 ] final -136.31 input  -60.11 | X-H torsion
[ 7974 7965 7964 7962 ] final  -12.67 input  175.53 | X-H torsion
[ 8008 7997 7996 7995 ] final  143.75 input   59.86 | X-H torsion
[ 10167 10162 10161 10158 ] final   69.53 input  -65.29 | X-H torsion
[ 10718 10713 10712 10709 ] final   29.19 input   66.30 | X-H torsion
[ 10763 10752 10751 10750 ] final -146.59 input  -60.55 | X-H torsion
[ 11005 11000 10999 10996 ] final -103.17 input  -57.11 | X-H torsion

> <Gold.Protein.ActiveResidues>
 VAL166  LYS551  ARG553  GLY616  TRP617  ASP618  TYR619  PRO620  LYS621  CYS622 
 ASP623  PHE694  ASN695  SER759  ASP760  ASP761  ALA762  ILE779  LEU786  VAL792 
 PHE793  MET794  SER795  GLU796  ALA797  LYS798  CYS799  TRP800  GLU811  SER814 

> <Gold.Protein.RotatedAtoms>
  151.0085  133.5987  159.2685 H   0  0  0  0  0  0  0  0  0  0  0  0  # atno 6907 bound_to 6896
  151.3148  135.0802  159.9295 H   0  0  0  0  0  0  0  0  0  0  0  0  # atno 6908 bound_to 6896
  152.5293  133.9743  159.7831 H   0  0  0  0  0  0  0  0  0  0  0  0  # atno 6909 bound_to 6896
  146.2143  140.3092  142.8381 H   0  0  0  0  0  0  0  0  0  0  0  0  # atno 7974 bound_to 7965
  156.2923  140.2254  156.4942 H   0  0  0  0  0  0  0  0  0  0  0  0  # atno 8008 bound_to 7997
  154.7745  140.0464  157.1099 H   0  0  0  0  0  0  0  0  0  0  0  0  # atno 8009 bound_to 7997
  154.9833  140.3081  155.4940 H   0  0  0  0  0  0  0  0  0  0  0  0  # atno 8010 bound_to 7997
  140.0668  144.5186  150.7255 H   0  0  0  0  0  0  0  0  0  0  0  0  # atno 10167 bound_to 10162
  157.2434  130.7080  149.6369 H   0  0  0  0  0  0  0  0  0  0  0  0  # atno 10718 bound_to 10713
  154.8328  135.3382  154.6685 H   0  0  0  0  0  0  0  0  0  0  0  0  # atno 10763 bound_to 10752
  153.7303  135.6952  153.4995 H   0  0  0  0  0  0  0  0  0  0  0  0  # atno 10764 bound_to 10752
  153.2317  135.4414  155.0554 H   0  0  0  0  0  0  0  0  0  0  0  0  # atno 10765 bound_to 10752
  141.1157  133.8618  157.1453 H   0  0  0  0  0  0  0  0  0  0  0  0  # atno 11005 bound_to 11000
  144.9001  140.7631  143.5872 LP  0  0  0  0  0  0  0  0  0  0  0  0  # atno 17320 bound_to 7965
  145.3017  139.1848  143.4686 LP  0  0  0  0  0  0  0  0  0  0  0  0  # atno 17321 bound_to 7965
  140.7145  143.2532  151.4478 LP  0  0  0  0  0  0  0  0  0  0  0  0  # atno 17342 bound_to 10162
  139.5860  144.1604  152.2029 LP  0  0  0  0  0  0  0  0  0  0  0  0  # atno 17343 bound_to 10162
  155.9669  130.4451  150.5487 LP  0  0  0  0  0  0  0  0  0  0  0  0  # atno 17370 bound_to 10713
  157.3355  131.0707  151.1828 LP  0  0  0  0  0  0  0  0  0  0  0  0  # atno 17371 bound_to 10713
  140.0078  135.0001  157.0331 LP  0  0  0  0  0  0  0  0  0  0  0  0  # atno 17394 bound_to 11000
  140.4651  134.1444  155.7196 LP  0  0  0  0  0  0  0  0  0  0  0  0  # atno 17395 bound_to 11000

$$$$
