AV-unprocessed.smi:3019|AV-procd|sdf|11487|dock9
  -GOLD-   2272016423D 1   1.00000     0.00000
 Structure written by MMmdl.
 31 32  0  0  0  0  0  0  0  0  2 V2000
  145.4775  131.0409  151.0053 C   0  0  0  0  0  0  0  0  0  0  0  0
  144.5484  132.2616  150.9315 C   0  0  0  0  0  0  0  0  0  0  0  0
  143.8360  132.3911  149.5769 C   0  0  0  0  0  0  0  0  0  0  0  0
  145.2623  133.5246  151.3048 C   0  0  0  0  0  0  0  0  0  0  0  0
  146.5854  133.5500  151.4615 N   0  0  0  0  0  0  0  0  0  0  0  0
  146.8072  134.8413  151.7846 N   0  0  0  0  0  0  0  0  0  0  0  0
  145.6460  135.4993  151.8008 C   0  0  0  0  0  0  0  0  0  0  0  0
  145.5560  136.9543  152.1370 C   0  0  2  0  0  0  0  0  0  0  0  0
  146.1821  137.8495  151.0503 C   0  0  0  0  0  0  0  0  0  0  0  0
  146.1578  139.2605  151.4827 N   0  3  0  0  0  0  0  0  0  0  0  0
  146.8078  139.4343  152.7970 C   0  0  0  0  0  0  0  0  0  0  0  0
  146.1730  138.4884  153.8317 C   0  0  0  0  0  0  0  0  0  0  0  0
  146.2513  137.1450  153.3668 O   0  0  0  0  0  0  0  0  0  0  0  0
  144.6153  134.7135  151.5053 N   0  0  0  0  0  0  0  0  0  0  0  0
  147.7280  135.2100  151.9749 H   0  0  0  0  0  0  0  0  0  0  0  0
  145.9120  130.9380  152.0003 H   0  0  0  0  0  0  0  0  0  0  0  0
  146.2967  131.1215  150.2901 H   0  0  0  0  0  0  0  0  0  0  0  0
  144.9344  130.1214  150.7858 H   0  0  0  0  0  0  0  0  0  0  0  0
  143.7668  132.0985  151.6754 H   0  0  0  0  0  0  0  0  0  0  0  0
  143.1300  133.2220  149.5820 H   0  0  0  0  0  0  0  0  0  0  0  0
  143.2776  131.4853  149.3397 H   0  0  0  0  0  0  0  0  0  0  0  0
  144.5476  132.5631  148.7688 H   0  0  0  0  0  0  0  0  0  0  0  0
  144.5043  137.2135  152.2751 H   0  0  0  0  0  0  0  0  0  0  0  0
  147.2156  137.5552  150.8607 H   0  0  0  0  0  0  0  0  0  0  0  0
  145.6411  137.7500  150.1088 H   0  0  0  0  0  0  0  0  0  0  0  0
  146.6306  139.8313  150.7960 H   0  0  0  0  0  0  0  0  0  0  0  0
  147.8741  139.2254  152.7000 H   0  0  0  0  0  0  0  0  0  0  0  0
  146.7112  140.4726  153.1151 H   0  0  0  0  0  0  0  0  0  0  0  0
  146.6988  138.5644  154.7837 H   0  0  0  0  0  0  0  0  0  0  0  0
  145.1326  138.7586  154.0201 H   0  0  0  0  0  0  0  0  0  0  0  0
  145.1963  139.5610  151.5548 H   0  0  0  0  0  0  0  0  0  0  0  0
  1  2  1  0  0  0  0
  1 16  1  0  0  0  0
  1 17  1  0  0  0  0
  1 18  1  0  0  0  0
  2  3  1  0  0  0  0
  2  4  1  0  0  0  0
  2 19  1  0  0  0  0
  3 20  1  0  0  0  0
  3 21  1  0  0  0  0
  3 22  1  0  0  0  0
  4 14  1  0  0  0  0
  4  5  2  0  0  0  0
  5  6  1  0  0  0  0
  6 15  1  0  0  0  0
  6  7  1  0  0  0  0
  7  8  1  0  0  0  0
  7 14  2  0  0  0  0
  8 13  1  0  0  0  0
  8  9  1  0  0  0  0
  8 23  1  0  0  0  0
  9 10  1  0  0  0  0
  9 24  1  0  0  0  0
  9 25  1  0  0  0  0
 10 11  1  0  0  0  0
 10 26  1  0  0  0  0
 10 31  1  0  0  0  0
 11 12  1  0  0  0  0
 11 27  1  0  0  0  0
 11 28  1  0  0  0  0
 12 13  1  0  0  0  0
 12 29  1  0  0  0  0
 12 30  1  0  0  0  0
M  CHG  1  10   1
M  END
> <s_m_source_file>
AV-unprocessed.smi

> <i_m_source_file_index>
3019

> <i_lp_mmshare_version>
43012

> <i_f3d_flags>
0

> <s_epik_input>
W0NIM11bQ0hdKFtDSDNdKWMxbltuSF1jKG4xKVtDQEBIXTJbQ0gyXVtOSF1bQ0gyXVtDSDJdTzI=

> <s_epik_cmdline>
J2VwaWtfcHl0aG9uJywgJy1waCcsICc3LjAnLCAnLXRuJywgJzgnLCAnLW1hJywgJzIwMCcsICctbWV0YWxfYmluZGluZycsICctaW1hZScsICc8aW5maWxlLm1hZT4nLCAnLW9tYWUnLCAnPG91dGZpbGUubWFlPic=

> <r_epik_Ionization_Penalty>
0.162344

> <r_epik_Ionization_Penalty_Charging>
0.125708

> <r_epik_Ionization_Penalty_Neutral>
0.0366363

> <r_epik_State_Penalty>
1.18286

> <r_epik_Charging_Adjusted_Penalty>
1.30856

> <i_epik_Tot_Q>
1

> <i_epik_Tot_abs_Q>
1

> <r_epik_Metal_State_Penalty>
1.49333

> <b_epik_Metal_Only>
0

> <s_lp_Force_Field>
OPLS_2005

> <r_lp_Energy>
8.53585

> <b_lp_Chiralities_Consistent>
1

> <s_lp_Variant>
AV-unprocessed.smi:3019-3

> <Gold.Version>
5.8.1

> <Gold.Id.Protein>
6NUR|6NUR_protein|mol2

> <Gold.PLP.Fitness>
33.1592

> <Gold.PLP.PLP>
-24.5619

> <Gold.PLP.part.hbond>
-3.0000

> <Gold.PLP.part.metal>
0.0000

> <Gold.PLP.part.buried>
-1.5365

> <Gold.PLP.part.nonpolar>
-21.2654

> <Gold.PLP.part.repulsive>
0.5991

> <Gold.PLP.ligand.clash>
0.0000

> <Gold.PLP.ligand.torsion>
0.2311

> <Gold.PLP.Chemscore.Hbond>
3.0000

> <Gold.PLP.Chemscore.CHOScore>
0.0000

> <Gold.PLP.Chemscore.Metal>
0.0000

> <Gold.Chemscore.Hbonds>
donor molecule, donor type, donor heavy atom, donor atom, acceptor molecule, acceptor atom, score
      L1  H     6    15       P1  7948  1.00
      L1  H    10    31       P1 10175  2.00

> <Gold.PLP.Chemscore.Internal.Correction>
0.0595

> <Gold.Rescore>
     Score         DG    S(hbond)    S(metal)    S(lipo)     H(rot)  DE(clash)    DE(int)     intcor
     14.28     -14.64       1.84        0.00      53.70       1.28       0.25       0.11       ----

> <Gold.Chemscore.Fitness>
14.2829

> <Gold.Chemscore.DG>
-14.6421

> <Gold.Chemscore.ZeroCoef>
-5.4800

> <Gold.Chemscore.Hbond>
1.8427

> <Gold.Chemscore.Metal>
0.0000

> <Gold.Chemscore.Lipo>
53.6994

> <Gold.Chemscore.Internal_Hbond>
0.0000

> <Gold.Chemscore.DEClash>
0.2504

> <Gold.Chemscore.DEInternal>
0.1088

> <Gold.Chemscore.Rot>
1.2795

> <Gold.Chemscore.Internal.Correction>
   9.000000E+99

> <Gold.Chemscore.Hbonds>
donor molecule, donor type, donor heavy atom, donor atom, acceptor molecule, acceptor atom, score
      L1  H     6    15       P1  7948  0.88
      L1  H    10    31       P1 10175  0.58

> <Gold.Chemscore.Hbond.Weighted>
-6.1547

> <Gold.Chemscore.Metal.Weighted>
-0.0000

> <Gold.Chemscore.Lipo.Weighted>
-6.2828

> <Gold.Chemscore.Internal_Hbond.Weighted>
0.0000

> <Gold.Chemscore.DEClash.Weighted>
0.2504

> <Gold.Chemscore.DEInternal.Weighted>
0.1088

> <Gold.Chemscore.Rot.Weighted>
3.2754

> <Gold.Chemscore.Internal.Correction.Weighted>
   9.000000E+99

> <Gold.Protein.RotatedTorsions>
[ 6907 6896 6895 6894 ] final   14.40 input  -60.11 | X-H torsion
[ 7974 7965 7964 7962 ] final  179.38 input  175.53 | X-H torsion
[ 8008 7997 7996 7995 ] final  104.67 input   59.86 | X-H torsion
[ 10167 10162 10161 10158 ] final  126.45 input  -65.29 | X-H torsion
[ 10718 10713 10712 10709 ] final  125.14 input   66.30 | X-H torsion
[ 10763 10752 10751 10750 ] final   74.32 input  -60.55 | X-H torsion
[ 11005 11000 10999 10996 ] final  -84.91 input  -57.11 | X-H torsion

> <Gold.Protein.ActiveResidues>
 VAL166  LYS551  ARG553  GLY616  TRP617  ASP618  TYR619  PRO620  LYS621  CYS622 
 ASP623  PHE694  ASN695  SER759  ASP760  ASP761  ALA762  ILE779  LEU786  VAL792 
 PHE793  MET794  SER795  GLU796  ALA797  LYS798  CYS799  TRP800  GLU811  SER814 

> <Gold.Protein.RotatedAtoms>
  151.8017  135.0707  160.0400 H   0  0  0  0  0  0  0  0  0  0  0  0  # atno 6907 bound_to 6896
  152.3084  133.5723  159.5673 H   0  0  0  0  0  0  0  0  0  0  0  0  # atno 6908 bound_to 6896
  150.7308  134.0104  159.3710 H   0  0  0  0  0  0  0  0  0  0  0  0  # atno 6909 bound_to 6896
  144.7146  140.0539  143.6434 H   0  0  0  0  0  0  0  0  0  0  0  0  # atno 7974 bound_to 7965
  156.1593  140.3144  155.8780 H   0  0  0  0  0  0  0  0  0  0  0  0  # atno 8008 bound_to 7997
  155.3814  140.0488  157.3060 H   0  0  0  0  0  0  0  0  0  0  0  0  # atno 8009 bound_to 7997
  154.5131  140.2172  155.9128 H   0  0  0  0  0  0  0  0  0  0  0  0  # atno 8010 bound_to 7997
  139.5630  144.6894  151.3988 H   0  0  0  0  0  0  0  0  0  0  0  0  # atno 10167 bound_to 10162
  157.5528  131.1093  150.8673 H   0  0  0  0  0  0  0  0  0  0  0  0  # atno 10718 bound_to 10713
  153.0579  135.5030  154.8024 H   0  0  0  0  0  0  0  0  0  0  0  0  # atno 10763 bound_to 10752
  154.6836  135.2972  154.9581 H   0  0  0  0  0  0  0  0  0  0  0  0  # atno 10764 bound_to 10752
  154.0359  135.6723  153.4838 H   0  0  0  0  0  0  0  0  0  0  0  0  # atno 10765 bound_to 10752
  141.1646  133.7371  156.8938 H   0  0  0  0  0  0  0  0  0  0  0  0  # atno 11005 bound_to 11000
  145.9921  139.3023  143.0978 LP  0  0  0  0  0  0  0  0  0  0  0  0  # atno 17320 bound_to 7965
  145.8891  140.9315  143.0561 LP  0  0  0  0  0  0  0  0  0  0  0  0  # atno 17321 bound_to 7965
  140.6912  143.7857  150.7258 LP  0  0  0  0  0  0  0  0  0  0  0  0  # atno 17342 bound_to 10162
  140.1340  143.4500  152.2236 LP  0  0  0  0  0  0  0  0  0  0  0  0  # atno 17343 bound_to 10162
  156.9193  130.5309  149.5279 LP  0  0  0  0  0  0  0  0  0  0  0  0  # atno 17370 bound_to 10713
  156.0591  130.5647  150.9156 LP  0  0  0  0  0  0  0  0  0  0  0  0  # atno 17371 bound_to 10713
  140.1630  134.9152  157.2739 LP  0  0  0  0  0  0  0  0  0  0  0  0  # atno 17394 bound_to 11000
  140.2589  134.3594  155.7414 LP  0  0  0  0  0  0  0  0  0  0  0  0  # atno 17395 bound_to 11000

$$$$
