#       Name:                AV-unprocessed.smi:916
#       Creating user name   scv26
#       Creation time:       Fri Mar 27 02:06:50 2020


#       File generated by GOLD software.
#

@<TRIPOS>MOLECULE
AV-unprocessed.smi:916
    48    49     1
SMALL
NO_CHARGES


@<TRIPOS>ATOM
      1 ****        -4.7423   4.4599   2.3270 C.3            1 S1                 0.0000
      2 ****        -4.8980   4.0180   0.8676 C.3            1 S1                 0.0000
      3 ****        -4.8034   2.5309   0.7094 C.2            1 S1                 0.0000
      4 ****        -5.8445   1.6530   0.5287 C.2            1 S1                 0.0000
      5 ****        -5.2937   0.0050   0.3888 S.3            1 S1                 0.0000
      6 ****        -3.6460   0.5798   0.5886 C.2            1 S1                 0.0000
      7 ****        -2.5353  -0.3039   0.5797 N.am           1 S1                 0.0000
      8 ****        -1.2347  -0.0046   0.7441 C.2            1 S1                 0.0000
      9 ****        -0.7853   1.1225   0.9547 O.2            1 S1                 0.0000
     10 ****        -0.4690  -1.1012   0.6475 N.am           1 S1                 0.0000
     11 ****         0.9853  -1.1318   0.7720 C.3            1 S1                 0.0000
     12 ****         1.6831  -1.0790  -0.6019 C.3            1 S1                 0.0000
     13 ****         1.4931   0.2205  -1.3621 C.3            1 S1                 0.0000
     14 ****         2.6347   0.1666  -2.3708 C.3            1 S1                 0.0000
     15 ****         3.6958  -0.5176  -1.7131 O.3            1 S1                 0.0000
     16 ****         3.2167  -1.1427  -0.5235 C.3            1 S1                 0.0000
     17 ****         3.8347  -2.5489  -0.3449 C.3            1 S1                 0.0000
     18 ****         5.3339  -2.4502  -0.0219 C.3            1 S1                 0.0000
     19 ****         3.6023  -3.4788  -1.5496 C.3            1 S1                 0.0000
     20 ****        -3.5533   1.9054   0.7413 N.2            1 S1                 0.0000
     21 ****        -4.8177   5.5439   2.4149 H              1 S1                 0.0000
     22 ****        -3.7738   4.1603   2.7289 H              1 S1                 0.0000
     23 ****        -5.5169   4.0194   2.9554 H              1 S1                 0.0000
     24 ****        -5.8560   4.3739   0.4868 H              1 S1                 0.0000
     25 ****        -4.1351   4.5065   0.2601 H              1 S1                 0.0000
     26 ****        -6.8992   1.8765   0.4689 H              1 S1                 0.0000
     27 ****        -2.7570  -1.2766   0.4265 H              1 S1                 0.0000
     28 ****        -0.9261  -1.9843   0.4730 H              1 S1                 0.0000
     29 ****         1.3384  -0.3242   1.4158 H              1 S1                 0.0000
     30 ****         1.2486  -2.0594   1.2802 H              1 S1                 0.0000
     31 ****         1.3064  -1.8887  -1.2262 H              1 S1                 0.0000
     32 ****         0.5151   0.3040  -1.8368 H              1 S1                 0.0000
     33 ****         1.6237   1.0751  -0.6966 H              1 S1                 0.0000
     34 ****         2.3402  -0.4124  -3.2470 H              1 S1                 0.0000
     35 ****         2.9440   1.1568  -2.7058 H              1 S1                 0.0000
     36 ****         3.5348  -0.5080   0.3055 H              1 S1                 0.0000
     37 ****         3.3583  -3.0113   0.5201 H              1 S1                 0.0000
     38 ****         5.8882  -1.9994  -0.8457 H              1 S1                 0.0000
     39 ****         5.7613  -3.4355   0.1666 H              1 S1                 0.0000
     40 ****         5.5076  -1.8432   0.8671 H              1 S1                 0.0000
     41 ****         4.0253  -3.0607  -2.4635 H              1 S1                 0.0000
     42 ****         2.5434  -3.6640  -1.7254 H              1 S1                 0.0000
     43 ****         4.0704  -4.4498  -1.3861 H              1 S1                 0.0000
     44 ****        -1.4053   1.9047   1.0153 LP             1 S1                 0.0000
     45 ****         0.1997   1.2554   1.0652 LP             1 S1                 0.0000
     46 ****         4.4140   0.1367  -1.4761 LP             1 S1                 0.0000
     47 ****         4.0689  -1.2148  -2.3253 LP             1 S1                 0.0000
     48 ****        -2.6890   2.3931   0.8642 LP             1 S1                 0.0000
@<TRIPOS>BOND
    1    1    2 1     
    2    1   21 1     
    3    1   22 1     
    4    1   23 1     
    5    2    3 1     
    6    2   24 1     
    7    2   25 1     
    8    3   20 1     
    9    3    4 2     
   10    4    5 1     
   11    4   26 1     
   12    5    6 1     
   13    6    7 1     
   14    6   20 2     
   15    7    8 am    
   16    7   27 1     
   17    8    9 2     
   18    8   10 am    
   19   10   11 1     
   20   10   28 1     
   21   11   12 1     
   22   11   29 1     
   23   11   30 1     
   24   12   16 1     
   25   12   13 1     
   26   12   31 1     
   27   13   14 1     
   28   13   32 1     
   29   13   33 1     
   30   14   15 1     
   31   14   34 1     
   32   14   35 1     
   33   15   16 1     
   34   16   17 1     
   35   16   36 1     
   36   17   18 1     
   37   17   19 1     
   38   17   37 1     
   39   18   38 1     
   40   18   39 1     
   41   18   40 1     
   42   19   41 1     
   43   19   42 1     
   44   19   43 1     
   45    9   44 1     
   46    9   45 1     
   47   15   46 1     
   48   15   47 1     
   49   20   48 1     
@<TRIPOS>SUBSTRUCTURE
      1 S1             1
@<TRIPOS>SET
LONE_PAIRS      STATIC     ATOMS    <user>   **** ""
5 44 45 46 47 48
DONOR_HYDROGENS      STATIC     ATOMS    <user>   **** ""
2 27 28
ATOM$BLUE        STATIC     ATOMS    COLORGROUP SYSTEM
5 44 45 46 47 48
ATOM$RED        STATIC     ATOMS    COLORGROUP SYSTEM
2 27 28
