AV-unprocessed.smi:2772|AV-procd|sdf|10674|dock10
  -GOLD-   2272015123D 1   1.00000     0.00000
 Structure written by MMmdl.
 56 58  0  0  0  0  0  0  0  0  4 V2000
  151.6725  145.7189  160.0754 C   0  0  0  0  0  0  0  0  0  0  0  0
  152.0971  144.2659  160.0474 C   0  0  0  0  0  0  0  0  0  0  0  0
  151.8668  143.4312  158.9339 C   0  0  0  0  0  0  0  0  0  0  0  0
  152.2878  142.0859  158.9835 C   0  0  0  0  0  0  0  0  0  0  0  0
  152.9235  141.5916  160.1441 C   0  0  0  0  0  0  0  0  0  0  0  0
  153.3369  140.2304  160.1444 N   0  0  0  0  0  0  0  0  0  0  0  0
  154.2836  139.6430  160.8979 C   0  0  0  0  0  0  0  0  0  0  0  0
  154.9571  140.2097  161.7579 O   0  0  0  0  0  0  0  0  0  0  0  0
  154.3979  138.3381  160.6075 N   0  0  0  0  0  0  0  0  0  0  0  0
  155.3218  137.4024  161.2465 C   0  0  2  0  0  0  0  0  0  0  0  0
  155.1506  135.9989  160.6584 C   0  0  0  0  0  0  0  0  0  0  0  0
  156.0694  134.9854  161.3616 C   0  0  0  0  0  0  0  0  0  0  0  0
  155.8513  134.9401  162.8393 N   0  3  1  0  0  0  0  0  0  0  0  0
  156.7038  133.9140  163.5361 C   0  0  2  0  0  0  0  0  0  0  0  0
  156.5528  132.4781  162.9726 C   0  0  0  0  0  0  0  0  0  0  0  0
  155.1611  131.8873  163.2673 C   0  0  0  0  0  0  0  0  0  0  0  0
  154.8882  131.8693  164.7264 N   0  3  2  0  0  0  0  0  0  0  0  0
  153.5915  131.2365  165.0511 C   0  0  0  0  0  0  0  0  0  0  0  0
  155.0357  133.2106  165.3452 C   0  0  0  0  0  0  0  0  0  0  0  0
  156.4286  133.8010  165.0567 C   0  0  0  0  0  0  0  0  0  0  0  0
  155.9758  136.3061  163.4330 C   0  0  0  0  0  0  0  0  0  0  0  0
  155.0556  137.3337  162.7529 C   0  0  0  0  0  0  0  0  0  0  0  0
  153.1390  142.4842  161.2241 C   0  0  0  0  0  0  0  0  0  0  0  0
  152.7213  143.7658  161.1362 N   0  3  0  0  0  0  0  0  0  0  0  0
  151.1618  145.9978  159.1533 H   0  0  0  0  0  0  0  0  0  0  0  0
  152.5417  146.3667  160.1933 H   0  0  0  0  0  0  0  0  0  0  0  0
  150.9927  145.8999  160.9087 H   0  0  0  0  0  0  0  0  0  0  0  0
  151.3736  143.8130  158.0516 H   0  0  0  0  0  0  0  0  0  0  0  0
  152.1157  141.4390  158.1353 H   0  0  0  0  0  0  0  0  0  0  0  0
  152.8170  139.6203  159.5303 H   0  0  0  0  0  0  0  0  0  0  0  0
  153.7983  137.9616  159.8877 H   0  0  0  0  0  0  0  0  0  0  0  0
  156.3555  137.7173  161.0916 H   0  0  0  0  0  0  0  0  0  0  0  0
  154.1124  135.6770  160.7546 H   0  0  0  0  0  0  0  0  0  0  0  0
  155.3717  136.0132  159.5903 H   0  0  0  0  0  0  0  0  0  0  0  0
  155.8620  134.0197  160.9066 H   0  0  0  0  0  0  0  0  0  0  0  0
  157.1146  135.2204  161.1546 H   0  0  0  0  0  0  0  0  0  0  0  0
  157.7423  134.2211  163.4009 H   0  0  0  0  0  0  0  0  0  0  0  0
  156.7857  132.4147  161.9116 H   0  0  0  0  0  0  0  0  0  0  0  0
  157.3013  131.8397  163.4447 H   0  0  0  0  0  0  0  0  0  0  0  0
  154.3881  132.4603  162.7530 H   0  0  0  0  0  0  0  0  0  0  0  0
  155.1100  130.8689  162.8798 H   0  0  0  0  0  0  0  0  0  0  0  0
  152.7612  131.8017  164.6257 H   0  0  0  0  0  0  0  0  0  0  0  0
  153.4493  131.1803  166.1309 H   0  0  0  0  0  0  0  0  0  0  0  0
  153.5505  130.2200  164.6581 H   0  0  0  0  0  0  0  0  0  0  0  0
  154.2554  133.8774  164.9747 H   0  0  0  0  0  0  0  0  0  0  0  0
  154.8937  133.1267  166.4235 H   0  0  0  0  0  0  0  0  0  0  0  0
  157.1775  133.1411  165.4976 H   0  0  0  0  0  0  0  0  0  0  0  0
  156.5659  134.7435  165.5824 H   0  0  0  0  0  0  0  0  0  0  0  0
  155.7043  136.3016  164.4861 H   0  0  0  0  0  0  0  0  0  0  0  0
  157.0140  136.6363  163.3717 H   0  0  0  0  0  0  0  0  0  0  0  0
  155.2083  138.3157  163.2030 H   0  0  0  0  0  0  0  0  0  0  0  0
  154.0134  137.0680  162.9372 H   0  0  0  0  0  0  0  0  0  0  0  0
  153.6349  142.2361  162.1499 H   0  0  0  0  0  0  0  0  0  0  0  0
  154.8907  134.6593  162.9737 H   0  0  0  0  0  0  0  0  0  0  0  0
  155.5992  131.2842  165.1426 H   0  0  0  0  0  0  0  0  0  0  0  0
  152.8872  144.3856  161.9296 H   0  0  0  0  0  0  0  0  0  0  0  0
  1  2  1  0  0  0  0
  1 25  1  0  0  0  0
  1 26  1  0  0  0  0
  1 27  1  0  0  0  0
  2 24  1  0  0  0  0
  2  3  2  0  0  0  0
  3  4  1  0  0  0  0
  3 28  1  0  0  0  0
  4  5  2  0  0  0  0
  4 29  1  0  0  0  0
  5  6  1  0  0  0  0
  5 23  1  0  0  0  0
  6  7  1  0  0  0  0
  6 30  1  0  0  0  0
  7  8  2  0  0  0  0
  7  9  1  0  0  0  0
  9 10  1  0  0  0  0
  9 31  1  0  0  0  0
 10 22  1  0  0  0  0
 10 11  1  0  0  0  0
 10 32  1  0  0  0  0
 11 12  1  0  0  0  0
 11 33  1  0  0  0  0
 11 34  1  0  0  0  0
 12 13  1  0  0  0  0
 12 35  1  0  0  0  0
 12 36  1  0  0  0  0
 13 14  1  0  0  0  0
 13 21  1  0  0  0  0
 13 54  1  0  0  0  0
 14 20  1  0  0  0  0
 14 15  1  0  0  0  0
 14 37  1  0  0  0  0
 15 16  1  0  0  0  0
 15 38  1  0  0  0  0
 15 39  1  0  0  0  0
 16 17  1  0  0  0  0
 16 40  1  0  0  0  0
 16 41  1  0  0  0  0
 17 18  1  0  0  0  0
 17 19  1  0  0  0  0
 17 55  1  0  0  0  0
 18 42  1  0  0  0  0
 18 43  1  0  0  0  0
 18 44  1  0  0  0  0
 19 20  1  0  0  0  0
 19 45  1  0  0  0  0
 19 46  1  0  0  0  0
 20 47  1  0  0  0  0
 20 48  1  0  0  0  0
 21 22  1  0  0  0  0
 21 49  1  0  0  0  0
 21 50  1  0  0  0  0
 22 51  1  0  0  0  0
 22 52  1  0  0  0  0
 23 24  2  0  0  0  0
 23 53  1  0  0  0  0
 24 56  1  0  0  0  0
M  CHG  1  13   1
M  CHG  1  17   1
M  CHG  1  24   1
M  END
> <s_m_source_file>
AV-unprocessed.smi

> <i_m_source_file_index>
2772

> <i_lp_mmshare_version>
43012

> <i_f3d_flags>
0

> <s_epik_input>
W0NIM11jMVtjSF1bY0hdYyhbY0hdbjEpW05IXUMoPU8pW05IXVtDSF0yW0NIMl1bQ0gyXU4oW0NIMl1bQ0gyXTIpW0NIXTNbQ0gyXVtDSDJdTihbQ0gzXSlbQ0gyXVtDSDJdMw==

> <s_epik_cmdline>
J2VwaWtfcHl0aG9uJywgJy1waCcsICc3LjAnLCAnLXRuJywgJzgnLCAnLW1hJywgJzIwMCcsICctbWV0YWxfYmluZGluZycsICctaW1hZScsICc8aW5maWxlLm1hZT4nLCAnLW9tYWUnLCAnPG91dGZpbGUubWFlPic=

> <r_epik_Ionization_Penalty>
2.34117

> <r_epik_Ionization_Penalty_Charging>
2.34115

> <r_epik_Ionization_Penalty_Neutral>
2.22786e-05

> <r_epik_State_Penalty>
2.43944

> <r_epik_Charging_Adjusted_Penalty>
4.78059

> <i_epik_Tot_Q>
3

> <i_epik_Tot_abs_Q>
3

> <r_epik_Metal_State_Penalty>
2.45906

> <b_epik_Metal_Only>
0

> <s_lp_Force_Field>
OPLS_2005

> <r_lp_Energy>
56.0688

> <b_lp_Chiralities_Consistent>
1

> <s_lp_Variant>
AV-unprocessed.smi:2772-11

> <Gold.Version>
5.8.1

> <Gold.Id.Protein>
6NUR|6NUR_protein|mol2

> <Gold.PLP.Fitness>
45.4241

> <Gold.PLP.PLP>
-45.6299

> <Gold.PLP.part.hbond>
0.0000

> <Gold.PLP.part.metal>
0.0000

> <Gold.PLP.part.buried>
-5.8571

> <Gold.PLP.part.nonpolar>
-39.7001

> <Gold.PLP.part.repulsive>
0.1644

> <Gold.PLP.ligand.clash>
0.0000

> <Gold.PLP.ligand.torsion>
0.1163

> <Gold.PLP.Chemscore.Hbond>
0.0000

> <Gold.PLP.Chemscore.CHOScore>
0.0000

> <Gold.PLP.Chemscore.Metal>
0.0000

> <Gold.PLP.Chemscore.Internal.Correction>
0.0269

> <Gold.Rescore>
     Score         DG    S(hbond)    S(metal)    S(lipo)     H(rot)  DE(clash)    DE(int)     intcor
     14.62     -17.25       0.00        0.00     127.31       1.22       0.24       2.39       ----

> <Gold.Chemscore.Fitness>
14.6206

> <Gold.Chemscore.DG>
-17.2465

> <Gold.Chemscore.ZeroCoef>
-5.4800

> <Gold.Chemscore.Hbond>
0.0000

> <Gold.Chemscore.Metal>
0.0000

> <Gold.Chemscore.Lipo>
127.3111

> <Gold.Chemscore.Internal_Hbond>
0.0000

> <Gold.Chemscore.DEClash>
0.2375

> <Gold.Chemscore.DEInternal>
2.3884

> <Gold.Chemscore.Rot>
1.2222

> <Gold.Chemscore.Internal.Correction>
   9.000000E+99

> <Gold.Chemscore.Hbond.Weighted>
-0.0000

> <Gold.Chemscore.Metal.Weighted>
-0.0000

> <Gold.Chemscore.Lipo.Weighted>
-14.8954

> <Gold.Chemscore.Internal_Hbond.Weighted>
0.0000

> <Gold.Chemscore.DEClash.Weighted>
0.2375

> <Gold.Chemscore.DEInternal.Weighted>
2.3884

> <Gold.Chemscore.Rot.Weighted>
3.1289

> <Gold.Chemscore.Internal.Correction.Weighted>
   9.000000E+99

> <Gold.Protein.RotatedTorsions>
[ 6907 6896 6895 6894 ] final -109.67 input  -60.11 | X-H torsion
[ 7974 7965 7964 7962 ] final -103.44 input  175.53 | X-H torsion
[ 8008 7997 7996 7995 ] final  143.00 input   59.86 | X-H torsion
[ 10167 10162 10161 10158 ] final -139.33 input  -65.29 | X-H torsion
[ 10718 10713 10712 10709 ] final   63.14 input   66.30 | X-H torsion
[ 10763 10752 10751 10750 ] final  -91.72 input  -60.55 | X-H torsion
[ 11005 11000 10999 10996 ] final   24.97 input  -57.11 | X-H torsion

> <Gold.Protein.ActiveResidues>
 VAL166  LYS551  ARG553  GLY616  TRP617  ASP618  TYR619  PRO620  LYS621  CYS622 
 ASP623  PHE694  ASN695  SER759  ASP760  ASP761  ALA762  ILE779  LEU786  VAL792 
 PHE793  MET794  SER795  GLU796  ALA797  LYS798  CYS799  TRP800  GLU811  SER814 

> <Gold.Protein.RotatedAtoms>
  150.7576  133.9495  159.3480 H   0  0  0  0  0  0  0  0  0  0  0  0  # atno 6907 bound_to 6896
  151.7411  135.0852  160.0325 H   0  0  0  0  0  0  0  0  0  0  0  0  # atno 6908 bound_to 6896
  152.3528  133.6163  159.5993 H   0  0  0  0  0  0  0  0  0  0  0  0  # atno 6909 bound_to 6896
  145.2558  140.9253  143.3069 H   0  0  0  0  0  0  0  0  0  0  0  0  # atno 7974 bound_to 7965
  156.2939  140.2274  156.4820 H   0  0  0  0  0  0  0  0  0  0  0  0  # atno 8008 bound_to 7997
  154.7845  140.0458  157.1174 H   0  0  0  0  0  0  0  0  0  0  0  0  # atno 8009 bound_to 7997
  154.9719  140.3067  155.4987 H   0  0  0  0  0  0  0  0  0  0  0  0  # atno 8010 bound_to 7997
  139.8390  143.7347  152.2664 H   0  0  0  0  0  0  0  0  0  0  0  0  # atno 10167 bound_to 10162
  157.5950  130.9089  149.9677 H   0  0  0  0  0  0  0  0  0  0  0  0  # atno 10718 bound_to 10713
  154.6789  135.5257  153.8236 H   0  0  0  0  0  0  0  0  0  0  0  0  # atno 10763 bound_to 10752
  153.0551  135.6547  154.0607 H   0  0  0  0  0  0  0  0  0  0  0  0  # atno 10764 bound_to 10752
  154.0497  135.2970  155.3322 H   0  0  0  0  0  0  0  0  0  0  0  0  # atno 10765 bound_to 10752
  140.3530  134.2208  155.7678 H   0  0  0  0  0  0  0  0  0  0  0  0  # atno 11005 bound_to 11000
  144.9462  139.4133  143.6425 LP  0  0  0  0  0  0  0  0  0  0  0  0  # atno 17320 bound_to 7965
  146.3289  139.8447  142.8884 LP  0  0  0  0  0  0  0  0  0  0  0  0  # atno 17321 bound_to 7965
  139.7578  144.7515  151.0409 LP  0  0  0  0  0  0  0  0  0  0  0  0  # atno 17342 bound_to 10162
  140.7800  143.4786  151.0049 LP  0  0  0  0  0  0  0  0  0  0  0  0  # atno 17343 bound_to 10162
  156.1011  130.3656  150.0217 LP  0  0  0  0  0  0  0  0  0  0  0  0  # atno 17370 bound_to 10713
  156.8332  130.9399  151.3636 LP  0  0  0  0  0  0  0  0  0  0  0  0  # atno 17371 bound_to 10713
  141.2007  133.7982  157.0478 LP  0  0  0  0  0  0  0  0  0  0  0  0  # atno 17394 bound_to 11000
  140.0688  134.9714  157.1432 LP  0  0  0  0  0  0  0  0  0  0  0  0  # atno 17395 bound_to 11000

$$$$
