AV-unprocessed.smi:50|AV-procd|sdf|495|dock1
  -GOLD-   2262016363D 1   1.00000     0.00000
 Structure written by MMmdl.
 43 44  0  0  0  0  0  0  0  0  3 V2000
  145.0188  132.6985  150.3821 C   0  0  0  0  0  0  0  0  0  0  0  0
  145.7358  134.0513  150.5519 C   0  0  0  0  0  0  0  0  0  0  0  0
  146.7797  133.9332  151.6796 C   0  0  0  0  0  0  0  0  0  0  0  0
  144.7185  135.2072  150.7618 C   0  0  2  0  0  0  0  0  0  0  0  0
  143.9497  135.4670  149.5290 N   0  3  0  0  0  0  0  0  0  0  0  0
  145.3628  136.5443  151.1756 C   0  0  0  0  0  0  0  0  0  0  0  0
  146.1727  137.1721  150.4902 O   0  0  0  0  0  0  0  0  0  0  0  0
  144.9188  136.9198  152.3900 O   0  0  0  0  0  0  0  0  0  0  0  0
  145.1846  138.2220  152.8953 C   0  0  0  0  0  0  0  0  0  0  0  0
  146.6954  138.4253  153.0599 C   0  0  0  0  0  0  0  0  0  0  0  0
  146.9932  138.7157  154.4191 O   0  0  0  0  0  0  0  0  0  0  0  0
  147.3066  140.0467  154.6804 C   0  0  0  0  0  0  0  0  0  0  0  0
  148.7486  140.1547  154.8195 N   0  0  0  0  0  0  0  0  0  0  0  0
  149.4592  141.2958  154.9099 C   0  0  0  0  0  0  0  0  0  0  0  0
  150.7738  141.1416  155.0598 N   0  0  0  0  0  0  0  0  0  0  0  0
  150.9059  139.7586  155.0517 C   0  0  0  0  0  0  0  0  0  0  0  0
  152.0911  138.8843  155.2217 C   0  0  0  0  0  0  0  0  0  0  0  0
  153.1972  139.3998  155.3681 O   0  0  0  0  0  0  0  0  0  0  0  0
  151.8334  137.5423  155.2328 N   0  5  0  0  0  0  0  0  0  0  0  0
  150.5274  137.0682  155.0480 C   0  0  0  0  0  0  0  0  0  0  0  0
  150.4515  135.6929  155.0540 N   0  0  0  0  0  0  0  0  0  0  0  0
  149.4402  137.7803  154.8809 N   0  0  0  0  0  0  0  0  0  0  0  0
  149.6944  139.1385  154.9067 C   0  0  0  0  0  0  0  0  0  0  0  0
  144.0044  134.9118  151.5316 H   0  0  0  0  0  0  0  0  0  0  0  0
  144.4201  132.4577  151.2613 H   0  0  0  0  0  0  0  0  0  0  0  0
  145.7349  131.8886  150.2385 H   0  0  0  0  0  0  0  0  0  0  0  0
  144.3564  132.6924  149.5164 H   0  0  0  0  0  0  0  0  0  0  0  0
  146.2833  134.2449  149.6279 H   0  0  0  0  0  0  0  0  0  0  0  0
  146.2989  133.8285  152.6531 H   0  0  0  0  0  0  0  0  0  0  0  0
  147.4369  134.8018  151.7197 H   0  0  0  0  0  0  0  0  0  0  0  0
  147.4213  133.0637  151.5327 H   0  0  0  0  0  0  0  0  0  0  0  0
  143.0676  134.9762  149.5782 H   0  0  0  0  0  0  0  0  0  0  0  0
  144.4712  135.1361  148.7300 H   0  0  0  0  0  0  0  0  0  0  0  0
  144.8109  138.9304  152.1560 H   0  0  0  0  0  0  0  0  0  0  0  0
  144.6488  138.4301  153.8225 H   0  0  0  0  0  0  0  0  0  0  0  0
  147.2246  137.5549  152.6732 H   0  0  0  0  0  0  0  0  0  0  0  0
  147.0238  139.2762  152.4629 H   0  0  0  0  0  0  0  0  0  0  0  0
  146.9484  140.7356  153.9131 H   0  0  0  0  0  0  0  0  0  0  0  0
  146.8524  140.3258  155.6315 H   0  0  0  0  0  0  0  0  0  0  0  0
  148.9953  142.2707  154.8780 H   0  0  0  0  0  0  0  0  0  0  0  0
  151.2515  135.0901  155.1783 H   0  0  0  0  0  0  0  0  0  0  0  0
  149.5818  135.1879  154.9647 H   0  0  0  0  0  0  0  0  0  0  0  0
  143.7771  136.4577  149.4402 H   0  0  0  0  0  0  0  0  0  0  0  0
  1  2  1  0  0  0  0
  1 25  1  0  0  0  0
  1 26  1  0  0  0  0
  1 27  1  0  0  0  0
  2  3  1  0  0  0  0
  2  4  1  0  0  0  0
  2 28  1  0  0  0  0
  3 29  1  0  0  0  0
  3 30  1  0  0  0  0
  3 31  1  0  0  0  0
  4 24  1  0  0  0  0
  4  5  1  0  0  0  0
  4  6  1  0  0  0  0
  5 32  1  0  0  0  0
  5 33  1  0  0  0  0
  5 43  1  0  0  0  0
  6  7  2  0  0  0  0
  6  8  1  0  0  0  0
  8  9  1  0  0  0  0
  9 10  1  0  0  0  0
  9 34  1  0  0  0  0
  9 35  1  0  0  0  0
 10 11  1  0  0  0  0
 10 36  1  0  0  0  0
 10 37  1  0  0  0  0
 11 12  1  0  0  0  0
 12 13  1  0  0  0  0
 12 38  1  0  0  0  0
 12 39  1  0  0  0  0
 13 23  1  0  0  0  0
 13 14  1  0  0  0  0
 14 15  2  0  0  0  0
 14 40  1  0  0  0  0
 15 16  1  0  0  0  0
 16 23  2  0  0  0  0
 16 17  1  0  0  0  0
 17 18  2  0  0  0  0
 17 19  1  0  0  0  0
 19 20  1  0  0  0  0
 20 21  1  0  0  0  0
 20 22  2  0  0  0  0
 21 41  1  0  0  0  0
 21 42  1  0  0  0  0
 22 23  1  0  0  0  0
M  CHG  1   5   1
M  CHG  1  19  -1
M  END
> <s_m_source_file>
AV-unprocessed.smi

> <i_m_source_file_index>
50

> <i_lp_mmshare_version>
43012

> <i_f3d_flags>
0

> <s_epik_input>
W0NIM11bQ0hdKFtDSDNdKVtDQEhdKFtOSDJdKUMoPU8pT1tDSDJdW0NIMl1PW0NIMl1uKFtjSF1uMSljKGMxMiluYyhbTkgyXSlbbkhdYzI9Tw==

> <s_epik_cmdline>
J2VwaWtfcHl0aG9uJywgJy1waCcsICc3LjAnLCAnLXRuJywgJzgnLCAnLW1hJywgJzIwMCcsICctbWV0YWxfYmluZGluZycsICctaW1hZScsICc8aW5maWxlLm1hZT4nLCAnLW9tYWUnLCAnPG91dGZpbGUubWFlPic=

> <r_lp_tautomer_probability>
0.99994

> <r_epik_Ionization_Penalty>
3.77459

> <r_epik_Ionization_Penalty_Charging>
0.215994

> <r_epik_Ionization_Penalty_Neutral>
3.5586

> <r_epik_State_Penalty>
3.75449

> <r_epik_Charging_Adjusted_Penalty>
3.97048

> <i_epik_Tot_Q>
0

> <i_epik_Tot_abs_Q>
2

> <r_epik_Metal_State_Penalty>
0.723824

> <b_epik_Metal_Only>
1

> <s_epik_Chemistry_Notes>
This compound has an ester and may undergo hydrolysis at high or low pH. This compound contains an acetal/aminal-like group ( X-CH(R)-Y where X, Y are N, S, or O) that may be acid/base labile, releasing an aldehyde.

> <s_lp_Force_Field>
OPLS_2005

> <r_lp_Energy>
6.41072

> <b_lp_Chiralities_Consistent>
1

> <s_lp_Variant>
AV-unprocessed.smi:50-5

> <Gold.Version>
5.8.1

> <Gold.Id.Protein>
6NUR|6NUR_protein|mol2

> <Gold.PLP.Fitness>
50.3644

> <Gold.PLP.PLP>
-32.2419

> <Gold.PLP.part.hbond>
-5.4918

> <Gold.PLP.part.metal>
0.0000

> <Gold.PLP.part.buried>
-1.9578

> <Gold.PLP.part.nonpolar>
-27.5535

> <Gold.PLP.part.repulsive>
1.7341

> <Gold.PLP.ligand.clash>
0.0000

> <Gold.PLP.ligand.torsion>
1.3316

> <Gold.PLP.Chemscore.Hbond>
6.8196

> <Gold.PLP.Chemscore.CHOScore>
0.0000

> <Gold.PLP.Chemscore.Metal>
0.0000

> <Gold.Chemscore.Hbonds>
donor molecule, donor type, donor heavy atom, donor atom, acceptor molecule, acceptor atom, score
      L1  H     5    32       P1 10186  1.56
      L1  H     5    33       P1  7921  1.00
      L1  H     5    43       P1 10171  0.78
      P1  H  7954  7966       L1     7  0.54
      P1  H  7997  8009       L1    18  0.96
      P1  H 10752 10765       L1    19  0.37
      L1  C    14    40       P1  8028  0.92

> <Gold.PLP.Chemscore.Internal.Correction>
0.3268

> <Gold.Rescore>
     Score         DG    S(hbond)    S(metal)    S(lipo)     H(rot)  DE(clash)    DE(int)     intcor
      4.36     -12.75       4.30        0.00      45.19       4.83       3.45       4.94       ----

> <Gold.Chemscore.Fitness>
4.3553

> <Gold.Chemscore.DG>
-12.7466

> <Gold.Chemscore.ZeroCoef>
-5.4800

> <Gold.Chemscore.Hbond>
4.2956

> <Gold.Chemscore.Metal>
0.0000

> <Gold.Chemscore.Lipo>
45.1897

> <Gold.Chemscore.Internal_Hbond>
0.0000

> <Gold.Chemscore.DEClash>
3.4530

> <Gold.Chemscore.DEInternal>
4.9383

> <Gold.Chemscore.Rot>
4.8312

> <Gold.Chemscore.Internal.Correction>
   9.000000E+99

> <Gold.Chemscore.Hbonds>
donor molecule, donor type, donor heavy atom, donor atom, acceptor molecule, acceptor atom, score
      L1  H     5    32       P1 10186  0.54
      L1  H     5    33       P1  7921  0.94
      L1  H     5    43       P1 10171  0.69
      P1  H  7954  7966       L1     7  0.52
      P1  H  7997  8009       L1    18  0.92
      P1  H 10752 10765       L1    19  0.05

> <Gold.Chemscore.Hbond.Weighted>
-14.3473

> <Gold.Chemscore.Metal.Weighted>
-0.0000

> <Gold.Chemscore.Lipo.Weighted>
-5.2872

> <Gold.Chemscore.Internal_Hbond.Weighted>
0.0000

> <Gold.Chemscore.DEClash.Weighted>
3.4530

> <Gold.Chemscore.DEInternal.Weighted>
4.9383

> <Gold.Chemscore.Rot.Weighted>
12.3678

> <Gold.Chemscore.Internal.Correction.Weighted>
   9.000000E+99

> <Gold.Protein.RotatedTorsions>
[ 6907 6896 6895 6894 ] final -140.35 input  -60.11 | X-H torsion
[ 7974 7965 7964 7962 ] final  156.35 input  175.53 | X-H torsion
[ 8008 7997 7996 7995 ] final -162.70 input   59.86 | X-H torsion
[ 10167 10162 10161 10158 ] final   28.25 input  -65.29 | X-H torsion
[ 10718 10713 10712 10709 ] final -123.93 input   66.30 | X-H torsion
[ 10763 10752 10751 10750 ] final -167.36 input  -60.55 | X-H torsion
[ 11005 11000 10999 10996 ] final -157.64 input  -57.11 | X-H torsion

> <Gold.Protein.ActiveResidues>
 VAL166  LYS551  ARG553  GLY616  TRP617  ASP618  TYR619  PRO620  LYS621  CYS622 
 ASP623  PHE694  ASN695  SER759  ASP760  ASP761  ALA762  ILE779  LEU786  VAL792 
 PHE793  MET794  SER795  GLU796  ALA797  LYS798  CYS799  TRP800  GLU811  SER814 

> <Gold.Protein.RotatedAtoms>
  151.0595  133.5556  159.2635 H   0  0  0  0  0  0  0  0  0  0  0  0  # atno 6907 bound_to 6896
  151.2536  135.0630  159.9081 H   0  0  0  0  0  0  0  0  0  0  0  0  # atno 6908 bound_to 6896
  152.5395  134.0352  159.8096 H   0  0  0  0  0  0  0  0  0  0  0  0  # atno 6909 bound_to 6896
  144.7968  139.7192  143.6198 H   0  0  0  0  0  0  0  0  0  0  0  0  # atno 7974 bound_to 7965
  155.8106  140.0905  157.1906 H   0  0  0  0  0  0  0  0  0  0  0  0  # atno 8008 bound_to 7997
  154.3980  140.1455  156.3441 H   0  0  0  0  0  0  0  0  0  0  0  0  # atno 8009 bound_to 7997
  155.8369  140.3440  155.5610 H   0  0  0  0  0  0  0  0  0  0  0  0  # atno 8010 bound_to 7997
  140.4869  144.0529  150.6283 H   0  0  0  0  0  0  0  0  0  0  0  0  # atno 10167 bound_to 10162
  156.1544  130.6557  150.9960 H   0  0  0  0  0  0  0  0  0  0  0  0  # atno 10718 bound_to 10713
  154.6740  135.2944  154.9704 H   0  0  0  0  0  0  0  0  0  0  0  0  # atno 10763 bound_to 10752
  154.0721  135.6616  153.4830 H   0  0  0  0  0  0  0  0  0  0  0  0  # atno 10764 bound_to 10752
  153.0504  135.5177  154.7750 H   0  0  0  0  0  0  0  0  0  0  0  0  # atno 10765 bound_to 10752
  140.6624  134.4334  157.5234 H   0  0  0  0  0  0  0  0  0  0  0  0  # atno 11005 bound_to 11000
  146.2239  139.5686  142.9600 LP  0  0  0  0  0  0  0  0  0  0  0  0  # atno 17320 bound_to 7965
  145.5652  141.0400  143.2204 LP  0  0  0  0  0  0  0  0  0  0  0  0  # atno 17321 bound_to 7965
  140.3787  143.2815  152.0196 LP  0  0  0  0  0  0  0  0  0  0  0  0  # atno 17342 bound_to 10162
  139.4843  144.6172  151.7323 LP  0  0  0  0  0  0  0  0  0  0  0  0  # atno 17343 bound_to 10162
  157.6683  131.0867  150.7674 LP  0  0  0  0  0  0  0  0  0  0  0  0  # atno 17370 bound_to 10713
  156.7740  130.4838  149.5413 LP  0  0  0  0  0  0  0  0  0  0  0  0  # atno 17371 bound_to 10713
  139.9008  134.8560  156.1903 LP  0  0  0  0  0  0  0  0  0  0  0  0  # atno 17394 bound_to 11000
  141.0455  133.6916  156.1675 LP  0  0  0  0  0  0  0  0  0  0  0  0  # atno 17395 bound_to 11000

$$$$
