AV-unprocessed.smi:72|AV-procd|sdf|674|dock10
  -GOLD-   2262016583D 1   1.00000     0.00000
 Structure written by MMmdl.
 29 30  0  0  0  0  0  0  0  0  1 V2000
  152.1594  136.9214  159.7644 N   0  0  0  0  0  0  0  0  0  0  0  0
  151.7559  137.7852  158.9026 C   0  0  0  0  0  0  0  0  0  0  0  0
  150.5368  138.4758  158.9566 N   0  0  0  0  0  0  0  0  0  0  0  0
  150.2757  139.3508  158.0353 C   0  0  0  0  0  0  0  0  0  0  0  0
  151.2224  139.6760  156.9739 N   0  0  0  0  0  0  0  0  0  0  0  0
  150.8822  140.6763  155.8760 C   0  0  1  0  0  0  0  0  0  0  0  0
  150.6947  140.0001  154.6619 O   0  0  0  0  0  0  0  0  0  0  0  0
  149.3155  139.9192  154.3054 C   0  0  1  0  0  0  0  0  0  0  0  0
  148.6624  138.6543  154.9086 C   0  0  0  0  0  0  0  0  0  0  0  0
  149.2673  137.4983  154.3695 O   0  0  0  0  0  0  0  0  0  0  0  0
  148.7858  141.2486  154.8522 C   0  0  1  0  0  0  0  0  0  0  0  0
  147.3894  141.2430  155.0767 O   0  0  0  0  0  0  0  0  0  0  0  0
  149.5640  141.4423  156.1472 C   0  0  2  0  0  0  0  0  0  0  0  0
  149.7888  142.8226  156.3528 O   0  0  0  0  0  0  0  0  0  0  0  0
  152.4067  138.9036  156.8488 C   0  0  0  0  0  0  0  0  0  0  0  0
  153.1839  139.0268  155.9027 O   0  0  0  0  0  0  0  0  0  0  0  0
  152.6361  138.0136  157.8382 N   0  0  0  0  0  0  0  0  0  0  0  0
  151.7647  141.3148  155.8081 H   0  0  0  0  0  0  0  0  0  0  0  0
  149.2115  139.8960  153.2197 H   0  0  0  0  0  0  0  0  0  0  0  0
  149.0317  142.0385  154.1400 H   0  0  0  0  0  0  0  0  0  0  0  0
  149.0297  140.9972  156.9881 H   0  0  0  0  0  0  0  0  0  0  0  0
  151.4776  136.8081  160.5001 H   0  0  0  0  0  0  0  0  0  0  0  0
  149.3308  139.8936  158.0067 H   0  0  0  0  0  0  0  0  0  0  0  0
  148.7044  138.6386  155.9965 H   0  0  0  0  0  0  0  0  0  0  0  0
  147.6084  138.6024  154.6367 H   0  0  0  0  0  0  0  0  0  0  0  0
  149.0060  137.4161  153.4650 H   0  0  0  0  0  0  0  0  0  0  0  0
  147.1215  142.1202  155.3048 H   0  0  0  0  0  0  0  0  0  0  0  0
  148.9541  143.2399  156.5051 H   0  0  0  0  0  0  0  0  0  0  0  0
  153.4851  137.4698  157.7866 H   0  0  0  0  0  0  0  0  0  0  0  0
  1  2  2  0  0  0  0
  1 22  1  0  0  0  0
  2 17  1  0  0  0  0
  2  3  1  0  0  0  0
  3  4  2  0  0  0  0
  4  5  1  0  0  0  0
  4 23  1  0  0  0  0
  5  6  1  0  0  0  0
  5 15  1  0  0  0  0
  6 18  1  0  0  0  0
  6 13  1  0  0  0  0
  6  7  1  0  0  0  0
  7  8  1  0  0  0  0
  8 19  1  0  0  0  0
  8  9  1  0  0  0  0
  8 11  1  0  0  0  0
  9 10  1  0  0  0  0
  9 24  1  0  0  0  0
  9 25  1  0  0  0  0
 10 26  1  0  0  0  0
 11 20  1  0  0  0  0
 11 12  1  0  0  0  0
 11 13  1  0  0  0  0
 12 27  1  0  0  0  0
 13 21  1  0  0  0  0
 13 14  1  0  0  0  0
 14 28  1  0  0  0  0
 15 16  2  0  0  0  0
 15 17  1  0  0  0  0
 17 29  1  0  0  0  0
M  END
> <s_m_source_file>
AV-unprocessed.smi

> <i_m_source_file_index>
72

> <i_lp_mmshare_version>
43012

> <i_f3d_flags>
0

> <s_epik_input>
W05IMl1jMW5bY0hdbihjKD1PKW4xKVtDQEBIXTJPW0NASF0oW0NIMl1bT0hdKVtDQEBIXShbT0hdKVtDQEhdMltPSF0=

> <s_epik_cmdline>
J2VwaWtfcHl0aG9uJywgJy1waCcsICc3LjAnLCAnLXRuJywgJzgnLCAnLW1hJywgJzIwMCcsICctbWV0YWxfYmluZGluZycsICctaW1hZScsICc8aW5maWxlLm1hZT4nLCAnLW9tYWUnLCAnPG91dGZpbGUubWFlPic=

> <r_lp_tautomer_probability>
7.17554e-07

> <r_epik_Ionization_Penalty>
0.0066451

> <r_epik_Ionization_Penalty_Charging>
0.00663793

> <r_epik_Ionization_Penalty_Neutral>
7.17052e-06

> <r_epik_State_Penalty>
0.419231

> <r_epik_Charging_Adjusted_Penalty>
0.425868

> <i_epik_Tot_Q>
0

> <i_epik_Tot_abs_Q>
0

> <r_epik_Metal_State_Penalty>
1.44144

> <b_epik_Metal_Only>
0

> <s_epik_Chemistry_Notes>
This compound contains an acetal/aminal-like group ( X-CH(R)-Y where X, Y are N, S, or O) that may be acid/base labile, releasing an aldehyde.

> <s_lp_Force_Field>
OPLS_2005

> <r_lp_Energy>
41.469

> <b_lp_Chiralities_Consistent>
1

> <s_lp_Variant>
AV-unprocessed.smi:72-12

> <Gold.Version>
5.8.1

> <Gold.Id.Protein>
6NUR|6NUR_protein|mol2

> <Gold.PLP.Fitness>
38.1561

> <Gold.PLP.PLP>
-23.2614

> <Gold.PLP.part.hbond>
-6.6158

> <Gold.PLP.part.metal>
0.0000

> <Gold.PLP.part.buried>
0.9379

> <Gold.PLP.part.nonpolar>
-16.4612

> <Gold.PLP.part.repulsive>
0.1680

> <Gold.PLP.ligand.clash>
0.0000

> <Gold.PLP.ligand.torsion>
0.1051

> <Gold.PLP.Chemscore.Hbond>
5.0021

> <Gold.PLP.Chemscore.CHOScore>
0.0000

> <Gold.PLP.Chemscore.Metal>
0.0000

> <Gold.Chemscore.Hbonds>
donor molecule, donor type, donor heavy atom, donor atom, acceptor molecule, acceptor atom, score
      L1  H    10    26       P1  7948  0.91
      L1  H    14    28       P1  8028  0.21
      P1  H  7989  7998       L1     7  1.00
      P1  H  7997  8009       L1    16  1.00

> <Gold.PLP.Chemscore.Internal.Correction>
0.0987

> <Gold.Rescore>
     Score         DG    S(hbond)    S(metal)    S(lipo)     H(rot)  DE(clash)    DE(int)     intcor
      7.74     -10.09       3.49        0.00      28.65       4.06       1.07       1.28       ----

> <Gold.Chemscore.Fitness>
7.7363

> <Gold.Chemscore.DG>
-10.0859

> <Gold.Chemscore.ZeroCoef>
-5.4800

> <Gold.Chemscore.Hbond>
3.4872

> <Gold.Chemscore.Metal>
0.0000

> <Gold.Chemscore.Lipo>
28.6526

> <Gold.Chemscore.Internal_Hbond>
0.0000

> <Gold.Chemscore.DEClash>
1.0661

> <Gold.Chemscore.DEInternal>
1.2835

> <Gold.Chemscore.Rot>
4.0600

> <Gold.Chemscore.Internal.Correction>
   9.000000E+99

> <Gold.Chemscore.Hbonds>
donor molecule, donor type, donor heavy atom, donor atom, acceptor molecule, acceptor atom, score
      L1  H    10    26       P1  7948  0.88
      L1  H    14    28       P1  8028  0.22
      P1  H  7989  7998       L1     7  0.45
      P1  H  7997  8009       L1    16  0.53

> <Gold.Chemscore.Hbond.Weighted>
-11.6471

> <Gold.Chemscore.Metal.Weighted>
-0.0000

> <Gold.Chemscore.Lipo.Weighted>
-3.3524

> <Gold.Chemscore.Internal_Hbond.Weighted>
0.0000

> <Gold.Chemscore.DEClash.Weighted>
1.0661

> <Gold.Chemscore.DEInternal.Weighted>
1.2835

> <Gold.Chemscore.Rot.Weighted>
10.3936

> <Gold.Chemscore.Internal.Correction.Weighted>
   9.000000E+99

> <Gold.Protein.RotatedTorsions>
[ 6907 6896 6895 6894 ] final   17.63 input  -60.11 | X-H torsion
[ 7974 7965 7964 7962 ] final -150.44 input  175.53 | X-H torsion
[ 8008 7997 7996 7995 ] final -168.28 input   59.86 | X-H torsion
[ 10167 10162 10161 10158 ] final  -28.39 input  -65.29 | X-H torsion
[ 10718 10713 10712 10709 ] final  106.89 input   66.30 | X-H torsion
[ 10763 10752 10751 10750 ] final  166.76 input  -60.55 | X-H torsion
[ 11005 11000 10999 10996 ] final  166.10 input  -57.11 | X-H torsion

> <Gold.Protein.ActiveResidues>
 VAL166  LYS551  ARG553  GLY616  TRP617  ASP618  TYR619  PRO620  LYS621  CYS622 
 ASP623  PHE694  ASN695  SER759  ASP760  ASP761  ALA762  ILE779  LEU786  VAL792 
 PHE793  MET794  SER795  GLU796  ALA797  LYS798  CYS799  TRP800  GLU811  SER814 

> <Gold.Protein.RotatedAtoms>
  151.8526  135.0552  160.0460 H   0  0  0  0  0  0  0  0  0  0  0  0  # atno 6907 bound_to 6896
  152.2725  133.5390  159.5456 H   0  0  0  0  0  0  0  0  0  0  0  0  # atno 6908 bound_to 6896
  150.7157  134.0594  159.3868 H   0  0  0  0  0  0  0  0  0  0  0  0  # atno 6909 bound_to 6896
  144.7908  140.4932  143.5774 H   0  0  0  0  0  0  0  0  0  0  0  0  # atno 7974 bound_to 7965
  155.8892  140.1022  157.1430 H   0  0  0  0  0  0  0  0  0  0  0  0  # atno 8008 bound_to 7997
  154.4013  140.1314  156.4358 H   0  0  0  0  0  0  0  0  0  0  0  0  # atno 8009 bound_to 7997
  155.7553  140.3464  155.5173 H   0  0  0  0  0  0  0  0  0  0  0  0  # atno 8010 bound_to 7997
  140.7270  143.4014  151.1259 H   0  0  0  0  0  0  0  0  0  0  0  0  # atno 10167 bound_to 10162
  157.6650  131.0861  150.6074 H   0  0  0  0  0  0  0  0  0  0  0  0  # atno 10718 bound_to 10713
  154.3439  135.2753  155.2408 H   0  0  0  0  0  0  0  0  0  0  0  0  # atno 10763 bound_to 10752
  154.4667  135.5893  153.6296 H   0  0  0  0  0  0  0  0  0  0  0  0  # atno 10764 bound_to 10752
  152.9855  135.6078  154.3642 H   0  0  0  0  0  0  0  0  0  0  0  0  # atno 10765 bound_to 10752
  140.2629  134.7888  157.3606 H   0  0  0  0  0  0  0  0  0  0  0  0  # atno 11005 bound_to 11000
  145.5801  139.1488  143.3240 LP  0  0  0  0  0  0  0  0  0  0  0  0  # atno 17320 bound_to 7965
  146.2158  140.5931  142.9039 LP  0  0  0  0  0  0  0  0  0  0  0  0  # atno 17321 bound_to 7965
  139.7634  143.8602  152.3105 LP  0  0  0  0  0  0  0  0  0  0  0  0  # atno 17342 bound_to 10162
  139.8495  144.7171  150.9231 LP  0  0  0  0  0  0  0  0  0  0  0  0  # atno 17343 bound_to 10162
  156.6375  130.4449  149.5764 LP  0  0  0  0  0  0  0  0  0  0  0  0  # atno 17370 bound_to 10713
  156.2234  130.6751  151.1391 LP  0  0  0  0  0  0  0  0  0  0  0  0  # atno 17371 bound_to 10713
  140.1447  134.4927  155.8005 LP  0  0  0  0  0  0  0  0  0  0  0  0  # atno 17394 bound_to 11000
  141.2188  133.6839  156.7272 LP  0  0  0  0  0  0  0  0  0  0  0  0  # atno 17395 bound_to 11000

$$$$
