AV-unprocessed.smi:149|AV-procd|sdf|1235|dock6
  -GOLD-   2262018443D 1   1.00000     0.00000
 Structure written by MMmdl.
 60 64  0  0  0  0  0  0  0  0  2 V2000
  149.2298  141.4141  154.6596 C   0  0  0  0  0  0  0  0  0  0  0  0
  148.3432  141.0475  155.8673 C   0  0  1  0  0  0  0  0  0  0  0  0
  147.3143  139.9736  155.4753 C   0  0  0  0  0  0  0  0  0  0  0  0
  147.8697  138.6997  155.9166 N   0  0  0  0  0  0  0  0  0  0  0  0
  147.5886  137.5439  155.2607 C   0  0  0  0  0  0  0  0  0  0  0  0
  148.1840  136.3950  155.6774 N   0  0  0  0  0  0  0  0  0  0  0  0
  147.9330  135.2384  155.0584 C   0  0  0  0  0  0  0  0  0  0  0  0
  147.1274  135.0060  154.0219 N   0  0  0  0  0  0  0  0  0  0  0  0
  146.5129  136.1492  153.6025 C   0  0  0  0  0  0  0  0  0  0  0  0
  146.6845  137.4492  154.1616 C   0  0  0  0  0  0  0  0  0  0  0  0
  145.8852  138.3598  153.4800 N   0  0  0  0  0  0  0  0  0  0  0  0
  145.2858  137.6452  152.5682 C   0  0  0  0  0  0  0  0  0  0  0  0
  145.6034  136.3059  152.5677 N   0  0  0  0  0  0  0  0  0  0  0  0
  145.0824  135.3096  151.6730 C   0  0  0  0  0  0  0  0  0  0  0  0
  144.4483  134.0183  152.1928 C   0  0  0  0  0  0  0  0  0  0  0  0
  144.9711  133.2694  150.9458 C   0  0  0  0  0  0  0  0  0  0  0  0
  145.5541  131.8734  151.2203 C   0  0  0  0  0  0  0  0  0  0  0  0
  146.3818  131.4436  150.1583 O   0  0  0  0  0  0  0  0  0  0  0  0
  143.9764  133.1826  149.7706 C   0  0  0  0  0  0  0  0  0  0  0  0
  142.8566  132.3843  150.0968 O   0  0  0  0  0  0  0  0  0  0  0  0
  146.0072  134.4136  150.8476 C   0  0  0  0  0  0  0  0  0  0  0  0
  149.1490  138.9119  156.5766 C   0  0  0  0  0  0  0  0  0  0  0  0
  149.0985  140.3743  157.0316 C   0  0  1  0  0  0  0  0  0  0  0  0
  150.4186  140.9800  157.3638 N   0  3  0  0  0  0  0  0  0  0  0  0
  150.3183  142.4247  157.6957 C   0  0  0  0  0  0  0  0  0  0  0  0
  151.7097  143.0160  157.9754 C   0  0  0  0  0  0  0  0  0  0  0  0
  152.3279  142.2957  159.0332 O   0  0  0  0  0  0  0  0  0  0  0  0
  152.5147  140.9269  158.7004 C   0  0  0  0  0  0  0  0  0  0  0  0
  151.1512  140.2645  158.4400 C   0  0  0  0  0  0  0  0  0  0  0  0
  149.7631  140.5459  154.2717 H   0  0  0  0  0  0  0  0  0  0  0  0
  149.9697  142.1721  154.9139 H   0  0  0  0  0  0  0  0  0  0  0  0
  148.6259  141.8167  153.8460 H   0  0  0  0  0  0  0  0  0  0  0  0
  147.8309  141.9484  156.2067 H   0  0  0  0  0  0  0  0  0  0  0  0
  146.3718  140.1396  155.9981 H   0  0  0  0  0  0  0  0  0  0  0  0
  147.1115  139.9864  154.4036 H   0  0  0  0  0  0  0  0  0  0  0  0
  148.4517  134.3753  155.4493 H   0  0  0  0  0  0  0  0  0  0  0  0
  144.5889  138.0816  151.8677 H   0  0  0  0  0  0  0  0  0  0  0  0
  144.3824  135.8246  151.0124 H   0  0  0  0  0  0  0  0  0  0  0  0
  144.9005  133.6632  153.1200 H   0  0  0  0  0  0  0  0  0  0  0  0
  143.3620  134.0542  152.2817 H   0  0  0  0  0  0  0  0  0  0  0  0
  146.1260  131.8519  152.1481 H   0  0  0  0  0  0  0  0  0  0  0  0
  144.7569  131.1385  151.3367 H   0  0  0  0  0  0  0  0  0  0  0  0
  147.2612  131.3374  150.4878 H   0  0  0  0  0  0  0  0  0  0  0  0
  143.6268  134.1704  149.4693 H   0  0  0  0  0  0  0  0  0  0  0  0
  144.4470  132.7486  148.8881 H   0  0  0  0  0  0  0  0  0  0  0  0
  142.0753  132.8327  149.8113 H   0  0  0  0  0  0  0  0  0  0  0  0
  146.1987  134.7786  149.8381 H   0  0  0  0  0  0  0  0  0  0  0  0
  146.9439  134.1838  151.3576 H   0  0  0  0  0  0  0  0  0  0  0  0
  149.2740  138.2289  157.4177 H   0  0  0  0  0  0  0  0  0  0  0  0
  149.9638  138.7464  155.8703 H   0  0  0  0  0  0  0  0  0  0  0  0
  148.4689  140.4219  157.9227 H   0  0  0  0  0  0  0  0  0  0  0  0
  149.8537  142.9757  156.8785 H   0  0  0  0  0  0  0  0  0  0  0  0
  149.6783  142.5553  158.5698 H   0  0  0  0  0  0  0  0  0  0  0  0
  152.3349  142.9860  157.0814 H   0  0  0  0  0  0  0  0  0  0  0  0
  151.6209  144.0625  158.2672 H   0  0  0  0  0  0  0  0  0  0  0  0
  153.1644  140.8369  157.8282 H   0  0  0  0  0  0  0  0  0  0  0  0
  153.0221  140.4297  159.5271 H   0  0  0  0  0  0  0  0  0  0  0  0
  150.5541  140.2659  159.3531 H   0  0  0  0  0  0  0  0  0  0  0  0
  151.3172  139.2228  158.1662 H   0  0  0  0  0  0  0  0  0  0  0  0
  150.9871  140.9061  156.5323 H   0  0  0  0  0  0  0  0  0  0  0  0
  1  2  1  0  0  0  0
  1 30  1  0  0  0  0
  1 31  1  0  0  0  0
  1 32  1  0  0  0  0
  2 23  1  0  0  0  0
  2  3  1  0  0  0  0
  2 33  1  0  0  0  0
  3  4  1  0  0  0  0
  3 34  1  0  0  0  0
  3 35  1  0  0  0  0
  4  5  1  0  0  0  0
  4 22  1  0  0  0  0
  5 10  1  0  0  0  0
  5  6  2  0  0  0  0
  6  7  1  0  0  0  0
  7  8  2  0  0  0  0
  7 36  1  0  0  0  0
  8  9  1  0  0  0  0
  9 13  1  0  0  0  0
  9 10  2  0  0  0  0
 10 11  1  0  0  0  0
 11 12  2  0  0  0  0
 12 13  1  0  0  0  0
 12 37  1  0  0  0  0
 13 14  1  0  0  0  0
 14 21  1  0  0  0  0
 14 15  1  0  0  0  0
 14 38  1  0  0  0  0
 15 16  1  0  0  0  0
 15 39  1  0  0  0  0
 15 40  1  0  0  0  0
 16 17  1  0  0  0  0
 16 19  1  0  0  0  0
 16 21  1  0  0  0  0
 17 18  1  0  0  0  0
 17 41  1  0  0  0  0
 17 42  1  0  0  0  0
 18 43  1  0  0  0  0
 19 20  1  0  0  0  0
 19 44  1  0  0  0  0
 19 45  1  0  0  0  0
 20 46  1  0  0  0  0
 21 47  1  0  0  0  0
 21 48  1  0  0  0  0
 22 23  1  0  0  0  0
 22 49  1  0  0  0  0
 22 50  1  0  0  0  0
 23 24  1  0  0  0  0
 23 51  1  0  0  0  0
 24 29  1  0  0  0  0
 24 25  1  0  0  0  0
 24 60  1  0  0  0  0
 25 26  1  0  0  0  0
 25 52  1  0  0  0  0
 25 53  1  0  0  0  0
 26 27  1  0  0  0  0
 26 54  1  0  0  0  0
 26 55  1  0  0  0  0
 27 28  1  0  0  0  0
 28 29  1  0  0  0  0
 28 56  1  0  0  0  0
 28 57  1  0  0  0  0
 29 58  1  0  0  0  0
 29 59  1  0  0  0  0
M  CHG  1  24   1
M  END
> <s_m_source_file>
AV-unprocessed.smi

> <i_m_source_file_index>
149

> <i_lp_mmshare_version>
43012

> <i_f3d_flags>
0

> <s_epik_input>
W0NIMl0xW0NIMl1PW0NIMl1bQ0gyXU4xW0NAQEhdMltDSDJdTihbQ0gyXVtDQEhdMltDSDNdKWMobltjSF1uMyljKGMzNCluW2NIXW40W0NIXShbQ0gyXTUpW0NIMl1DNShbQ0gyXVtPSF0pW0NIMl1bT0hd

> <s_epik_cmdline>
J2VwaWtfcHl0aG9uJywgJy1waCcsICc3LjAnLCAnLXRuJywgJzgnLCAnLW1hJywgJzIwMCcsICctbWV0YWxfYmluZGluZycsICctaW1hZScsICc8aW5maWxlLm1hZT4nLCAnLW9tYWUnLCAnPG91dGZpbGUubWFlPic=

> <r_lp_tautomer_probability>
1

> <r_epik_Ionization_Penalty>
0.404847

> <r_epik_Ionization_Penalty_Charging>
0.404623

> <r_epik_Ionization_Penalty_Neutral>
0.000224096

> <r_epik_State_Penalty>
0.238803

> <r_epik_Charging_Adjusted_Penalty>
0.643425

> <i_epik_Tot_Q>
1

> <i_epik_Tot_abs_Q>
1

> <r_epik_Metal_State_Penalty>
0.239083

> <b_epik_Metal_Only>
0

> <s_lp_Force_Field>
OPLS_2005

> <r_lp_Energy>
70.5457

> <b_lp_Chiralities_Consistent>
1

> <s_lp_Variant>
AV-unprocessed.smi:149-2

> <Gold.Version>
5.8.1

> <Gold.Id.Protein>
6NUR|6NUR_protein|mol2

> <Gold.PLP.Fitness>
44.7429

> <Gold.PLP.PLP>
-34.1542

> <Gold.PLP.part.hbond>
-3.0000

> <Gold.PLP.part.metal>
0.0000

> <Gold.PLP.part.buried>
-5.7492

> <Gold.PLP.part.nonpolar>
-25.9786

> <Gold.PLP.part.repulsive>
0.8577

> <Gold.PLP.ligand.clash>
0.0000

> <Gold.PLP.ligand.torsion>
0.4540

> <Gold.PLP.Chemscore.Hbond>
2.0000

> <Gold.PLP.Chemscore.CHOScore>
1.5948

> <Gold.PLP.Chemscore.Metal>
0.0000

> <Gold.Chemscore.Hbonds>
donor molecule, donor type, donor heavy atom, donor atom, acceptor molecule, acceptor atom, score
      L1  H    18    43       P1 10747  1.00
      L1  H    20    46       P1 10186  1.00
      L1  C    12    37       P1 10171  1.00
      L1  C    12    37       P1 10175  0.62

> <Gold.PLP.Chemscore.Internal.Correction>
0.7123

> <Gold.Rescore>
     Score         DG    S(hbond)    S(metal)    S(lipo)     H(rot)  DE(clash)    DE(int)     intcor
     12.45     -14.43       1.96        0.00      88.28       3.09       0.32       1.67       ----

> <Gold.Chemscore.Fitness>
12.4483

> <Gold.Chemscore.DG>
-14.4319

> <Gold.Chemscore.ZeroCoef>
-5.4800

> <Gold.Chemscore.Hbond>
1.9571

> <Gold.Chemscore.Metal>
0.0000

> <Gold.Chemscore.Lipo>
88.2789

> <Gold.Chemscore.Internal_Hbond>
0.0000

> <Gold.Chemscore.DEClash>
0.3172

> <Gold.Chemscore.DEInternal>
1.6664

> <Gold.Chemscore.Rot>
3.0912

> <Gold.Chemscore.Internal.Correction>
   9.000000E+99

> <Gold.Chemscore.Hbonds>
donor molecule, donor type, donor heavy atom, donor atom, acceptor molecule, acceptor atom, score
      L1  H    18    43       P1 10747  0.95
      L1  H    20    46       P1 10186  0.97

> <Gold.Chemscore.Hbond.Weighted>
-6.5368

> <Gold.Chemscore.Metal.Weighted>
-0.0000

> <Gold.Chemscore.Lipo.Weighted>
-10.3286

> <Gold.Chemscore.Internal_Hbond.Weighted>
0.0000

> <Gold.Chemscore.DEClash.Weighted>
0.3172

> <Gold.Chemscore.DEInternal.Weighted>
1.6664

> <Gold.Chemscore.Rot.Weighted>
7.9135

> <Gold.Chemscore.Internal.Correction.Weighted>
   9.000000E+99

> <Gold.Protein.RotatedTorsions>
[ 6907 6896 6895 6894 ] final  135.16 input  -60.11 | X-H torsion
[ 7974 7965 7964 7962 ] final  -34.05 input  175.53 | X-H torsion
[ 8008 7997 7996 7995 ] final -102.78 input   59.86 | X-H torsion
[ 10167 10162 10161 10158 ] final   78.66 input  -65.29 | X-H torsion
[ 10718 10713 10712 10709 ] final   -6.05 input   66.30 | X-H torsion
[ 10763 10752 10751 10750 ] final  -77.22 input  -60.55 | X-H torsion
[ 11005 11000 10999 10996 ] final   72.85 input  -57.11 | X-H torsion

> <Gold.Protein.ActiveResidues>
 VAL166  LYS551  ARG553  GLY616  TRP617  ASP618  TYR619  PRO620  LYS621  CYS622 
 ASP623  PHE694  ASN695  SER759  ASP760  ASP761  ALA762  ILE779  LEU786  VAL792 
 PHE793  MET794  SER795  GLU796  ALA797  LYS798  CYS799  TRP800  GLU811  SER814 

> <Gold.Protein.RotatedAtoms>
  152.3035  133.5679  159.5633 H   0  0  0  0  0  0  0  0  0  0  0  0  # atno 6907 bound_to 6896
  150.7288  134.0257  159.3725 H   0  0  0  0  0  0  0  0  0  0  0  0  # atno 6908 bound_to 6896
  151.8155  135.0668  160.0469 H   0  0  0  0  0  0  0  0  0  0  0  0  # atno 6909 bound_to 6896
  146.0861  140.5992  142.8886 H   0  0  0  0  0  0  0  0  0  0  0  0  # atno 7974 bound_to 7965
  154.8615  140.0426  157.1668 H   0  0  0  0  0  0  0  0  0  0  0  0  # atno 8008 bound_to 7997
  154.8835  140.2976  155.5391 H   0  0  0  0  0  0  0  0  0  0  0  0  # atno 8009 bound_to 7997
  156.2998  140.2407  156.3841 H   0  0  0  0  0  0  0  0  0  0  0  0  # atno 8010 bound_to 7997
  139.9686  144.5910  150.8006 H   0  0  0  0  0  0  0  0  0  0  0  0  # atno 10167 bound_to 10162
  156.7376  130.5199  149.5831 H   0  0  0  0  0  0  0  0  0  0  0  0  # atno 10718 bound_to 10713
  154.5101  135.5771  153.6598 H   0  0  0  0  0  0  0  0  0  0  0  0  # atno 10763 bound_to 10752
  152.9895  135.6156  154.2890 H   0  0  0  0  0  0  0  0  0  0  0  0  # atno 10764 bound_to 10752
  154.2804  135.2851  155.2679 H   0  0  0  0  0  0  0  0  0  0  0  0  # atno 10765 bound_to 10752
  139.9470  134.7296  156.0956 H   0  0  0  0  0  0  0  0  0  0  0  0  # atno 11005 bound_to 11000
  144.7326  140.4717  143.6926 LP  0  0  0  0  0  0  0  0  0  0  0  0  # atno 17320 bound_to 7965
  145.6128  139.1515  143.3066 LP  0  0  0  0  0  0  0  0  0  0  0  0  # atno 17321 bound_to 7965
  140.7529  143.2999  151.3106 LP  0  0  0  0  0  0  0  0  0  0  0  0  # atno 17342 bound_to 10162
  139.6498  144.0383  152.2618 LP  0  0  0  0  0  0  0  0  0  0  0  0  # atno 17343 bound_to 10162
  156.1486  130.6294  151.0565 LP  0  0  0  0  0  0  0  0  0  0  0  0  # atno 17370 bound_to 10713
  157.6832  131.0832  150.7313 LP  0  0  0  0  0  0  0  0  0  0  0  0  # atno 17371 bound_to 10713
  141.1123  133.6639  156.3008 LP  0  0  0  0  0  0  0  0  0  0  0  0  # atno 17394 bound_to 11000
  140.5811  134.5744  157.5479 LP  0  0  0  0  0  0  0  0  0  0  0  0  # atno 17395 bound_to 11000

$$$$
