AV-unprocessed.smi:2499|AV-procd|sdf|9834|dock1
  -GOLD-   2272013463D 1   1.00000     0.00000
 Structure written by MMmdl.
 28 29  0  0  0  0  0  0  0  0  2 V2000
  151.8255  141.6963  158.1162 C   0  0  0  0  0  0  0  0  0  0  0  0
  151.6865  142.8589  157.1241 C   0  0  1  0  0  0  0  0  0  0  0  0
  150.4189  142.7185  156.4136 N   0  0  0  0  0  0  0  0  0  0  0  0
  150.0781  141.6800  155.6356 C   0  0  0  0  0  0  0  0  0  0  0  0
  150.8063  140.7076  155.4338 O   0  0  0  0  0  0  0  0  0  0  0  0
  148.8535  141.8358  155.1100 N   0  0  0  0  0  0  0  0  0  0  0  0
  148.2043  140.9199  154.2501 C   0  0  0  0  0  0  0  0  0  0  0  0
  147.1450  141.2219  153.5012 N   0  3  0  0  0  0  0  0  0  0  0  0
  146.7731  140.1055  152.7938 C   0  0  0  0  0  0  0  0  0  0  0  0
  147.6604  139.1207  153.1562 C   0  0  0  0  0  0  0  0  0  0  0  0
  148.5669  139.6179  154.0708 O   0  0  0  0  0  0  0  0  0  0  0  0
  151.8388  144.1951  157.8316 C   0  0  0  0  0  0  0  0  0  0  0  0
  152.7241  144.3486  159.0460 C   0  0  0  0  0  0  0  0  0  0  0  0
  151.2218  144.4276  159.1906 C   0  0  0  0  0  0  0  0  0  0  0  0
  152.7849  141.7344  158.6333 H   0  0  0  0  0  0  0  0  0  0  0  0
  151.7670  140.7336  157.6071 H   0  0  0  0  0  0  0  0  0  0  0  0
  151.0404  141.7226  158.8729 H   0  0  0  0  0  0  0  0  0  0  0  0
  152.5005  142.7649  156.4023 H   0  0  0  0  0  0  0  0  0  0  0  0
  149.7568  143.4732  156.5221 H   0  0  0  0  0  0  0  0  0  0  0  0
  146.6650  142.1108  153.4355 H   0  0  0  0  0  0  0  0  0  0  0  0
  145.9311  140.1219  152.1166 H   0  0  0  0  0  0  0  0  0  0  0  0
  147.7802  138.0839  152.8771 H   0  0  0  0  0  0  0  0  0  0  0  0
  151.8099  145.0484  157.1563 H   0  0  0  0  0  0  0  0  0  0  0  0
  153.2169  143.4598  159.4353 H   0  0  0  0  0  0  0  0  0  0  0  0
  153.2886  145.2738  159.1412 H   0  0  0  0  0  0  0  0  0  0  0  0
  150.7865  145.4057  159.3850 H   0  0  0  0  0  0  0  0  0  0  0  0
  150.7206  143.5896  159.6715 H   0  0  0  0  0  0  0  0  0  0  0  0
  148.3448  142.6754  155.3437 H   0  0  0  0  0  0  0  0  0  0  0  0
  1  2  1  0  0  0  0
  1 15  1  0  0  0  0
  1 16  1  0  0  0  0
  1 17  1  0  0  0  0
  2  3  1  0  0  0  0
  2 12  1  0  0  0  0
  2 18  1  0  0  0  0
  3 19  1  0  0  0  0
  3  4  1  0  0  0  0
  4  6  1  0  0  0  0
  4  5  2  0  0  0  0
  6  7  1  0  0  0  0
  6 28  1  0  0  0  0
  7 11  1  0  0  0  0
  7  8  2  0  0  0  0
  8 20  1  0  0  0  0
  8  9  1  0  0  0  0
  9 21  1  0  0  0  0
  9 10  2  0  0  0  0
 10 22  1  0  0  0  0
 10 11  1  0  0  0  0
 12 14  1  0  0  0  0
 12 13  1  0  0  0  0
 12 23  1  0  0  0  0
 13 14  1  0  0  0  0
 13 24  1  0  0  0  0
 13 25  1  0  0  0  0
 14 26  1  0  0  0  0
 14 27  1  0  0  0  0
M  CHG  1   8   1
M  END
> <s_m_source_file>
AV-unprocessed.smi

> <i_m_source_file_index>
2499

> <i_lp_mmshare_version>
43012

> <i_f3d_flags>
0

> <s_epik_input>
W0NIMl0xW0NIMl1bQ0hdMVtDQEhdKFtDSDNdKVtOSF1DKD1PKVtOSF1jMm5bY0hdW2NIXW8y

> <s_epik_cmdline>
J2VwaWtfcHl0aG9uJywgJy1waCcsICc3LjAnLCAnLXRuJywgJzgnLCAnLW1hJywgJzIwMCcsICctbWV0YWxfYmluZGluZycsICctaW1hZScsICc8aW5maWxlLm1hZT4nLCAnLW9tYWUnLCAnPG91dGZpbGUubWFlPic=

> <r_epik_Ionization_Penalty>
6.56099

> <r_epik_Ionization_Penalty_Charging>
6.51293

> <r_epik_Ionization_Penalty_Neutral>
0.0480564

> <r_epik_State_Penalty>
1.72359

> <r_epik_Charging_Adjusted_Penalty>
8.23652

> <i_epik_Tot_Q>
1

> <i_epik_Tot_abs_Q>
1

> <r_epik_Metal_State_Penalty>
1.73747

> <b_epik_Metal_Only>
0

> <s_lp_Force_Field>
OPLS_2005

> <r_lp_Energy>
20.6817

> <b_lp_Chiralities_Consistent>
1

> <s_lp_Variant>
AV-unprocessed.smi:2499-4

> <Gold.Version>
5.8.1

> <Gold.Id.Protein>
6NUR|6NUR_protein|mol2

> <Gold.PLP.Fitness>
37.0449

> <Gold.PLP.PLP>
-26.9901

> <Gold.PLP.part.hbond>
-3.0000

> <Gold.PLP.part.metal>
0.0000

> <Gold.PLP.part.buried>
-1.5175

> <Gold.PLP.part.nonpolar>
-21.8936

> <Gold.PLP.part.repulsive>
0.5693

> <Gold.PLP.ligand.clash>
0.0000

> <Gold.PLP.ligand.torsion>
0.6022

> <Gold.PLP.Chemscore.Hbond>
2.3975

> <Gold.PLP.Chemscore.CHOScore>
1.0000

> <Gold.PLP.Chemscore.Metal>
0.0000

> <Gold.Chemscore.Hbonds>
donor molecule, donor type, donor heavy atom, donor atom, acceptor molecule, acceptor atom, score
      L1  H     3    19       P1  8028  0.88
      L1  H     6    28       P1  8028  0.54
      P1  H  7989  7998       L1     5  0.70
      L1  C    10    22       P1  7948  1.00

> <Gold.PLP.Chemscore.Internal.Correction>
1.0667

> <Gold.Rescore>
     Score         DG    S(hbond)    S(metal)    S(lipo)     H(rot)  DE(clash)    DE(int)     intcor
     13.21     -17.90       2.13        0.00      73.84       1.30       1.65       3.04       ----

> <Gold.Chemscore.Fitness>
13.2058

> <Gold.Chemscore.DG>
-17.9006

> <Gold.Chemscore.ZeroCoef>
-5.4800

> <Gold.Chemscore.Hbond>
2.1314

> <Gold.Chemscore.Metal>
0.0000

> <Gold.Chemscore.Lipo>
73.8376

> <Gold.Chemscore.Internal_Hbond>
0.0000

> <Gold.Chemscore.DEClash>
1.6543

> <Gold.Chemscore.DEInternal>
3.0405

> <Gold.Chemscore.Rot>
1.3036

> <Gold.Chemscore.Internal.Correction>
   9.000000E+99

> <Gold.Chemscore.Hbonds>
donor molecule, donor type, donor heavy atom, donor atom, acceptor molecule, acceptor atom, score
      L1  H     3    19       P1  8028  0.87
      L1  H     6    28       P1  8028  0.53
      P1  H  7989  7998       L1     5  0.45

> <Gold.Chemscore.Hbond.Weighted>
-7.1188

> <Gold.Chemscore.Metal.Weighted>
-0.0000

> <Gold.Chemscore.Lipo.Weighted>
-8.6390

> <Gold.Chemscore.Internal_Hbond.Weighted>
0.0000

> <Gold.Chemscore.DEClash.Weighted>
1.6543

> <Gold.Chemscore.DEInternal.Weighted>
3.0405

> <Gold.Chemscore.Rot.Weighted>
3.3371

> <Gold.Chemscore.Internal.Correction.Weighted>
   9.000000E+99

> <Gold.Protein.RotatedTorsions>
[ 6907 6896 6895 6894 ] final  142.32 input  -60.11 | X-H torsion
[ 7974 7965 7964 7962 ] final  120.19 input  175.53 | X-H torsion
[ 8008 7997 7996 7995 ] final  140.81 input   59.86 | X-H torsion
[ 10167 10162 10161 10158 ] final   58.76 input  -65.29 | X-H torsion
[ 10718 10713 10712 10709 ] final -100.44 input   66.30 | X-H torsion
[ 10763 10752 10751 10750 ] final  -63.74 input  -60.55 | X-H torsion
[ 11005 11000 10999 10996 ] final  -60.11 input  -57.11 | X-H torsion

> <Gold.Protein.ActiveResidues>
 VAL166  LYS551  ARG553  GLY616  TRP617  ASP618  TYR619  PRO620  LYS621  CYS622 
 ASP623  PHE694  ASN695  SER759  ASP760  ASP761  ALA762  ILE779  LEU786  VAL792 
 PHE793  MET794  SER795  GLU796  ALA797  LYS798  CYS799  TRP800  GLU811  SER814 

> <Gold.Protein.RotatedAtoms>
  152.2201  133.4977  159.5157 H   0  0  0  0  0  0  0  0  0  0  0  0  # atno 6907 bound_to 6896
  150.7011  134.1353  159.4094 H   0  0  0  0  0  0  0  0  0  0  0  0  # atno 6908 bound_to 6896
  151.9274  135.0271  160.0577 H   0  0  0  0  0  0  0  0  0  0  0  0  # atno 6909 bound_to 6896
  145.1341  139.3309  143.4650 H   0  0  0  0  0  0  0  0  0  0  0  0  # atno 7974 bound_to 7965
  156.2974  140.2331  156.4462 H   0  0  0  0  0  0  0  0  0  0  0  0  # atno 8008 bound_to 7997
  154.8142  140.0441  157.1385 H   0  0  0  0  0  0  0  0  0  0  0  0  # atno 8009 bound_to 7997
  154.9389  140.3026  155.5134 H   0  0  0  0  0  0  0  0  0  0  0  0  # atno 8010 bound_to 7997
  140.1837  144.4156  150.6603 H   0  0  0  0  0  0  0  0  0  0  0  0  # atno 10167 bound_to 10162
  156.0163  130.5328  150.6818 H   0  0  0  0  0  0  0  0  0  0  0  0  # atno 10718 bound_to 10713
  154.3196  135.6199  153.5502 H   0  0  0  0  0  0  0  0  0  0  0  0  # atno 10763 bound_to 10752
  152.9821  135.5721  154.5085 H   0  0  0  0  0  0  0  0  0  0  0  0  # atno 10764 bound_to 10752
  154.4750  135.2861  155.1590 H   0  0  0  0  0  0  0  0  0  0  0  0  # atno 10765 bound_to 10752
  141.1274  133.6620  156.5173 H   0  0  0  0  0  0  0  0  0  0  0  0  # atno 11005 bound_to 11000
  146.3511  140.1352  142.8596 LP  0  0  0  0  0  0  0  0  0  0  0  0  # atno 17320 bound_to 7965
  145.0603  140.9083  143.4942 LP  0  0  0  0  0  0  0  0  0  0  0  0  # atno 17321 bound_to 7965
  140.6502  143.2223  151.6094 LP  0  0  0  0  0  0  0  0  0  0  0  0  # atno 17342 bound_to 10162
  139.5285  144.2987  152.1092 LP  0  0  0  0  0  0  0  0  0  0  0  0  # atno 17343 bound_to 10162
  157.4519  131.0873  151.0837 LP  0  0  0  0  0  0  0  0  0  0  0  0  # atno 17370 bound_to 10713
  157.1351  130.6119  149.5540 LP  0  0  0  0  0  0  0  0  0  0  0  0  # atno 17371 bound_to 10713
  140.4321  134.7093  157.4947 LP  0  0  0  0  0  0  0  0  0  0  0  0  # atno 17394 bound_to 11000
  140.0287  134.6439  155.9137 LP  0  0  0  0  0  0  0  0  0  0  0  0  # atno 17395 bound_to 11000

$$$$
