AV-unprocessed.smi:199|AV-procd|sdf|1573|dock9
  -GOLD-   2262019453D 1   1.00000     0.00000
 Structure written by MMmdl.
 51 55  0  0  0  0  0  0  0  0  1 V2000
  147.6715  136.4365  162.6452 C   0  0  0  0  0  0  0  0  0  0  0  0
  147.3634  135.0434  162.0727 C   0  0  1  0  0  0  0  0  0  0  0  0
  146.7328  134.2204  163.0535 O   0  0  0  0  0  0  0  0  0  0  0  0
  145.4933  133.7319  162.5602 C   0  0  0  0  0  0  0  0  0  0  0  0
  145.6594  133.7336  161.0461 C   0  0  0  0  0  0  0  0  0  0  0  0
  146.4773  134.9947  160.8060 C   0  0  1  0  0  0  0  0  0  0  0  0
  145.5899  136.1013  160.7669 O   0  0  0  0  0  0  0  0  0  0  0  0
  147.2973  134.9747  159.4941 C   0  0  0  0  0  0  0  0  0  0  0  0
  148.0999  136.1716  159.2946 N   0  0  0  0  0  0  0  0  0  0  0  0
  149.2025  136.5545  160.0232 C   0  0  0  0  0  0  0  0  0  0  0  0
  149.7564  137.6733  159.6448 N   0  0  0  0  0  0  0  0  0  0  0  0
  148.9704  138.1058  158.5828 C   0  0  0  0  0  0  0  0  0  0  0  0
  148.9968  139.2381  157.7173 C   0  0  0  0  0  0  0  0  0  0  0  0
  149.9237  140.2302  157.8000 N   0  0  0  0  0  0  0  0  0  0  0  0
  151.3423  139.9609  157.6252 C   0  0  2  0  0  0  0  0  0  0  0  0
  151.9787  141.2979  158.0429 C   0  0  0  0  0  0  0  0  0  0  0  0
  150.9295  142.3023  157.5364 C   0  0  0  0  0  0  0  0  0  0  0  0
  149.8995  141.3618  156.8843 C   0  0  1  0  0  0  0  0  0  0  0  0
  150.4985  140.8234  155.5605 C   0  0  2  0  0  0  0  0  0  0  0  0
  149.4542  140.2501  154.5836 C   0  0  0  0  0  0  0  0  0  0  0  0
  149.5349  140.9155  153.3414 O   0  0  0  0  0  0  0  0  0  0  0  0
  151.4983  139.7806  156.1011 C   0  0  0  0  0  0  0  0  0  0  0  0
  148.0459  139.3009  156.7474 N   0  0  0  0  0  0  0  0  0  0  0  0
  147.1172  138.3467  156.6440 C   0  0  0  0  0  0  0  0  0  0  0  0
  146.9622  137.2508  157.3878 N   0  0  0  0  0  0  0  0  0  0  0  0
  147.9239  137.1677  158.3503 C   0  0  0  0  0  0  0  0  0  0  0  0
  148.1459  137.0716  161.8967 H   0  0  0  0  0  0  0  0  0  0  0  0
  148.3497  136.3623  163.4953 H   0  0  0  0  0  0  0  0  0  0  0  0
  146.7682  136.9388  162.9920 H   0  0  0  0  0  0  0  0  0  0  0  0
  148.3124  134.5523  161.8544 H   0  0  0  0  0  0  0  0  0  0  0  0
  145.2653  132.7433  162.9588 H   0  0  0  0  0  0  0  0  0  0  0  0
  144.6965  134.4133  162.8613 H   0  0  0  0  0  0  0  0  0  0  0  0
  146.2293  132.8523  160.7483 H   0  0  0  0  0  0  0  0  0  0  0  0
  144.7090  133.7150  160.5107 H   0  0  0  0  0  0  0  0  0  0  0  0
  146.0991  136.8966  160.8062 H   0  0  0  0  0  0  0  0  0  0  0  0
  147.9564  134.1057  159.4712 H   0  0  0  0  0  0  0  0  0  0  0  0
  146.6314  134.8738  158.6362 H   0  0  0  0  0  0  0  0  0  0  0  0
  149.5900  135.9709  160.8459 H   0  0  0  0  0  0  0  0  0  0  0  0
  151.7243  139.1186  158.2033 H   0  0  0  0  0  0  0  0  0  0  0  0
  152.0785  141.3620  159.1273 H   0  0  0  0  0  0  0  0  0  0  0  0
  152.9635  141.4514  157.6001 H   0  0  0  0  0  0  0  0  0  0  0  0
  150.4838  142.8426  158.3726 H   0  0  0  0  0  0  0  0  0  0  0  0
  151.3409  143.0361  156.8424 H   0  0  0  0  0  0  0  0  0  0  0  0
  148.9345  141.8492  156.7566 H   0  0  0  0  0  0  0  0  0  0  0  0
  151.0290  141.6279  155.0484 H   0  0  0  0  0  0  0  0  0  0  0  0
  149.5941  139.1822  154.4198 H   0  0  0  0  0  0  0  0  0  0  0  0
  148.4489  140.3857  154.9834 H   0  0  0  0  0  0  0  0  0  0  0  0
  149.4176  140.2801  152.6518 H   0  0  0  0  0  0  0  0  0  0  0  0
  152.5183  139.9591  155.7587 H   0  0  0  0  0  0  0  0  0  0  0  0
  151.2210  138.7694  155.8011 H   0  0  0  0  0  0  0  0  0  0  0  0
  146.3954  138.4801  155.8515 H   0  0  0  0  0  0  0  0  0  0  0  0
  1  2  1  0  0  0  0
  1 27  1  0  0  0  0
  1 28  1  0  0  0  0
  1 29  1  0  0  0  0
  2  6  1  0  0  0  0
  2  3  1  0  0  0  0
  2 30  1  0  0  0  0
  3  4  1  0  0  0  0
  4  5  1  0  0  0  0
  4 31  1  0  0  0  0
  4 32  1  0  0  0  0
  5  6  1  0  0  0  0
  5 33  1  0  0  0  0
  5 34  1  0  0  0  0
  6  7  1  0  0  0  0
  6  8  1  0  0  0  0
  7 35  1  0  0  0  0
  8  9  1  0  0  0  0
  8 36  1  0  0  0  0
  8 37  1  0  0  0  0
  9 26  1  0  0  0  0
  9 10  1  0  0  0  0
 10 11  2  0  0  0  0
 10 38  1  0  0  0  0
 11 12  1  0  0  0  0
 12 26  2  0  0  0  0
 12 13  1  0  0  0  0
 13 14  1  0  0  0  0
 13 23  2  0  0  0  0
 14 18  1  0  0  0  0
 14 15  1  0  0  0  0
 15 22  1  0  0  0  0
 15 16  1  0  0  0  0
 15 39  1  0  0  0  0
 16 17  1  0  0  0  0
 16 40  1  0  0  0  0
 16 41  1  0  0  0  0
 17 18  1  0  0  0  0
 17 42  1  0  0  0  0
 17 43  1  0  0  0  0
 18 19  1  0  0  0  0
 18 44  1  0  0  0  0
 19 20  1  0  0  0  0
 19 22  1  0  0  0  0
 19 45  1  0  0  0  0
 20 21  1  0  0  0  0
 20 46  1  0  0  0  0
 20 47  1  0  0  0  0
 21 48  1  0  0  0  0
 22 49  1  0  0  0  0
 22 50  1  0  0  0  0
 23 24  1  0  0  0  0
 24 25  2  0  0  0  0
 24 51  1  0  0  0  0
 25 26  1  0  0  0  0
M  END
> <s_m_source_file>
AV-unprocessed.smi

> <i_m_source_file_index>
199

> <i_lp_mmshare_version>
43012

> <i_f3d_flags>
0

> <s_epik_input>
W0NIMl0xW0NIMl1PW0NAQEhdKFtDSDNdKVtDQEBdMShbT0hdKVtDSDJdbihbY0hdbjIpYyhjMjMpbltjSF1uYzNOKFtDQEBIXTQ1KVtDQEhdKFtDSDJdW0NIMl00KVtDQEhdKFtDSDJdNSlbQ0gyXVtPSF0=

> <s_epik_cmdline>
J2VwaWtfcHl0aG9uJywgJy1waCcsICc3LjAnLCAnLXRuJywgJzgnLCAnLW1hJywgJzIwMCcsICctbWV0YWxfYmluZGluZycsICctaW1hZScsICc8aW5maWxlLm1hZT4nLCAnLW9tYWUnLCAnPG91dGZpbGUubWFlPic=

> <r_lp_tautomer_probability>
1

> <r_epik_Ionization_Penalty>
0.00583903

> <r_epik_Ionization_Penalty_Charging>
0

> <r_epik_Ionization_Penalty_Neutral>
0.00583903

> <r_epik_State_Penalty>
-0

> <r_epik_Charging_Adjusted_Penalty>
0

> <i_epik_Tot_Q>
0

> <i_epik_Tot_abs_Q>
0

> <r_epik_Metal_State_Penalty>
-0

> <b_epik_Metal_Only>
0

> <s_lp_Force_Field>
OPLS_2005

> <r_lp_Energy>
83.8114

> <b_lp_Chiralities_Consistent>
1

> <s_lp_Variant>
AV-unprocessed.smi:199-14

> <Gold.Version>
5.8.1

> <Gold.Id.Protein>
6NUR|6NUR_protein|mol2

> <Gold.PLP.Fitness>
44.0528

> <Gold.PLP.PLP>
-39.9025

> <Gold.PLP.part.hbond>
-4.4333

> <Gold.PLP.part.metal>
0.0000

> <Gold.PLP.part.buried>
-5.6576

> <Gold.PLP.part.nonpolar>
-30.4419

> <Gold.PLP.part.repulsive>
0.0020

> <Gold.PLP.ligand.clash>
0.0000

> <Gold.PLP.ligand.torsion>
0.8291

> <Gold.PLP.Chemscore.Hbond>
1.9283

> <Gold.PLP.Chemscore.CHOScore>
0.0000

> <Gold.PLP.Chemscore.Metal>
0.0000

> <Gold.Chemscore.Hbonds>
donor molecule, donor type, donor heavy atom, donor atom, acceptor molecule, acceptor atom, score
      L1  H    21    48       P1  7957  0.84
      P1  H  7989  7998       L1    21  0.12
      P1  H  8011  8017       L1    21  0.95

> <Gold.PLP.Chemscore.Internal.Correction>
0.0237

> <Gold.Rescore>
     Score         DG    S(hbond)    S(metal)    S(lipo)     H(rot)  DE(clash)    DE(int)     intcor
      9.36     -12.49       1.32        0.00      89.34       3.07       0.09       3.03       ----

> <Gold.Chemscore.Fitness>
9.3618

> <Gold.Chemscore.DG>
-12.4889

> <Gold.Chemscore.ZeroCoef>
-5.4800

> <Gold.Chemscore.Hbond>
1.3243

> <Gold.Chemscore.Metal>
0.0000

> <Gold.Chemscore.Lipo>
89.3360

> <Gold.Chemscore.Internal_Hbond>
0.0000

> <Gold.Chemscore.DEClash>
0.0936

> <Gold.Chemscore.DEInternal>
3.0335

> <Gold.Chemscore.Rot>
3.0729

> <Gold.Chemscore.Internal.Correction>
   9.000000E+99

> <Gold.Chemscore.Hbonds>
donor molecule, donor type, donor heavy atom, donor atom, acceptor molecule, acceptor atom, score
      L1  H    21    48       P1  7957  0.78
      P1  H  8011  8017       L1    21  0.21

> <Gold.Chemscore.Hbond.Weighted>
-4.4233

> <Gold.Chemscore.Metal.Weighted>
-0.0000

> <Gold.Chemscore.Lipo.Weighted>
-10.4523

> <Gold.Chemscore.Internal_Hbond.Weighted>
0.0000

> <Gold.Chemscore.DEClash.Weighted>
0.0936

> <Gold.Chemscore.DEInternal.Weighted>
3.0335

> <Gold.Chemscore.Rot.Weighted>
7.8667

> <Gold.Chemscore.Internal.Correction.Weighted>
   9.000000E+99

> <Gold.Protein.RotatedTorsions>
[ 6907 6896 6895 6894 ] final  -20.18 input  -60.11 | X-H torsion
[ 7974 7965 7964 7962 ] final  -86.87 input  175.53 | X-H torsion
[ 8008 7997 7996 7995 ] final  175.09 input   59.86 | X-H torsion
[ 10167 10162 10161 10158 ] final   25.33 input  -65.29 | X-H torsion
[ 10718 10713 10712 10709 ] final  140.84 input   66.30 | X-H torsion
[ 10763 10752 10751 10750 ] final  -27.24 input  -60.55 | X-H torsion
[ 11005 11000 10999 10996 ] final   48.98 input  -57.11 | X-H torsion

> <Gold.Protein.ActiveResidues>
 VAL166  LYS551  ARG553  GLY616  TRP617  ASP618  TYR619  PRO620  LYS621  CYS622 
 ASP623  PHE694  ASN695  SER759  ASP760  ASP761  ALA762  ILE779  LEU786  VAL792 
 PHE793  MET794  SER795  GLU796  ALA797  LYS798  CYS799  TRP800  GLU811  SER814 

> <Gold.Protein.RotatedAtoms>
  151.2519  135.0625  159.9065 H   0  0  0  0  0  0  0  0  0  0  0  0  # atno 6907 bound_to 6896
  152.5379  134.0323  159.8040 H   0  0  0  0  0  0  0  0  0  0  0  0  # atno 6908 bound_to 6896
  151.0532  133.5557  159.2672 H   0  0  0  0  0  0  0  0  0  0  0  0  # atno 6909 bound_to 6896
  145.4741  140.9559  143.1901 H   0  0  0  0  0  0  0  0  0  0  0  0  # atno 7974 bound_to 7965
  156.0907  140.1418  156.9595 H   0  0  0  0  0  0  0  0  0  0  0  0  # atno 8008 bound_to 7997
  154.4640  140.0933  156.7018 H   0  0  0  0  0  0  0  0  0  0  0  0  # atno 8009 bound_to 7997
  155.4924  140.3448  155.4359 H   0  0  0  0  0  0  0  0  0  0  0  0  # atno 8010 bound_to 7997
  140.5115  144.0152  150.6375 H   0  0  0  0  0  0  0  0  0  0  0  0  # atno 10167 bound_to 10162
  157.3988  131.1014  151.0573 H   0  0  0  0  0  0  0  0  0  0  0  0  # atno 10718 bound_to 10713
  153.7289  135.6940  153.4994 H   0  0  0  0  0  0  0  0  0  0  0  0  # atno 10763 bound_to 10752
  153.2150  135.4389  155.0423 H   0  0  0  0  0  0  0  0  0  0  0  0  # atno 10764 bound_to 10752
  154.8260  135.3446  154.6819 H   0  0  0  0  0  0  0  0  0  0  0  0  # atno 10765 bound_to 10752
  140.1143  134.4913  155.8651 H   0  0  0  0  0  0  0  0  0  0  0  0  # atno 11005 bound_to 11000
  144.7928  139.6295  143.7106 LP  0  0  0  0  0  0  0  0  0  0  0  0  # atno 17320 bound_to 7965
  146.2379  139.5943  142.9511 LP  0  0  0  0  0  0  0  0  0  0  0  0  # atno 17321 bound_to 7965
  140.3476  143.2982  152.0521 LP  0  0  0  0  0  0  0  0  0  0  0  0  # atno 17342 bound_to 10162
  139.4897  144.6397  151.6902 LP  0  0  0  0  0  0  0  0  0  0  0  0  # atno 17343 bound_to 10162
  157.1579  130.6213  149.5602 LP  0  0  0  0  0  0  0  0  0  0  0  0  # atno 17370 bound_to 10713
  155.9817  130.4827  150.6844 LP  0  0  0  0  0  0  0  0  0  0  0  0  # atno 17371 bound_to 10713
  141.2137  133.6738  156.6766 LP  0  0  0  0  0  0  0  0  0  0  0  0  # atno 17394 bound_to 11000
  140.3049  134.8133  157.4128 LP  0  0  0  0  0  0  0  0  0  0  0  0  # atno 17395 bound_to 11000

$$$$
