AV-unprocessed.smi:1588|AV-procd|sdf|6389|dock4
  -GOLD-   22720 7 23D 1   1.00000     0.00000
 Structure written by MMmdl.
 37 38  0  0  0  0  0  0  0  0  2 V2000
  144.9114  131.8472  151.4531 C   0  0  0  0  0  0  0  0  0  0  0  0
  143.5657  132.3614  150.9235 C   0  0  0  0  0  0  0  0  0  0  0  0
  143.4542  133.8354  151.0233 N   0  3  1  0  0  0  0  0  0  0  0  0
  143.3172  134.3682  152.4010 C   0  0  0  0  0  0  0  0  0  0  0  0
  144.2660  135.5690  152.5104 C   0  0  0  0  0  0  0  0  0  0  0  0
  144.5871  135.9343  151.0630 C   0  0  1  0  0  0  0  0  0  0  0  0
  145.9030  136.7185  150.8928 C   0  0  0  0  0  0  0  0  0  0  0  0
  145.8150  138.0697  151.4368 N   0  0  0  0  0  0  0  0  0  0  0  0
  146.7366  138.6424  152.2242 C   0  0  0  0  0  0  0  0  0  0  0  0
  147.7699  138.0767  152.5820 O   0  0  0  0  0  0  0  0  0  0  0  0
  146.3786  139.8899  152.5695 N   0  0  0  0  0  0  0  0  0  0  0  0
  147.0962  140.7932  153.3940 C   0  0  0  0  0  0  0  0  0  0  0  0
  148.4080  140.5667  153.8923 C   0  0  0  0  0  0  0  0  0  0  0  0
  148.8245  141.5814  154.6362 N   0  0  0  0  0  0  0  0  0  0  0  0
  147.7901  142.4521  154.6201 N   0  0  0  0  0  0  0  0  0  0  0  0
  146.7160  142.0140  153.8773 C   0  0  0  0  0  0  0  0  0  0  0  0
  144.5591  134.5697  150.3735 C   0  0  0  0  0  0  0  0  0  0  0  0
  147.8311  143.3310  155.1163 H   0  0  0  0  0  0  0  0  0  0  0  0
  144.9511  130.7585  151.4104 H   0  0  0  0  0  0  0  0  0  0  0  0
  145.0653  132.1430  152.4913 H   0  0  0  0  0  0  0  0  0  0  0  0
  145.7485  132.2281  150.8681 H   0  0  0  0  0  0  0  0  0  0  0  0
  143.4149  132.0448  149.8905 H   0  0  0  0  0  0  0  0  0  0  0  0
  142.7643  131.9102  151.5102 H   0  0  0  0  0  0  0  0  0  0  0  0
  142.2815  134.6732  152.5542 H   0  0  0  0  0  0  0  0  0  0  0  0
  143.5578  133.6227  153.1600 H   0  0  0  0  0  0  0  0  0  0  0  0
  143.8292  136.4001  153.0651 H   0  0  0  0  0  0  0  0  0  0  0  0
  145.1758  135.2658  153.0305 H   0  0  0  0  0  0  0  0  0  0  0  0
  143.7584  136.5302  150.6770 H   0  0  0  0  0  0  0  0  0  0  0  0
  146.7258  136.1831  151.3697 H   0  0  0  0  0  0  0  0  0  0  0  0
  146.1595  136.7974  149.8359 H   0  0  0  0  0  0  0  0  0  0  0  0
  145.0001  138.6106  151.1867 H   0  0  0  0  0  0  0  0  0  0  0  0
  145.4971  140.2281  152.2120 H   0  0  0  0  0  0  0  0  0  0  0  0
  149.0586  139.7181  153.7407 H   0  0  0  0  0  0  0  0  0  0  0  0
  145.8121  142.5952  153.7690 H   0  0  0  0  0  0  0  0  0  0  0  0
  145.5008  134.0455  150.5460 H   0  0  0  0  0  0  0  0  0  0  0  0
  144.4074  134.6462  149.2963 H   0  0  0  0  0  0  0  0  0  0  0  0
  142.6152  134.1068  150.5304 H   0  0  0  0  0  0  0  0  0  0  0  0
  1  2  1  0  0  0  0
  1 19  1  0  0  0  0
  1 20  1  0  0  0  0
  1 21  1  0  0  0  0
  2  3  1  0  0  0  0
  2 22  1  0  0  0  0
  2 23  1  0  0  0  0
  3 17  1  0  0  0  0
  3  4  1  0  0  0  0
  3 37  1  0  0  0  0
  4  5  1  0  0  0  0
  4 24  1  0  0  0  0
  4 25  1  0  0  0  0
  5  6  1  0  0  0  0
  5 26  1  0  0  0  0
  5 27  1  0  0  0  0
  6  7  1  0  0  0  0
  6 17  1  0  0  0  0
  6 28  1  0  0  0  0
  7  8  1  0  0  0  0
  7 29  1  0  0  0  0
  7 30  1  0  0  0  0
  8  9  1  0  0  0  0
  8 31  1  0  0  0  0
  9 10  2  0  0  0  0
  9 11  1  0  0  0  0
 11 12  1  0  0  0  0
 11 32  1  0  0  0  0
 12 16  2  0  0  0  0
 12 13  1  0  0  0  0
 13 14  2  0  0  0  0
 13 33  1  0  0  0  0
 14 15  1  0  0  0  0
 15 18  1  0  0  0  0
 15 16  1  0  0  0  0
 16 34  1  0  0  0  0
 17 35  1  0  0  0  0
 17 36  1  0  0  0  0
M  CHG  1   3   1
M  END
> <s_m_source_file>
AV-unprocessed.smi

> <i_m_source_file_index>
1588

> <i_lp_mmshare_version>
43012

> <i_f3d_flags>
0

> <s_epik_input>
W0NIM11bQ0gyXU4xW0NIMl1bQ0gyXVtDQEhdKFtDSDJdMSlbQ0gyXVtOSF1DKD1PKVtOSF1jMltjSF1uW25IXVtjSF0y

> <s_epik_cmdline>
J2VwaWtfcHl0aG9uJywgJy1waCcsICc3LjAnLCAnLXRuJywgJzgnLCAnLW1hJywgJzIwMCcsICctbWV0YWxfYmluZGluZycsICctaW1hZScsICc8aW5maWxlLm1hZT4nLCAnLW9tYWUnLCAnPG91dGZpbGUubWFlPic=

> <r_lp_tautomer_probability>
0.5

> <r_epik_Ionization_Penalty>
0.000628417

> <r_epik_Ionization_Penalty_Charging>
0.000582718

> <r_epik_Ionization_Penalty_Neutral>
4.56984e-05

> <r_epik_State_Penalty>
0.000366292

> <r_epik_Charging_Adjusted_Penalty>
0.00094901

> <i_epik_Tot_Q>
1

> <i_epik_Tot_abs_Q>
1

> <r_epik_Metal_State_Penalty>
-0

> <b_epik_Metal_Only>
0

> <s_lp_Force_Field>
OPLS_2005

> <r_lp_Energy>
30.3182

> <b_lp_Chiralities_Consistent>
1

> <s_lp_Variant>
AV-unprocessed.smi:1588-1

> <Gold.Version>
5.8.1

> <Gold.Id.Protein>
6NUR|6NUR_protein|mol2

> <Gold.PLP.Fitness>
43.2799

> <Gold.PLP.PLP>
-28.3231

> <Gold.PLP.part.hbond>
-4.3375

> <Gold.PLP.part.metal>
0.0000

> <Gold.PLP.part.buried>
-0.7902

> <Gold.PLP.part.nonpolar>
-29.1632

> <Gold.PLP.part.repulsive>
7.2733

> <Gold.PLP.ligand.clash>
0.0000

> <Gold.PLP.ligand.torsion>
0.1589

> <Gold.PLP.Chemscore.Hbond>
4.6480

> <Gold.PLP.Chemscore.CHOScore>
0.4345

> <Gold.PLP.Chemscore.Metal>
0.0000

> <Gold.Chemscore.Hbonds>
donor molecule, donor type, donor heavy atom, donor atom, acceptor molecule, acceptor atom, score
      L1  H     3    37       P1 10186  2.00
      L1  H     8    31       P1 10171  0.70
      L1  H    11    32       P1 10175  0.99
      L1  H    15    18       P1  8028  0.94
      L1  C    13    33       P1  7957  0.27

> <Gold.PLP.Chemscore.Internal.Correction>
0.0271

> <Gold.Rescore>
     Score         DG    S(hbond)    S(metal)    S(lipo)     H(rot)  DE(clash)    DE(int)     intcor
     15.55     -19.90       3.16        0.00      67.57       1.58       3.00       1.35       ----

> <Gold.Chemscore.Fitness>
15.5492

> <Gold.Chemscore.DG>
-19.8978

> <Gold.Chemscore.ZeroCoef>
-5.4800

> <Gold.Chemscore.Hbond>
3.1572

> <Gold.Chemscore.Metal>
0.0000

> <Gold.Chemscore.Lipo>
67.5677

> <Gold.Chemscore.Internal_Hbond>
0.0000

> <Gold.Chemscore.DEClash>
2.9953

> <Gold.Chemscore.DEInternal>
1.3533

> <Gold.Chemscore.Rot>
1.5753

> <Gold.Chemscore.Internal.Correction>
   9.000000E+99

> <Gold.Chemscore.Hbonds>
donor molecule, donor type, donor heavy atom, donor atom, acceptor molecule, acceptor atom, score
      L1  H     3    37       P1 10186  0.78
      L1  H     8    31       P1 10171  0.70
      L1  H    11    32       P1 10175  0.52
      L1  H    15    18       P1  8028  0.50

> <Gold.Chemscore.Hbond.Weighted>
-10.5451

> <Gold.Chemscore.Metal.Weighted>
-0.0000

> <Gold.Chemscore.Lipo.Weighted>
-7.9054

> <Gold.Chemscore.Internal_Hbond.Weighted>
0.0000

> <Gold.Chemscore.DEClash.Weighted>
2.9953

> <Gold.Chemscore.DEInternal.Weighted>
1.3533

> <Gold.Chemscore.Rot.Weighted>
4.0328

> <Gold.Chemscore.Internal.Correction.Weighted>
   9.000000E+99

> <Gold.Protein.RotatedTorsions>
[ 6907 6896 6895 6894 ] final -170.56 input  -60.11 | X-H torsion
[ 7974 7965 7964 7962 ] final  -17.08 input  175.53 | X-H torsion
[ 8008 7997 7996 7995 ] final  -87.03 input   59.86 | X-H torsion
[ 10167 10162 10161 10158 ] final -169.91 input  -65.29 | X-H torsion
[ 10718 10713 10712 10709 ] final -123.13 input   66.30 | X-H torsion
[ 10763 10752 10751 10750 ] final  119.04 input  -60.55 | X-H torsion
[ 11005 11000 10999 10996 ] final -159.05 input  -57.11 | X-H torsion

> <Gold.Protein.ActiveResidues>
 VAL166  LYS551  ARG553  GLY616  TRP617  ASP618  TYR619  PRO620  LYS621  CYS622 
 ASP623  PHE694  ASN695  SER759  ASP760  ASP761  ALA762  ILE779  LEU786  VAL792 
 PHE793  MET794  SER795  GLU796  ALA797  LYS798  CYS799  TRP800  GLU811  SER814 

> <Gold.Protein.RotatedAtoms>
  151.5097  133.3487  159.2882 H   0  0  0  0  0  0  0  0  0  0  0  0  # atno 6907 bound_to 6896
  150.8720  134.8098  159.7173 H   0  0  0  0  0  0  0  0  0  0  0  0  # atno 6908 bound_to 6896
  152.4705  134.4982  159.9768 H   0  0  0  0  0  0  0  0  0  0  0  0  # atno 6909 bound_to 6896
  146.1958  140.3728  142.8441 H   0  0  0  0  0  0  0  0  0  0  0  0  # atno 7974 bound_to 7965
  154.6586  140.0571  157.0037 H   0  0  0  0  0  0  0  0  0  0  0  0  # atno 8008 bound_to 7997
  155.1262  140.3252  155.4466 H   0  0  0  0  0  0  0  0  0  0  0  0  # atno 8009 bound_to 7997
  156.2608  140.1989  156.6383 H   0  0  0  0  0  0  0  0  0  0  0  0  # atno 8010 bound_to 7997
  139.5894  144.1247  152.1615 H   0  0  0  0  0  0  0  0  0  0  0  0  # atno 10167 bound_to 10162
  156.1476  130.6511  150.9866 H   0  0  0  0  0  0  0  0  0  0  0  0  # atno 10718 bound_to 10713
  153.5768  135.3491  155.2859 H   0  0  0  0  0  0  0  0  0  0  0  0  # atno 10763 bound_to 10752
  154.8674  135.4172  154.2664 H   0  0  0  0  0  0  0  0  0  0  0  0  # atno 10764 bound_to 10752
  153.3442  135.7051  153.6912 H   0  0  0  0  0  0  0  0  0  0  0  0  # atno 10765 bound_to 10752
  140.6469  134.4492  157.5234 H   0  0  0  0  0  0  0  0  0  0  0  0  # atno 11005 bound_to 11000
  144.8577  140.7094  143.6127 LP  0  0  0  0  0  0  0  0  0  0  0  0  # atno 17320 bound_to 7965
  145.3649  139.1672  143.4363 LP  0  0  0  0  0  0  0  0  0  0  0  0  # atno 17321 bound_to 7965
  140.0818  144.5694  150.7117 LP  0  0  0  0  0  0  0  0  0  0  0  0  # atno 17342 bound_to 10162
  140.7159  143.2545  151.4434 LP  0  0  0  0  0  0  0  0  0  0  0  0  # atno 17343 bound_to 10162
  157.6630  131.0877  150.7794 LP  0  0  0  0  0  0  0  0  0  0  0  0  # atno 17370 bound_to 10713
  156.7865  130.4876  149.5392 LP  0  0  0  0  0  0  0  0  0  0  0  0  # atno 17371 bound_to 10713
  139.9060  134.8449  156.1706 LP  0  0  0  0  0  0  0  0  0  0  0  0  # atno 17394 bound_to 11000
  141.0566  133.6862  156.1871 LP  0  0  0  0  0  0  0  0  0  0  0  0  # atno 17395 bound_to 11000

$$$$
