AV-unprocessed.smi:2888|AV-procd|sdf|11105|dock3
  -GOLD-   2272015573D 1   1.00000     0.00000
 Structure written by MMmdl.
 34 36  0  0  0  0  0  0  0  0  2 V2000
  151.2790  138.1164  154.7403 C   0  0  0  0  0  0  0  0  0  0  0  0
  150.7520  139.5090  155.0144 C   0  0  0  0  0  0  0  0  0  0  0  0
  149.6656  140.0422  154.2996 C   0  0  0  0  0  0  0  0  0  0  0  0
  149.2640  141.3481  154.6412 C   0  0  0  0  0  0  0  0  0  0  0  0
  148.1071  142.0401  153.9527 C   0  0  0  0  0  0  0  0  0  0  0  0
  149.9165  142.0269  155.6182 N   0  3  0  0  0  0  0  0  0  0  0  0
  150.9453  141.4538  156.2615 C   0  0  0  0  0  0  0  0  0  0  0  0
  151.5688  142.1910  157.2516 N   0  0  0  0  0  0  0  0  0  0  0  0
  151.1769  143.5426  157.6337 C   0  0  1  0  0  0  0  0  0  0  0  0
  150.0253  143.5762  158.6415 C   0  0  0  0  0  0  0  0  0  0  0  0
  150.6113  144.4512  159.7591 C   0  0  1  0  0  0  0  0  0  0  0  0
  151.6497  143.6842  160.5881 C   0  0  0  0  0  0  0  0  0  0  0  0
  152.8270  143.6083  159.6176 C   0  0  0  0  0  0  0  0  0  0  0  0
  152.2684  144.3338  158.3812 C   0  0  2  0  0  0  0  0  0  0  0  0
  151.4591  145.3102  159.0144 O   0  0  0  0  0  0  0  0  0  0  0  0
  151.3740  140.2147  155.9799 N   0  0  0  0  0  0  0  0  0  0  0  0
  150.7730  137.6649  153.8866 H   0  0  0  0  0  0  0  0  0  0  0  0
  151.1232  137.4744  155.6076 H   0  0  0  0  0  0  0  0  0  0  0  0
  152.3471  138.1488  154.5238 H   0  0  0  0  0  0  0  0  0  0  0  0
  149.1635  139.4787  153.5264 H   0  0  0  0  0  0  0  0  0  0  0  0
  147.7530  141.4591  153.1005 H   0  0  0  0  0  0  0  0  0  0  0  0
  148.4103  143.0230  153.5910 H   0  0  0  0  0  0  0  0  0  0  0  0
  147.2763  142.1689  154.6470 H   0  0  0  0  0  0  0  0  0  0  0  0
  152.4414  141.8346  157.6132 H   0  0  0  0  0  0  0  0  0  0  0  0
  150.8770  144.0924  156.7406 H   0  0  0  0  0  0  0  0  0  0  0  0
  149.1487  144.0480  158.1964 H   0  0  0  0  0  0  0  0  0  0  0  0
  149.7294  142.5919  159.0070 H   0  0  0  0  0  0  0  0  0  0  0  0
  149.8607  144.9668  160.3587 H   0  0  0  0  0  0  0  0  0  0  0  0
  151.9263  144.2457  161.4813 H   0  0  0  0  0  0  0  0  0  0  0  0
  151.2912  142.7021  160.8988 H   0  0  0  0  0  0  0  0  0  0  0  0
  153.6841  144.1485  160.0217 H   0  0  0  0  0  0  0  0  0  0  0  0
  153.1442  142.5861  159.4099 H   0  0  0  0  0  0  0  0  0  0  0  0
  153.0380  144.7501  157.7306 H   0  0  0  0  0  0  0  0  0  0  0  0
  149.6137  142.9713  155.8571 H   0  0  0  0  0  0  0  0  0  0  0  0
  1  2  1  0  0  0  0
  1 17  1  0  0  0  0
  1 18  1  0  0  0  0
  1 19  1  0  0  0  0
  2 16  1  0  0  0  0
  2  3  2  0  0  0  0
  3  4  1  0  0  0  0
  3 20  1  0  0  0  0
  4  5  1  0  0  0  0
  4  6  2  0  0  0  0
  5 21  1  0  0  0  0
  5 22  1  0  0  0  0
  5 23  1  0  0  0  0
  6  7  1  0  0  0  0
  6 34  1  0  0  0  0
  7  8  1  0  0  0  0
  7 16  2  0  0  0  0
  8  9  1  0  0  0  0
  8 24  1  0  0  0  0
  9 14  1  0  0  0  0
  9 10  1  0  0  0  0
  9 25  1  0  0  0  0
 10 11  1  0  0  0  0
 10 26  1  0  0  0  0
 10 27  1  0  0  0  0
 11 15  1  0  0  0  0
 11 12  1  0  0  0  0
 11 28  1  0  0  0  0
 12 13  1  0  0  0  0
 12 29  1  0  0  0  0
 12 30  1  0  0  0  0
 13 14  1  0  0  0  0
 13 31  1  0  0  0  0
 13 32  1  0  0  0  0
 14 15  1  0  0  0  0
 14 33  1  0  0  0  0
M  CHG  1   6   1
M  END
> <s_m_source_file>
AV-unprocessed.smi

> <i_m_source_file_index>
2888

> <i_lp_mmshare_version>
43012

> <i_f3d_flags>
0

> <s_epik_input>
W0NIM11jMVtjSF1jKFtDSDNdKW5jKG4xKVtOSF1bQ0BIXShbQ0gyXVtDQEBIXTIzKVtDQEBIXShPMylbQ0gyXVtDSDJdMg==

> <s_epik_cmdline>
J2VwaWtfcHl0aG9uJywgJy1waCcsICc3LjAnLCAnLXRuJywgJzgnLCAnLW1hJywgJzIwMCcsICctbWV0YWxfYmluZGluZycsICctaW1hZScsICc8aW5maWxlLm1hZT4nLCAnLW9tYWUnLCAnPG91dGZpbGUubWFlPic=

> <r_lp_tautomer_probability>
0.505494

> <r_epik_Ionization_Penalty>
2.49163

> <r_epik_Ionization_Penalty_Charging>
2.49163

> <r_epik_Ionization_Penalty_Neutral>
3.7631e-06

> <r_epik_State_Penalty>
2.656

> <r_epik_Charging_Adjusted_Penalty>
5.14762

> <i_epik_Tot_Q>
1

> <i_epik_Tot_abs_Q>
1

> <r_epik_Metal_State_Penalty>
2.66479

> <b_epik_Metal_Only>
0

> <s_lp_Force_Field>
OPLS_2005

> <r_lp_Energy>
36.4531

> <b_lp_Chiralities_Consistent>
1

> <s_lp_Variant>
AV-unprocessed.smi:2888-6

> <Gold.Version>
5.8.1

> <Gold.Id.Protein>
6NUR|6NUR_protein|mol2

> <Gold.PLP.Fitness>
44.1510

> <Gold.PLP.PLP>
-38.7618

> <Gold.PLP.part.hbond>
-1.4871

> <Gold.PLP.part.metal>
0.0000

> <Gold.PLP.part.buried>
-0.3045

> <Gold.PLP.part.nonpolar>
-35.2115

> <Gold.PLP.part.repulsive>
0.3517

> <Gold.PLP.ligand.clash>
0.0000

> <Gold.PLP.ligand.torsion>
0.3098

> <Gold.PLP.Chemscore.Hbond>
2.0000

> <Gold.PLP.Chemscore.CHOScore>
0.0000

> <Gold.PLP.Chemscore.Metal>
0.0000

> <Gold.Chemscore.Hbonds>
donor molecule, donor type, donor heavy atom, donor atom, acceptor molecule, acceptor atom, score
      L1  H     6    34       P1  8028  2.00

> <Gold.PLP.Chemscore.Internal.Correction>
0.0088

> <Gold.Rescore>
     Score         DG    S(hbond)    S(metal)    S(lipo)     H(rot)  DE(clash)    DE(int)     intcor
     16.88     -18.24       0.97        0.00     103.24       1.00       1.27       0.09       ----

> <Gold.Chemscore.Fitness>
16.8792

> <Gold.Chemscore.DG>
-18.2400

> <Gold.Chemscore.ZeroCoef>
-5.4800

> <Gold.Chemscore.Hbond>
0.9702

> <Gold.Chemscore.Metal>
0.0000

> <Gold.Chemscore.Lipo>
103.2430

> <Gold.Chemscore.Internal_Hbond>
0.0000

> <Gold.Chemscore.DEClash>
1.2684

> <Gold.Chemscore.DEInternal>
0.0923

> <Gold.Chemscore.Rot>
1.0000

> <Gold.Chemscore.Internal.Correction>
   9.000000E+99

> <Gold.Chemscore.Hbonds>
donor molecule, donor type, donor heavy atom, donor atom, acceptor molecule, acceptor atom, score
      L1  H     6    34       P1  8028  0.99

> <Gold.Chemscore.Hbond.Weighted>
-3.2405

> <Gold.Chemscore.Metal.Weighted>
-0.0000

> <Gold.Chemscore.Lipo.Weighted>
-12.0794

> <Gold.Chemscore.Internal_Hbond.Weighted>
0.0000

> <Gold.Chemscore.DEClash.Weighted>
1.2684

> <Gold.Chemscore.DEInternal.Weighted>
0.0923

> <Gold.Chemscore.Rot.Weighted>
2.5600

> <Gold.Chemscore.Internal.Correction.Weighted>
   9.000000E+99

> <Gold.Protein.RotatedTorsions>
[ 6907 6896 6895 6894 ] final    9.92 input  -60.11 | X-H torsion
[ 7974 7965 7964 7962 ] final   -2.26 input  175.53 | X-H torsion
[ 8008 7997 7996 7995 ] final   58.30 input   59.86 | X-H torsion
[ 10167 10162 10161 10158 ] final  146.51 input  -65.29 | X-H torsion
[ 10718 10713 10712 10709 ] final   50.55 input   66.30 | X-H torsion
[ 10763 10752 10751 10750 ] final   79.02 input  -60.55 | X-H torsion
[ 11005 11000 10999 10996 ] final  125.79 input  -57.11 | X-H torsion

> <Gold.Protein.ActiveResidues>
 VAL166  LYS551  ARG553  GLY616  TRP617  ASP618  TYR619  PRO620  LYS621  CYS622 
 ASP623  PHE694  ASN695  SER759  ASP760  ASP761  ALA762  ILE779  LEU786  VAL792 
 PHE793  MET794  SER795  GLU796  ALA797  LYS798  CYS799  TRP800  GLU811  SER814 

> <Gold.Protein.RotatedAtoms>
  151.7300  135.0877  160.0298 H   0  0  0  0  0  0  0  0  0  0  0  0  # atno 6907 bound_to 6896
  152.3547  133.6218  159.5979 H   0  0  0  0  0  0  0  0  0  0  0  0  # atno 6908 bound_to 6896
  150.7563  133.9435  159.3505 H   0  0  0  0  0  0  0  0  0  0  0  0  # atno 6909 bound_to 6896
  146.2407  140.1544  142.8333 H   0  0  0  0  0  0  0  0  0  0  0  0  # atno 7974 bound_to 7965
  155.5478  140.3485  155.4461 H   0  0  0  0  0  0  0  0  0  0  0  0  # atno 8008 bound_to 7997
  156.0605  140.1339  156.9973 H   0  0  0  0  0  0  0  0  0  0  0  0  # atno 8009 bound_to 7997
  154.4477  140.0986  156.6495 H   0  0  0  0  0  0  0  0  0  0  0  0  # atno 8010 bound_to 7997
  139.4906  144.5824  151.6846 H   0  0  0  0  0  0  0  0  0  0  0  0  # atno 10167 bound_to 10162
  157.4895  130.8367  149.8186 H   0  0  0  0  0  0  0  0  0  0  0  0  # atno 10718 bound_to 10713
  153.0919  135.4855  154.8707 H   0  0  0  0  0  0  0  0  0  0  0  0  # atno 10763 bound_to 10752
  154.7280  135.3054  154.8942 H   0  0  0  0  0  0  0  0  0  0  0  0  # atno 10764 bound_to 10752
  153.9586  135.6815  153.4798 H   0  0  0  0  0  0  0  0  0  0  0  0  # atno 10765 bound_to 10752
  139.9424  134.9634  156.8611 H   0  0  0  0  0  0  0  0  0  0  0  0  # atno 11005 bound_to 11000
  145.0141  140.8739  143.5206 LP  0  0  0  0  0  0  0  0  0  0  0  0  # atno 17320 bound_to 7965
  145.1582  139.2474  143.5405 LP  0  0  0  0  0  0  0  0  0  0  0  0  # atno 17321 bound_to 7965
  140.5433  144.0544  150.6097 LP  0  0  0  0  0  0  0  0  0  0  0  0  # atno 17342 bound_to 10162
  140.3574  143.2928  152.0421 LP  0  0  0  0  0  0  0  0  0  0  0  0  # atno 17343 bound_to 10162
  156.0165  130.3811  150.2093 LP  0  0  0  0  0  0  0  0  0  0  0  0  # atno 17370 bound_to 10713
  157.0281  130.9999  151.3320 LP  0  0  0  0  0  0  0  0  0  0  0  0  # atno 17371 bound_to 10713
  140.5919  134.0254  155.7503 LP  0  0  0  0  0  0  0  0  0  0  0  0  # atno 17394 bound_to 11000
  141.1063  133.9688  157.2991 LP  0  0  0  0  0  0  0  0  0  0  0  0  # atno 17395 bound_to 11000

$$$$
