AV-unprocessed.smi:2593|AV-procd|sdf|10164|dock3
  -GOLD-   2272014173D 1   1.00000     0.00000
 Structure written by MMmdl.
 41 43  0  0  0  0  0  0  0  0  2 V2000
  141.2924  138.1083  153.1958 C   0  0  0  0  0  0  0  0  0  0  0  0
  142.6439  137.7429  153.4110 O   0  0  0  0  0  0  0  0  0  0  0  0
  142.7904  136.3737  153.7519 C   0  0  0  0  0  0  0  0  0  0  0  0
  142.9130  135.5373  152.4706 C   0  0  0  0  0  0  0  0  0  0  0  0
  144.3120  135.2353  152.1362 N   0  0  0  0  0  0  0  0  0  0  0  0
  145.4621  135.8991  152.4415 C   0  0  0  0  0  0  0  0  0  0  0  0
  145.6157  137.3615  153.4133 S   0  0  0  0  0  0  0  0  0  0  0  0
  146.4457  138.5507  152.3207 C   0  0  0  0  0  0  0  0  0  0  0  0
  147.3046  139.4926  153.1426 C   0  0  0  0  0  0  0  0  0  0  0  0
  148.4815  139.0308  153.7682 C   0  0  0  0  0  0  0  0  0  0  0  0
  149.2265  139.9375  154.5465 C   0  0  0  0  0  0  0  0  0  0  0  0
  148.7645  141.2621  154.6736 C   0  0  0  0  0  0  0  0  0  0  0  0
  147.5755  141.6256  154.0090 C   0  0  0  0  0  0  0  0  0  0  0  0
  147.0823  142.9231  154.1165 N   0  0  0  0  0  0  0  0  0  0  0  0
  146.8587  140.7646  153.2563 N   0  0  0  0  0  0  0  0  0  0  0  0
  146.4975  135.2146  151.8834 N   0  3  0  0  0  0  0  0  0  0  0  0
  146.0060  134.0922  151.2155 C   0  0  0  0  0  0  0  0  0  0  0  0
  146.6652  133.0943  150.5044 C   0  0  0  0  0  0  0  0  0  0  0  0
  145.8606  132.0837  149.9386 C   0  0  0  0  0  0  0  0  0  0  0  0
  144.4586  132.0905  150.0888 C   0  0  0  0  0  0  0  0  0  0  0  0
  143.8007  133.1072  150.8123 C   0  0  0  0  0  0  0  0  0  0  0  0
  144.6035  134.1011  151.3709 C   0  0  0  0  0  0  0  0  0  0  0  0
  141.2361  139.1644  152.9322 H   0  0  0  0  0  0  0  0  0  0  0  0
  140.6944  137.9533  154.0947 H   0  0  0  0  0  0  0  0  0  0  0  0
  140.8536  137.5338  152.3792 H   0  0  0  0  0  0  0  0  0  0  0  0
  143.6783  136.2337  154.3701 H   0  0  0  0  0  0  0  0  0  0  0  0
  141.9308  136.0420  154.3360 H   0  0  0  0  0  0  0  0  0  0  0  0
  142.3854  134.5923  152.5948 H   0  0  0  0  0  0  0  0  0  0  0  0
  142.4467  136.0415  151.6237 H   0  0  0  0  0  0  0  0  0  0  0  0
  147.0646  138.0116  151.6031 H   0  0  0  0  0  0  0  0  0  0  0  0
  145.7033  139.1102  151.7509 H   0  0  0  0  0  0  0  0  0  0  0  0
  148.8038  138.0055  153.6587 H   0  0  0  0  0  0  0  0  0  0  0  0
  150.1329  139.6216  155.0414 H   0  0  0  0  0  0  0  0  0  0  0  0
  149.3133  141.9785  155.2675 H   0  0  0  0  0  0  0  0  0  0  0  0
  147.5597  143.6231  154.6660 H   0  0  0  0  0  0  0  0  0  0  0  0
  146.3004  143.2337  153.5582 H   0  0  0  0  0  0  0  0  0  0  0  0
  147.7391  133.0872  150.3867 H   0  0  0  0  0  0  0  0  0  0  0  0
  146.3280  131.2877  149.3772 H   0  0  0  0  0  0  0  0  0  0  0  0
  143.8753  131.2995  149.6401 H   0  0  0  0  0  0  0  0  0  0  0  0
  142.7261  133.1040  150.9209 H   0  0  0  0  0  0  0  0  0  0  0  0
  147.4670  135.4921  151.9643 H   0  0  0  0  0  0  0  0  0  0  0  0
  1  2  1  0  0  0  0
  1 23  1  0  0  0  0
  1 24  1  0  0  0  0
  1 25  1  0  0  0  0
  2  3  1  0  0  0  0
  3  4  1  0  0  0  0
  3 26  1  0  0  0  0
  3 27  1  0  0  0  0
  4  5  1  0  0  0  0
  4 28  1  0  0  0  0
  4 29  1  0  0  0  0
  5 22  1  0  0  0  0
  5  6  1  0  0  0  0
  6  7  1  0  0  0  0
  6 16  2  0  0  0  0
  7  8  1  0  0  0  0
  8  9  1  0  0  0  0
  8 30  1  0  0  0  0
  8 31  1  0  0  0  0
  9 15  1  0  0  0  0
  9 10  2  0  0  0  0
 10 11  1  0  0  0  0
 10 32  1  0  0  0  0
 11 12  2  0  0  0  0
 11 33  1  0  0  0  0
 12 13  1  0  0  0  0
 12 34  1  0  0  0  0
 13 14  1  0  0  0  0
 13 15  2  0  0  0  0
 14 35  1  0  0  0  0
 14 36  1  0  0  0  0
 16 17  1  0  0  0  0
 16 41  1  0  0  0  0
 17 22  2  0  0  0  0
 17 18  1  0  0  0  0
 18 19  2  0  0  0  0
 18 37  1  0  0  0  0
 19 20  1  0  0  0  0
 19 38  1  0  0  0  0
 20 21  2  0  0  0  0
 20 39  1  0  0  0  0
 21 22  1  0  0  0  0
 21 40  1  0  0  0  0
M  CHG  1  16   1
M  END
> <s_m_source_file>
AV-unprocessed.smi

> <i_m_source_file_index>
2593

> <i_lp_mmshare_version>
43012

> <i_f3d_flags>
0

> <s_epik_input>
W2NIXTFbY0hdW2NIXVtjSF1jKGMxMiluKFtDSDJdW0NIMl1PW0NIM10pYyhuMilTW0NIMl1jM1tjSF1bY0hdW2NIXWMobjMpW05IMl0=

> <s_epik_cmdline>
J2VwaWtfcHl0aG9uJywgJy1waCcsICc3LjAnLCAnLXRuJywgJzgnLCAnLW1hJywgJzIwMCcsICctbWV0YWxfYmluZGluZycsICctaW1hZScsICc8aW5maWxlLm1hZT4nLCAnLW9tYWUnLCAnPG91dGZpbGUubWFlPic=

> <r_lp_tautomer_probability>
1

> <r_epik_Ionization_Penalty>
1.62501

> <r_epik_Ionization_Penalty_Charging>
1.62036

> <r_epik_Ionization_Penalty_Neutral>
0.00464699

> <r_epik_State_Penalty>
1.7318

> <r_epik_Charging_Adjusted_Penalty>
3.35216

> <i_epik_Tot_Q>
1

> <i_epik_Tot_abs_Q>
1

> <r_epik_Metal_State_Penalty>
1.7649

> <b_epik_Metal_Only>
0

> <s_lp_Force_Field>
OPLS_2005

> <r_lp_Energy>
8.46533

> <b_lp_Chiralities_Consistent>
1

> <s_lp_Variant>
AV-unprocessed.smi:2593-2

> <Gold.Version>
5.8.1

> <Gold.Id.Protein>
6NUR|6NUR_protein|mol2

> <Gold.PLP.Fitness>
50.5566

> <Gold.PLP.PLP>
-43.6824

> <Gold.PLP.part.hbond>
-2.0000

> <Gold.PLP.part.metal>
0.0000

> <Gold.PLP.part.buried>
-5.2921

> <Gold.PLP.part.nonpolar>
-37.8706

> <Gold.PLP.part.repulsive>
1.4156

> <Gold.PLP.ligand.clash>
0.0000

> <Gold.PLP.ligand.torsion>
1.0944

> <Gold.PLP.Chemscore.Hbond>
3.0000

> <Gold.PLP.Chemscore.CHOScore>
0.0000

> <Gold.PLP.Chemscore.Metal>
0.0000

> <Gold.Chemscore.Hbonds>
donor molecule, donor type, donor heavy atom, donor atom, acceptor molecule, acceptor atom, score
      L1  H    14    35       P1  8028  0.90
      L1  H    16    41       P1  7948  2.00

> <Gold.PLP.Chemscore.Internal.Correction>
0.0631

> <Gold.Rescore>
     Score         DG    S(hbond)    S(metal)    S(lipo)     H(rot)  DE(clash)    DE(int)     intcor
     16.73     -18.10       1.97        0.00      99.72       2.19       0.22       1.15       ----

> <Gold.Chemscore.Fitness>
16.7313

> <Gold.Chemscore.DG>
-18.1047

> <Gold.Chemscore.ZeroCoef>
-5.4800

> <Gold.Chemscore.Hbond>
1.9683

> <Gold.Chemscore.Metal>
0.0000

> <Gold.Chemscore.Lipo>
99.7227

> <Gold.Chemscore.Internal_Hbond>
0.0000

> <Gold.Chemscore.DEClash>
0.2226

> <Gold.Chemscore.DEInternal>
1.1508

> <Gold.Chemscore.Rot>
2.1941

> <Gold.Chemscore.Internal.Correction>
   9.000000E+99

> <Gold.Chemscore.Hbonds>
donor molecule, donor type, donor heavy atom, donor atom, acceptor molecule, acceptor atom, score
      L1  H    14    35       P1  8028  0.18
      L1  H    16    41       P1  7948  0.99

> <Gold.Chemscore.Hbond.Weighted>
-6.5741

> <Gold.Chemscore.Metal.Weighted>
-0.0000

> <Gold.Chemscore.Lipo.Weighted>
-11.6676

> <Gold.Chemscore.Internal_Hbond.Weighted>
0.0000

> <Gold.Chemscore.DEClash.Weighted>
0.2226

> <Gold.Chemscore.DEInternal.Weighted>
1.1508

> <Gold.Chemscore.Rot.Weighted>
5.6169

> <Gold.Chemscore.Internal.Correction.Weighted>
   9.000000E+99

> <Gold.Protein.RotatedTorsions>
[ 6907 6896 6895 6894 ] final  -36.02 input  -60.11 | X-H torsion
[ 7974 7965 7964 7962 ] final  -67.23 input  175.53 | X-H torsion
[ 8008 7997 7996 7995 ] final  105.64 input   59.86 | X-H torsion
[ 10167 10162 10161 10158 ] final  152.46 input  -65.29 | X-H torsion
[ 10718 10713 10712 10709 ] final   71.15 input   66.30 | X-H torsion
[ 10763 10752 10751 10750 ] final -164.51 input  -60.55 | X-H torsion
[ 11005 11000 10999 10996 ] final  177.28 input  -57.11 | X-H torsion

> <Gold.Protein.ActiveResidues>
 VAL166  LYS551  ARG553  GLY616  TRP617  ASP618  TYR619  PRO620  LYS621  CYS622 
 ASP623  PHE694  ASN695  SER759  ASP760  ASP761  ALA762  ILE779  LEU786  VAL792 
 PHE793  MET794  SER795  GLU796  ALA797  LYS798  CYS799  TRP800  GLU811  SER814 

> <Gold.Protein.RotatedAtoms>
  151.0324  134.9548  159.8117 H   0  0  0  0  0  0  0  0  0  0  0  0  # atno 6907 bound_to 6896
  152.5348  134.2763  159.9000 H   0  0  0  0  0  0  0  0  0  0  0  0  # atno 6908 bound_to 6896
  151.2773  133.4184  159.2659 H   0  0  0  0  0  0  0  0  0  0  0  0  # atno 6909 bound_to 6896
  145.7318  140.8993  143.0576 H   0  0  0  0  0  0  0  0  0  0  0  0  # atno 7974 bound_to 7965
  156.1676  140.3127  155.8916 H   0  0  0  0  0  0  0  0  0  0  0  0  # atno 8008 bound_to 7997
  155.3654  140.0479  157.3063 H   0  0  0  0  0  0  0  0  0  0  0  0  # atno 8009 bound_to 7997
  154.5208  140.2197  155.8991 H   0  0  0  0  0  0  0  0  0  0  0  0  # atno 8010 bound_to 7997
  139.4833  144.5356  151.7651 H   0  0  0  0  0  0  0  0  0  0  0  0  # atno 10167 bound_to 10162
  157.6437  130.9513  150.0749 H   0  0  0  0  0  0  0  0  0  0  0  0  # atno 10718 bound_to 10713
  154.7021  135.2990  154.9325 H   0  0  0  0  0  0  0  0  0  0  0  0  # atno 10763 bound_to 10752
  154.0254  135.6677  153.4780 H   0  0  0  0  0  0  0  0  0  0  0  0  # atno 10764 bound_to 10752
  153.0689  135.5072  154.8171 H   0  0  0  0  0  0  0  0  0  0  0  0  # atno 10765 bound_to 10752
  140.3824  134.6935  157.4459 H   0  0  0  0  0  0  0  0  0  0  0  0  # atno 11005 bound_to 11000
  144.6891  139.9342  143.7473 LP  0  0  0  0  0  0  0  0  0  0  0  0  # atno 17320 bound_to 7965
  146.0530  139.3529  143.0628 LP  0  0  0  0  0  0  0  0  0  0  0  0  # atno 17321 bound_to 7965
  140.4888  144.1341  150.5946 LP  0  0  0  0  0  0  0  0  0  0  0  0  # atno 17342 bound_to 10162
  140.4195  143.2618  151.9733 LP  0  0  0  0  0  0  0  0  0  0  0  0  # atno 17343 bound_to 10162
  156.1742  130.3647  149.9123 LP  0  0  0  0  0  0  0  0  0  0  0  0  # atno 17370 bound_to 10713
  156.7091  130.8963  151.3607 LP  0  0  0  0  0  0  0  0  0  0  0  0  # atno 17371 bound_to 10713
  140.0468  134.6187  155.8910 LP  0  0  0  0  0  0  0  0  0  0  0  0  # atno 17394 bound_to 11000
  141.1919  133.6573  156.5477 LP  0  0  0  0  0  0  0  0  0  0  0  0  # atno 17395 bound_to 11000

$$$$
