#       Name:                AV-unprocessed.smi:364
#       Creating user name   scv26
#       Creation time:       Thu Mar 26 22:36:32 2020


#       File generated by GOLD software.
#

@<TRIPOS>MOLECULE
AV-unprocessed.smi:364
    42    43     1
SMALL
NO_CHARGES


@<TRIPOS>ATOM
      1 ****        -4.8760  -0.4629   0.6101 C.3            1 S1                 0.0000
      2 ****        -3.3437  -0.4583   0.5174 C.3            1 S1                 0.0000
      3 ****        -2.7180   0.4854   1.5621 C.3            1 S1                 0.0000
      4 ****        -1.1836   0.4949   1.4705 C.3            1 S1                 0.0000
      5 ****        -0.7063   0.8646   0.0521 C.3            1 S1                 0.0000
      6 ****         0.7473   0.7873  -0.0380 N.am           1 S1                 0.0000
      7 ****         1.6098   1.7490   0.3316 C.2            1 S1                 0.0000
      8 ****         1.2465   2.8218   0.8122 O.2            1 S1                 0.0000
      9 ****         3.1143   1.4860   0.1436 C.3            1 S1                 0.0000
     10 ****         3.4472   0.1905  -0.4768 N.am           1 S1                 0.0000
     11 ****         3.7561  -0.8775   0.3824 C.2            1 S1                 0.0000
     12 ****         4.0655  -2.0869  -0.1066 C.2            1 S1                 0.0000
     13 ****         4.0604  -2.2205  -1.5692 C.2            1 S1                 0.0000
     14 ****         3.7772  -1.2495  -2.3551 N.2            1 S1                 0.0000
     15 ****         3.4523   0.0194  -1.8393 C.2            1 S1                 0.0000
     16 ****         3.1728   0.9554  -2.5883 O.2            1 S1                 0.0000
     17 ****        -1.3322  -0.0751  -0.9939 C.3            1 S1                 0.0000
     18 ****        -2.8661  -0.0821  -0.8981 C.3            1 S1                 0.0000
     19 ****        -5.2884   0.5255   0.4052 H              1 S1                 0.0000
     20 ****        -5.2085  -0.7629   1.6041 H              1 S1                 0.0000
     21 ****        -5.3102  -1.1604  -0.1067 H              1 S1                 0.0000
     22 ****        -2.9989  -1.4712   0.7306 H              1 S1                 0.0000
     23 ****        -3.0954   1.4986   1.4174 H              1 S1                 0.0000
     24 ****        -3.0207   0.1848   2.5658 H              1 S1                 0.0000
     25 ****        -0.7802   1.1987   2.1994 H              1 S1                 0.0000
     26 ****        -0.7991  -0.4881   1.7460 H              1 S1                 0.0000
     27 ****        -1.0244   1.8843  -0.1745 H              1 S1                 0.0000
     28 ****         1.1329  -0.0631  -0.4230 H              1 S1                 0.0000
     29 ****         3.5374   2.3036  -0.4424 H              1 S1                 0.0000
     30 ****         3.5931   1.5647   1.1208 H              1 S1                 0.0000
     31 ****         3.7202  -0.6524   1.4386 H              1 S1                 0.0000
     32 ****         4.3108  -2.9488   0.4962 H              1 S1                 0.0000
     33 ****         4.3162  -3.2129  -1.9486 H              1 S1                 0.0000
     34 ****        -1.0291   0.2277  -1.9969 H              1 S1                 0.0000
     35 ****        -0.9575  -1.0899  -0.8517 H              1 S1                 0.0000
     36 ****        -3.2729  -0.7828  -1.6279 H              1 S1                 0.0000
     37 ****        -3.2505   0.9024  -1.1685 H              1 S1                 0.0000
     38 ****         0.2725   3.0072   0.9422 LP             1 S1                 0.0000
     39 ****         1.9253   3.5084   1.0728 LP             1 S1                 0.0000
     40 ****         3.7870  -1.3942  -3.3445 LP             1 S1                 0.0000
     41 ****         2.9396   1.8494  -2.2058 LP             1 S1                 0.0000
     42 ****         3.1791   0.8218  -3.5793 LP             1 S1                 0.0000
@<TRIPOS>BOND
    1    1    2 1     
    2    1   19 1     
    3    1   20 1     
    4    1   21 1     
    5    2   18 1     
    6    2    3 1     
    7    2   22 1     
    8    3    4 1     
    9    3   23 1     
   10    3   24 1     
   11    4    5 1     
   12    4   25 1     
   13    4   26 1     
   14    5    6 1     
   15    5   17 1     
   16    5   27 1     
   17    6    7 am    
   18    6   28 1     
   19    7    8 2     
   20    7    9 1     
   21    9   10 1     
   22    9   29 1     
   23    9   30 1     
   24   10   15 am    
   25   10   11 1     
   26   11   12 2     
   27   11   31 1     
   28   12   13 1     
   29   12   32 1     
   30   13   14 2     
   31   13   33 1     
   32   14   15 1     
   33   15   16 2     
   34   17   18 1     
   35   17   34 1     
   36   17   35 1     
   37   18   36 1     
   38   18   37 1     
   39    8   38 1     
   40    8   39 1     
   41   14   40 1     
   42   16   41 1     
   43   16   42 1     
@<TRIPOS>SUBSTRUCTURE
      1 S1             1
@<TRIPOS>SET
LONE_PAIRS      STATIC     ATOMS    <user>   **** ""
5 38 39 40 41 42
DONOR_HYDROGENS      STATIC     ATOMS    <user>   **** ""
1 28
ATOM$BLUE        STATIC     ATOMS    COLORGROUP SYSTEM
5 38 39 40 41 42
ATOM$RED        STATIC     ATOMS    COLORGROUP SYSTEM
1 28
