AV-unprocessed.smi:2061|AV-procd|sdf|8373|dock2
  -GOLD-   2272011 43D 1   1.00000     0.00000
 Structure written by MMmdl.
 46 47  0  0  0  0  0  0  0  0  2 V2000
  151.1809  141.5440  156.6730 C   0  0  0  0  0  0  0  0  0  0  0  0
  151.1214  140.1868  156.0599 C   0  0  0  0  0  0  0  0  0  0  0  0
  150.0909  139.4259  155.5839 C   0  0  0  0  0  0  0  0  0  0  0  0
  150.7433  138.2438  155.1436 C   0  0  0  0  0  0  0  0  0  0  0  0
  150.0056  137.1757  154.5729 N   0  0  0  0  0  0  0  0  0  0  0  0
  149.3223  136.2161  155.2190 C   0  0  0  0  0  0  0  0  0  0  0  0
  149.2431  136.1000  156.4426 O   0  0  0  0  0  0  0  0  0  0  0  0
  148.7150  135.3851  154.3595 N   0  0  0  0  0  0  0  0  0  0  0  0
  147.8760  134.2545  154.7469 C   0  0  0  0  0  0  0  0  0  0  0  0
  147.4343  133.3795  153.5416 C   0  0  1  0  0  0  0  0  0  0  0  0
  146.3648  132.3570  153.9974 C   0  0  0  0  0  0  0  0  0  0  0  0
  146.9745  134.2437  152.4018 N   0  3  1  0  0  0  0  0  0  0  0  0
  146.7207  133.5078  151.1320 C   0  0  0  0  0  0  0  0  0  0  0  0
  145.3721  132.7529  151.1677 C   0  0  2  0  0  0  0  0  0  0  0  0
  145.0510  132.0894  149.8238 C   0  0  0  0  0  0  0  0  0  0  0  0
  144.3245  133.6703  151.4660 O   0  0  0  0  0  0  0  0  0  0  0  0
  144.4977  134.3295  152.7160 C   0  0  2  0  0  0  0  0  0  0  0  0
  143.2792  135.2281  152.9521 C   0  0  0  0  0  0  0  0  0  0  0  0
  145.8120  135.1347  152.6652 C   0  0  0  0  0  0  0  0  0  0  0  0
  152.0535  138.2792  155.3335 N   0  0  0  0  0  0  0  0  0  0  0  0
  152.3026  139.5255  155.9207 O   0  0  0  0  0  0  0  0  0  0  0  0
  150.1835  141.8969  156.9358 H   0  0  0  0  0  0  0  0  0  0  0  0
  151.6215  142.2612  155.9803 H   0  0  0  0  0  0  0  0  0  0  0  0
  151.7849  141.5338  157.5803 H   0  0  0  0  0  0  0  0  0  0  0  0
  149.0409  139.6772  155.5575 H   0  0  0  0  0  0  0  0  0  0  0  0
  149.9878  137.1470  153.5642 H   0  0  0  0  0  0  0  0  0  0  0  0
  148.8357  135.5479  153.3702 H   0  0  0  0  0  0  0  0  0  0  0  0
  148.4395  133.6461  155.4551 H   0  0  0  0  0  0  0  0  0  0  0  0
  147.0282  134.6539  155.3011 H   0  0  0  0  0  0  0  0  0  0  0  0
  148.2911  132.7988  153.2023 H   0  0  0  0  0  0  0  0  0  0  0  0
  146.6949  131.7809  154.8616 H   0  0  0  0  0  0  0  0  0  0  0  0
  146.1485  131.6195  153.2250 H   0  0  0  0  0  0  0  0  0  0  0  0
  145.4324  132.8512  154.2722 H   0  0  0  0  0  0  0  0  0  0  0  0
  146.6984  134.2388  150.3224 H   0  0  0  0  0  0  0  0  0  0  0  0
  147.5297  132.8256  150.8815 H   0  0  0  0  0  0  0  0  0  0  0  0
  145.3916  131.9741  151.9306 H   0  0  0  0  0  0  0  0  0  0  0  0
  145.8181  131.3645  149.5508 H   0  0  0  0  0  0  0  0  0  0  0  0
  144.9873  132.8268  149.0232 H   0  0  0  0  0  0  0  0  0  0  0  0
  144.0974  131.5626  149.8668 H   0  0  0  0  0  0  0  0  0  0  0  0
  144.5376  133.5872  153.5146 H   0  0  0  0  0  0  0  0  0  0  0  0
  143.3576  135.7526  153.9047 H   0  0  0  0  0  0  0  0  0  0  0  0
  142.3605  134.6413  152.9716 H   0  0  0  0  0  0  0  0  0  0  0  0
  143.1804  135.9761  152.1648 H   0  0  0  0  0  0  0  0  0  0  0  0
  145.9485  135.7432  153.5576 H   0  0  0  0  0  0  0  0  0  0  0  0
  145.7519  135.8561  151.8488 H   0  0  0  0  0  0  0  0  0  0  0  0
  147.7510  134.8640  152.2215 H   0  0  0  0  0  0  0  0  0  0  0  0
  1  2  1  0  0  0  0
  1 22  1  0  0  0  0
  1 23  1  0  0  0  0
  1 24  1  0  0  0  0
  2 21  1  0  0  0  0
  2  3  2  0  0  0  0
  3  4  1  0  0  0  0
  3 25  1  0  0  0  0
  4  5  1  0  0  0  0
  4 20  2  0  0  0  0
  5  6  1  0  0  0  0
  5 26  1  0  0  0  0
  6  7  2  0  0  0  0
  6  8  1  0  0  0  0
  8  9  1  0  0  0  0
  8 27  1  0  0  0  0
  9 10  1  0  0  0  0
  9 28  1  0  0  0  0
  9 29  1  0  0  0  0
 10 11  1  0  0  0  0
 10 12  1  0  0  0  0
 10 30  1  0  0  0  0
 11 31  1  0  0  0  0
 11 32  1  0  0  0  0
 11 33  1  0  0  0  0
 12 19  1  0  0  0  0
 12 13  1  0  0  0  0
 12 46  1  0  0  0  0
 13 14  1  0  0  0  0
 13 34  1  0  0  0  0
 13 35  1  0  0  0  0
 14 15  1  0  0  0  0
 14 16  1  0  0  0  0
 14 36  1  0  0  0  0
 15 37  1  0  0  0  0
 15 38  1  0  0  0  0
 15 39  1  0  0  0  0
 16 17  1  0  0  0  0
 17 18  1  0  0  0  0
 17 19  1  0  0  0  0
 17 40  1  0  0  0  0
 18 41  1  0  0  0  0
 18 42  1  0  0  0  0
 18 43  1  0  0  0  0
 19 44  1  0  0  0  0
 19 45  1  0  0  0  0
 20 21  1  0  0  0  0
M  CHG  1  12   1
M  END
> <s_m_source_file>
AV-unprocessed.smi

> <i_m_source_file_index>
2061

> <i_lp_mmshare_version>
43012

> <i_f3d_flags>
0

> <s_epik_input>
W0NIM11jMVtjSF1jKG5vMSlbTkhdQyg9TylbTkhdW0NIMl1bQ0BIXShbQ0gzXSlOMltDSDJdW0NAQEhdKFtDSDNdKU9bQ0BASF0oW0NIM10pW0NIMl0y

> <s_epik_cmdline>
J2VwaWtfcHl0aG9uJywgJy1waCcsICc3LjAnLCAnLXRuJywgJzgnLCAnLW1hJywgJzIwMCcsICctbWV0YWxfYmluZGluZycsICctaW1hZScsICc8aW5maWxlLm1hZT4nLCAnLW9tYWUnLCAnPG91dGZpbGUubWFlPic=

> <r_epik_Ionization_Penalty>
0.707076

> <r_epik_Ionization_Penalty_Charging>
0.707039

> <r_epik_Ionization_Penalty_Neutral>
3.6548e-05

> <r_epik_State_Penalty>
0.730276

> <r_epik_Charging_Adjusted_Penalty>
1.43732

> <i_epik_Tot_Q>
1

> <i_epik_Tot_abs_Q>
1

> <r_epik_Metal_State_Penalty>
0.743132

> <b_epik_Metal_Only>
0

> <s_lp_Force_Field>
OPLS_2005

> <r_lp_Energy>
17.8186

> <b_lp_Chiralities_Consistent>
1

> <s_lp_Variant>
AV-unprocessed.smi:2061-14

> <Gold.Version>
5.8.1

> <Gold.Id.Protein>
6NUR|6NUR_protein|mol2

> <Gold.PLP.Fitness>
42.8455

> <Gold.PLP.PLP>
-30.7314

> <Gold.PLP.part.hbond>
-4.0503

> <Gold.PLP.part.metal>
0.0000

> <Gold.PLP.part.buried>
-5.8768

> <Gold.PLP.part.nonpolar>
-21.2888

> <Gold.PLP.part.repulsive>
0.2500

> <Gold.PLP.ligand.clash>
0.0000

> <Gold.PLP.ligand.torsion>
0.8601

> <Gold.PLP.Chemscore.Hbond>
4.5921

> <Gold.PLP.Chemscore.CHOScore>
0.0000

> <Gold.PLP.Chemscore.Metal>
0.0000

> <Gold.Chemscore.Hbonds>
donor molecule, donor type, donor heavy atom, donor atom, acceptor molecule, acceptor atom, score
      L1  H     5    26       P1  7948  0.61
      L1  H     8    27       P1  7948  1.00
      L1  H    12    46       P1  7948  2.00
      P1  H  7997  8010       L1    21  0.67

> <Gold.PLP.Chemscore.Internal.Correction>
0.0582

> <Gold.Rescore>
     Score         DG    S(hbond)    S(metal)    S(lipo)     H(rot)  DE(clash)    DE(int)     intcor
     17.34     -19.80       3.16        0.00      66.71       1.58       0.12       2.34       ----

> <Gold.Chemscore.Fitness>
17.3403

> <Gold.Chemscore.DG>
-19.7958

> <Gold.Chemscore.ZeroCoef>
-5.4800

> <Gold.Chemscore.Hbond>
3.1628

> <Gold.Chemscore.Metal>
0.0000

> <Gold.Chemscore.Lipo>
66.7145

> <Gold.Chemscore.Internal_Hbond>
0.0000

> <Gold.Chemscore.DEClash>
0.1158

> <Gold.Chemscore.DEInternal>
2.3398

> <Gold.Chemscore.Rot>
1.5834

> <Gold.Chemscore.Internal.Correction>
   9.000000E+99

> <Gold.Chemscore.Hbonds>
donor molecule, donor type, donor heavy atom, donor atom, acceptor molecule, acceptor atom, score
      L1  H     5    26       P1  7948  0.24
      L1  H     8    27       P1  7948  0.88
      L1  H    12    46       P1  7948  0.78
      P1  H  7997  8010       L1    21  0.64

> <Gold.Chemscore.Hbond.Weighted>
-10.5637

> <Gold.Chemscore.Metal.Weighted>
-0.0000

> <Gold.Chemscore.Lipo.Weighted>
-7.8056

> <Gold.Chemscore.Internal_Hbond.Weighted>
0.0000

> <Gold.Chemscore.DEClash.Weighted>
0.1158

> <Gold.Chemscore.DEInternal.Weighted>
2.3398

> <Gold.Chemscore.Rot.Weighted>
4.0535

> <Gold.Chemscore.Internal.Correction.Weighted>
   9.000000E+99

> <Gold.Protein.RotatedTorsions>
[ 6907 6896 6895 6894 ] final -155.14 input  -60.11 | X-H torsion
[ 7974 7965 7964 7962 ] final    9.64 input  175.53 | X-H torsion
[ 8008 7997 7996 7995 ] final   90.10 input   59.86 | X-H torsion
[ 10167 10162 10161 10158 ] final -114.17 input  -65.29 | X-H torsion
[ 10718 10713 10712 10709 ] final -104.26 input   66.30 | X-H torsion
[ 10763 10752 10751 10750 ] final   31.52 input  -60.55 | X-H torsion
[ 11005 11000 10999 10996 ] final  167.74 input  -57.11 | X-H torsion

> <Gold.Protein.ActiveResidues>
 VAL166  LYS551  ARG553  GLY616  TRP617  ASP618  TYR619  PRO620  LYS621  CYS622 
 ASP623  PHE694  ASN695  SER759  ASP760  ASP761  ALA762  ILE779  LEU786  VAL792 
 PHE793  MET794  SER795  GLU796  ALA797  LYS798  CYS799  TRP800  GLU811  SER814 

> <Gold.Protein.RotatedAtoms>
  151.2681  133.4269  159.2619 H   0  0  0  0  0  0  0  0  0  0  0  0  # atno 6907 bound_to 6896
  151.0470  134.9647  159.8202 H   0  0  0  0  0  0  0  0  0  0  0  0  # atno 6908 bound_to 6896
  152.5376  134.2637  159.8997 H   0  0  0  0  0  0  0  0  0  0  0  0  # atno 6909 bound_to 6896
  146.2400  139.9754  142.8442 H   0  0  0  0  0  0  0  0  0  0  0  0  # atno 7974 bound_to 7965
  156.0079  140.3353  155.6911 H   0  0  0  0  0  0  0  0  0  0  0  0  # atno 8008 bound_to 7997
  155.6198  140.0674  157.2699 H   0  0  0  0  0  0  0  0  0  0  0  0  # atno 8009 bound_to 7997
  154.4271  140.1778  156.1348 H   0  0  0  0  0  0  0  0  0  0  0  0  # atno 8010 bound_to 7997
  140.1039  143.4588  152.1795 H   0  0  0  0  0  0  0  0  0  0  0  0  # atno 10167 bound_to 10162
  156.0297  130.5507  150.7371 H   0  0  0  0  0  0  0  0  0  0  0  0  # atno 10718 bound_to 10713
  153.0311  135.6437  154.1212 H   0  0  0  0  0  0  0  0  0  0  0  0  # atno 10763 bound_to 10752
  154.0934  135.2864  155.3268 H   0  0  0  0  0  0  0  0  0  0  0  0  # atno 10764 bound_to 10752
  154.6449  135.5447  153.7896 H   0  0  0  0  0  0  0  0  0  0  0  0  # atno 10765 bound_to 10752
  140.2799  134.7758  157.3749 H   0  0  0  0  0  0  0  0  0  0  0  0  # atno 11005 bound_to 11000
  145.1642  140.9688  143.4359 LP  0  0  0  0  0  0  0  0  0  0  0  0  # atno 17320 bound_to 7965
  145.0088  139.3529  143.6130 LP  0  0  0  0  0  0  0  0  0  0  0  0  # atno 17321 bound_to 7965
  139.5656  144.7433  151.4031 LP  0  0  0  0  0  0  0  0  0  0  0  0  # atno 17342 bound_to 10162
  140.6963  143.7741  150.7332 LP  0  0  0  0  0  0  0  0  0  0  0  0  # atno 17343 bound_to 10162
  157.4949  131.0914  151.0383 LP  0  0  0  0  0  0  0  0  0  0  0  0  # atno 17370 bound_to 10713
  157.0780  130.5891  149.5415 LP  0  0  0  0  0  0  0  0  0  0  0  0  # atno 17371 bound_to 10713
  140.1293  134.5116  155.8119 LP  0  0  0  0  0  0  0  0  0  0  0  0  # atno 17394 bound_to 11000
  141.2164  133.6784  156.7010 LP  0  0  0  0  0  0  0  0  0  0  0  0  # atno 17395 bound_to 11000

$$$$
