AV-unprocessed.smi:220|AV-procd|sdf|1685|dock5
  -GOLD-   2262020123D 1   1.00000     0.00000
 Structure written by MMmdl.
 51 55  0  0  0  0  0  0  0  0  1 V2000
  150.9568  139.0565  157.6078 N   0  0  0  0  0  0  0  0  0  0  0  0
  151.9413  139.8565  158.0236 C   0  0  0  0  0  0  0  0  0  0  0  0
  153.1215  139.5109  157.9953 O   0  0  0  0  0  0  0  0  0  0  0  0
  151.5312  141.2375  158.5630 C   0  0  1  0  0  0  0  0  0  0  0  0
  152.7572  142.0380  159.0583 C   0  0  2  0  0  0  0  0  0  0  0  0
  152.9421  142.0324  160.5843 C   0  0  0  0  0  0  0  0  0  0  0  0
  152.2672  143.3154  161.0711 C   0  0  0  0  0  0  0  0  0  0  0  0
  152.5333  144.3245  159.9539 C   0  0  0  0  0  0  0  0  0  0  0  0
  152.4947  143.4985  158.6601 C   0  0  2  0  0  0  0  0  0  0  0  0
  151.1334  143.4777  157.9591 C   0  0  0  0  0  0  0  0  0  0  0  0
  150.9314  142.0997  157.5424 N   0  0  0  0  0  0  0  0  0  0  0  0
  149.6956  141.8304  157.0429 C   0  0  0  0  0  0  0  0  0  0  0  0
  148.5814  142.2198  157.7192 N   0  0  0  0  0  0  0  0  0  0  0  0
  147.3666  141.9699  157.2230 C   0  0  0  0  0  0  0  0  0  0  0  0
  147.0414  141.3573  156.0839 N   0  0  0  0  0  0  0  0  0  0  0  0
  148.1528  140.9607  155.4007 C   0  0  0  0  0  0  0  0  0  0  0  0
  149.5040  141.1527  155.8060 C   0  0  0  0  0  0  0  0  0  0  0  0
  150.3619  140.6012  154.8619 N   0  0  0  0  0  0  0  0  0  0  0  0
  149.5652  140.1213  153.9469 C   0  0  0  0  0  0  0  0  0  0  0  0
  148.2213  140.3060  154.1825 N   0  0  0  0  0  0  0  0  0  0  0  0
  147.1201  139.8828  153.3309 C   0  0  0  0  0  0  0  0  0  0  0  0
  146.4897  138.5409  153.7554 C   0  0  0  0  0  0  0  0  0  0  0  0
  145.7860  137.8745  152.5600 C   0  0  0  0  0  0  0  0  0  0  0  0
  146.6905  137.6269  151.5029 O   0  0  0  0  0  0  0  0  0  0  0  0
  147.3965  137.5990  154.5606 C   0  0  0  0  0  0  0  0  0  0  0  0
  146.4067  137.4394  155.5983 O   0  0  0  0  0  0  0  0  0  0  0  0
  145.6765  138.5607  155.0570 C   0  0  0  0  0  0  0  0  0  0  0  0
  151.1763  138.1420  157.2411 H   0  0  0  0  0  0  0  0  0  0  0  0
  149.9983  139.3697  157.6570 H   0  0  0  0  0  0  0  0  0  0  0  0
  150.8210  141.1174  159.3842 H   0  0  0  0  0  0  0  0  0  0  0  0
  153.6715  141.6898  158.5734 H   0  0  0  0  0  0  0  0  0  0  0  0
  152.5409  141.1385  161.0631 H   0  0  0  0  0  0  0  0  0  0  0  0
  154.0065  142.0758  160.8190 H   0  0  0  0  0  0  0  0  0  0  0  0
  151.1935  143.1514  161.1707 H   0  0  0  0  0  0  0  0  0  0  0  0
  152.6451  143.6490  162.0379 H   0  0  0  0  0  0  0  0  0  0  0  0
  151.8247  145.1534  159.9564 H   0  0  0  0  0  0  0  0  0  0  0  0
  153.5306  144.7474  160.0826 H   0  0  0  0  0  0  0  0  0  0  0  0
  153.2584  143.8409  157.9601 H   0  0  0  0  0  0  0  0  0  0  0  0
  150.3314  143.7697  158.6400 H   0  0  0  0  0  0  0  0  0  0  0  0
  151.1258  144.1696  157.1173 H   0  0  0  0  0  0  0  0  0  0  0  0
  146.5368  142.3124  157.8237 H   0  0  0  0  0  0  0  0  0  0  0  0
  149.9416  139.6187  153.0685 H   0  0  0  0  0  0  0  0  0  0  0  0
  146.3718  140.6762  153.3435 H   0  0  0  0  0  0  0  0  0  0  0  0
  147.4744  139.8362  152.3006 H   0  0  0  0  0  0  0  0  0  0  0  0
  145.3042  136.9390  152.8443 H   0  0  0  0  0  0  0  0  0  0  0  0
  144.9929  138.5159  152.1746 H   0  0  0  0  0  0  0  0  0  0  0  0
  147.3043  136.9641  151.7803 H   0  0  0  0  0  0  0  0  0  0  0  0
  147.6294  136.6628  154.0520 H   0  0  0  0  0  0  0  0  0  0  0  0
  148.3030  138.0690  154.9441 H   0  0  0  0  0  0  0  0  0  0  0  0
  145.8179  139.4626  155.6549 H   0  0  0  0  0  0  0  0  0  0  0  0
  144.6155  138.3455  154.9246 H   0  0  0  0  0  0  0  0  0  0  0  0
  1  2  1  0  0  0  0
  1 28  1  0  0  0  0
  1 29  1  0  0  0  0
  2  3  2  0  0  0  0
  2  4  1  0  0  0  0
  4 11  1  0  0  0  0
  4  5  1  0  0  0  0
  4 30  1  0  0  0  0
  5  9  1  0  0  0  0
  5  6  1  0  0  0  0
  5 31  1  0  0  0  0
  6  7  1  0  0  0  0
  6 32  1  0  0  0  0
  6 33  1  0  0  0  0
  7  8  1  0  0  0  0
  7 34  1  0  0  0  0
  7 35  1  0  0  0  0
  8  9  1  0  0  0  0
  8 36  1  0  0  0  0
  8 37  1  0  0  0  0
  9 10  1  0  0  0  0
  9 38  1  0  0  0  0
 10 11  1  0  0  0  0
 10 39  1  0  0  0  0
 10 40  1  0  0  0  0
 11 12  1  0  0  0  0
 12 17  1  0  0  0  0
 12 13  2  0  0  0  0
 13 14  1  0  0  0  0
 14 15  2  0  0  0  0
 14 41  1  0  0  0  0
 15 16  1  0  0  0  0
 16 20  1  0  0  0  0
 16 17  2  0  0  0  0
 17 18  1  0  0  0  0
 18 19  2  0  0  0  0
 19 20  1  0  0  0  0
 19 42  1  0  0  0  0
 20 21  1  0  0  0  0
 21 22  1  0  0  0  0
 21 43  1  0  0  0  0
 21 44  1  0  0  0  0
 22 27  1  0  0  0  0
 22 23  1  0  0  0  0
 22 25  1  0  0  0  0
 23 24  1  0  0  0  0
 23 45  1  0  0  0  0
 23 46  1  0  0  0  0
 24 47  1  0  0  0  0
 25 26  1  0  0  0  0
 25 48  1  0  0  0  0
 25 49  1  0  0  0  0
 26 27  1  0  0  0  0
 27 50  1  0  0  0  0
 27 51  1  0  0  0  0
M  END
> <s_m_source_file>
AV-unprocessed.smi

> <i_m_source_file_index>
220

> <i_lp_mmshare_version>
43012

> <i_f3d_flags>
0

> <s_epik_input>
W0NIMl0xW0NIMl1bQ0gyXVtDQEhdKFtDQEhdMTIpW0NIMl1OKFtDQEBIXTJDKD1PKVtOSDJdKWMobltjSF1uMyljKGMzNCluW2NIXW40W0NIMl1DNShbQ0gyXVtPSF0pW0NIMl1PW0NIMl01

> <s_epik_cmdline>
J2VwaWtfcHl0aG9uJywgJy1waCcsICc3LjAnLCAnLXRuJywgJzgnLCAnLW1hJywgJzIwMCcsICctbWV0YWxfYmluZGluZycsICctaW1hZScsICc8aW5maWxlLm1hZT4nLCAnLW9tYWUnLCAnPG91dGZpbGUubWFlPic=

> <r_lp_tautomer_probability>
1

> <r_epik_Ionization_Penalty>
0.00118987

> <r_epik_Ionization_Penalty_Charging>
0

> <r_epik_Ionization_Penalty_Neutral>
0.00118987

> <r_epik_State_Penalty>
0.000654261

> <r_epik_Charging_Adjusted_Penalty>
0.000654261

> <i_epik_Tot_Q>
0

> <i_epik_Tot_abs_Q>
0

> <r_epik_Metal_State_Penalty>
-0

> <b_epik_Metal_Only>
0

> <s_lp_Force_Field>
OPLS_2005

> <r_lp_Energy>
59.1601

> <b_lp_Chiralities_Consistent>
1

> <s_lp_Variant>
AV-unprocessed.smi:220-4

> <Gold.Version>
5.8.1

> <Gold.Id.Protein>
6NUR|6NUR_protein|mol2

> <Gold.PLP.Fitness>
50.9401

> <Gold.PLP.PLP>
-42.5843

> <Gold.PLP.part.hbond>
-3.4369

> <Gold.PLP.part.metal>
0.0000

> <Gold.PLP.part.buried>
-2.7341

> <Gold.PLP.part.nonpolar>
-37.0481

> <Gold.PLP.part.repulsive>
0.4378

> <Gold.PLP.ligand.clash>
0.0000

> <Gold.PLP.ligand.torsion>
1.2455

> <Gold.PLP.Chemscore.Hbond>
2.5311

> <Gold.PLP.Chemscore.CHOScore>
0.9157

> <Gold.PLP.Chemscore.Metal>
0.0000

> <Gold.Chemscore.Hbonds>
donor molecule, donor type, donor heavy atom, donor atom, acceptor molecule, acceptor atom, score
      L1  H    24    47       P1  7948  1.00
      P1  H  7954  7966       L1    24  0.06
      P1  H  7989  7998       L1    18  0.32
      P1  H  7997  8008       L1     3  1.00
      L1  C    19    42       P1  7957  0.86

> <Gold.PLP.Chemscore.Internal.Correction>
0.5064

> <Gold.Rescore>
     Score         DG    S(hbond)    S(metal)    S(lipo)     H(rot)  DE(clash)    DE(int)     intcor
     13.78     -14.93       1.99        0.00      95.50       3.27       0.00       1.14       ----

> <Gold.Chemscore.Fitness>
13.7818

> <Gold.Chemscore.DG>
-14.9262

> <Gold.Chemscore.ZeroCoef>
-5.4800

> <Gold.Chemscore.Hbond>
1.9893

> <Gold.Chemscore.Metal>
0.0000

> <Gold.Chemscore.Lipo>
95.5048

> <Gold.Chemscore.Internal_Hbond>
0.0000

> <Gold.Chemscore.DEClash>
0.0000

> <Gold.Chemscore.DEInternal>
1.1444

> <Gold.Chemscore.Rot>
3.2703

> <Gold.Chemscore.Internal.Correction>
   9.000000E+99

> <Gold.Chemscore.Hbonds>
donor molecule, donor type, donor heavy atom, donor atom, acceptor molecule, acceptor atom, score
      L1  H    24    47       P1  7948  0.96
      P1  H  7989  7998       L1    18  0.01
      P1  H  7997  8008       L1     3  0.97

> <Gold.Chemscore.Hbond.Weighted>
-6.6442

> <Gold.Chemscore.Metal.Weighted>
-0.0000

> <Gold.Chemscore.Lipo.Weighted>
-11.1741

> <Gold.Chemscore.Internal_Hbond.Weighted>
0.0000

> <Gold.Chemscore.DEClash.Weighted>
0.0000

> <Gold.Chemscore.DEInternal.Weighted>
1.1444

> <Gold.Chemscore.Rot.Weighted>
8.3721

> <Gold.Chemscore.Internal.Correction.Weighted>
   9.000000E+99

> <Gold.Protein.RotatedTorsions>
[ 6907 6896 6895 6894 ] final   72.67 input  -60.11 | X-H torsion
[ 7974 7965 7964 7962 ] final  -24.94 input  175.53 | X-H torsion
[ 8008 7997 7996 7995 ] final  -64.39 input   59.86 | X-H torsion
[ 10167 10162 10161 10158 ] final -124.54 input  -65.29 | X-H torsion
[ 10718 10713 10712 10709 ] final    0.80 input   66.30 | X-H torsion
[ 10763 10752 10751 10750 ] final   93.77 input  -60.55 | X-H torsion
[ 11005 11000 10999 10996 ] final  135.25 input  -57.11 | X-H torsion

> <Gold.Protein.ActiveResidues>
 VAL166  LYS551  ARG553  GLY616  TRP617  ASP618  TYR619  PRO620  LYS621  CYS622 
 ASP623  PHE694  ASN695  SER759  ASP760  ASP761  ALA762  ILE779  LEU786  VAL792 
 PHE793  MET794  SER795  GLU796  ALA797  LYS798  CYS799  TRP800  GLU811  SER814 

> <Gold.Protein.RotatedAtoms>
  152.4881  134.4536  159.9582 H   0  0  0  0  0  0  0  0  0  0  0  0  # atno 6907 bound_to 6896
  151.4528  133.3607  159.2805 H   0  0  0  0  0  0  0  0  0  0  0  0  # atno 6908 bound_to 6896
  150.9009  134.8446  159.7420 H   0  0  0  0  0  0  0  0  0  0  0  0  # atno 6909 bound_to 6896
  146.1523  140.4819  142.8606 H   0  0  0  0  0  0  0  0  0  0  0  0  # atno 7974 bound_to 7965
  154.4609  140.0955  156.6889 H   0  0  0  0  0  0  0  0  0  0  0  0  # atno 8008 bound_to 7997
  155.4998  140.3473  155.4351 H   0  0  0  0  0  0  0  0  0  0  0  0  # atno 8009 bound_to 7997
  156.0868  140.1387  156.9632 H   0  0  0  0  0  0  0  0  0  0  0  0  # atno 8010 bound_to 7997
  139.9917  143.5634  152.2339 H   0  0  0  0  0  0  0  0  0  0  0  0  # atno 10167 bound_to 10162
  156.8388  130.5513  149.5679 H   0  0  0  0  0  0  0  0  0  0  0  0  # atno 10718 bound_to 10713
  153.2340  135.4313  155.0626 H   0  0  0  0  0  0  0  0  0  0  0  0  # atno 10763 bound_to 10752
  154.8310  135.3386  154.6745 H   0  0  0  0  0  0  0  0  0  0  0  0  # atno 10764 bound_to 10752
  153.7171  135.7019  153.5078 H   0  0  0  0  0  0  0  0  0  0  0  0  # atno 10765 bound_to 10752
  139.9967  134.9494  156.9980 H   0  0  0  0  0  0  0  0  0  0  0  0  # atno 11005 bound_to 11000
  144.7919  140.6049  143.6535 LP  0  0  0  0  0  0  0  0  0  0  0  0  # atno 17320 bound_to 7965
  145.4793  139.1496  143.3771 LP  0  0  0  0  0  0  0  0  0  0  0  0  # atno 17321 bound_to 7965
  139.6335  144.7647  151.2486 LP  0  0  0  0  0  0  0  0  0  0  0  0  # atno 17342 bound_to 10162
  140.7452  143.6438  150.8311 LP  0  0  0  0  0  0  0  0  0  0  0  0  # atno 17343 bound_to 10162
  156.0892  130.5883  150.9703 LP  0  0  0  0  0  0  0  0  0  0  0  0  # atno 17370 bound_to 10713
  157.6367  131.0915  150.8334 LP  0  0  0  0  0  0  0  0  0  0  0  0  # atno 17371 bound_to 10713
  140.4804  134.1295  155.7216 LP  0  0  0  0  0  0  0  0  0  0  0  0  # atno 17394 bound_to 11000
  141.1610  133.8793  157.1848 LP  0  0  0  0  0  0  0  0  0  0  0  0  # atno 17395 bound_to 11000

$$$$
