#       Name:                AV-unprocessed.smi:1055
#       Creating user name   scv26
#       Creation time:       Fri Mar 27 03:13:06 2020


#       File generated by GOLD software.
#

@<TRIPOS>MOLECULE
AV-unprocessed.smi:1055
    54    55     1
SMALL
NO_CHARGES


@<TRIPOS>ATOM
      1 ****        -3.1546  -5.4744   0.3104 C.2            1 S1                 0.0000
      2 ****        -3.6299  -4.6915  -0.6723 C.2            1 S1                 0.0000
      3 ****        -5.1144  -4.5832  -0.9670 C.3            1 S1                 0.0000
      4 ****        -2.7143  -3.8646  -1.5609 C.3            1 S1                 0.0000
      5 ****        -2.9256  -2.4094  -1.3606 N.4            1 S1                 1.0000
      6 ****        -2.3873  -1.6025  -2.4847 C.3            1 S1                 0.0000
      7 ****        -2.7525  -0.1149  -2.3274 C.3            1 S1                 0.0000
      8 ****        -2.2872   0.4548  -0.9761 C.3            1 S1                 0.0000
      9 ****        -0.8314   0.5956  -0.9556 N.am           1 S1                 0.0000
     10 ****        -0.1405   1.3839  -0.1194 C.2            1 S1                 0.0000
     11 ****        -0.6680   2.0762   0.7505 O.2            1 S1                 0.0000
     12 ****         1.1776   1.3269  -0.3751 N.am           1 S1                 0.0000
     13 ****         2.2341   1.9918   0.3033 C.ar           1 S1                 0.0000
     14 ****         3.4520   2.1741  -0.3789 C.ar           1 S1                 0.0000
     15 ****         4.5214   2.8128   0.2767 C.ar           1 S1                 0.0000
     16 ****         4.3517   3.2493   1.6141 C.ar           1 S1                 0.0000
     17 ****         5.3931   3.8977   2.3167 N.pl3          1 S1                 0.0000
     18 ****         6.6901   4.1014   1.6835 C.3            1 S1                 0.0000
     19 ****         5.1770   4.3383   3.6912 C.3            1 S1                 0.0000
     20 ****         3.1824   3.0571   2.2727 N.ar           1 S1                 0.0000
     21 ****         2.1585   2.4470   1.6401 C.ar           1 S1                 0.0000
     22 ****        -2.7972  -0.4425   0.1696 C.3            1 S1                 0.0000
     23 ****        -2.4299  -1.9209  -0.0465 C.3            1 S1                 0.0000
     24 ****        -3.8176  -6.0584   0.9324 H              1 S1                 0.0000
     25 ****        -2.0952  -5.5442   0.5101 H              1 S1                 0.0000
     26 ****        -5.3195  -4.8857  -1.9943 H              1 S1                 0.0000
     27 ****        -5.4589  -3.5570  -0.8360 H              1 S1                 0.0000
     28 ****        -5.6988  -5.2214  -0.3034 H              1 S1                 0.0000
     29 ****        -1.6675  -4.1149  -1.3800 H              1 S1                 0.0000
     30 ****        -2.9274  -4.1365  -2.5956 H              1 S1                 0.0000
     31 ****        -1.3045  -1.7264  -2.5384 H              1 S1                 0.0000
     32 ****        -2.7936  -1.9707  -3.4277 H              1 S1                 0.0000
     33 ****        -2.3298   0.4648  -3.1491 H              1 S1                 0.0000
     34 ****        -3.8350  -0.0055  -2.4066 H              1 S1                 0.0000
     35 ****        -2.7205   1.4503  -0.8620 H              1 S1                 0.0000
     36 ****        -0.3126   0.0706  -1.6443 H              1 S1                 0.0000
     37 ****         1.4537   0.7879  -1.1828 H              1 S1                 0.0000
     38 ****         3.5683   1.8339  -1.3977 H              1 S1                 0.0000
     39 ****         5.4475   2.9544  -0.2594 H              1 S1                 0.0000
     40 ****         7.1319   3.1462   1.3984 H              1 S1                 0.0000
     41 ****         7.3865   4.6015   2.3569 H              1 S1                 0.0000
     42 ****         6.5889   4.7203   0.7916 H              1 S1                 0.0000
     43 ****         4.9618   3.4861   4.3366 H              1 S1                 0.0000
     44 ****         4.3383   5.0334   3.7443 H              1 S1                 0.0000
     45 ****         6.0553   4.8459   4.0900 H              1 S1                 0.0000
     46 ****         1.2736   2.3094   2.2417 H              1 S1                 0.0000
     47 ****        -2.4132  -0.0986   1.1307 H              1 S1                 0.0000
     48 ****        -3.8826  -0.3541   0.2338 H              1 S1                 0.0000
     49 ****        -2.8608  -2.5123   0.7616 H              1 S1                 0.0000
     50 ****        -1.3484  -2.0544   0.0102 H              1 S1                 0.0000
     51 ****        -3.9257  -2.2676  -1.3668 H              1 S1                 0.0000
     52 ****        -1.6619   2.0690   0.8609 LP             1 S1                 0.0000
     53 ****        -0.1028   2.6460   1.3471 LP             1 S1                 0.0000
     54 ****         3.0797   3.3647   3.2187 LP             1 S1                 0.0000
@<TRIPOS>BOND
    1    1    2 2     
    2    1   24 1     
    3    1   25 1     
    4    2    3 1     
    5    2    4 1     
    6    3   26 1     
    7    3   27 1     
    8    3   28 1     
    9    4    5 1     
   10    4   29 1     
   11    4   30 1     
   12    5   23 1     
   13    5    6 1     
   14    5   51 1     
   15    6    7 1     
   16    6   31 1     
   17    6   32 1     
   18    7    8 1     
   19    7   33 1     
   20    7   34 1     
   21    8    9 1     
   22    8   22 1     
   23    8   35 1     
   24    9   10 am    
   25    9   36 1     
   26   10   11 2     
   27   10   12 am    
   28   12   13 1     
   29   12   37 1     
   30   13   21 ar    
   31   13   14 ar    
   32   14   15 ar    
   33   14   38 1     
   34   15   16 ar    
   35   15   39 1     
   36   16   17 1     
   37   16   20 ar    
   38   17   18 1     
   39   17   19 1     
   40   18   40 1     
   41   18   41 1     
   42   18   42 1     
   43   19   43 1     
   44   19   44 1     
   45   19   45 1     
   46   20   21 ar    
   47   21   46 1     
   48   22   23 1     
   49   22   47 1     
   50   22   48 1     
   51   23   49 1     
   52   23   50 1     
   53   11   52 1     
   54   11   53 1     
   55   20   54 1     
@<TRIPOS>SUBSTRUCTURE
      1 S1             1
@<TRIPOS>SET
LONE_PAIRS      STATIC     ATOMS    <user>   **** ""
3 52 53 54
DONOR_HYDROGENS      STATIC     ATOMS    <user>   **** ""
3 51 36 37
ATOM$BLUE        STATIC     ATOMS    COLORGROUP SYSTEM
3 52 53 54
ATOM$RED        STATIC     ATOMS    COLORGROUP SYSTEM
3 51 36 37
