#       Name:                AV-unprocessed.smi:482
#       Creating user name   scv26
#       Creation time:       Thu Mar 26 23:11:11 2020


#       File generated by GOLD software.
#

@<TRIPOS>MOLECULE
AV-unprocessed.smi:482
    35    36     1
SMALL
NO_CHARGES


@<TRIPOS>ATOM
      1 ****        -0.6193   3.3942  -0.2230 C.3            1 S1                 0.0000
      2 ****        -0.7874   1.9290  -0.2526 N.am           1 S1                 0.0000
      3 ****         0.3385   1.1477  -0.2550 C.2            1 S1                 0.0000
      4 ****         1.4941   1.5732  -0.2318 O.2            1 S1                 0.0000
      5 ****         0.0608  -0.2908  -0.2848 C.2            1 S1                 0.0000
      6 ****        -1.1943  -0.8002  -0.3048 C.2            1 S1                 0.0000
      7 ****        -1.1765  -2.1903  -0.3263 N.2            1 S1                 0.0000
      8 ****         0.1317  -2.4512  -0.3197 C.2            1 S1                 0.0000
      9 ****         0.9400  -1.3718  -0.2959 N.pl3          1 S1                 0.0000
     10 ****         2.3927  -1.3828  -0.2840 C.3            1 S1                 0.0000
     11 ****         2.9496  -1.2084   1.1358 C.3            1 S1                 0.0000
     12 ****         4.3591  -1.2572   1.1041 O.3            1 S1                 0.0000
     13 ****        -2.2915   0.0964  -0.3004 N.am           1 S1                 0.0000
     14 ****        -3.6346  -0.4904  -0.3274 C.3            1 S1                 0.0000
     15 ****        -2.0890   1.4555  -0.2729 C.2            1 S1                 0.0000
     16 ****        -3.0460   2.2346  -0.2664 O.2            1 S1                 0.0000
     17 ****         0.4154   3.7383  -0.2264 H              1 S1                 0.0000
     18 ****        -1.0824   3.8110   0.6729 H              1 S1                 0.0000
     19 ****        -1.0981   3.8506  -1.0909 H              1 S1                 0.0000
     20 ****         0.5149  -3.4612  -0.3321 H              1 S1                 0.0000
     21 ****         2.7333  -2.3295  -0.7059 H              1 S1                 0.0000
     22 ****         2.7597  -0.5998  -0.9481 H              1 S1                 0.0000
     23 ****         2.6374  -0.2552   1.5626 H              1 S1                 0.0000
     24 ****         2.5822  -1.9966   1.7935 H              1 S1                 0.0000
     25 ****         4.6838  -1.1439   1.9845 H              1 S1                 0.0000
     26 ****        -4.4460   0.2380  -0.3174 H              1 S1                 0.0000
     27 ****        -3.7725  -1.1406   0.5372 H              1 S1                 0.0000
     28 ****        -3.7563  -1.0984  -1.2246 H              1 S1                 0.0000
     29 ****         1.6638   2.5584  -0.2091 LP             1 S1                 0.0000
     30 ****         2.2627   0.9334  -0.2357 LP             1 S1                 0.0000
     31 ****        -1.9455  -2.8293  -0.3425 LP             1 S1                 0.0000
     32 ****         4.7087  -0.5254   0.5191 LP             1 S1                 0.0000
     33 ****         4.6578  -2.1418   0.7458 LP             1 S1                 0.0000
     34 ****        -2.8870   3.2217  -0.2463 LP             1 S1                 0.0000
     35 ****        -3.9804   1.8788  -0.2813 LP             1 S1                 0.0000
@<TRIPOS>BOND
    1    1    2 1     
    2    1   17 1     
    3    1   18 1     
    4    1   19 1     
    5    2   15 am    
    6    2    3 am    
    7    3    4 2     
    8    3    5 1     
    9    5    9 1     
   10    5    6 2     
   11    6    7 1     
   12    6   13 1     
   13    7    8 2     
   14    8    9 1     
   15    8   20 1     
   16    9   10 1     
   17   10   11 1     
   18   10   21 1     
   19   10   22 1     
   20   11   12 1     
   21   11   23 1     
   22   11   24 1     
   23   12   25 1     
   24   13   14 1     
   25   13   15 am    
   26   14   26 1     
   27   14   27 1     
   28   14   28 1     
   29   15   16 2     
   30    4   29 1     
   31    4   30 1     
   32    7   31 1     
   33   12   32 1     
   34   12   33 1     
   35   16   34 1     
   36   16   35 1     
@<TRIPOS>SUBSTRUCTURE
      1 S1             1
@<TRIPOS>SET
LONE_PAIRS      STATIC     ATOMS    <user>   **** ""
7 29 30 31 32 33 34 35
DONOR_HYDROGENS      STATIC     ATOMS    <user>   **** ""
1 25
ATOM$BLUE        STATIC     ATOMS    COLORGROUP SYSTEM
7 29 30 31 32 33 34 35
ATOM$RED        STATIC     ATOMS    COLORGROUP SYSTEM
1 25
