AV-unprocessed.smi:897|AV-procd|sdf|4082|dock1
  -GOLD-   22720 1573D 1   1.00000     0.00000
 Structure written by MMmdl.
 35 37  0  0  0  0  0  0  0  0  1 V2000
  150.7831  145.3086  159.7785 C   0  0  0  0  0  0  0  0  0  0  0  0
  151.6233  144.0948  160.1154 C   0  0  0  0  0  0  0  0  0  0  0  0
  152.1935  143.9396  161.3925 C   0  0  0  0  0  0  0  0  0  0  0  0
  152.9657  142.7896  161.6531 C   0  0  0  0  0  0  0  0  0  0  0  0
  153.5820  142.6084  163.0321 C   0  0  0  0  0  0  0  0  0  0  0  0
  153.1416  141.8364  160.6163 C   0  0  0  0  0  0  0  0  0  0  0  0
  153.9398  140.6328  160.8436 C   0  0  0  0  0  0  0  0  0  0  0  0
  154.5717  139.6804  161.0241 N   0  0  0  0  0  0  0  0  0  0  0  0
  152.5258  142.0855  159.3583 C   0  0  0  0  0  0  0  0  0  0  0  0
  152.6676  141.1687  158.2996 N   0  0  0  0  0  0  0  0  0  0  0  0
  151.5261  140.4374  157.7599 C   0  0  1  0  0  0  0  0  0  0  0  0
  150.4226  141.3568  157.2207 C   0  0  0  0  0  0  0  0  0  0  0  0
  150.2815  140.8691  155.7737 C   0  0  2  0  0  0  0  0  0  0  0  0
  149.6717  139.4630  155.6898 C   0  0  0  0  0  0  0  0  0  0  0  0
  150.8302  138.5909  156.1729 C   0  0  0  0  0  0  0  0  0  0  0  0
  151.9013  139.6403  156.4991 C   0  0  1  0  0  0  0  0  0  0  0  0
  151.6368  140.5859  155.4749 O   0  0  0  0  0  0  0  0  0  0  0  0
  151.7826  143.1939  159.1254 N   0  0  0  0  0  0  0  0  0  0  0  0
  150.6237  145.9357  160.6562 H   0  0  0  0  0  0  0  0  0  0  0  0
  149.8076  145.0028  159.3994 H   0  0  0  0  0  0  0  0  0  0  0  0
  151.2766  145.9098  159.0143 H   0  0  0  0  0  0  0  0  0  0  0  0
  152.0404  144.6877  162.1568 H   0  0  0  0  0  0  0  0  0  0  0  0
  154.6694  142.5700  162.9632 H   0  0  0  0  0  0  0  0  0  0  0  0
  153.2304  141.6835  163.4899 H   0  0  0  0  0  0  0  0  0  0  0  0
  153.3167  143.4307  163.6968 H   0  0  0  0  0  0  0  0  0  0  0  0
  153.5282  141.1599  157.7711 H   0  0  0  0  0  0  0  0  0  0  0  0
  151.1439  139.7578  158.5230 H   0  0  0  0  0  0  0  0  0  0  0  0
  149.4925  141.2696  157.7831 H   0  0  0  0  0  0  0  0  0  0  0  0
  150.7279  142.4044  157.2346 H   0  0  0  0  0  0  0  0  0  0  0  0
  149.8166  141.5955  155.1067 H   0  0  0  0  0  0  0  0  0  0  0  0
  148.7782  139.3625  156.3067 H   0  0  0  0  0  0  0  0  0  0  0  0
  149.4087  139.2129  154.6614 H   0  0  0  0  0  0  0  0  0  0  0  0
  150.5695  137.9777  157.0363 H   0  0  0  0  0  0  0  0  0  0  0  0
  151.1689  137.9290  155.3749 H   0  0  0  0  0  0  0  0  0  0  0  0
  152.9164  139.2409  156.4995 H   0  0  0  0  0  0  0  0  0  0  0  0
  1  2  1  0  0  0  0
  1 19  1  0  0  0  0
  1 20  1  0  0  0  0
  1 21  1  0  0  0  0
  2 18  1  0  0  0  0
  2  3  2  0  0  0  0
  3  4  1  0  0  0  0
  3 22  1  0  0  0  0
  4  5  1  0  0  0  0
  4  6  2  0  0  0  0
  5 23  1  0  0  0  0
  5 24  1  0  0  0  0
  5 25  1  0  0  0  0
  6  7  1  0  0  0  0
  6  9  1  0  0  0  0
  7  8  3  0  0  0  0
  9 10  1  0  0  0  0
  9 18  2  0  0  0  0
 10 11  1  0  0  0  0
 10 26  1  0  0  0  0
 11 16  1  0  0  0  0
 11 12  1  0  0  0  0
 11 27  1  0  0  0  0
 12 13  1  0  0  0  0
 12 28  1  0  0  0  0
 12 29  1  0  0  0  0
 13 17  1  0  0  0  0
 13 14  1  0  0  0  0
 13 30  1  0  0  0  0
 14 15  1  0  0  0  0
 14 31  1  0  0  0  0
 14 32  1  0  0  0  0
 15 16  1  0  0  0  0
 15 33  1  0  0  0  0
 15 34  1  0  0  0  0
 16 17  1  0  0  0  0
 16 35  1  0  0  0  0
M  END
> <s_m_source_file>
AV-unprocessed.smi

> <i_m_source_file_index>
897

> <i_lp_mmshare_version>
43012

> <i_f3d_flags>
0

> <s_epik_input>
W0NIM11jMVtjSF1jKFtDSDNdKWMoQyNOKWMobjEpW05IXVtDQEhdKFtDSDJdW0NAQEhdMjMpW0NAQEhdKE8zKVtDSDJdW0NIMl0y

> <s_epik_cmdline>
J2VwaWtfcHl0aG9uJywgJy1waCcsICc3LjAnLCAnLXRuJywgJzgnLCAnLW1hJywgJzIwMCcsICctbWV0YWxfYmluZGluZycsICctaW1hZScsICc8aW5maWxlLm1hZT4nLCAnLW9tYWUnLCAnPG91dGZpbGUubWFlPic=

> <r_lp_tautomer_probability>
1

> <r_epik_Ionization_Penalty>
0.000502654

> <r_epik_Ionization_Penalty_Charging>
0

> <r_epik_Ionization_Penalty_Neutral>
0.000502654

> <r_epik_State_Penalty>
-0

> <r_epik_Charging_Adjusted_Penalty>
0

> <i_epik_Tot_Q>
0

> <i_epik_Tot_abs_Q>
0

> <r_epik_Metal_State_Penalty>
-0

> <b_epik_Metal_Only>
0

> <s_lp_Force_Field>
OPLS_2005

> <r_lp_Energy>
43.6408

> <b_lp_Chiralities_Consistent>
1

> <s_lp_Variant>
AV-unprocessed.smi:897-4

> <Gold.Version>
5.8.1

> <Gold.Id.Protein>
6NUR|6NUR_protein|mol2

> <Gold.PLP.Fitness>
40.8145

> <Gold.PLP.PLP>
-39.8192

> <Gold.PLP.part.hbond>
-1.0000

> <Gold.PLP.part.metal>
0.0000

> <Gold.PLP.part.buried>
-4.2483

> <Gold.PLP.part.nonpolar>
-34.4301

> <Gold.PLP.part.repulsive>
0.1105

> <Gold.PLP.ligand.clash>
0.0000

> <Gold.PLP.ligand.torsion>
0.6404

> <Gold.PLP.Chemscore.Hbond>
0.7520

> <Gold.PLP.Chemscore.CHOScore>
0.0000

> <Gold.PLP.Chemscore.Metal>
0.0000

> <Gold.Chemscore.Hbonds>
donor molecule, donor type, donor heavy atom, donor atom, acceptor molecule, acceptor atom, score
      P1  H  7989  7998       L1    17  0.74

> <Gold.PLP.Chemscore.Internal.Correction>
0.0202

> <Gold.Rescore>
     Score         DG    S(hbond)    S(metal)    S(lipo)     H(rot)  DE(clash)    DE(int)     intcor
     16.46     -17.19       0.95        0.00      94.80       1.00       0.00       0.73       ----

> <Gold.Chemscore.Fitness>
16.4637

> <Gold.Chemscore.DG>
-17.1949

> <Gold.Chemscore.ZeroCoef>
-5.4800

> <Gold.Chemscore.Hbond>
0.9532

> <Gold.Chemscore.Metal>
0.0000

> <Gold.Chemscore.Lipo>
94.7973

> <Gold.Chemscore.Internal_Hbond>
0.0000

> <Gold.Chemscore.DEClash>
0.0019

> <Gold.Chemscore.DEInternal>
0.7293

> <Gold.Chemscore.Rot>
1.0000

> <Gold.Chemscore.Internal.Correction>
   9.000000E+99

> <Gold.Chemscore.Hbonds>
donor molecule, donor type, donor heavy atom, donor atom, acceptor molecule, acceptor atom, score
      P1  H  7989  7998       L1    17  0.22

> <Gold.Chemscore.Hbond.Weighted>
-3.1836

> <Gold.Chemscore.Metal.Weighted>
-0.0000

> <Gold.Chemscore.Lipo.Weighted>
-11.0913

> <Gold.Chemscore.Internal_Hbond.Weighted>
0.0000

> <Gold.Chemscore.DEClash.Weighted>
0.0019

> <Gold.Chemscore.DEInternal.Weighted>
0.7293

> <Gold.Chemscore.Rot.Weighted>
2.5600

> <Gold.Chemscore.Internal.Correction.Weighted>
   9.000000E+99

> <Gold.Protein.RotatedTorsions>
[ 6907 6896 6895 6894 ] final  131.21 input  -60.11 | X-H torsion
[ 7974 7965 7964 7962 ] final -160.59 input  175.53 | X-H torsion
[ 8008 7997 7996 7995 ] final   66.35 input   59.86 | X-H torsion
[ 10167 10162 10161 10158 ] final   80.12 input  -65.29 | X-H torsion
[ 10718 10713 10712 10709 ] final -117.62 input   66.30 | X-H torsion
[ 10763 10752 10751 10750 ] final -101.06 input  -60.55 | X-H torsion
[ 11005 11000 10999 10996 ] final  -99.09 input  -57.11 | X-H torsion

> <Gold.Protein.ActiveResidues>
 VAL166  LYS551  ARG553  GLY616  TRP617  ASP618  TYR619  PRO620  LYS621  CYS622 
 ASP623  PHE694  ASN695  SER759  ASP760  ASP761  ALA762  ILE779  LEU786  VAL792 
 PHE793  MET794  SER795  GLU796  ALA797  LYS798  CYS799  TRP800  GLU811  SER814 

> <Gold.Protein.RotatedAtoms>
  152.3449  133.6110  159.5902 H   0  0  0  0  0  0  0  0  0  0  0  0  # atno 6907 bound_to 6896
  150.7501  133.9665  159.3541 H   0  0  0  0  0  0  0  0  0  0  0  0  # atno 6908 bound_to 6896
  151.7524  135.0830  160.0384 H   0  0  0  0  0  0  0  0  0  0  0  0  # atno 6909 bound_to 6896
  144.7421  140.3520  143.6114 H   0  0  0  0  0  0  0  0  0  0  0  0  # atno 7974 bound_to 7965
  155.6760  140.3497  155.4837 H   0  0  0  0  0  0  0  0  0  0  0  0  # atno 8008 bound_to 7997
  155.9647  140.1144  157.0887 H   0  0  0  0  0  0  0  0  0  0  0  0  # atno 8009 bound_to 7997
  154.4151  140.1168  156.5212 H   0  0  0  0  0  0  0  0  0  0  0  0  # atno 8010 bound_to 7997
  139.9531  144.6012  150.8142 H   0  0  0  0  0  0  0  0  0  0  0  0  # atno 10167 bound_to 10162
  156.1047  130.6200  150.9187 H   0  0  0  0  0  0  0  0  0  0  0  0  # atno 10718 bound_to 10713
  154.7628  135.4912  153.9496 H   0  0  0  0  0  0  0  0  0  0  0  0  # atno 10763 bound_to 10752
  153.1271  135.6745  153.9246 H   0  0  0  0  0  0  0  0  0  0  0  0  # atno 10764 bound_to 10752
  153.8961  135.3115  155.3427 H   0  0  0  0  0  0  0  0  0  0  0  0  # atno 10765 bound_to 10752
  141.1321  133.8295  157.0926 H   0  0  0  0  0  0  0  0  0  0  0  0  # atno 11005 bound_to 11000
  145.7266  139.1724  143.2454 LP  0  0  0  0  0  0  0  0  0  0  0  0  # atno 17320 bound_to 7965
  146.1237  140.7276  142.9445 LP  0  0  0  0  0  0  0  0  0  0  0  0  # atno 17321 bound_to 7965
  140.7577  143.3091  151.2889 LP  0  0  0  0  0  0  0  0  0  0  0  0  # atno 17342 bound_to 10162
  139.6613  144.0185  152.2694 LP  0  0  0  0  0  0  0  0  0  0  0  0  # atno 17343 bound_to 10162
  157.6222  131.0929  150.8601 LP  0  0  0  0  0  0  0  0  0  0  0  0  # atno 17370 bound_to 10713
  156.8722  130.5150  149.5296 LP  0  0  0  0  0  0  0  0  0  0  0  0  # atno 17371 bound_to 10713
  140.0383  134.9867  157.0912 LP  0  0  0  0  0  0  0  0  0  0  0  0  # atno 17394 bound_to 11000
  140.4176  134.1915  155.7164 LP  0  0  0  0  0  0  0  0  0  0  0  0  # atno 17395 bound_to 11000

$$$$
