AV-unprocessed.smi:1033|AV-procd|sdf|4512|dock8
  -GOLD-   22720 2523D 1   1.00000     0.00000
 Structure written by MMmdl.
 57 59  0  0  0  0  0  0  0  0  3 V2000
  153.0324  143.0522  161.4946 C   0  0  0  0  0  0  0  0  0  0  0  0
  152.3866  142.7097  160.1635 C   0  0  0  0  0  0  0  0  0  0  0  0
  152.3574  141.3616  159.7414 C   0  0  0  0  0  0  0  0  0  0  0  0
  151.7643  141.0005  158.5125 C   0  0  0  0  0  0  0  0  0  0  0  0
  151.6260  139.7617  157.9114 N   0  0  0  0  0  0  0  0  0  0  0  0
  150.9911  140.0779  156.7870 C   0  0  0  0  0  0  0  0  0  0  0  0
  150.7161  141.3804  156.5797 N   0  0  0  0  0  0  0  0  0  0  0  0
  150.0492  141.9614  155.4285 C   0  0  0  0  0  0  0  0  0  0  0  0
  149.2265  140.9273  154.6331 C   0  0  2  0  0  0  0  0  0  0  0  0
  150.1167  140.2159  153.7974 O   0  0  0  0  0  0  0  0  0  0  0  0
  148.1209  141.5608  153.7583 C   0  0  0  0  0  0  0  0  0  0  0  0
  147.2225  142.4623  154.5252 N   0  3  2  0  0  0  0  0  0  0  0  0
  146.7916  141.8612  155.8120 C   0  0  0  0  0  0  0  0  0  0  0  0
  145.9481  142.8538  156.6339 C   0  0  0  0  0  0  0  0  0  0  0  0
  144.7718  143.3418  155.8714 N   0  3  2  0  0  0  0  0  0  0  0  0
  143.6638  142.3519  155.7888 C   0  0  0  0  0  0  0  0  0  0  0  0
  142.3560  142.9652  155.2488 C   0  0  1  0  0  0  0  0  0  0  0  0
  141.2593  141.9063  155.0780 C   0  0  0  0  0  0  0  0  0  0  0  0
  141.8801  143.9358  156.1594 O   0  0  0  0  0  0  0  0  0  0  0  0
  145.1862  143.9200  154.5656 C   0  0  0  0  0  0  0  0  0  0  0  0
  146.0567  142.9480  153.7411 C   0  0  0  0  0  0  0  0  0  0  0  0
  151.2003  142.0338  157.7080 C   0  0  0  0  0  0  0  0  0  0  0  0
  151.2209  143.3786  158.1183 C   0  0  0  0  0  0  0  0  0  0  0  0
  151.8156  143.7215  159.3505 C   0  0  0  0  0  0  0  0  0  0  0  0
  151.8311  145.1757  159.7870 C   0  0  0  0  0  0  0  0  0  0  0  0
  153.4239  142.1622  161.9880 H   0  0  0  0  0  0  0  0  0  0  0  0
  152.3061  143.5130  162.1644 H   0  0  0  0  0  0  0  0  0  0  0  0
  153.8607  143.7461  161.3506 H   0  0  0  0  0  0  0  0  0  0  0  0
  152.7904  140.5904  160.3617 H   0  0  0  0  0  0  0  0  0  0  0  0
  150.7201  139.3193  156.0671 H   0  0  0  0  0  0  0  0  0  0  0  0
  149.4051  142.7709  155.7761 H   0  0  0  0  0  0  0  0  0  0  0  0
  150.8074  142.4180  154.7904 H   0  0  0  0  0  0  0  0  0  0  0  0
  148.7932  140.2201  155.3386 H   0  0  0  0  0  0  0  0  0  0  0  0
  149.7566  140.1921  152.9231 H   0  0  0  0  0  0  0  0  0  0  0  0
  148.5496  142.1223  152.9270 H   0  0  0  0  0  0  0  0  0  0  0  0
  147.5368  140.7552  153.3103 H   0  0  0  0  0  0  0  0  0  0  0  0
  146.2261  140.9481  155.6191 H   0  0  0  0  0  0  0  0  0  0  0  0
  147.6678  141.5717  156.3931 H   0  0  0  0  0  0  0  0  0  0  0  0
  145.6326  142.4046  157.5765 H   0  0  0  0  0  0  0  0  0  0  0  0
  146.5629  143.7143  156.9016 H   0  0  0  0  0  0  0  0  0  0  0  0
  143.9683  141.5082  155.1695 H   0  0  0  0  0  0  0  0  0  0  0  0
  143.4639  141.9361  156.7778 H   0  0  0  0  0  0  0  0  0  0  0  0
  142.5179  143.4469  154.2852 H   0  0  0  0  0  0  0  0  0  0  0  0
  141.5628  141.1404  154.3640 H   0  0  0  0  0  0  0  0  0  0  0  0
  140.3357  142.3523  154.7070 H   0  0  0  0  0  0  0  0  0  0  0  0
  141.0320  141.4101  156.0222 H   0  0  0  0  0  0  0  0  0  0  0  0
  141.3291  144.5503  155.6997 H   0  0  0  0  0  0  0  0  0  0  0  0
  144.3200  144.2364  153.9857 H   0  0  0  0  0  0  0  0  0  0  0  0
  145.7584  144.8269  154.7668 H   0  0  0  0  0  0  0  0  0  0  0  0
  146.3939  143.4626  152.8422 H   0  0  0  0  0  0  0  0  0  0  0  0
  145.4642  142.0971  153.4029 H   0  0  0  0  0  0  0  0  0  0  0  0
  150.7795  144.1403  157.4931 H   0  0  0  0  0  0  0  0  0  0  0  0
  151.3470  145.8180  159.0507 H   0  0  0  0  0  0  0  0  0  0  0  0
  152.8556  145.5254  159.9145 H   0  0  0  0  0  0  0  0  0  0  0  0
  151.3035  145.2962  160.7333 H   0  0  0  0  0  0  0  0  0  0  0  0
  144.3947  144.1036  156.4176 H   0  0  0  0  0  0  0  0  0  0  0  0
  147.7791  143.2713  154.7639 H   0  0  0  0  0  0  0  0  0  0  0  0
  1  2  1  0  0  0  0
  1 26  1  0  0  0  0
  1 27  1  0  0  0  0
  1 28  1  0  0  0  0
  2 24  1  0  0  0  0
  2  3  2  0  0  0  0
  3  4  1  0  0  0  0
  3 29  1  0  0  0  0
  4 22  2  0  0  0  0
  4  5  1  0  0  0  0
  5  6  2  0  0  0  0
  6  7  1  0  0  0  0
  6 30  1  0  0  0  0
  7  8  1  0  0  0  0
  7 22  1  0  0  0  0
  8  9  1  0  0  0  0
  8 31  1  0  0  0  0
  8 32  1  0  0  0  0
  9 10  1  0  0  0  0
  9 11  1  0  0  0  0
  9 33  1  0  0  0  0
 10 34  1  0  0  0  0
 11 12  1  0  0  0  0
 11 35  1  0  0  0  0
 11 36  1  0  0  0  0
 12 21  1  0  0  0  0
 12 13  1  0  0  0  0
 12 57  1  0  0  0  0
 13 14  1  0  0  0  0
 13 37  1  0  0  0  0
 13 38  1  0  0  0  0
 14 15  1  0  0  0  0
 14 39  1  0  0  0  0
 14 40  1  0  0  0  0
 15 16  1  0  0  0  0
 15 20  1  0  0  0  0
 15 56  1  0  0  0  0
 16 17  1  0  0  0  0
 16 41  1  0  0  0  0
 16 42  1  0  0  0  0
 17 18  1  0  0  0  0
 17 19  1  0  0  0  0
 17 43  1  0  0  0  0
 18 44  1  0  0  0  0
 18 45  1  0  0  0  0
 18 46  1  0  0  0  0
 19 47  1  0  0  0  0
 20 21  1  0  0  0  0
 20 48  1  0  0  0  0
 20 49  1  0  0  0  0
 21 50  1  0  0  0  0
 21 51  1  0  0  0  0
 22 23  1  0  0  0  0
 23 24  2  0  0  0  0
 23 52  1  0  0  0  0
 24 25  1  0  0  0  0
 25 53  1  0  0  0  0
 25 54  1  0  0  0  0
 25 55  1  0  0  0  0
M  CHG  1  12   1
M  CHG  1  15   1
M  END
> <s_m_source_file>
AV-unprocessed.smi

> <i_m_source_file_index>
1033

> <i_lp_mmshare_version>
43012

> <i_f3d_flags>
0

> <s_epik_input>
W0NIM11jKFtjSF0xKWMoW0NIM10pW2NIXWMoYzEyKW4oW2NIXW4yKVtDSDJdW0NASF0oW09IXSlbQ0gyXU4zW0NIMl1bQ0gyXU4oW0NIMl1bQ0gyXTMpW0NIMl1bQ0BIXShbQ0gzXSlbT0hd

> <s_epik_cmdline>
J2VwaWtfcHl0aG9uJywgJy1waCcsICc3LjAnLCAnLXRuJywgJzgnLCAnLW1hJywgJzIwMCcsICctbWV0YWxfYmluZGluZycsICctaW1hZScsICc8aW5maWxlLm1hZT4nLCAnLW9tYWUnLCAnPG91dGZpbGUubWFlPic=

> <r_epik_Ionization_Penalty>
3.16016

> <r_epik_Ionization_Penalty_Charging>
3.07679

> <r_epik_Ionization_Penalty_Neutral>
0.083365

> <r_epik_State_Penalty>
2.09701

> <r_epik_Charging_Adjusted_Penalty>
5.1738

> <i_epik_Tot_Q>
2

> <i_epik_Tot_abs_Q>
2

> <r_epik_Metal_State_Penalty>
2.02534

> <b_epik_Metal_Only>
0

> <s_lp_Force_Field>
OPLS_2005

> <r_lp_Energy>
31.6916

> <b_lp_Chiralities_Consistent>
1

> <s_lp_Variant>
AV-unprocessed.smi:1033-23

> <Gold.Version>
5.8.1

> <Gold.Id.Protein>
6NUR|6NUR_protein|mol2

> <Gold.PLP.Fitness>
59.9269

> <Gold.PLP.PLP>
-49.6464

> <Gold.PLP.part.hbond>
-3.0000

> <Gold.PLP.part.metal>
0.0000

> <Gold.PLP.part.buried>
-6.3541

> <Gold.PLP.part.nonpolar>
-39.1399

> <Gold.PLP.part.repulsive>
0.1278

> <Gold.PLP.ligand.clash>
0.0000

> <Gold.PLP.ligand.torsion>
0.6213

> <Gold.PLP.Chemscore.Hbond>
3.8160

> <Gold.PLP.Chemscore.CHOScore>
0.0000

> <Gold.PLP.Chemscore.Metal>
0.0000

> <Gold.Chemscore.Hbonds>
donor molecule, donor type, donor heavy atom, donor atom, acceptor molecule, acceptor atom, score
      L1  H    10    34       P1  7957  1.00
      L1  H    12    57       P1  8028  2.00
      P1  H  7989  7998       L1    10  0.74

> <Gold.PLP.Chemscore.Internal.Correction>
0.0751

> <Gold.Rescore>
     Score         DG    S(hbond)    S(metal)    S(lipo)     H(rot)  DE(clash)    DE(int)     intcor
     17.92     -19.04       1.91        0.00     129.88       3.14       0.51       0.61       ----

> <Gold.Chemscore.Fitness>
17.9199

> <Gold.Chemscore.DG>
-19.0385

> <Gold.Chemscore.ZeroCoef>
-5.4800

> <Gold.Chemscore.Hbond>
1.9148

> <Gold.Chemscore.Metal>
0.0000

> <Gold.Chemscore.Lipo>
129.8841

> <Gold.Chemscore.Internal_Hbond>
0.0000

> <Gold.Chemscore.DEClash>
0.5118

> <Gold.Chemscore.DEInternal>
0.6068

> <Gold.Chemscore.Rot>
3.1380

> <Gold.Chemscore.Internal.Correction>
   9.000000E+99

> <Gold.Chemscore.Hbonds>
donor molecule, donor type, donor heavy atom, donor atom, acceptor molecule, acceptor atom, score
      L1  H    10    34       P1  7957  1.00
      L1  H    12    57       P1  8028  0.64
      P1  H  7989  7998       L1    10  0.16

> <Gold.Chemscore.Hbond.Weighted>
-6.3953

> <Gold.Chemscore.Metal.Weighted>
-0.0000

> <Gold.Chemscore.Lipo.Weighted>
-15.1964

> <Gold.Chemscore.Internal_Hbond.Weighted>
0.0000

> <Gold.Chemscore.DEClash.Weighted>
0.5118

> <Gold.Chemscore.DEInternal.Weighted>
0.6068

> <Gold.Chemscore.Rot.Weighted>
8.0332

> <Gold.Chemscore.Internal.Correction.Weighted>
   9.000000E+99

> <Gold.Protein.RotatedTorsions>
[ 6907 6896 6895 6894 ] final   30.33 input  -60.11 | X-H torsion
[ 7974 7965 7964 7962 ] final  -28.67 input  175.53 | X-H torsion
[ 8008 7997 7996 7995 ] final -133.34 input   59.86 | X-H torsion
[ 10167 10162 10161 10158 ] final -115.36 input  -65.29 | X-H torsion
[ 10718 10713 10712 10709 ] final  112.46 input   66.30 | X-H torsion
[ 10763 10752 10751 10750 ] final  -31.29 input  -60.55 | X-H torsion
[ 11005 11000 10999 10996 ] final  147.96 input  -57.11 | X-H torsion

> <Gold.Protein.ActiveResidues>
 VAL166  LYS551  ARG553  GLY616  TRP617  ASP618  TYR619  PRO620  LYS621  CYS622 
 ASP623  PHE694  ASN695  SER759  ASP760  ASP761  ALA762  ILE779  LEU786  VAL792 
 PHE793  MET794  SER795  GLU796  ALA797  LYS798  CYS799  TRP800  GLU811  SER814 

> <Gold.Protein.RotatedAtoms>
  152.0444  134.9692  160.0573 H   0  0  0  0  0  0  0  0  0  0  0  0  # atno 6907 bound_to 6896
  152.1118  133.4300  159.4642 H   0  0  0  0  0  0  0  0  0  0  0  0  # atno 6908 bound_to 6896
  150.6844  134.2558  159.4572 H   0  0  0  0  0  0  0  0  0  0  0  0  # atno 6909 bound_to 6896
  146.1272  140.5313  142.8709 H   0  0  0  0  0  0  0  0  0  0  0  0  # atno 7974 bound_to 7965
  155.3439  140.0473  157.3045 H   0  0  0  0  0  0  0  0  0  0  0  0  # atno 8008 bound_to 7997
  154.5263  140.2242  155.8849 H   0  0  0  0  0  0  0  0  0  0  0  0  # atno 8009 bound_to 7997
  156.1742  140.3089  155.9035 H   0  0  0  0  0  0  0  0  0  0  0  0  # atno 8010 bound_to 7997
  140.0910  143.4700  152.1870 H   0  0  0  0  0  0  0  0  0  0  0  0  # atno 10167 bound_to 10162
  157.6391  131.0968  150.6899 H   0  0  0  0  0  0  0  0  0  0  0  0  # atno 10718 bound_to 10713
  153.7948  135.6895  153.4865 H   0  0  0  0  0  0  0  0  0  0  0  0  # atno 10763 bound_to 10752
  153.1726  135.4537  154.9921 H   0  0  0  0  0  0  0  0  0  0  0  0  # atno 10764 bound_to 10752
  154.8030  135.3345  154.7442 H   0  0  0  0  0  0  0  0  0  0  0  0  # atno 10765 bound_to 10752
  140.0920  134.9035  157.1665 H   0  0  0  0  0  0  0  0  0  0  0  0  # atno 11005 bound_to 11000
  144.7654  140.5517  143.6707 LP  0  0  0  0  0  0  0  0  0  0  0  0  # atno 17320 bound_to 7965
  145.5340  139.1475  143.3484 LP  0  0  0  0  0  0  0  0  0  0  0  0  # atno 17321 bound_to 7965
  139.5725  144.7470  151.3853 LP  0  0  0  0  0  0  0  0  0  0  0  0  # atno 17342 bound_to 10162
  140.7029  143.7588  150.7432 LP  0  0  0  0  0  0  0  0  0  0  0  0  # atno 17343 bound_to 10162
  156.7225  130.4685  149.5519 LP  0  0  0  0  0  0  0  0  0  0  0  0  # atno 17370 bound_to 10713
  156.1656  130.6403  151.0773 LP  0  0  0  0  0  0  0  0  0  0  0  0  # atno 17371 bound_to 10713
  140.3339  134.2779  155.7223 LP  0  0  0  0  0  0  0  0  0  0  0  0  # atno 17394 bound_to 11000
  141.2080  133.7788  157.0082 LP  0  0  0  0  0  0  0  0  0  0  0  0  # atno 17395 bound_to 11000

$$$$
