AV-unprocessed.smi:1560|AV-procd|sdf|6275|dock3
  -GOLD-   22720 6463D 1   1.00000     0.00000
 Structure written by MMmdl.
 47 48  0  0  0  0  0  0  0  0  1 V2000
  152.1801  139.6737  156.0513 C   0  0  0  0  0  0  0  0  0  0  0  0
  150.8204  140.3704  156.2290 C   0  0  0  0  0  0  0  0  0  0  0  0
  150.3926  140.6332  157.7112 C   0  0  1  0  0  0  0  0  0  0  0  0
  148.8517  140.8167  157.7000 C   0  0  0  0  0  0  0  0  0  0  0  0
  150.7084  139.3568  158.5572 C   0  0  0  0  0  0  0  0  0  0  0  0
  149.7201  138.2987  158.3889 N   0  0  0  0  0  0  0  0  0  0  0  0
  149.8161  137.0442  158.8540 C   0  0  0  0  0  0  0  0  0  0  0  0
  150.7901  136.6398  159.4876 O   0  0  0  0  0  0  0  0  0  0  0  0
  148.6470  136.0849  158.5682 C   0  0  0  0  0  0  0  0  0  0  0  0
  148.1042  135.4140  159.7626 N   0  0  0  0  0  0  0  0  0  0  0  0
  147.9510  134.0348  159.7770 C   0  0  0  0  0  0  0  0  0  0  0  0
  147.4270  133.3532  160.8231 C   0  0  0  0  0  0  0  0  0  0  0  0
  146.9860  134.0617  162.0197 C   0  0  0  0  0  0  0  0  0  0  0  0
  146.4968  133.5348  163.0162 O   0  0  0  0  0  0  0  0  0  0  0  0
  147.1574  135.4475  161.9679 N   0  0  0  0  0  0  0  0  0  0  0  0
  147.6963  136.1560  160.8933 C   0  0  0  0  0  0  0  0  0  0  0  0
  147.7897  137.3814  160.9456 O   0  0  0  0  0  0  0  0  0  0  0  0
  151.1001  141.8214  158.2765 N   0  0  0  0  0  0  0  0  0  0  0  0
  152.4868  141.5826  158.7000 C   0  0  0  0  0  0  0  0  0  0  0  0
  153.1085  142.8117  159.3843 C   0  0  0  0  0  0  0  0  0  0  0  0
  153.0456  143.9297  158.5086 O   0  0  0  0  0  0  0  0  0  0  0  0
  151.7116  144.2398  158.1276 C   0  0  0  0  0  0  0  0  0  0  0  0
  151.0721  143.0249  157.4335 C   0  0  0  0  0  0  0  0  0  0  0  0
  146.8646  135.9806  162.7739 H   0  0  0  0  0  0  0  0  0  0  0  0
  152.4144  139.5587  154.9930 H   0  0  0  0  0  0  0  0  0  0  0  0
  152.1848  138.6777  156.4935 H   0  0  0  0  0  0  0  0  0  0  0  0
  152.9883  140.2475  156.5051 H   0  0  0  0  0  0  0  0  0  0  0  0
  150.8266  141.3002  155.6616 H   0  0  0  0  0  0  0  0  0  0  0  0
  150.0667  139.7751  155.7124 H   0  0  0  0  0  0  0  0  0  0  0  0
  148.3483  139.9522  157.2655 H   0  0  0  0  0  0  0  0  0  0  0  0
  148.5434  141.6781  157.1081 H   0  0  0  0  0  0  0  0  0  0  0  0
  148.4453  140.9418  158.7032 H   0  0  0  0  0  0  0  0  0  0  0  0
  151.6902  138.9567  158.3006 H   0  0  0  0  0  0  0  0  0  0  0  0
  150.7404  139.6013  159.6193 H   0  0  0  0  0  0  0  0  0  0  0  0
  148.8846  138.5428  157.8772 H   0  0  0  0  0  0  0  0  0  0  0  0
  147.8580  136.6511  158.0709 H   0  0  0  0  0  0  0  0  0  0  0  0
  148.9735  135.3482  157.8320 H   0  0  0  0  0  0  0  0  0  0  0  0
  148.2581  133.4695  158.9086 H   0  0  0  0  0  0  0  0  0  0  0  0
  147.3311  132.2781  160.7733 H   0  0  0  0  0  0  0  0  0  0  0  0
  152.5455  140.7578  159.4067 H   0  0  0  0  0  0  0  0  0  0  0  0
  153.1028  141.3125  157.8425 H   0  0  0  0  0  0  0  0  0  0  0  0
  152.5898  143.0388  160.3170 H   0  0  0  0  0  0  0  0  0  0  0  0
  154.1508  142.6166  159.6372 H   0  0  0  0  0  0  0  0  0  0  0  0
  151.1328  144.5314  159.0054 H   0  0  0  0  0  0  0  0  0  0  0  0
  151.7245  145.0969  157.4544 H   0  0  0  0  0  0  0  0  0  0  0  0
  151.5947  142.8407  156.4949 H   0  0  0  0  0  0  0  0  0  0  0  0
  150.0513  143.3031  157.1802 H   0  0  0  0  0  0  0  0  0  0  0  0
  1  2  1  0  0  0  0
  1 25  1  0  0  0  0
  1 26  1  0  0  0  0
  1 27  1  0  0  0  0
  2  3  1  0  0  0  0
  2 28  1  0  0  0  0
  2 29  1  0  0  0  0
  3  4  1  0  0  0  0
  3  5  1  0  0  0  0
  3 18  1  0  0  0  0
  4 30  1  0  0  0  0
  4 31  1  0  0  0  0
  4 32  1  0  0  0  0
  5  6  1  0  0  0  0
  5 33  1  0  0  0  0
  5 34  1  0  0  0  0
  6  7  1  0  0  0  0
  6 35  1  0  0  0  0
  7  8  2  0  0  0  0
  7  9  1  0  0  0  0
  9 10  1  0  0  0  0
  9 36  1  0  0  0  0
  9 37  1  0  0  0  0
 10 16  1  0  0  0  0
 10 11  1  0  0  0  0
 11 12  2  0  0  0  0
 11 38  1  0  0  0  0
 12 13  1  0  0  0  0
 12 39  1  0  0  0  0
 13 14  2  0  0  0  0
 13 15  1  0  0  0  0
 15 24  1  0  0  0  0
 15 16  1  0  0  0  0
 16 17  2  0  0  0  0
 18 23  1  0  0  0  0
 18 19  1  0  0  0  0
 19 20  1  0  0  0  0
 19 40  1  0  0  0  0
 19 41  1  0  0  0  0
 20 21  1  0  0  0  0
 20 42  1  0  0  0  0
 20 43  1  0  0  0  0
 21 22  1  0  0  0  0
 22 23  1  0  0  0  0
 22 44  1  0  0  0  0
 22 45  1  0  0  0  0
 23 46  1  0  0  0  0
 23 47  1  0  0  0  0
M  END
> <s_m_source_file>
AV-unprocessed.smi

> <i_m_source_file_index>
1560

> <i_lp_mmshare_version>
43012

> <i_f3d_flags>
0

> <s_epik_input>
W0NIMl0xW0NIMl1PW0NIMl1bQ0gyXU4xW0NAQF0oW0NIM10pKFtDSDJdW0NIM10pW0NIMl1bTkhdQyg9TylbQ0gyXW4yW2NIXVtjSF1jKD1PKVtuSF1jMj1P

> <s_epik_cmdline>
J2VwaWtfcHl0aG9uJywgJy1waCcsICc3LjAnLCAnLXRuJywgJzgnLCAnLW1hJywgJzIwMCcsICctbWV0YWxfYmluZGluZycsICctaW1hZScsICc8aW5maWxlLm1hZT4nLCAnLW9tYWUnLCAnPG91dGZpbGUubWFlPic=

> <r_lp_tautomer_probability>
0.999537

> <r_epik_Ionization_Penalty>
0.321965

> <r_epik_Ionization_Penalty_Charging>
0.00329831

> <r_epik_Ionization_Penalty_Neutral>
0.318667

> <r_epik_State_Penalty>
0.288097

> <r_epik_Charging_Adjusted_Penalty>
0.291396

> <i_epik_Tot_Q>
0

> <i_epik_Tot_abs_Q>
0

> <r_epik_Metal_State_Penalty>
0.654595

> <b_epik_Metal_Only>
0

> <s_lp_Force_Field>
OPLS_2005

> <r_lp_Energy>
42.3402

> <b_lp_Chiralities_Consistent>
1

> <s_lp_Variant>
AV-unprocessed.smi:1560-1

> <Gold.Version>
5.8.1

> <Gold.Id.Protein>
6NUR|6NUR_protein|mol2

> <Gold.PLP.Fitness>
42.9267

> <Gold.PLP.PLP>
-36.8632

> <Gold.PLP.part.hbond>
-3.7409

> <Gold.PLP.part.metal>
0.0000

> <Gold.PLP.part.buried>
-4.7065

> <Gold.PLP.part.nonpolar>
-29.3285

> <Gold.PLP.part.repulsive>
0.2779

> <Gold.PLP.ligand.clash>
0.0000

> <Gold.PLP.ligand.torsion>
1.0329

> <Gold.PLP.Chemscore.Hbond>
2.6800

> <Gold.PLP.Chemscore.CHOScore>
0.0000

> <Gold.PLP.Chemscore.Metal>
0.0000

> <Gold.Chemscore.Hbonds>
donor molecule, donor type, donor heavy atom, donor atom, acceptor molecule, acceptor atom, score
      P1  H  6896  6908       L1     8  0.88
      P1  H  6931  6943       L1    17  0.80
      P1  H  6934  6947       L1    17  0.82

> <Gold.PLP.Chemscore.Internal.Correction>
0.0893

> <Gold.Rescore>
     Score         DG    S(hbond)    S(metal)    S(lipo)     H(rot)  DE(clash)    DE(int)     intcor
     14.86     -16.88       2.67        0.00      75.55       2.49       0.00       2.02       ----

> <Gold.Chemscore.Fitness>
14.8569

> <Gold.Chemscore.DG>
-16.8752

> <Gold.Chemscore.ZeroCoef>
-5.4800

> <Gold.Chemscore.Hbond>
2.6708

> <Gold.Chemscore.Metal>
0.0000

> <Gold.Chemscore.Lipo>
75.5510

> <Gold.Chemscore.Internal_Hbond>
0.0000

> <Gold.Chemscore.DEClash>
0.0000

> <Gold.Chemscore.DEInternal>
2.0183

> <Gold.Chemscore.Rot>
2.4862

> <Gold.Chemscore.Internal.Correction>
   9.000000E+99

> <Gold.Chemscore.Hbonds>
donor molecule, donor type, donor heavy atom, donor atom, acceptor molecule, acceptor atom, score
      P1  H  6896  6908       L1     8  0.82
      P1  H  6931  6943       L1    17  0.79
      P1  H  6934  6947       L1    17  0.81

> <Gold.Chemscore.Hbond.Weighted>
-8.9204

> <Gold.Chemscore.Metal.Weighted>
-0.0000

> <Gold.Chemscore.Lipo.Weighted>
-8.8395

> <Gold.Chemscore.Internal_Hbond.Weighted>
0.0000

> <Gold.Chemscore.DEClash.Weighted>
0.0000

> <Gold.Chemscore.DEInternal.Weighted>
2.0183

> <Gold.Chemscore.Rot.Weighted>
6.3646

> <Gold.Chemscore.Internal.Correction.Weighted>
   9.000000E+99

> <Gold.Protein.RotatedTorsions>
[ 6907 6896 6895 6894 ] final -167.08 input  -60.11 | X-H torsion
[ 7974 7965 7964 7962 ] final -148.01 input  175.53 | X-H torsion
[ 8008 7997 7996 7995 ] final  121.21 input   59.86 | X-H torsion
[ 10167 10162 10161 10158 ] final  -66.40 input  -65.29 | X-H torsion
[ 10718 10713 10712 10709 ] final -125.83 input   66.30 | X-H torsion
[ 10763 10752 10751 10750 ] final  124.83 input  -60.55 | X-H torsion
[ 11005 11000 10999 10996 ] final -141.74 input  -57.11 | X-H torsion

> <Gold.Protein.ActiveResidues>
 VAL166  LYS551  ARG553  GLY616  TRP617  ASP618  TYR619  PRO620  LYS621  CYS622 
 ASP623  PHE694  ASN695  SER759  ASP760  ASP761  ALA762  ILE779  LEU786  VAL792 
 PHE793  MET794  SER795  GLU796  ALA797  LYS798  CYS799  TRP800  GLU811  SER814 

> <Gold.Protein.RotatedAtoms>
  151.4539  133.3610  159.2798 H   0  0  0  0  0  0  0  0  0  0  0  0  # atno 6907 bound_to 6896
  150.9072  134.8489  159.7411 H   0  0  0  0  0  0  0  0  0  0  0  0  # atno 6908 bound_to 6896
  152.4912  134.4465  159.9612 H   0  0  0  0  0  0  0  0  0  0  0  0  # atno 6909 bound_to 6896
  144.8057  140.5253  143.5677 H   0  0  0  0  0  0  0  0  0  0  0  0  # atno 7974 bound_to 7965
  156.2677  140.2813  156.1272 H   0  0  0  0  0  0  0  0  0  0  0  0  # atno 8008 bound_to 7997
  155.1092  140.0390  157.2737 H   0  0  0  0  0  0  0  0  0  0  0  0  # atno 8009 bound_to 7997
  154.6755  140.2597  155.6968 H   0  0  0  0  0  0  0  0  0  0  0  0  # atno 8010 bound_to 7997
  140.5660  143.2315  151.6634 H   0  0  0  0  0  0  0  0  0  0  0  0  # atno 10167 bound_to 10162
  156.1711  130.6668  151.0181 H   0  0  0  0  0  0  0  0  0  0  0  0  # atno 10718 bound_to 10713
  153.6677  135.3335  155.3144 H   0  0  0  0  0  0  0  0  0  0  0  0  # atno 10763 bound_to 10752
  154.8499  135.4379  154.1738 H   0  0  0  0  0  0  0  0  0  0  0  0  # atno 10764 bound_to 10752
  153.2721  135.7001  153.7546 H   0  0  0  0  0  0  0  0  0  0  0  0  # atno 10765 bound_to 10752
  140.8294  134.2535  157.4864 H   0  0  0  0  0  0  0  0  0  0  0  0  # atno 11005 bound_to 11000
  145.5445  139.1475  143.3428 LP  0  0  0  0  0  0  0  0  0  0  0  0  # atno 17320 bound_to 7965
  146.2347  140.5584  142.8960 LP  0  0  0  0  0  0  0  0  0  0  0  0  # atno 17321 bound_to 7965
  139.5093  144.3582  152.0588 LP  0  0  0  0  0  0  0  0  0  0  0  0  # atno 17342 bound_to 10162
  140.2713  144.3960  150.6150 LP  0  0  0  0  0  0  0  0  0  0  0  0  # atno 17343 bound_to 10162
  157.6803  131.0840  150.7387 LP  0  0  0  0  0  0  0  0  0  0  0  0  # atno 17370 bound_to 10713
  156.7446  130.4750  149.5470 LP  0  0  0  0  0  0  0  0  0  0  0  0  # atno 17371 bound_to 10713
  139.8705  134.9578  156.4280 LP  0  0  0  0  0  0  0  0  0  0  0  0  # atno 17394 bound_to 11000
  140.9014  133.7777  155.9684 LP  0  0  0  0  0  0  0  0  0  0  0  0  # atno 17395 bound_to 11000

$$$$
