AV-unprocessed.smi:1304|AV-procd|sdf|5430|dock5
  -GOLD-   22720 4593D 1   1.00000     0.00000
 Structure written by MMmdl.
 47 48  0  0  0  0  0  0  0  0  1 V2000
  150.5352  133.1974  155.9916 C   0  0  0  0  0  0  0  0  0  0  0  0
  150.8404  134.5547  155.3348 C   0  0  0  0  0  0  0  0  0  0  0  0
  149.8480  135.7108  155.6911 C   0  0  2  0  0  0  0  0  0  0  0  0
  149.8598  135.8438  157.2373 C   0  0  0  0  0  0  0  0  0  0  0  0
  148.4076  135.2786  155.2647 C   0  0  0  0  0  0  0  0  0  0  0  0
  148.3459  134.7489  153.9084 N   0  0  0  0  0  0  0  0  0  0  0  0
  147.8923  133.5349  153.5623 C   0  0  0  0  0  0  0  0  0  0  0  0
  147.5129  132.7046  154.3868 O   0  0  0  0  0  0  0  0  0  0  0  0
  147.8409  133.1892  152.0636 C   0  0  0  0  0  0  0  0  0  0  0  0
  146.4802  133.1062  151.5003 N   0  0  0  0  0  0  0  0  0  0  0  0
  146.1393  131.9180  150.8236 C   0  0  0  0  0  0  0  0  0  0  0  0
  144.9379  131.7470  150.2499 C   0  0  0  0  0  0  0  0  0  0  0  0
  143.9787  132.8221  150.3416 C   0  0  0  0  0  0  0  0  0  0  0  0
  144.2949  133.9639  150.9841 C   0  0  0  0  0  0  0  0  0  0  0  0
  145.6093  134.1577  151.6070 C   0  0  0  0  0  0  0  0  0  0  0  0
  145.9135  135.2047  152.1783 O   0  0  0  0  0  0  0  0  0  0  0  0
  150.2315  136.9842  155.0112 N   0  0  0  0  0  0  0  0  0  0  0  0
  149.4247  138.1553  155.3814 C   0  0  0  0  0  0  0  0  0  0  0  0
  149.7919  139.4033  154.5605 C   0  0  0  0  0  0  0  0  0  0  0  0
  151.1775  139.6852  154.7068 O   0  0  0  0  0  0  0  0  0  0  0  0
  151.9941  138.5993  154.2889 C   0  0  0  0  0  0  0  0  0  0  0  0
  151.6518  137.3471  155.1133 C   0  0  0  0  0  0  0  0  0  0  0  0
  151.2447  132.4424  155.6533 H   0  0  0  0  0  0  0  0  0  0  0  0
  149.5356  132.8429  155.7403 H   0  0  0  0  0  0  0  0  0  0  0  0
  150.6122  133.2480  157.0775 H   0  0  0  0  0  0  0  0  0  0  0  0
  151.8611  134.8319  155.5992 H   0  0  0  0  0  0  0  0  0  0  0  0
  150.8971  134.4183  154.2558 H   0  0  0  0  0  0  0  0  0  0  0  0
  149.6091  134.9001  157.7228 H   0  0  0  0  0  0  0  0  0  0  0  0
  149.1363  136.5776  157.5920 H   0  0  0  0  0  0  0  0  0  0  0  0
  150.8383  136.1327  157.6190 H   0  0  0  0  0  0  0  0  0  0  0  0
  148.0258  134.4924  155.9161 H   0  0  0  0  0  0  0  0  0  0  0  0
  147.7180  136.1196  155.3538 H   0  0  0  0  0  0  0  0  0  0  0  0
  148.6430  135.3691  153.1692 H   0  0  0  0  0  0  0  0  0  0  0  0
  148.4248  133.9371  151.5255 H   0  0  0  0  0  0  0  0  0  0  0  0
  148.3737  132.2499  151.9054 H   0  0  0  0  0  0  0  0  0  0  0  0
  146.9156  131.1668  150.7938 H   0  0  0  0  0  0  0  0  0  0  0  0
  144.6963  130.8311  149.7307 H   0  0  0  0  0  0  0  0  0  0  0  0
  143.0027  132.7109  149.8924 H   0  0  0  0  0  0  0  0  0  0  0  0
  143.5649  134.7579  151.0420 H   0  0  0  0  0  0  0  0  0  0  0  0
  148.3649  137.9674  155.2229 H   0  0  0  0  0  0  0  0  0  0  0  0
  149.5533  138.3823  156.4397 H   0  0  0  0  0  0  0  0  0  0  0  0
  149.5516  139.2575  153.5062 H   0  0  0  0  0  0  0  0  0  0  0  0
  149.2168  140.2634  154.9037 H   0  0  0  0  0  0  0  0  0  0  0  0
  151.8491  138.4127  153.2236 H   0  0  0  0  0  0  0  0  0  0  0  0
  153.0415  138.8681  154.4270 H   0  0  0  0  0  0  0  0  0  0  0  0
  151.9229  137.5286  156.1532 H   0  0  0  0  0  0  0  0  0  0  0  0
  152.2895  136.5426  154.7537 H   0  0  0  0  0  0  0  0  0  0  0  0
  1  2  1  0  0  0  0
  1 23  1  0  0  0  0
  1 24  1  0  0  0  0
  1 25  1  0  0  0  0
  2  3  1  0  0  0  0
  2 26  1  0  0  0  0
  2 27  1  0  0  0  0
  3  4  1  0  0  0  0
  3  5  1  0  0  0  0
  3 17  1  0  0  0  0
  4 28  1  0  0  0  0
  4 29  1  0  0  0  0
  4 30  1  0  0  0  0
  5  6  1  0  0  0  0
  5 31  1  0  0  0  0
  5 32  1  0  0  0  0
  6  7  1  0  0  0  0
  6 33  1  0  0  0  0
  7  8  2  0  0  0  0
  7  9  1  0  0  0  0
  9 10  1  0  0  0  0
  9 34  1  0  0  0  0
  9 35  1  0  0  0  0
 10 15  1  0  0  0  0
 10 11  1  0  0  0  0
 11 12  2  0  0  0  0
 11 36  1  0  0  0  0
 12 13  1  0  0  0  0
 12 37  1  0  0  0  0
 13 14  2  0  0  0  0
 13 38  1  0  0  0  0
 14 15  1  0  0  0  0
 14 39  1  0  0  0  0
 15 16  2  0  0  0  0
 17 22  1  0  0  0  0
 17 18  1  0  0  0  0
 18 19  1  0  0  0  0
 18 40  1  0  0  0  0
 18 41  1  0  0  0  0
 19 20  1  0  0  0  0
 19 42  1  0  0  0  0
 19 43  1  0  0  0  0
 20 21  1  0  0  0  0
 21 22  1  0  0  0  0
 21 44  1  0  0  0  0
 21 45  1  0  0  0  0
 22 46  1  0  0  0  0
 22 47  1  0  0  0  0
M  END
> <s_m_source_file>
AV-unprocessed.smi

> <i_m_source_file_index>
1304

> <i_lp_mmshare_version>
43012

> <i_f3d_flags>
0

> <s_epik_input>
W0NIMl0xW0NIMl1PW0NIMl1bQ0gyXU4xW0NAQF0oW0NIM10pKFtDSDJdW0NIM10pW0NIMl1bTkhdQyg9TylbQ0gyXW4yW2NIXVtjSF1bY0hdW2NIXWMyPU8=

> <s_epik_cmdline>
J2VwaWtfcHl0aG9uJywgJy1waCcsICc3LjAnLCAnLXRuJywgJzgnLCAnLW1hJywgJzIwMCcsICctbWV0YWxfYmluZGluZycsICctaW1hZScsICc8aW5maWxlLm1hZT4nLCAnLW9tYWUnLCAnPG91dGZpbGUubWFlPic=

> <r_lp_tautomer_probability>
1

> <r_epik_Ionization_Penalty>
0.318667

> <r_epik_Ionization_Penalty_Charging>
3.55364e-07

> <r_epik_Ionization_Penalty_Neutral>
0.318667

> <r_epik_State_Penalty>
0.313095

> <r_epik_Charging_Adjusted_Penalty>
0.313095

> <i_epik_Tot_Q>
0

> <i_epik_Tot_abs_Q>
0

> <r_epik_Metal_State_Penalty>
0.313065

> <b_epik_Metal_Only>
0

> <s_lp_Force_Field>
OPLS_2005

> <r_lp_Energy>
51.8872

> <b_lp_Chiralities_Consistent>
1

> <s_lp_Variant>
AV-unprocessed.smi:1304-2

> <Gold.Version>
5.8.1

> <Gold.Id.Protein>
6NUR|6NUR_protein|mol2

> <Gold.PLP.Fitness>
42.9910

> <Gold.PLP.PLP>
-34.6916

> <Gold.PLP.part.hbond>
-2.0000

> <Gold.PLP.part.metal>
0.0000

> <Gold.PLP.part.buried>
-4.9645

> <Gold.PLP.part.nonpolar>
-28.0770

> <Gold.PLP.part.repulsive>
0.4305

> <Gold.PLP.ligand.clash>
0.0000

> <Gold.PLP.ligand.torsion>
0.4057

> <Gold.PLP.Chemscore.Hbond>
2.0000

> <Gold.PLP.Chemscore.CHOScore>
1.0000

> <Gold.PLP.Chemscore.Metal>
0.0000

> <Gold.Chemscore.Hbonds>
donor molecule, donor type, donor heavy atom, donor atom, acceptor molecule, acceptor atom, score
      L1  H     6    33       P1  7948  1.00
      P1  H  7989  7998       L1    20  0.95
      L1  C    11    36       P1 10747  1.00

> <Gold.PLP.Chemscore.Internal.Correction>
0.1108

> <Gold.Rescore>
     Score         DG    S(hbond)    S(metal)    S(lipo)     H(rot)  DE(clash)    DE(int)     intcor
     14.43     -14.93       1.43        0.00      82.79       1.95       0.01       0.49       ----

> <Gold.Chemscore.Fitness>
14.4324

> <Gold.Chemscore.DG>
-14.9313

> <Gold.Chemscore.ZeroCoef>
-5.4800

> <Gold.Chemscore.Hbond>
1.4255

> <Gold.Chemscore.Metal>
0.0000

> <Gold.Chemscore.Lipo>
82.7865

> <Gold.Chemscore.Internal_Hbond>
0.0000

> <Gold.Chemscore.DEClash>
0.0128

> <Gold.Chemscore.DEInternal>
0.4861

> <Gold.Chemscore.Rot>
1.9515

> <Gold.Chemscore.Internal.Correction>
   9.000000E+99

> <Gold.Chemscore.Hbonds>
donor molecule, donor type, donor heavy atom, donor atom, acceptor molecule, acceptor atom, score
      L1  H     6    33       P1  7948  0.85
      P1  H  7989  7998       L1    20  0.15

> <Gold.Chemscore.Hbond.Weighted>
-4.7611

> <Gold.Chemscore.Metal.Weighted>
-0.0000

> <Gold.Chemscore.Lipo.Weighted>
-9.6860

> <Gold.Chemscore.Internal_Hbond.Weighted>
0.0000

> <Gold.Chemscore.DEClash.Weighted>
0.0128

> <Gold.Chemscore.DEInternal.Weighted>
0.4861

> <Gold.Chemscore.Rot.Weighted>
4.9958

> <Gold.Chemscore.Internal.Correction.Weighted>
   9.000000E+99

> <Gold.Protein.RotatedTorsions>
[ 6907 6896 6895 6894 ] final   95.29 input  -60.11 | X-H torsion
[ 7974 7965 7964 7962 ] final  123.64 input  175.53 | X-H torsion
[ 8008 7997 7996 7995 ] final -176.19 input   59.86 | X-H torsion
[ 10167 10162 10161 10158 ] final   73.48 input  -65.29 | X-H torsion
[ 10718 10713 10712 10709 ] final   42.41 input   66.30 | X-H torsion
[ 10763 10752 10751 10750 ] final   10.51 input  -60.55 | X-H torsion
[ 11005 11000 10999 10996 ] final  -79.69 input  -57.11 | X-H torsion

> <Gold.Protein.ActiveResidues>
 VAL166  LYS551  ARG553  GLY616  TRP617  ASP618  TYR619  PRO620  LYS621  CYS622 
 ASP623  PHE694  ASN695  SER759  ASP760  ASP761  ALA762  ILE779  LEU786  VAL792 
 PHE793  MET794  SER795  GLU796  ALA797  LYS798  CYS799  TRP800  GLU811  SER814 

> <Gold.Protein.RotatedAtoms>
  152.5444  134.1062  159.8338 H   0  0  0  0  0  0  0  0  0  0  0  0  # atno 6907 bound_to 6896
  151.1134  133.5149  159.2612 H   0  0  0  0  0  0  0  0  0  0  0  0  # atno 6908 bound_to 6896
  151.1859  135.0391  159.8866 H   0  0  0  0  0  0  0  0  0  0  0  0  # atno 6909 bound_to 6896
  145.0936  139.3569  143.4848 H   0  0  0  0  0  0  0  0  0  0  0  0  # atno 7974 bound_to 7965
  155.9918  140.1202  157.0631 H   0  0  0  0  0  0  0  0  0  0  0  0  # atno 8008 bound_to 7997
  154.4214  140.1124  156.5644 H   0  0  0  0  0  0  0  0  0  0  0  0  # atno 8009 bound_to 7997
  155.6333  140.3473  155.4692 H   0  0  0  0  0  0  0  0  0  0  0  0  # atno 8010 bound_to 7997
  140.0240  144.5518  150.7559 H   0  0  0  0  0  0  0  0  0  0  0  0  # atno 10167 bound_to 10162
  157.4045  130.7879  149.7377 H   0  0  0  0  0  0  0  0  0  0  0  0  # atno 10718 bound_to 10713
  153.2024  135.6858  153.8214 H   0  0  0  0  0  0  0  0  0  0  0  0  # atno 10763 bound_to 10752
  153.7476  135.3229  155.3316 H   0  0  0  0  0  0  0  0  0  0  0  0  # atno 10764 bound_to 10752
  154.8179  135.4673  154.0796 H   0  0  0  0  0  0  0  0  0  0  0  0  # atno 10765 bound_to 10752
  141.1667  133.7117  156.8160 H   0  0  0  0  0  0  0  0  0  0  0  0  # atno 11005 bound_to 11000
  146.3531  140.0781  142.8619 LP  0  0  0  0  0  0  0  0  0  0  0  0  # atno 17320 bound_to 7965
  145.1037  140.9362  143.4697 LP  0  0  0  0  0  0  0  0  0  0  0  0  # atno 17321 bound_to 7965
  140.7330  143.2712  151.3882 LP  0  0  0  0  0  0  0  0  0  0  0  0  # atno 17342 bound_to 10162
  139.6120  144.1078  152.2308 LP  0  0  0  0  0  0  0  0  0  0  0  0  # atno 17343 bound_to 10162
  155.9832  130.4002  150.3373 LP  0  0  0  0  0  0  0  0  0  0  0  0  # atno 17370 bound_to 10713
  157.1504  131.0319  151.2887 LP  0  0  0  0  0  0  0  0  0  0  0  0  # atno 17371 bound_to 10713
  140.2153  134.8797  157.3319 LP  0  0  0  0  0  0  0  0  0  0  0  0  # atno 17394 bound_to 11000
  140.2044  134.4215  155.7645 LP  0  0  0  0  0  0  0  0  0  0  0  0  # atno 17395 bound_to 11000

$$$$
