AV-unprocessed.smi:1036|AV-procd|sdf|4518|dock6
  -GOLD-   22720 2533D 1   1.00000     0.00000
 Structure written by MMmdl.
 41 43  0  0  0  0  0  0  0  0  1 V2000
  145.6047  143.0371  155.3875 O   0  0  0  0  0  0  0  0  0  0  0  0
  146.2373  143.3297  154.1611 C   0  0  0  0  0  0  0  0  0  0  0  0
  147.1284  142.1525  153.7398 C   0  0  0  0  0  0  0  0  0  0  0  0
  148.2749  141.9884  154.6149 N   0  0  0  0  0  0  0  0  0  0  0  0
  149.1438  140.9223  154.8168 C   0  0  0  0  0  0  0  0  0  0  0  0
  149.0535  139.7624  154.1685 N   0  0  0  0  0  0  0  0  0  0  0  0
  150.1104  139.0464  154.6982 C   0  0  0  0  0  0  0  0  0  0  0  0
  150.5605  137.7352  154.4230 C   0  0  0  0  0  0  0  0  0  0  0  0
  151.6806  137.2085  155.0990 C   0  0  0  0  0  0  0  0  0  0  0  0
  152.3653  137.9826  156.0582 C   0  0  0  0  0  0  0  0  0  0  0  0
  151.9344  139.2915  156.3475 C   0  0  0  0  0  0  0  0  0  0  0  0
  150.8163  139.8131  155.6701 C   0  0  0  0  0  0  0  0  0  0  0  0
  150.1532  141.0358  155.7136 N   0  0  0  0  0  0  0  0  0  0  0  0
  150.5060  142.1746  156.5516 C   0  0  0  0  0  0  0  0  0  0  0  0
  150.1262  141.9483  158.0280 C   0  0  2  0  0  0  0  0  0  0  0  0
  149.1861  142.9377  158.3953 O   0  0  0  0  0  0  0  0  0  0  0  0
  151.3429  141.9338  158.9470 C   0  0  0  0  0  0  0  0  0  0  0  0
  151.7161  140.7476  159.6177 C   0  0  0  0  0  0  0  0  0  0  0  0
  152.8356  140.7341  160.4712 C   0  0  0  0  0  0  0  0  0  0  0  0
  153.1857  139.5930  161.1096 F   0  0  0  0  0  0  0  0  0  0  0  0
  153.5871  141.9081  160.6659 C   0  0  0  0  0  0  0  0  0  0  0  0
  153.2147  143.0967  160.0105 C   0  0  0  0  0  0  0  0  0  0  0  0
  152.0971  143.1119  159.1537 C   0  0  0  0  0  0  0  0  0  0  0  0
  151.7496  144.2669  158.5371 F   0  0  0  0  0  0  0  0  0  0  0  0
  145.4268  143.8513  155.8331 H   0  0  0  0  0  0  0  0  0  0  0  0
  145.4524  143.4766  153.4188 H   0  0  0  0  0  0  0  0  0  0  0  0
  146.7936  144.2655  154.2278 H   0  0  0  0  0  0  0  0  0  0  0  0
  146.5606  141.2231  153.6857 H   0  0  0  0  0  0  0  0  0  0  0  0
  147.5142  142.3386  152.7370 H   0  0  0  0  0  0  0  0  0  0  0  0
  148.4668  142.7993  155.1850 H   0  0  0  0  0  0  0  0  0  0  0  0
  150.0431  137.1336  153.6904 H   0  0  0  0  0  0  0  0  0  0  0  0
  152.0164  136.2054  154.8805 H   0  0  0  0  0  0  0  0  0  0  0  0
  153.2220  137.5709  156.5716 H   0  0  0  0  0  0  0  0  0  0  0  0
  152.4575  139.8877  157.0805 H   0  0  0  0  0  0  0  0  0  0  0  0
  151.5687  142.3975  156.4525 H   0  0  0  0  0  0  0  0  0  0  0  0
  149.9780  143.0459  156.1614 H   0  0  0  0  0  0  0  0  0  0  0  0
  149.6047  140.9950  158.1184 H   0  0  0  0  0  0  0  0  0  0  0  0
  148.3707  142.5110  158.6100 H   0  0  0  0  0  0  0  0  0  0  0  0
  151.1431  139.8421  159.4822 H   0  0  0  0  0  0  0  0  0  0  0  0
  154.4438  141.8988  161.3233 H   0  0  0  0  0  0  0  0  0  0  0  0
  153.7868  143.9994  160.1662 H   0  0  0  0  0  0  0  0  0  0  0  0
  1  2  1  0  0  0  0
  1 25  1  0  0  0  0
  2  3  1  0  0  0  0
  2 26  1  0  0  0  0
  2 27  1  0  0  0  0
  3  4  1  0  0  0  0
  3 28  1  0  0  0  0
  3 29  1  0  0  0  0
  4  5  1  0  0  0  0
  4 30  1  0  0  0  0
  5 13  1  0  0  0  0
  5  6  2  0  0  0  0
  6  7  1  0  0  0  0
  7 12  2  0  0  0  0
  7  8  1  0  0  0  0
  8  9  2  0  0  0  0
  8 31  1  0  0  0  0
  9 10  1  0  0  0  0
  9 32  1  0  0  0  0
 10 11  2  0  0  0  0
 10 33  1  0  0  0  0
 11 12  1  0  0  0  0
 11 34  1  0  0  0  0
 12 13  1  0  0  0  0
 13 14  1  0  0  0  0
 14 15  1  0  0  0  0
 14 35  1  0  0  0  0
 14 36  1  0  0  0  0
 15 16  1  0  0  0  0
 15 17  1  0  0  0  0
 15 37  1  0  0  0  0
 16 38  1  0  0  0  0
 17 23  1  0  0  0  0
 17 18  2  0  0  0  0
 18 19  1  0  0  0  0
 18 39  1  0  0  0  0
 19 20  1  0  0  0  0
 19 21  2  0  0  0  0
 21 22  1  0  0  0  0
 21 40  1  0  0  0  0
 22 23  2  0  0  0  0
 22 41  1  0  0  0  0
 23 24  1  0  0  0  0
M  END
> <s_m_source_file>
AV-unprocessed.smi

> <i_m_source_file_index>
1036

> <i_lp_mmshare_version>
43012

> <i_f3d_flags>
0

> <s_epik_input>
W09IXVtDSDJdW0NIMl1bTkhdYyhuMSluKGMoYzEyKVtjSF1bY0hdW2NIXVtjSF0yKVtDSDJdW0NASF0oW09IXSljM1tjSF1jKEYpW2NIXVtjSF1jM0Y=

> <s_epik_cmdline>
J2VwaWtfcHl0aG9uJywgJy1waCcsICc3LjAnLCAnLXRuJywgJzgnLCAnLW1hJywgJzIwMCcsICctbWV0YWxfYmluZGluZycsICctaW1hZScsICc8aW5maWxlLm1hZT4nLCAnLW9tYWUnLCAnPG91dGZpbGUubWFlPic=

> <r_epik_Ionization_Penalty>
1.30972

> <r_epik_Ionization_Penalty_Charging>
0

> <r_epik_Ionization_Penalty_Neutral>
1.30972

> <r_epik_State_Penalty>
1.38438

> <r_epik_Charging_Adjusted_Penalty>
1.38438

> <i_epik_Tot_Q>
0

> <i_epik_Tot_abs_Q>
0

> <r_epik_Metal_State_Penalty>
0.00551145

> <b_epik_Metal_Only>
0

> <s_lp_Force_Field>
OPLS_2005

> <r_lp_Energy>
9.11105

> <b_lp_Chiralities_Consistent>
1

> <s_lp_Variant>
AV-unprocessed.smi:1036-3

> <Gold.Version>
5.8.1

> <Gold.Id.Protein>
6NUR|6NUR_protein|mol2

> <Gold.PLP.Fitness>
56.0747

> <Gold.PLP.PLP>
-55.5489

> <Gold.PLP.part.hbond>
-1.0000

> <Gold.PLP.part.metal>
0.0000

> <Gold.PLP.part.buried>
-2.9542

> <Gold.PLP.part.nonpolar>
-52.0212

> <Gold.PLP.part.repulsive>
1.4034

> <Gold.PLP.ligand.clash>
0.0000

> <Gold.PLP.ligand.torsion>
1.1150

> <Gold.PLP.Chemscore.Hbond>
0.9120

> <Gold.PLP.Chemscore.CHOScore>
0.0000

> <Gold.PLP.Chemscore.Metal>
0.0000

> <Gold.Chemscore.Hbonds>
donor molecule, donor type, donor heavy atom, donor atom, acceptor molecule, acceptor atom, score
      L1  H     4    30       P1  8028  1.00

> <Gold.PLP.Chemscore.Internal.Correction>
0.0197

> <Gold.Rescore>
     Score         DG    S(hbond)    S(metal)    S(lipo)     H(rot)  DE(clash)    DE(int)     intcor
     11.68     -15.16       0.72        0.00     132.71       3.22       1.27       2.21       ----

> <Gold.Chemscore.Fitness>
11.6805

> <Gold.Chemscore.DG>
-15.1626

> <Gold.Chemscore.ZeroCoef>
-5.4800

> <Gold.Chemscore.Hbond>
0.7176

> <Gold.Chemscore.Metal>
0.0000

> <Gold.Chemscore.Lipo>
132.7128

> <Gold.Chemscore.Internal_Hbond>
0.0000

> <Gold.Chemscore.DEClash>
1.2683

> <Gold.Chemscore.DEInternal>
2.2138

> <Gold.Chemscore.Rot>
3.2194

> <Gold.Chemscore.Internal.Correction>
   9.000000E+99

> <Gold.Chemscore.Hbonds>
donor molecule, donor type, donor heavy atom, donor atom, acceptor molecule, acceptor atom, score
      L1  H     4    30       P1  8028  0.95

> <Gold.Chemscore.Hbond.Weighted>
-2.3969

> <Gold.Chemscore.Metal.Weighted>
-0.0000

> <Gold.Chemscore.Lipo.Weighted>
-15.5274

> <Gold.Chemscore.Internal_Hbond.Weighted>
0.0000

> <Gold.Chemscore.DEClash.Weighted>
1.2683

> <Gold.Chemscore.DEInternal.Weighted>
2.2138

> <Gold.Chemscore.Rot.Weighted>
8.2416

> <Gold.Chemscore.Internal.Correction.Weighted>
   9.000000E+99

> <Gold.Protein.RotatedTorsions>
[ 6907 6896 6895 6894 ] final   93.85 input  -60.11 | X-H torsion
[ 7974 7965 7964 7962 ] final  160.54 input  175.53 | X-H torsion
[ 8008 7997 7996 7995 ] final   17.43 input   59.86 | X-H torsion
[ 10167 10162 10161 10158 ] final  -98.12 input  -65.29 | X-H torsion
[ 10718 10713 10712 10709 ] final  -23.58 input   66.30 | X-H torsion
[ 10763 10752 10751 10750 ] final    8.75 input  -60.55 | X-H torsion
[ 11005 11000 10999 10996 ] final  -33.48 input  -57.11 | X-H torsion

> <Gold.Protein.ActiveResidues>
 VAL166  LYS551  ARG553  GLY616  TRP617  ASP618  TYR619  PRO620  LYS621  CYS622 
 ASP623  PHE694  ASN695  SER759  ASP760  ASP761  ALA762  ILE779  LEU786  VAL792 
 PHE793  MET794  SER795  GLU796  ALA797  LYS798  CYS799  TRP800  GLU811  SER814 

> <Gold.Protein.RotatedAtoms>
  152.5451  134.1283  159.8428 H   0  0  0  0  0  0  0  0  0  0  0  0  # atno 6907 bound_to 6896
  151.1332  133.5015  159.2606 H   0  0  0  0  0  0  0  0  0  0  0  0  # atno 6908 bound_to 6896
  151.1653  135.0302  159.8782 H   0  0  0  0  0  0  0  0  0  0  0  0  # atno 6909 bound_to 6896
  144.7731  139.7772  143.6289 H   0  0  0  0  0  0  0  0  0  0  0  0  # atno 7974 bound_to 7965
  154.8913  140.2987  155.5369 H   0  0  0  0  0  0  0  0  0  0  0  0  # atno 8008 bound_to 7997
  156.3021  140.2424  156.3863 H   0  0  0  0  0  0  0  0  0  0  0  0  # atno 8009 bound_to 7997
  154.8616  140.0405  157.1657 H   0  0  0  0  0  0  0  0  0  0  0  0  # atno 8010 bound_to 7997
  140.2763  143.3311  152.0485 H   0  0  0  0  0  0  0  0  0  0  0  0  # atno 10167 bound_to 10162
  156.4892  130.4562  149.6765 H   0  0  0  0  0  0  0  0  0  0  0  0  # atno 10718 bound_to 10713
  153.2215  135.6882  153.7994 H   0  0  0  0  0  0  0  0  0  0  0  0  # atno 10763 bound_to 10752
  153.7191  135.3270  155.3264 H   0  0  0  0  0  0  0  0  0  0  0  0  # atno 10764 bound_to 10752
  154.8272  135.4609  154.1065 H   0  0  0  0  0  0  0  0  0  0  0  0  # atno 10765 bound_to 10752
  140.9638  133.7149  156.1412 H   0  0  0  0  0  0  0  0  0  0  0  0  # atno 11005 bound_to 11000
  146.1893  139.5124  142.9816 LP  0  0  0  0  0  0  0  0  0  0  0  0  # atno 17320 bound_to 7965
  145.6264  141.0313  143.1887 LP  0  0  0  0  0  0  0  0  0  0  0  0  # atno 17321 bound_to 7965
  139.4975  144.6622  151.6438 LP  0  0  0  0  0  0  0  0  0  0  0  0  # atno 17342 bound_to 10162
  140.5849  143.9882  150.6289 LP  0  0  0  0  0  0  0  0  0  0  0  0  # atno 17343 bound_to 10162
  156.3444  130.7399  151.2349 LP  0  0  0  0  0  0  0  0  0  0  0  0  # atno 17370 bound_to 10713
  157.7475  131.0395  150.4551 LP  0  0  0  0  0  0  0  0  0  0  0  0  # atno 17371 bound_to 10713
  140.7429  134.4130  157.5552 LP  0  0  0  0  0  0  0  0  0  0  0  0  # atno 17394 bound_to 11000
  139.8887  134.8849  156.2459 LP  0  0  0  0  0  0  0  0  0  0  0  0  # atno 17395 bound_to 11000

$$$$
