AV-unprocessed.smi:1543|AV-procd|sdf|6206|dock3
  -GOLD-   22720 6373D 1   1.00000     0.00000
 Structure written by MMmdl.
 48 49  0  0  0  0  0  0  0  0  1 V2000
  151.6074  145.1165  158.9626 C   0  0  0  0  0  0  0  0  0  0  0  0
  151.6109  143.6253  159.3148 C   0  0  1  0  0  0  0  0  0  0  0  0
  151.2075  142.7438  158.1184 C   0  0  0  0  0  0  0  0  0  0  0  0
  151.2740  141.3140  158.4392 N   0  0  0  0  0  0  0  0  0  0  0  0
  150.7733  140.4072  157.3674 C   0  0  0  0  0  0  0  0  0  0  0  0
  149.2790  140.6330  157.0327 C   0  0  0  0  0  0  0  0  0  0  0  0
  151.5697  140.6071  156.0526 C   0  0  0  0  0  0  0  0  0  0  0  0
  150.9326  138.9078  157.7582 C   0  0  0  0  0  0  0  0  0  0  0  0
  150.6294  137.9959  156.6551 N   0  0  0  0  0  0  0  0  0  0  0  0
  150.9068  136.6851  156.6202 C   0  0  0  0  0  0  0  0  0  0  0  0
  151.4671  136.0826  157.5354 O   0  0  0  0  0  0  0  0  0  0  0  0
  150.4726  136.1322  155.4747 N   0  0  0  0  0  0  0  0  0  0  0  0
  150.5810  134.7836  155.0392 C   0  0  0  0  0  0  0  0  0  0  0  0
  151.5901  133.8835  155.4610 C   0  0  0  0  0  0  0  0  0  0  0  0
  151.5962  132.5761  154.9377 C   0  0  0  0  0  0  0  0  0  0  0  0
  150.5997  132.2179  154.0091 C   0  0  0  0  0  0  0  0  0  0  0  0
  149.6396  133.0682  153.5894 N   0  0  0  0  0  0  0  0  0  0  0  0
  149.6402  134.3201  154.0949 C   0  0  0  0  0  0  0  0  0  0  0  0
  152.6239  141.0082  158.9257 C   0  0  0  0  0  0  0  0  0  0  0  0
  153.0312  141.8989  160.1148 C   0  0  1  0  0  0  0  0  0  0  0  0
  154.4723  141.6381  160.5659 C   0  0  0  0  0  0  0  0  0  0  0  0
  152.9225  143.2668  159.7356 O   0  0  0  0  0  0  0  0  0  0  0  0
  150.6161  145.4421  158.6465 H   0  0  0  0  0  0  0  0  0  0  0  0
  152.3050  145.3325  158.1530 H   0  0  0  0  0  0  0  0  0  0  0  0
  151.8971  145.7205  159.8227 H   0  0  0  0  0  0  0  0  0  0  0  0
  150.9162  143.4603  160.1402 H   0  0  0  0  0  0  0  0  0  0  0  0
  150.1994  143.0284  157.8230 H   0  0  0  0  0  0  0  0  0  0  0  0
  151.8601  142.9703  157.2750 H   0  0  0  0  0  0  0  0  0  0  0  0
  148.9498  139.9574  156.2423 H   0  0  0  0  0  0  0  0  0  0  0  0
  149.0828  141.6451  156.6796 H   0  0  0  0  0  0  0  0  0  0  0  0
  148.6323  140.4499  157.8905 H   0  0  0  0  0  0  0  0  0  0  0  0
  151.3376  139.8312  155.3223 H   0  0  0  0  0  0  0  0  0  0  0  0
  152.6462  140.5791  156.2247 H   0  0  0  0  0  0  0  0  0  0  0  0
  151.3392  141.5563  155.5692 H   0  0  0  0  0  0  0  0  0  0  0  0
  151.9490  138.6977  158.0903 H   0  0  0  0  0  0  0  0  0  0  0  0
  150.3139  138.6768  158.6273 H   0  0  0  0  0  0  0  0  0  0  0  0
  150.1532  138.3980  155.8611 H   0  0  0  0  0  0  0  0  0  0  0  0
  149.9596  136.7438  154.8566 H   0  0  0  0  0  0  0  0  0  0  0  0
  152.3623  134.1679  156.1584 H   0  0  0  0  0  0  0  0  0  0  0  0
  152.3507  131.8645  155.2386 H   0  0  0  0  0  0  0  0  0  0  0  0
  150.5769  131.2237  153.5880 H   0  0  0  0  0  0  0  0  0  0  0  0
  148.8586  134.9732  153.7345 H   0  0  0  0  0  0  0  0  0  0  0  0
  152.6923  139.9715  159.2508 H   0  0  0  0  0  0  0  0  0  0  0  0
  153.3501  141.1370  158.1229 H   0  0  0  0  0  0  0  0  0  0  0  0
  152.3622  141.7114  160.9565 H   0  0  0  0  0  0  0  0  0  0  0  0
  154.6043  140.6024  160.8799 H   0  0  0  0  0  0  0  0  0  0  0  0
  154.7383  142.2771  161.4082 H   0  0  0  0  0  0  0  0  0  0  0  0
  155.1802  141.8366  159.7605 H   0  0  0  0  0  0  0  0  0  0  0  0
  1  2  1  0  0  0  0
  1 23  1  0  0  0  0
  1 24  1  0  0  0  0
  1 25  1  0  0  0  0
  2 22  1  0  0  0  0
  2  3  1  0  0  0  0
  2 26  1  0  0  0  0
  3  4  1  0  0  0  0
  3 27  1  0  0  0  0
  3 28  1  0  0  0  0
  4  5  1  0  0  0  0
  4 19  1  0  0  0  0
  5  6  1  0  0  0  0
  5  7  1  0  0  0  0
  5  8  1  0  0  0  0
  6 29  1  0  0  0  0
  6 30  1  0  0  0  0
  6 31  1  0  0  0  0
  7 32  1  0  0  0  0
  7 33  1  0  0  0  0
  7 34  1  0  0  0  0
  8  9  1  0  0  0  0
  8 35  1  0  0  0  0
  8 36  1  0  0  0  0
  9 10  1  0  0  0  0
  9 37  1  0  0  0  0
 10 11  2  0  0  0  0
 10 12  1  0  0  0  0
 12 13  1  0  0  0  0
 12 38  1  0  0  0  0
 13 18  1  0  0  0  0
 13 14  2  0  0  0  0
 14 15  1  0  0  0  0
 14 39  1  0  0  0  0
 15 16  2  0  0  0  0
 15 40  1  0  0  0  0
 16 17  1  0  0  0  0
 16 41  1  0  0  0  0
 17 18  2  0  0  0  0
 18 42  1  0  0  0  0
 19 20  1  0  0  0  0
 19 43  1  0  0  0  0
 19 44  1  0  0  0  0
 20 21  1  0  0  0  0
 20 22  1  0  0  0  0
 20 45  1  0  0  0  0
 21 46  1  0  0  0  0
 21 47  1  0  0  0  0
 21 48  1  0  0  0  0
M  END
> <s_m_source_file>
AV-unprocessed.smi

> <i_m_source_file_index>
1543

> <i_lp_mmshare_version>
43012

> <i_f3d_flags>
0

> <s_epik_input>
W0NIM11bQ0BASF0xW0NIMl1OKFtDSDJdW0NASF0oTzEpW0NIM10pQyhbQ0gzXSkoW0NIM10pW0NIMl1bTkhdQyg9TylbTkhdYzJbY0hdW2NIXVtjSF1uW2NIXTI=

> <s_epik_cmdline>
J2VwaWtfcHl0aG9uJywgJy1waCcsICc3LjAnLCAnLXRuJywgJzgnLCAnLW1hJywgJzIwMCcsICctbWV0YWxfYmluZGluZycsICctaW1hZScsICc8aW5maWxlLm1hZT4nLCAnLW9tYWUnLCAnPG91dGZpbGUubWFlPic=

> <r_epik_Ionization_Penalty>
0.270794

> <r_epik_Ionization_Penalty_Charging>
0

> <r_epik_Ionization_Penalty_Neutral>
0.270794

> <r_epik_State_Penalty>
0.268291

> <r_epik_Charging_Adjusted_Penalty>
0.268291

> <i_epik_Tot_Q>
0

> <i_epik_Tot_abs_Q>
0

> <r_epik_Metal_State_Penalty>
0.264827

> <b_epik_Metal_Only>
0

> <s_lp_Force_Field>
OPLS_2005

> <r_lp_Energy>
43.3582

> <b_lp_Chiralities_Consistent>
1

> <s_lp_Variant>
AV-unprocessed.smi:1543-2

> <Gold.Version>
5.8.1

> <Gold.Id.Protein>
6NUR|6NUR_protein|mol2

> <Gold.PLP.Fitness>
43.7624

> <Gold.PLP.PLP>
-39.4365

> <Gold.PLP.part.hbond>
-1.0000

> <Gold.PLP.part.metal>
0.0000

> <Gold.PLP.part.buried>
-6.4585

> <Gold.PLP.part.nonpolar>
-32.4515

> <Gold.PLP.part.repulsive>
0.1797

> <Gold.PLP.ligand.clash>
0.0000

> <Gold.PLP.ligand.torsion>
0.3101

> <Gold.PLP.Chemscore.Hbond>
0.6240

> <Gold.PLP.Chemscore.CHOScore>
1.0000

> <Gold.PLP.Chemscore.Metal>
0.0000

> <Gold.Chemscore.Hbonds>
donor molecule, donor type, donor heavy atom, donor atom, acceptor molecule, acceptor atom, score
      L1  C    18    42       P1  7948  0.89

> <Gold.PLP.Chemscore.Internal.Correction>
0.0742

> <Gold.Rescore>
     Score         DG    S(hbond)    S(metal)    S(lipo)     H(rot)  DE(clash)    DE(int)     intcor
     15.88     -17.20       0.89        0.00     105.95       1.43       0.13       1.19       ----

> <Gold.Chemscore.Fitness>
15.8824

> <Gold.Chemscore.DG>
-17.1983

> <Gold.Chemscore.ZeroCoef>
-5.4800

> <Gold.Chemscore.Hbond>
0.8924

> <Gold.Chemscore.Metal>
0.0000

> <Gold.Chemscore.Lipo>
105.9504

> <Gold.Chemscore.Internal_Hbond>
0.0000

> <Gold.Chemscore.DEClash>
0.1297

> <Gold.Chemscore.DEInternal>
1.1862

> <Gold.Chemscore.Rot>
1.4291

> <Gold.Chemscore.Internal.Correction>
   9.000000E+99

> <Gold.Chemscore.Hbond.Weighted>
-2.9806

> <Gold.Chemscore.Metal.Weighted>
-0.0000

> <Gold.Chemscore.Lipo.Weighted>
-12.3962

> <Gold.Chemscore.Internal_Hbond.Weighted>
0.0000

> <Gold.Chemscore.DEClash.Weighted>
0.1297

> <Gold.Chemscore.DEInternal.Weighted>
1.1862

> <Gold.Chemscore.Rot.Weighted>
3.6586

> <Gold.Chemscore.Internal.Correction.Weighted>
   9.000000E+99

> <Gold.Protein.RotatedTorsions>
[ 6907 6896 6895 6894 ] final  -52.24 input  -60.11 | X-H torsion
[ 7974 7965 7964 7962 ] final  126.37 input  175.53 | X-H torsion
[ 8008 7997 7996 7995 ] final -175.03 input   59.86 | X-H torsion
[ 10167 10162 10161 10158 ] final  173.58 input  -65.29 | X-H torsion
[ 10718 10713 10712 10709 ] final -107.38 input   66.30 | X-H torsion
[ 10763 10752 10751 10750 ] final -105.84 input  -60.55 | X-H torsion
[ 11005 11000 10999 10996 ] final   97.38 input  -57.11 | X-H torsion

> <Gold.Protein.ActiveResidues>
 VAL166  LYS551  ARG553  GLY616  TRP617  ASP618  TYR619  PRO620  LYS621  CYS622 
 ASP623  PHE694  ASN695  SER759  ASP760  ASP761  ALA762  ILE779  LEU786  VAL792 
 PHE793  MET794  SER795  GLU796  ALA797  LYS798  CYS799  TRP800  GLU811  SER814 

> <Gold.Protein.RotatedAtoms>
  150.8537  134.7869  159.7028 H   0  0  0  0  0  0  0  0  0  0  0  0  # atno 6907 bound_to 6896
  152.4594  134.5214  159.9793 H   0  0  0  0  0  0  0  0  0  0  0  0  # atno 6908 bound_to 6896
  151.5331  133.3407  159.2957 H   0  0  0  0  0  0  0  0  0  0  0  0  # atno 6909 bound_to 6896
  145.0624  139.3794  143.4999 H   0  0  0  0  0  0  0  0  0  0  0  0  # atno 7974 bound_to 7965
  155.9775  140.1175  157.0757 H   0  0  0  0  0  0  0  0  0  0  0  0  # atno 8008 bound_to 7997
  154.4173  140.1151  156.5458 H   0  0  0  0  0  0  0  0  0  0  0  0  # atno 8009 bound_to 7997
  155.6515  140.3473  155.4752 H   0  0  0  0  0  0  0  0  0  0  0  0  # atno 8010 bound_to 7997
  139.5113  144.3244  152.0172 H   0  0  0  0  0  0  0  0  0  0  0  0  # atno 10167 bound_to 10162
  156.0434  130.5660  150.7814 H   0  0  0  0  0  0  0  0  0  0  0  0  # atno 10718 bound_to 10713
  154.7973  135.4734  154.0191 H   0  0  0  0  0  0  0  0  0  0  0  0  # atno 10763 bound_to 10752
  153.1724  135.6827  153.8597 H   0  0  0  0  0  0  0  0  0  0  0  0  # atno 10764 bound_to 10752
  153.8175  135.3209  155.3384 H   0  0  0  0  0  0  0  0  0  0  0  0  # atno 10765 bound_to 10752
  139.8776  134.8998  156.4298 H   0  0  0  0  0  0  0  0  0  0  0  0  # atno 11005 bound_to 11000
  146.3525  140.0329  142.8649 LP  0  0  0  0  0  0  0  0  0  0  0  0  # atno 17320 bound_to 7965
  145.1392  140.9562  143.4498 LP  0  0  0  0  0  0  0  0  0  0  0  0  # atno 17321 bound_to 7965
  140.2685  144.3990  150.6160 LP  0  0  0  0  0  0  0  0  0  0  0  0  # atno 17342 bound_to 10162
  140.6105  143.2169  151.6894 LP  0  0  0  0  0  0  0  0  0  0  0  0  # atno 17343 bound_to 10162
  157.5280  131.0935  150.9992 LP  0  0  0  0  0  0  0  0  0  0  0  0  # atno 17370 bound_to 10713
  157.0306  130.5710  149.5342 LP  0  0  0  0  0  0  0  0  0  0  0  0  # atno 17371 bound_to 10713
  140.9075  133.7736  155.9752 LP  0  0  0  0  0  0  0  0  0  0  0  0  # atno 17394 bound_to 11000
  140.8583  134.2871  157.5245 LP  0  0  0  0  0  0  0  0  0  0  0  0  # atno 17395 bound_to 11000

$$$$
