AV-unprocessed.smi:1199|AV-procd|sdf|5014|dock7
  -GOLD-   22720 4 33D 1   1.00000     0.00000
 Structure written by MMmdl.
 40 41  0  0  0  0  0  0  0  0  2 V2000
  149.2199  135.7654  155.4990 C   0  0  0  0  0  0  0  0  0  0  0  0
  148.1985  136.8969  155.2977 C   0  0  2  0  0  0  0  0  0  0  0  0
  148.8579  138.1434  154.6677 C   0  0  0  0  0  0  0  0  0  0  0  0
  150.1817  138.4928  155.1876 N   0  0  0  0  0  0  0  0  0  0  0  0
  151.2663  138.0879  154.2952 C   0  0  0  0  0  0  0  0  0  0  0  0
  152.6466  138.5038  154.8311 C   0  0  0  0  0  0  0  0  0  0  0  0
  152.6708  139.9082  155.0625 O   0  0  0  0  0  0  0  0  0  0  0  0
  151.6616  140.3293  155.9737 C   0  0  0  0  0  0  0  0  0  0  0  0
  150.2803  139.9286  155.4287 C   0  0  0  0  0  0  0  0  0  0  0  0
  147.6156  137.2559  156.5863 N   0  0  0  0  0  0  0  0  0  0  0  0
  146.8987  136.4502  157.3869 C   0  0  0  0  0  0  0  0  0  0  0  0
  146.7013  135.2610  157.1380 O   0  0  0  0  0  0  0  0  0  0  0  0
  146.2849  137.0705  158.6542 C   0  0  0  0  0  0  0  0  0  0  0  0
  146.6117  136.3541  159.8985 N   0  0  0  0  0  0  0  0  0  0  0  0
  147.3747  137.1480  160.8575 N   0  5  0  0  0  0  0  0  0  0  0  0
  147.6744  136.6126  162.0706 C   0  0  0  0  0  0  0  0  0  0  0  0
  148.2922  137.2280  162.9362 O   0  0  0  0  0  0  0  0  0  0  0  0
  147.2419  135.2521  162.3438 C   0  0  0  0  0  0  0  0  0  0  0  0
  146.5561  134.5352  161.4319 C   0  0  0  0  0  0  0  0  0  0  0  0
  146.1984  135.0745  160.1259 C   0  0  0  0  0  0  0  0  0  0  0  0
  145.5564  134.4312  159.2959 O   0  0  0  0  0  0  0  0  0  0  0  0
  149.6631  135.4634  154.5499 H   0  0  0  0  0  0  0  0  0  0  0  0
  148.7522  134.8818  155.9343 H   0  0  0  0  0  0  0  0  0  0  0  0
  150.0290  136.0747  156.1616 H   0  0  0  0  0  0  0  0  0  0  0  0
  147.4179  136.5329  154.6269 H   0  0  0  0  0  0  0  0  0  0  0  0
  148.8919  138.0437  153.5813 H   0  0  0  0  0  0  0  0  0  0  0  0
  148.1981  138.9910  154.8573 H   0  0  0  0  0  0  0  0  0  0  0  0
  151.2639  137.0063  154.1669 H   0  0  0  0  0  0  0  0  0  0  0  0
  151.1153  138.5238  153.3065 H   0  0  0  0  0  0  0  0  0  0  0  0
  152.8770  137.9723  155.7555 H   0  0  0  0  0  0  0  0  0  0  0  0
  153.4239  138.2462  154.1113 H   0  0  0  0  0  0  0  0  0  0  0  0
  151.8351  139.8832  156.9539 H   0  0  0  0  0  0  0  0  0  0  0  0
  151.7218  141.4105  156.0978 H   0  0  0  0  0  0  0  0  0  0  0  0
  150.0886  140.4734  154.5028 H   0  0  0  0  0  0  0  0  0  0  0  0
  149.5114  140.2389  156.1371 H   0  0  0  0  0  0  0  0  0  0  0  0
  147.7320  138.2138  156.8864 H   0  0  0  0  0  0  0  0  0  0  0  0
  146.6029  138.1119  158.7282 H   0  0  0  0  0  0  0  0  0  0  0  0
  145.2028  137.1083  158.5178 H   0  0  0  0  0  0  0  0  0  0  0  0
  147.4781  134.8052  163.2981 H   0  0  0  0  0  0  0  0  0  0  0  0
  146.2558  133.5276  161.6775 H   0  0  0  0  0  0  0  0  0  0  0  0
  1  2  1  0  0  0  0
  1 22  1  0  0  0  0
  1 23  1  0  0  0  0
  1 24  1  0  0  0  0
  2  3  1  0  0  0  0
  2 10  1  0  0  0  0
  2 25  1  0  0  0  0
  3  4  1  0  0  0  0
  3 26  1  0  0  0  0
  3 27  1  0  0  0  0
  4  9  1  0  0  0  0
  4  5  1  0  0  0  0
  5  6  1  0  0  0  0
  5 28  1  0  0  0  0
  5 29  1  0  0  0  0
  6  7  1  0  0  0  0
  6 30  1  0  0  0  0
  6 31  1  0  0  0  0
  7  8  1  0  0  0  0
  8  9  1  0  0  0  0
  8 32  1  0  0  0  0
  8 33  1  0  0  0  0
  9 34  1  0  0  0  0
  9 35  1  0  0  0  0
 10 11  1  0  0  0  0
 10 36  1  0  0  0  0
 11 12  2  0  0  0  0
 11 13  1  0  0  0  0
 13 37  1  0  0  0  0
 13 38  1  0  0  0  0
 13 14  1  0  0  0  0
 14 15  1  0  0  0  0
 14 20  1  0  0  0  0
 15 16  1  0  0  0  0
 16 17  2  0  0  0  0
 16 18  1  0  0  0  0
 18 39  1  0  0  0  0
 18 19  2  0  0  0  0
 19 40  1  0  0  0  0
 19 20  1  0  0  0  0
 20 21  2  0  0  0  0
M  CHG  1  15  -1
M  END
> <s_m_source_file>
AV-unprocessed.smi

> <i_m_source_file_index>
1199

> <i_lp_mmshare_version>
43012

> <i_f3d_flags>
0

> <s_epik_input>
W0NIMl0xW0NIMl1PW0NIMl1bQ0gyXU4xW0NIMl1bQ0BASF0oW0NIM10pW05IXUMoPU8pW0NIMl1uMltuSF1jKD1PKVtjSF1bY0hdYzI9Tw==

> <s_epik_cmdline>
J2VwaWtfcHl0aG9uJywgJy1waCcsICc3LjAnLCAnLXRuJywgJzgnLCAnLW1hJywgJzIwMCcsICctbWV0YWxfYmluZGluZycsICctaW1hZScsICc8aW5maWxlLm1hZT4nLCAnLW9tYWUnLCAnPG91dGZpbGUubWFlPic=

> <r_lp_tautomer_probability>
1

> <r_epik_Ionization_Penalty>
0.334996

> <r_epik_Ionization_Penalty_Charging>
0.0976136

> <r_epik_Ionization_Penalty_Neutral>
0.237382

> <r_epik_State_Penalty>
0.26804

> <r_epik_Charging_Adjusted_Penalty>
0.365653

> <i_epik_Tot_Q>
-1

> <i_epik_Tot_abs_Q>
1

> <r_epik_Metal_State_Penalty>
0.26804

> <b_epik_Metal_Only>
0

> <s_lp_Force_Field>
OPLS_2005

> <r_lp_Energy>
38.5668

> <b_lp_Chiralities_Consistent>
1

> <s_lp_Variant>
AV-unprocessed.smi:1199-1

> <Gold.Version>
5.8.1

> <Gold.Id.Protein>
6NUR|6NUR_protein|mol2

> <Gold.PLP.Fitness>
39.5791

> <Gold.PLP.PLP>
-29.2229

> <Gold.PLP.part.hbond>
-4.3978

> <Gold.PLP.part.metal>
0.0000

> <Gold.PLP.part.buried>
-2.6310

> <Gold.PLP.part.nonpolar>
-21.6561

> <Gold.PLP.part.repulsive>
0.1324

> <Gold.PLP.ligand.clash>
0.0000

> <Gold.PLP.ligand.torsion>
0.8475

> <Gold.PLP.Chemscore.Hbond>
4.0140

> <Gold.PLP.Chemscore.CHOScore>
0.0000

> <Gold.PLP.Chemscore.Metal>
0.0000

> <Gold.Chemscore.Hbonds>
donor molecule, donor type, donor heavy atom, donor atom, acceptor molecule, acceptor atom, score
      P1  H  6931  6943       L1    17  0.63
      P1  H  6934  6947       L1    15  2.00
      P1  H  7989  7998       L1     7  0.25
      P1  H  7997  8009       L1     7  1.00

> <Gold.PLP.Chemscore.Internal.Correction>
0.0093

> <Gold.Rescore>
     Score         DG    S(hbond)    S(metal)    S(lipo)     H(rot)  DE(clash)    DE(int)     intcor
      9.50     -12.82       2.19        0.00      50.42       2.30       0.11       3.21       ----

> <Gold.Chemscore.Fitness>
9.5012

> <Gold.Chemscore.DG>
-12.8196

> <Gold.Chemscore.ZeroCoef>
-5.4800

> <Gold.Chemscore.Hbond>
2.1909

> <Gold.Chemscore.Metal>
0.0000

> <Gold.Chemscore.Lipo>
50.4154

> <Gold.Chemscore.Internal_Hbond>
0.0000

> <Gold.Chemscore.DEClash>
0.1103

> <Gold.Chemscore.DEInternal>
3.2082

> <Gold.Chemscore.Rot>
2.2955

> <Gold.Chemscore.Internal.Correction>
   9.000000E+99

> <Gold.Chemscore.Hbonds>
donor molecule, donor type, donor heavy atom, donor atom, acceptor molecule, acceptor atom, score
      P1  H  6931  6943       L1    17  0.12
      P1  H  6934  6947       L1    15  0.79
      P1  H  7989  7998       L1     7  0.01
      P1  H  7997  8009       L1     7  0.21

> <Gold.Chemscore.Hbond.Weighted>
-7.3176

> <Gold.Chemscore.Metal.Weighted>
-0.0000

> <Gold.Chemscore.Lipo.Weighted>
-5.8986

> <Gold.Chemscore.Internal_Hbond.Weighted>
0.0000

> <Gold.Chemscore.DEClash.Weighted>
0.1103

> <Gold.Chemscore.DEInternal.Weighted>
3.2082

> <Gold.Chemscore.Rot.Weighted>
5.8766

> <Gold.Chemscore.Internal.Correction.Weighted>
   9.000000E+99

> <Gold.Protein.RotatedTorsions>
[ 6907 6896 6895 6894 ] final    9.19 input  -60.11 | X-H torsion
[ 7974 7965 7964 7962 ] final   66.55 input  175.53 | X-H torsion
[ 8008 7997 7996 7995 ] final -142.58 input   59.86 | X-H torsion
[ 10167 10162 10161 10158 ] final   95.43 input  -65.29 | X-H torsion
[ 10718 10713 10712 10709 ] final  -15.98 input   66.30 | X-H torsion
[ 10763 10752 10751 10750 ] final -178.67 input  -60.55 | X-H torsion
[ 11005 11000 10999 10996 ] final   -2.94 input  -57.11 | X-H torsion

> <Gold.Protein.ActiveResidues>
 VAL166  LYS551  ARG553  GLY616  TRP617  ASP618  TYR619  PRO620  LYS621  CYS622 
 ASP623  PHE694  ASN695  SER759  ASP760  ASP761  ALA762  ILE779  LEU786  VAL792 
 PHE793  MET794  SER795  GLU796  ALA797  LYS798  CYS799  TRP800  GLU811  SER814 

> <Gold.Protein.RotatedAtoms>
  151.7182  135.0899  160.0279 H   0  0  0  0  0  0  0  0  0  0  0  0  # atno 6907 bound_to 6896
  152.3618  133.6303  159.6029 H   0  0  0  0  0  0  0  0  0  0  0  0  # atno 6908 bound_to 6896
  150.7610  133.9327  159.3473 H   0  0  0  0  0  0  0  0  0  0  0  0  # atno 6909 bound_to 6896
  145.8253  139.3108  143.1019 H   0  0  0  0  0  0  0  0  0  0  0  0  # atno 7974 bound_to 7965
  155.4965  140.0572  157.2945 H   0  0  0  0  0  0  0  0  0  0  0  0  # atno 8008 bound_to 7997
  154.4603  140.1993  156.0214 H   0  0  0  0  0  0  0  0  0  0  0  0  # atno 8009 bound_to 7997
  156.0877  140.3238  155.7780 H   0  0  0  0  0  0  0  0  0  0  0  0  # atno 8010 bound_to 7997
  139.7989  144.6822  150.9792 H   0  0  0  0  0  0  0  0  0  0  0  0  # atno 10167 bound_to 10162
  156.5941  130.4806  149.6267 H   0  0  0  0  0  0  0  0  0  0  0  0  # atno 10718 bound_to 10713
  154.5448  135.2808  155.1063 H   0  0  0  0  0  0  0  0  0  0  0  0  # atno 10763 bound_to 10752
  154.2531  135.6335  153.5251 H   0  0  0  0  0  0  0  0  0  0  0  0  # atno 10764 bound_to 10752
  152.9988  135.5587  154.5997 H   0  0  0  0  0  0  0  0  0  0  0  0  # atno 10765 bound_to 10752
  140.6639  133.9296  155.8453 H   0  0  0  0  0  0  0  0  0  0  0  0  # atno 11005 bound_to 11000
  145.9630  140.8820  143.0201 LP  0  0  0  0  0  0  0  0  0  0  0  0  # atno 17320 bound_to 7965
  144.6744  140.1839  143.7403 LP  0  0  0  0  0  0  0  0  0  0  0  0  # atno 17321 bound_to 7965
  140.7820  143.4302  151.0706 LP  0  0  0  0  0  0  0  0  0  0  0  0  # atno 17342 bound_to 10162
  139.7975  143.8130  152.3159 LP  0  0  0  0  0  0  0  0  0  0  0  0  # atno 17343 bound_to 10162
  156.2525  130.6915  151.1657 LP  0  0  0  0  0  0  0  0  0  0  0  0  # atno 17370 bound_to 10713
  157.7296  131.0623  150.5765 LP  0  0  0  0  0  0  0  0  0  0  0  0  # atno 17371 bound_to 10713
  141.0444  134.0575  157.3862 LP  0  0  0  0  0  0  0  0  0  0  0  0  # atno 17394 bound_to 11000
  139.9004  135.0162  156.7239 LP  0  0  0  0  0  0  0  0  0  0  0  0  # atno 17395 bound_to 11000

$$$$
