AV-unprocessed.smi:1588|AV-procd|sdf|6391|dock7
  -GOLD-   22720 7 23D 1   1.00000     0.00000
 Structure written by MMmdl.
 37 38  0  0  0  0  0  0  0  0  2 V2000
  145.6155  132.5276  149.5142 C   0  0  0  0  0  0  0  0  0  0  0  0
  144.1630  132.9643  149.2795 C   0  0  0  0  0  0  0  0  0  0  0  0
  143.6694  133.8661  150.3474 N   0  3  1  0  0  0  0  0  0  0  0  0
  143.5087  133.2315  151.6756 C   0  0  0  0  0  0  0  0  0  0  0  0
  143.7512  134.3442  152.6915 C   0  0  0  0  0  0  0  0  0  0  0  0
  144.8463  135.1693  152.0195 C   0  0  2  0  0  0  0  0  0  0  0  0
  144.9970  136.6069  152.5537 C   0  0  0  0  0  0  0  0  0  0  0  0
  146.3948  136.9983  152.7027 N   0  0  0  0  0  0  0  0  0  0  0  0
  146.8372  137.9767  153.5057 C   0  0  0  0  0  0  0  0  0  0  0  0
  146.0962  138.6685  154.2043 O   0  0  0  0  0  0  0  0  0  0  0  0
  148.1734  138.0962  153.4416 N   0  0  0  0  0  0  0  0  0  0  0  0
  148.9900  139.0143  154.1493 C   0  0  0  0  0  0  0  0  0  0  0  0
  150.4100  138.9670  154.1943 C   0  0  0  0  0  0  0  0  0  0  0  0
  150.9038  139.9515  154.9317 N   0  0  0  0  0  0  0  0  0  0  0  0
  149.8124  140.6268  155.3578 N   0  0  0  0  0  0  0  0  0  0  0  0
  148.6258  140.0924  154.9065 C   0  0  0  0  0  0  0  0  0  0  0  0
  144.4806  135.0942  150.5305 C   0  0  0  0  0  0  0  0  0  0  0  0
  149.8927  141.4412  155.9502 H   0  0  0  0  0  0  0  0  0  0  0  0
  145.9348  131.8236  148.7452 H   0  0  0  0  0  0  0  0  0  0  0  0
  145.7278  132.0350  150.4807 H   0  0  0  0  0  0  0  0  0  0  0  0
  146.3006  133.3751  149.4860 H   0  0  0  0  0  0  0  0  0  0  0  0
  144.0629  133.4477  148.3063 H   0  0  0  0  0  0  0  0  0  0  0  0
  143.5326  132.0743  149.2546 H   0  0  0  0  0  0  0  0  0  0  0  0
  142.5255  132.7733  151.7861 H   0  0  0  0  0  0  0  0  0  0  0  0
  144.2599  132.4512  151.8096 H   0  0  0  0  0  0  0  0  0  0  0  0
  142.8463  134.9407  152.8163 H   0  0  0  0  0  0  0  0  0  0  0  0
  144.0448  133.9636  153.6703 H   0  0  0  0  0  0  0  0  0  0  0  0
  145.7908  134.6385  152.1520 H   0  0  0  0  0  0  0  0  0  0  0  0
  144.4864  137.3107  151.8941 H   0  0  0  0  0  0  0  0  0  0  0  0
  144.5173  136.6967  153.5288 H   0  0  0  0  0  0  0  0  0  0  0  0
  147.0745  136.4791  152.1660 H   0  0  0  0  0  0  0  0  0  0  0  0
  148.6598  137.4603  152.8267 H   0  0  0  0  0  0  0  0  0  0  0  0
  151.0850  138.2655  153.7263 H   0  0  0  0  0  0  0  0  0  0  0  0
  147.6663  140.5184  155.1601 H   0  0  0  0  0  0  0  0  0  0  0  0
  145.3761  135.1055  149.9071 H   0  0  0  0  0  0  0  0  0  0  0  0
  143.8669  135.9460  150.2352 H   0  0  0  0  0  0  0  0  0  0  0  0
  142.7530  134.1837  150.0654 H   0  0  0  0  0  0  0  0  0  0  0  0
  1  2  1  0  0  0  0
  1 19  1  0  0  0  0
  1 20  1  0  0  0  0
  1 21  1  0  0  0  0
  2  3  1  0  0  0  0
  2 22  1  0  0  0  0
  2 23  1  0  0  0  0
  3 17  1  0  0  0  0
  3  4  1  0  0  0  0
  3 37  1  0  0  0  0
  4  5  1  0  0  0  0
  4 24  1  0  0  0  0
  4 25  1  0  0  0  0
  5  6  1  0  0  0  0
  5 26  1  0  0  0  0
  5 27  1  0  0  0  0
  6  7  1  0  0  0  0
  6 17  1  0  0  0  0
  6 28  1  0  0  0  0
  7  8  1  0  0  0  0
  7 29  1  0  0  0  0
  7 30  1  0  0  0  0
  8  9  1  0  0  0  0
  8 31  1  0  0  0  0
  9 10  2  0  0  0  0
  9 11  1  0  0  0  0
 11 12  1  0  0  0  0
 11 32  1  0  0  0  0
 12 16  2  0  0  0  0
 12 13  1  0  0  0  0
 13 14  2  0  0  0  0
 13 33  1  0  0  0  0
 14 15  1  0  0  0  0
 15 18  1  0  0  0  0
 15 16  1  0  0  0  0
 16 34  1  0  0  0  0
 17 35  1  0  0  0  0
 17 36  1  0  0  0  0
M  CHG  1   3   1
M  END
> <s_m_source_file>
AV-unprocessed.smi

> <i_m_source_file_index>
1588

> <i_lp_mmshare_version>
43012

> <i_f3d_flags>
0

> <s_epik_input>
W0NIM11bQ0gyXU4xW0NIMl1bQ0gyXVtDQEhdKFtDSDJdMSlbQ0gyXVtOSF1DKD1PKVtOSF1jMltjSF1uW25IXVtjSF0y

> <s_epik_cmdline>
J2VwaWtfcHl0aG9uJywgJy1waCcsICc3LjAnLCAnLXRuJywgJzgnLCAnLW1hJywgJzIwMCcsICctbWV0YWxfYmluZGluZycsICctaW1hZScsICc8aW5maWxlLm1hZT4nLCAnLW9tYWUnLCAnPG91dGZpbGUubWFlPic=

> <r_lp_tautomer_probability>
0.5

> <r_epik_Ionization_Penalty>
0.000628417

> <r_epik_Ionization_Penalty_Charging>
0.000582718

> <r_epik_Ionization_Penalty_Neutral>
4.56984e-05

> <r_epik_State_Penalty>
0.000366292

> <r_epik_Charging_Adjusted_Penalty>
0.00094901

> <i_epik_Tot_Q>
1

> <i_epik_Tot_abs_Q>
1

> <r_epik_Metal_State_Penalty>
-0

> <b_epik_Metal_Only>
0

> <s_lp_Force_Field>
OPLS_2005

> <r_lp_Energy>
31.1472

> <b_lp_Chiralities_Consistent>
1

> <s_lp_Variant>
AV-unprocessed.smi:1588-3

> <Gold.Version>
5.8.1

> <Gold.Id.Protein>
6NUR|6NUR_protein|mol2

> <Gold.PLP.Fitness>
43.9572

> <Gold.PLP.PLP>
-30.8962

> <Gold.PLP.part.hbond>
-4.5610

> <Gold.PLP.part.metal>
0.0000

> <Gold.PLP.part.buried>
-3.1193

> <Gold.PLP.part.nonpolar>
-23.8155

> <Gold.PLP.part.repulsive>
0.4864

> <Gold.PLP.ligand.clash>
0.0000

> <Gold.PLP.ligand.torsion>
0.7946

> <Gold.PLP.Chemscore.Hbond>
4.8800

> <Gold.PLP.Chemscore.CHOScore>
0.0000

> <Gold.PLP.Chemscore.Metal>
0.0000

> <Gold.Chemscore.Hbonds>
donor molecule, donor type, donor heavy atom, donor atom, acceptor molecule, acceptor atom, score
      L1  H     3    37       P1 10186  2.00
      L1  H     8    31       P1  7948  0.90
      L1  H    11    32       P1  7948  1.00
      P1  H  7989  7998       L1    14  0.75

> <Gold.PLP.Chemscore.Internal.Correction>
0.0101

> <Gold.Rescore>
     Score         DG    S(hbond)    S(metal)    S(lipo)     H(rot)  DE(clash)    DE(int)     intcor
     16.86     -18.83       2.83        0.00      67.75       1.58       0.06       1.92       ----

> <Gold.Chemscore.Fitness>
16.8556

> <Gold.Chemscore.DG>
-18.8341

> <Gold.Chemscore.ZeroCoef>
-5.4800

> <Gold.Chemscore.Hbond>
2.8322

> <Gold.Chemscore.Metal>
0.0000

> <Gold.Chemscore.Lipo>
67.7543

> <Gold.Chemscore.Internal_Hbond>
0.0000

> <Gold.Chemscore.DEClash>
0.0588

> <Gold.Chemscore.DEInternal>
1.9196

> <Gold.Chemscore.Rot>
1.5753

> <Gold.Chemscore.Internal.Correction>
   9.000000E+99

> <Gold.Chemscore.Hbonds>
donor molecule, donor type, donor heavy atom, donor atom, acceptor molecule, acceptor atom, score
      L1  H     3    37       P1 10186  0.97
      L1  H     8    31       P1  7948  0.88
      L1  H    11    32       P1  7948  0.97
      P1  H  7989  7998       L1    14  0.06

> <Gold.Chemscore.Hbond.Weighted>
-9.4596

> <Gold.Chemscore.Metal.Weighted>
-0.0000

> <Gold.Chemscore.Lipo.Weighted>
-7.9273

> <Gold.Chemscore.Internal_Hbond.Weighted>
0.0000

> <Gold.Chemscore.DEClash.Weighted>
0.0588

> <Gold.Chemscore.DEInternal.Weighted>
1.9196

> <Gold.Chemscore.Rot.Weighted>
4.0328

> <Gold.Chemscore.Internal.Correction.Weighted>
   9.000000E+99

> <Gold.Protein.RotatedTorsions>
[ 6907 6896 6895 6894 ] final  163.20 input  -60.11 | X-H torsion
[ 7974 7965 7964 7962 ] final  133.96 input  175.53 | X-H torsion
[ 8008 7997 7996 7995 ] final -149.92 input   59.86 | X-H torsion
[ 10167 10162 10161 10158 ] final   -2.68 input  -65.29 | X-H torsion
[ 10718 10713 10712 10709 ] final   29.69 input   66.30 | X-H torsion
[ 10763 10752 10751 10750 ] final  141.92 input  -60.55 | X-H torsion
[ 11005 11000 10999 10996 ] final  -64.38 input  -57.11 | X-H torsion

> <Gold.Protein.ActiveResidues>
 VAL166  LYS551  ARG553  GLY616  TRP617  ASP618  TYR619  PRO620  LYS621  CYS622 
 ASP623  PHE694  ASN695  SER759  ASP760  ASP761  ALA762  ILE779  LEU786  VAL792 
 PHE793  MET794  SER795  GLU796  ALA797  LYS798  CYS799  TRP800  GLU811  SER814 

> <Gold.Protein.RotatedAtoms>
  151.9289  133.3605  159.3923 H   0  0  0  0  0  0  0  0  0  0  0  0  # atno 6907 bound_to 6896
  150.7021  134.4558  159.5367 H   0  0  0  0  0  0  0  0  0  0  0  0  # atno 6908 bound_to 6896
  152.2195  134.8426  160.0538 H   0  0  0  0  0  0  0  0  0  0  0  0  # atno 6909 bound_to 6896
  144.9812  139.4502  143.5385 H   0  0  0  0  0  0  0  0  0  0  0  0  # atno 7974 bound_to 7965
  155.6153  140.0676  157.2694 H   0  0  0  0  0  0  0  0  0  0  0  0  # atno 8008 bound_to 7997
  154.4243  140.1794  156.1363 H   0  0  0  0  0  0  0  0  0  0  0  0  # atno 8009 bound_to 7997
  156.0053  140.3332  155.6889 H   0  0  0  0  0  0  0  0  0  0  0  0  # atno 8010 bound_to 7997
  140.6860  143.6629  150.8251 H   0  0  0  0  0  0  0  0  0  0  0  0  # atno 10167 bound_to 10162
  157.2499  130.7110  149.6400 H   0  0  0  0  0  0  0  0  0  0  0  0  # atno 10718 bound_to 10713
  153.9472  135.2973  155.3440 H   0  0  0  0  0  0  0  0  0  0  0  0  # atno 10763 bound_to 10752
  154.7445  135.5009  153.9184 H   0  0  0  0  0  0  0  0  0  0  0  0  # atno 10764 bound_to 10752
  153.1012  135.6735  153.9777 H   0  0  0  0  0  0  0  0  0  0  0  0  # atno 10765 bound_to 10752
  141.1423  133.6665  156.5824 H   0  0  0  0  0  0  0  0  0  0  0  0  # atno 11005 bound_to 11000
  146.3408  139.9086  142.8783 LP  0  0  0  0  0  0  0  0  0  0  0  0  # atno 17320 bound_to 7965
  145.2418  141.0012  143.3931 LP  0  0  0  0  0  0  0  0  0  0  0  0  # atno 17321 bound_to 7965
  140.0336  143.5418  152.2749 LP  0  0  0  0  0  0  0  0  0  0  0  0  # atno 17342 bound_to 10162
  139.6220  144.7630  151.2720 LP  0  0  0  0  0  0  0  0  0  0  0  0  # atno 17343 bound_to 10162
  155.9666  130.4431  150.5407 LP  0  0  0  0  0  0  0  0  0  0  0  0  # atno 17370 bound_to 10713
  157.3289  131.0696  151.1876 LP  0  0  0  0  0  0  0  0  0  0  0  0  # atno 17371 bound_to 10713
  140.3827  134.7509  157.4672 LP  0  0  0  0  0  0  0  0  0  0  0  0  # atno 17394 bound_to 11000
  140.0625  134.5976  155.8732 LP  0  0  0  0  0  0  0  0  0  0  0  0  # atno 17395 bound_to 11000

$$$$
