AV-unprocessed.smi:188|AV-procd|sdf|1473|dock5
  -GOLD-   2262019293D 1   1.00000     0.00000
 Structure written by MMmdl.
 48 52  0  0  0  0  0  0  0  0  2 V2000
  148.3713  133.3242  153.8408 O   0  0  0  0  0  0  0  0  0  0  0  0
  149.1353  133.9481  154.5737 C   0  0  0  0  0  0  0  0  0  0  0  0
  150.1677  133.4727  155.2962 N   0  5  0  0  0  0  0  0  0  0  0  0
  150.7755  134.4667  155.9794 C   0  0  0  0  0  0  0  0  0  0  0  0
  151.7457  134.4217  156.7346 O   0  0  0  0  0  0  0  0  0  0  0  0
  150.0269  135.7715  155.6565 C   0  0  0  0  0  0  0  0  0  0  0  0
  149.3550  136.4069  156.8964 C   0  0  0  0  0  0  0  0  0  0  0  0
  150.3661  137.1208  157.8122 C   0  0  0  0  0  0  0  0  0  0  0  0
  151.1725  138.0813  157.0565 N   0  0  0  0  0  0  0  0  0  0  0  0
  151.8820  138.9964  157.7652 C   0  0  0  0  0  0  0  0  0  0  0  0
  152.8527  138.5864  158.6254 N   0  0  0  0  0  0  0  0  0  0  0  0
  153.5670  139.4803  159.3147 C   0  0  0  0  0  0  0  0  0  0  0  0
  153.4744  140.8110  159.3008 N   0  0  0  0  0  0  0  0  0  0  0  0
  152.4939  141.2304  158.4516 C   0  0  0  0  0  0  0  0  0  0  0  0
  151.6602  140.3983  157.6512 C   0  0  0  0  0  0  0  0  0  0  0  0
  150.7761  141.1817  156.9185 N   0  0  0  0  0  0  0  0  0  0  0  0
  151.0781  142.4053  157.2565 C   0  0  0  0  0  0  0  0  0  0  0  0
  152.0913  142.5269  158.1810 N   0  0  0  0  0  0  0  0  0  0  0  0
  152.6189  143.7674  158.7296 C   0  0  0  0  0  0  0  0  0  0  0  0
  151.7870  144.3541  159.8897 C   0  0  0  0  0  0  0  0  0  0  0  0
  151.9847  143.5355  161.1779 C   0  0  0  0  0  0  0  0  0  0  0  0
  150.9662  143.8016  162.1212 O   0  0  0  0  0  0  0  0  0  0  0  0
  151.8844  145.8741  160.0873 C   0  0  0  0  0  0  0  0  0  0  0  0
  150.4490  146.0195  160.1004 O   0  0  0  0  0  0  0  0  0  0  0  0
  150.3258  144.6877  159.5582 C   0  0  0  0  0  0  0  0  0  0  0  0
  151.8845  137.5263  155.9053 C   0  0  0  0  0  0  0  0  0  0  0  0
  150.9132  136.8189  154.9417 C   0  0  0  0  0  0  0  0  0  0  0  0
  149.0199  135.2630  154.7486 N   0  0  0  0  0  0  0  0  0  0  0  0
  148.6063  137.1299  156.5693 H   0  0  0  0  0  0  0  0  0  0  0  0
  148.8147  135.6520  157.4698 H   0  0  0  0  0  0  0  0  0  0  0  0
  149.8255  137.6344  158.6083 H   0  0  0  0  0  0  0  0  0  0  0  0
  151.0224  136.3946  158.2925 H   0  0  0  0  0  0  0  0  0  0  0  0
  154.3203  139.0697  159.9708 H   0  0  0  0  0  0  0  0  0  0  0  0
  150.5595  143.2591  156.8449 H   0  0  0  0  0  0  0  0  0  0  0  0
  153.6444  143.5795  159.0501 H   0  0  0  0  0  0  0  0  0  0  0  0
  152.6982  144.4910  157.9173 H   0  0  0  0  0  0  0  0  0  0  0  0
  152.0162  142.4649  160.9749 H   0  0  0  0  0  0  0  0  0  0  0  0
  152.9404  143.7799  161.6428 H   0  0  0  0  0  0  0  0  0  0  0  0
  151.0743  144.6857  162.4375 H   0  0  0  0  0  0  0  0  0  0  0  0
  152.3489  146.1726  161.0278 H   0  0  0  0  0  0  0  0  0  0  0  0
  152.3290  146.4086  159.2471 H   0  0  0  0  0  0  0  0  0  0  0  0
  150.1070  144.7044  158.4892 H   0  0  0  0  0  0  0  0  0  0  0  0
  149.5959  144.0809  160.0953 H   0  0  0  0  0  0  0  0  0  0  0  0
  152.4218  138.3014  155.3600 H   0  0  0  0  0  0  0  0  0  0  0  0
  152.6406  136.8276  156.2642 H   0  0  0  0  0  0  0  0  0  0  0  0
  151.4776  136.3546  154.1316 H   0  0  0  0  0  0  0  0  0  0  0  0
  150.2761  137.5698  154.4720 H   0  0  0  0  0  0  0  0  0  0  0  0
  148.3208  135.8441  154.3106 H   0  0  0  0  0  0  0  0  0  0  0  0
  1  2  2  0  0  0  0
  2 28  1  0  0  0  0
  2  3  1  0  0  0  0
  3  4  1  0  0  0  0
  4  5  2  0  0  0  0
  4  6  1  0  0  0  0
  6 27  1  0  0  0  0
  6  7  1  0  0  0  0
  6 28  1  0  0  0  0
  7  8  1  0  0  0  0
  7 29  1  0  0  0  0
  7 30  1  0  0  0  0
  8  9  1  0  0  0  0
  8 31  1  0  0  0  0
  8 32  1  0  0  0  0
  9 10  1  0  0  0  0
  9 26  1  0  0  0  0
 10 15  1  0  0  0  0
 10 11  2  0  0  0  0
 11 12  1  0  0  0  0
 12 13  2  0  0  0  0
 12 33  1  0  0  0  0
 13 14  1  0  0  0  0
 14 18  1  0  0  0  0
 14 15  2  0  0  0  0
 15 16  1  0  0  0  0
 16 17  2  0  0  0  0
 17 18  1  0  0  0  0
 17 34  1  0  0  0  0
 18 19  1  0  0  0  0
 19 20  1  0  0  0  0
 19 35  1  0  0  0  0
 19 36  1  0  0  0  0
 20 25  1  0  0  0  0
 20 21  1  0  0  0  0
 20 23  1  0  0  0  0
 21 22  1  0  0  0  0
 21 37  1  0  0  0  0
 21 38  1  0  0  0  0
 22 39  1  0  0  0  0
 23 24  1  0  0  0  0
 23 40  1  0  0  0  0
 23 41  1  0  0  0  0
 24 25  1  0  0  0  0
 25 42  1  0  0  0  0
 25 43  1  0  0  0  0
 26 27  1  0  0  0  0
 26 44  1  0  0  0  0
 26 45  1  0  0  0  0
 27 46  1  0  0  0  0
 27 47  1  0  0  0  0
 28 48  1  0  0  0  0
M  CHG  1   3  -1
M  END
> <s_m_source_file>
AV-unprocessed.smi

> <i_m_source_file_index>
188

> <i_lp_mmshare_version>
43012

> <i_f3d_flags>
0

> <s_epik_input>
Tz1DKFtOSF0xKVtOSF1DKD1PKUMxMltDSDJdW0NIMl1OKFtDSDJdW0NIMl0yKWMobltjSF1uMyljKGMzNCluW2NIXW40W0NIMl1DNShbQ0gyXVtPSF0pW0NIMl1PW0NIMl01

> <s_epik_cmdline>
J2VwaWtfcHl0aG9uJywgJy1waCcsICc3LjAnLCAnLXRuJywgJzgnLCAnLW1hJywgJzIwMCcsICctbWV0YWxfYmluZGluZycsICctaW1hZScsICc8aW5maWxlLm1hZT4nLCAnLW9tYWUnLCAnPG91dGZpbGUubWFlPic=

> <r_lp_tautomer_probability>
1

> <r_epik_Ionization_Penalty>
2.63631

> <r_epik_Ionization_Penalty_Charging>
2.63472

> <r_epik_Ionization_Penalty_Neutral>
0.0015918

> <r_epik_State_Penalty>
2.63293

> <r_epik_Charging_Adjusted_Penalty>
5.26764

> <i_epik_Tot_Q>
-1

> <i_epik_Tot_abs_Q>
1

> <r_epik_Metal_State_Penalty>
0.446503

> <b_epik_Metal_Only>
1

> <s_lp_Force_Field>
OPLS_2005

> <r_lp_Energy>
37.7824

> <b_lp_Chiralities_Consistent>
1

> <s_lp_Variant>
AV-unprocessed.smi:188-2

> <Gold.Version>
5.8.1

> <Gold.Id.Protein>
6NUR|6NUR_protein|mol2

> <Gold.PLP.Fitness>
46.7337

> <Gold.PLP.PLP>
-44.3198

> <Gold.PLP.part.hbond>
-6.3562

> <Gold.PLP.part.metal>
0.0000

> <Gold.PLP.part.buried>
-7.0474

> <Gold.PLP.part.nonpolar>
-32.1011

> <Gold.PLP.part.repulsive>
0.4905

> <Gold.PLP.ligand.clash>
0.0000

> <Gold.PLP.ligand.torsion>
1.0065

> <Gold.PLP.Chemscore.Hbond>
0.2402

> <Gold.PLP.Chemscore.CHOScore>
1.0000

> <Gold.PLP.Chemscore.Metal>
0.0000

> <Gold.Chemscore.Hbonds>
donor molecule, donor type, donor heavy atom, donor atom, acceptor molecule, acceptor atom, score
      P1  H  6933  6945       L1    22  0.23
      L1  C    17    34       P1  8028  1.00

> <Gold.PLP.Chemscore.Internal.Correction>
0.7061

> <Gold.Rescore>
     Score         DG    S(hbond)    S(metal)    S(lipo)     H(rot)  DE(clash)    DE(int)     intcor
      7.09     -10.15       0.90        0.00      76.55       2.84       1.20       1.87       ----

> <Gold.Chemscore.Fitness>
7.0854

> <Gold.Chemscore.DG>
-10.1545

> <Gold.Chemscore.ZeroCoef>
-5.4800

> <Gold.Chemscore.Hbond>
0.8987

> <Gold.Chemscore.Metal>
0.0000

> <Gold.Chemscore.Lipo>
76.5460

> <Gold.Chemscore.Internal_Hbond>
0.0000

> <Gold.Chemscore.DEClash>
1.1988

> <Gold.Chemscore.DEInternal>
1.8703

> <Gold.Chemscore.Rot>
2.8450

> <Gold.Chemscore.Internal.Correction>
   9.000000E+99

> <Gold.Chemscore.Hbonds>
donor molecule, donor type, donor heavy atom, donor atom, acceptor molecule, acceptor atom, score
      P1  H  6933  6945       L1    22  0.06

> <Gold.Chemscore.Hbond.Weighted>
-3.0017

> <Gold.Chemscore.Metal.Weighted>
-0.0000

> <Gold.Chemscore.Lipo.Weighted>
-8.9559

> <Gold.Chemscore.Internal_Hbond.Weighted>
0.0000

> <Gold.Chemscore.DEClash.Weighted>
1.1988

> <Gold.Chemscore.DEInternal.Weighted>
1.8703

> <Gold.Chemscore.Rot.Weighted>
7.2831

> <Gold.Chemscore.Internal.Correction.Weighted>
   9.000000E+99

> <Gold.Protein.RotatedTorsions>
[ 6907 6896 6895 6894 ] final   -8.80 input  -60.11 | X-H torsion
[ 7974 7965 7964 7962 ] final -100.99 input  175.53 | X-H torsion
[ 8008 7997 7996 7995 ] final   11.45 input   59.86 | X-H torsion
[ 10167 10162 10161 10158 ] final   24.42 input  -65.29 | X-H torsion
[ 10718 10713 10712 10709 ] final  -32.75 input   66.30 | X-H torsion
[ 10763 10752 10751 10750 ] final   48.22 input  -60.55 | X-H torsion
[ 11005 11000 10999 10996 ] final  -43.49 input  -57.11 | X-H torsion

> <Gold.Protein.ActiveResidues>
 VAL166  LYS551  ARG553  GLY616  TRP617  ASP618  TYR619  PRO620  LYS621  CYS622 
 ASP623  PHE694  ASN695  SER759  ASP760  ASP761  ALA762  ILE779  LEU786  VAL792 
 PHE793  MET794  SER795  GLU796  ALA797  LYS798  CYS799  TRP800  GLU811  SER814 

> <Gold.Protein.RotatedAtoms>
  151.4279  135.1006  159.9633 H   0  0  0  0  0  0  0  0  0  0  0  0  # atno 6907 bound_to 6896
  152.4966  133.8645  159.7277 H   0  0  0  0  0  0  0  0  0  0  0  0  # atno 6908 bound_to 6896
  150.9176  133.6862  159.2867 H   0  0  0  0  0  0  0  0  0  0  0  0  # atno 6909 bound_to 6896
  145.2874  140.9343  143.2897 H   0  0  0  0  0  0  0  0  0  0  0  0  # atno 7974 bound_to 7965
  154.8070  140.2862  155.5880 H   0  0  0  0  0  0  0  0  0  0  0  0  # atno 8008 bound_to 7997
  156.2984  140.2575  156.2880 H   0  0  0  0  0  0  0  0  0  0  0  0  # atno 8009 bound_to 7997
  154.9491  140.0379  157.2124 H   0  0  0  0  0  0  0  0  0  0  0  0  # atno 8010 bound_to 7997
  140.5189  144.0035  150.6407 H   0  0  0  0  0  0  0  0  0  0  0  0  # atno 10167 bound_to 10162
  156.3710  130.4339  149.7545 H   0  0  0  0  0  0  0  0  0  0  0  0  # atno 10718 bound_to 10713
  152.9793  135.5951  154.3890 H   0  0  0  0  0  0  0  0  0  0  0  0  # atno 10763 bound_to 10752
  154.3547  135.2767  155.2354 H   0  0  0  0  0  0  0  0  0  0  0  0  # atno 10764 bound_to 10752
  154.4378  135.6020  153.6165 H   0  0  0  0  0  0  0  0  0  0  0  0  # atno 10765 bound_to 10752
  141.0387  133.6789  156.2740 H   0  0  0  0  0  0  0  0  0  0  0  0  # atno 11005 bound_to 11000
  144.9202  139.4421  143.6545 LP  0  0  0  0  0  0  0  0  0  0  0  0  # atno 17320 bound_to 7965
  146.3196  139.8058  142.8956 LP  0  0  0  0  0  0  0  0  0  0  0  0  # atno 17321 bound_to 7965
  140.3379  143.3038  152.0619 LP  0  0  0  0  0  0  0  0  0  0  0  0  # atno 17342 bound_to 10162
  139.4917  144.6463  151.6770 LP  0  0  0  0  0  0  0  0  0  0  0  0  # atno 17343 bound_to 10162
  156.4673  130.7980  151.2999 LP  0  0  0  0  0  0  0  0  0  0  0  0  # atno 17370 bound_to 10713
  157.7484  131.0047  150.3086 LP  0  0  0  0  0  0  0  0  0  0  0  0  # atno 17371 bound_to 10713
  140.6275  134.5299  157.5555 LP  0  0  0  0  0  0  0  0  0  0  0  0  # atno 17394 bound_to 11000
  139.9259  134.8056  156.1069 LP  0  0  0  0  0  0  0  0  0  0  0  0  # atno 17395 bound_to 11000

$$$$
