AV-unprocessed.smi:3311|AV-procd|sdf|12719|dock4
  -GOLD-   2272019 53D 1   1.00000     0.00000
 Structure written by MMmdl.
 44 45  0  0  0  0  0  0  0  0  2 V2000
  145.2176  138.4852  154.2524 C   0  0  0  0  0  0  0  0  0  0  0  0
  146.2626  138.1168  153.1863 C   0  0  2  0  0  0  0  0  0  0  0  0
  146.2090  136.6551  152.9550 N   0  3  0  0  0  0  0  0  0  0  0  0
  144.9382  136.1555  152.3869 C   0  0  0  0  0  0  0  0  0  0  0  0
  145.1669  135.0586  151.3245 C   0  0  0  0  0  0  0  0  0  0  0  0
  145.6249  135.7050  150.1494 O   0  0  0  0  0  0  0  0  0  0  0  0
  146.2162  134.0171  151.7869 C   0  0  0  0  0  0  0  0  0  0  0  0
  146.3659  132.8405  150.8060 C   0  0  0  0  0  0  0  0  0  0  0  0
  145.0153  132.1649  150.5318 C   0  0  0  0  0  0  0  0  0  0  0  0
  143.9888  133.1816  150.0137 C   0  0  0  0  0  0  0  0  0  0  0  0
  143.8271  134.3602  150.9909 C   0  0  0  0  0  0  0  0  0  0  0  0
  147.7039  138.5430  153.5756 C   0  0  2  0  0  0  0  0  0  0  0  0
  148.2147  137.8649  154.8612 C   0  0  0  0  0  0  0  0  0  0  0  0
  147.8111  139.9922  153.7047 N   0  0  0  0  0  0  0  0  0  0  0  0
  146.8274  140.9412  153.5154 C   0  0  0  0  0  0  0  0  0  0  0  0
  147.3850  142.1629  153.7618 C   0  0  0  0  0  0  0  0  0  0  0  0
  148.7337  141.8585  154.0957 C   0  0  0  0  0  0  0  0  0  0  0  0
  148.9857  140.5603  154.0607 N   0  0  0  0  0  0  0  0  0  0  0  0
  145.1314  139.5645  154.3756 H   0  0  0  0  0  0  0  0  0  0  0  0
  145.4680  138.0552  155.2228 H   0  0  0  0  0  0  0  0  0  0  0  0
  144.2290  138.1197  153.9718 H   0  0  0  0  0  0  0  0  0  0  0  0
  145.9849  138.6349  152.2665 H   0  0  0  0  0  0  0  0  0  0  0  0
  146.9464  136.4119  152.3089 H   0  0  0  0  0  0  0  0  0  0  0  0
  144.3162  135.7722  153.1971 H   0  0  0  0  0  0  0  0  0  0  0  0
  144.3964  136.9913  151.9417 H   0  0  0  0  0  0  0  0  0  0  0  0
  145.4801  135.1278  149.4145 H   0  0  0  0  0  0  0  0  0  0  0  0
  147.1891  134.4878  151.9320 H   0  0  0  0  0  0  0  0  0  0  0  0
  145.9235  133.6228  152.7610 H   0  0  0  0  0  0  0  0  0  0  0  0
  146.7962  133.1934  149.8680 H   0  0  0  0  0  0  0  0  0  0  0  0
  147.0685  132.1108  151.2095 H   0  0  0  0  0  0  0  0  0  0  0  0
  145.1416  131.3606  149.8064 H   0  0  0  0  0  0  0  0  0  0  0  0
  144.6438  131.7011  151.4466 H   0  0  0  0  0  0  0  0  0  0  0  0
  144.2989  133.5499  149.0351 H   0  0  0  0  0  0  0  0  0  0  0  0
  143.0265  132.6911  149.8641 H   0  0  0  0  0  0  0  0  0  0  0  0
  143.3771  133.9868  151.9118 H   0  0  0  0  0  0  0  0  0  0  0  0
  143.1168  135.0798  150.5810 H   0  0  0  0  0  0  0  0  0  0  0  0
  148.3741  138.2483  152.7662 H   0  0  0  0  0  0  0  0  0  0  0  0
  148.3097  136.7865  154.7383 H   0  0  0  0  0  0  0  0  0  0  0  0
  147.5466  138.0477  155.7033 H   0  0  0  0  0  0  0  0  0  0  0  0
  149.2013  138.2410  155.1343 H   0  0  0  0  0  0  0  0  0  0  0  0
  145.8217  140.6725  153.2269 H   0  0  0  0  0  0  0  0  0  0  0  0
  146.9032  143.1279  153.7099 H   0  0  0  0  0  0  0  0  0  0  0  0
  149.5312  142.5367  154.3609 H   0  0  0  0  0  0  0  0  0  0  0  0
  146.3820  136.1798  153.8289 H   0  0  0  0  0  0  0  0  0  0  0  0
  1  2  1  0  0  0  0
  1 19  1  0  0  0  0
  1 20  1  0  0  0  0
  1 21  1  0  0  0  0
  2  3  1  0  0  0  0
  2 12  1  0  0  0  0
  2 22  1  0  0  0  0
  3  4  1  0  0  0  0
  3 23  1  0  0  0  0
  3 44  1  0  0  0  0
  4  5  1  0  0  0  0
  4 24  1  0  0  0  0
  4 25  1  0  0  0  0
  5 11  1  0  0  0  0
  5  6  1  0  0  0  0
  5  7  1  0  0  0  0
  6 26  1  0  0  0  0
  7  8  1  0  0  0  0
  7 27  1  0  0  0  0
  7 28  1  0  0  0  0
  8  9  1  0  0  0  0
  8 29  1  0  0  0  0
  8 30  1  0  0  0  0
  9 10  1  0  0  0  0
  9 31  1  0  0  0  0
  9 32  1  0  0  0  0
 10 11  1  0  0  0  0
 10 33  1  0  0  0  0
 10 34  1  0  0  0  0
 11 35  1  0  0  0  0
 11 36  1  0  0  0  0
 12 13  1  0  0  0  0
 12 14  1  0  0  0  0
 12 37  1  0  0  0  0
 13 38  1  0  0  0  0
 13 39  1  0  0  0  0
 13 40  1  0  0  0  0
 14 18  1  0  0  0  0
 14 15  1  0  0  0  0
 15 16  2  0  0  0  0
 15 41  1  0  0  0  0
 16 17  1  0  0  0  0
 16 42  1  0  0  0  0
 17 18  2  0  0  0  0
 17 43  1  0  0  0  0
M  CHG  1   3   1
M  END
> <s_m_source_file>
AV-unprocessed.smi

> <i_m_source_file_index>
3311

> <i_lp_mmshare_version>
43012

> <i_f3d_flags>
0

> <s_epik_input>
bjFbY0hdW2NIXVtjSF1uMVtDQEBIXShbQ0gzXSlbQ0BIXShbQ0gzXSlbTkhdW0NIMl1DMihbT0hdKVtDSDJdW0NIMl1bQ0gyXVtDSDJdW0NIMl0y

> <s_epik_cmdline>
J2VwaWtfcHl0aG9uJywgJy1waCcsICc3LjAnLCAnLXRuJywgJzgnLCAnLW1hJywgJzIwMCcsICctbWV0YWxfYmluZGluZycsICctaW1hZScsICc8aW5maWxlLm1hZT4nLCAnLW9tYWUnLCAnPG91dGZpbGUubWFlPic=

> <r_lp_tautomer_probability>
1

> <r_epik_Ionization_Penalty>
0.0141403

> <r_epik_Ionization_Penalty_Charging>
0.0141276

> <r_epik_Ionization_Penalty_Neutral>
1.27139e-05

> <r_epik_State_Penalty>
0.0110334

> <r_epik_Charging_Adjusted_Penalty>
0.025161

> <i_epik_Tot_Q>
1

> <i_epik_Tot_abs_Q>
1

> <r_epik_Metal_State_Penalty>
0.0110573

> <b_epik_Metal_Only>
0

> <s_lp_Force_Field>
OPLS_2005

> <r_lp_Energy>
21.8269

> <b_lp_Chiralities_Consistent>
1

> <s_lp_Variant>
AV-unprocessed.smi:3311-1

> <Gold.Version>
5.8.1

> <Gold.Id.Protein>
6NUR|6NUR_protein|mol2

> <Gold.PLP.Fitness>
43.4881

> <Gold.PLP.PLP>
-30.1758

> <Gold.PLP.part.hbond>
-2.3670

> <Gold.PLP.part.metal>
0.0000

> <Gold.PLP.part.buried>
-1.2699

> <Gold.PLP.part.nonpolar>
-27.6219

> <Gold.PLP.part.repulsive>
0.1362

> <Gold.PLP.ligand.clash>
0.0000

> <Gold.PLP.ligand.torsion>
0.5149

> <Gold.PLP.Chemscore.Hbond>
2.9120

> <Gold.PLP.Chemscore.CHOScore>
1.8463

> <Gold.PLP.Chemscore.Metal>
0.0000

> <Gold.Chemscore.Hbonds>
donor molecule, donor type, donor heavy atom, donor atom, acceptor molecule, acceptor atom, score
      L1  H     3    23       P1  7948  1.92
      L1  H     6    26       P1  7921  0.78
      L1  C    15    41       P1 10175  1.00
      L1  C    17    43       P1  8028  0.61

> <Gold.PLP.Chemscore.Internal.Correction>
0.0671

> <Gold.Rescore>
     Score         DG    S(hbond)    S(metal)    S(lipo)     H(rot)  DE(clash)    DE(int)     intcor
     14.76     -16.05       1.90        0.00      82.84       2.14       0.74       0.55       ----

> <Gold.Chemscore.Fitness>
14.7636

> <Gold.Chemscore.DG>
-16.0493

> <Gold.Chemscore.ZeroCoef>
-5.4800

> <Gold.Chemscore.Hbond>
1.9046

> <Gold.Chemscore.Metal>
0.0000

> <Gold.Chemscore.Lipo>
82.8423

> <Gold.Chemscore.Internal_Hbond>
0.0000

> <Gold.Chemscore.DEClash>
0.7398

> <Gold.Chemscore.DEInternal>
0.5459

> <Gold.Chemscore.Rot>
2.1424

> <Gold.Chemscore.Internal.Correction>
   9.000000E+99

> <Gold.Chemscore.Hbonds>
donor molecule, donor type, donor heavy atom, donor atom, acceptor molecule, acceptor atom, score
      L1  H     3    23       P1  7948  0.87
      L1  H     6    26       P1  7921  0.77

> <Gold.Chemscore.Hbond.Weighted>
-6.3614

> <Gold.Chemscore.Metal.Weighted>
-0.0000

> <Gold.Chemscore.Lipo.Weighted>
-9.6925

> <Gold.Chemscore.Internal_Hbond.Weighted>
0.0000

> <Gold.Chemscore.DEClash.Weighted>
0.7398

> <Gold.Chemscore.DEInternal.Weighted>
0.5459

> <Gold.Chemscore.Rot.Weighted>
5.4846

> <Gold.Chemscore.Internal.Correction.Weighted>
   9.000000E+99

> <Gold.Protein.RotatedTorsions>
[ 6907 6896 6895 6894 ] final  -83.92 input  -60.11 | X-H torsion
[ 7974 7965 7964 7962 ] final  -13.25 input  175.53 | X-H torsion
[ 8008 7997 7996 7995 ] final  118.38 input   59.86 | X-H torsion
[ 10167 10162 10161 10158 ] final   57.93 input  -65.29 | X-H torsion
[ 10718 10713 10712 10709 ] final  -65.56 input   66.30 | X-H torsion
[ 10763 10752 10751 10750 ] final  -82.56 input  -60.55 | X-H torsion
[ 11005 11000 10999 10996 ] final   -5.84 input  -57.11 | X-H torsion

> <Gold.Protein.ActiveResidues>
 VAL166  LYS551  ARG553  GLY616  TRP617  ASP618  TYR619  PRO620  LYS621  CYS622 
 ASP623  PHE694  ASN695  SER759  ASP760  ASP761  ALA762  ILE779  LEU786  VAL792 
 PHE793  MET794  SER795  GLU796  ALA797  LYS798  CYS799  TRP800  GLU811  SER814 

> <Gold.Protein.RotatedAtoms>
  150.6881  134.3437  159.4878 H   0  0  0  0  0  0  0  0  0  0  0  0  # atno 6907 bound_to 6896
  152.1287  134.9148  160.0569 H   0  0  0  0  0  0  0  0  0  0  0  0  # atno 6908 bound_to 6896
  152.0326  133.3909  159.4340 H   0  0  0  0  0  0  0  0  0  0  0  0  # atno 6909 bound_to 6896
  146.2121  140.3175  142.8387 H   0  0  0  0  0  0  0  0  0  0  0  0  # atno 7974 bound_to 7965
  156.2543  140.2876  156.0825 H   0  0  0  0  0  0  0  0  0  0  0  0  # atno 8008 bound_to 7997
  155.1550  140.0398  157.2847 H   0  0  0  0  0  0  0  0  0  0  0  0  # atno 8009 bound_to 7997
  154.6433  140.2527  155.7303 H   0  0  0  0  0  0  0  0  0  0  0  0  # atno 8010 bound_to 7997
  140.1927  144.4069  150.6564 H   0  0  0  0  0  0  0  0  0  0  0  0  # atno 10167 bound_to 10162
  156.0662  130.4249  150.1582 H   0  0  0  0  0  0  0  0  0  0  0  0  # atno 10718 bound_to 10713
  154.5772  135.5587  153.7151 H   0  0  0  0  0  0  0  0  0  0  0  0  # atno 10763 bound_to 10752
  153.0069  135.6311  154.2033 H   0  0  0  0  0  0  0  0  0  0  0  0  # atno 10764 bound_to 10752
  154.1973  135.2879  155.2982 H   0  0  0  0  0  0  0  0  0  0  0  0  # atno 10765 bound_to 10752
  140.6955  133.9034  155.8647 H   0  0  0  0  0  0  0  0  0  0  0  0  # atno 11005 bound_to 11000
  144.8944  140.7564  143.5906 LP  0  0  0  0  0  0  0  0  0  0  0  0  # atno 17320 bound_to 7965
  145.3099  139.1822  143.4644 LP  0  0  0  0  0  0  0  0  0  0  0  0  # atno 17321 bound_to 7965
  140.6445  143.2210  151.6217 LP  0  0  0  0  0  0  0  0  0  0  0  0  # atno 17342 bound_to 10162
  139.5249  144.3089  152.1010 LP  0  0  0  0  0  0  0  0  0  0  0  0  # atno 17343 bound_to 10162
  156.9641  130.9814  151.3473 LP  0  0  0  0  0  0  0  0  0  0  0  0  # atno 17370 bound_to 10713
  157.5706  130.8307  149.8386 LP  0  0  0  0  0  0  0  0  0  0  0  0  # atno 17371 bound_to 10713
  141.0206  134.0894  157.4124 LP  0  0  0  0  0  0  0  0  0  0  0  0  # atno 17394 bound_to 11000
  139.8911  135.0116  156.6774 LP  0  0  0  0  0  0  0  0  0  0  0  0  # atno 17395 bound_to 11000

$$$$
