AV-unprocessed.smi:523|AV-procd|sdf|2804|dock4
  -GOLD-   2262023283D 1   1.00000     0.00000
 Structure written by MMmdl.
 40 42  0  0  0  0  0  0  0  0  2 V2000
  147.3427  141.8060  154.0214 C   0  0  0  0  0  0  0  0  0  0  0  0
  148.7097  142.0888  154.2581 O   0  0  0  0  0  0  0  0  0  0  0  0
  149.1953  141.4808  155.4440 C   0  0  0  0  0  0  0  0  0  0  0  0
  150.5623  142.0780  155.8052 C   0  0  0  0  0  0  0  0  0  0  0  0
  151.2849  141.2462  156.7669 N   0  0  0  0  0  0  0  0  0  0  0  0
  151.7102  141.5652  158.0214 C   0  0  0  0  0  0  0  0  0  0  0  0
  151.5338  142.8335  158.5770 N   0  0  0  0  0  0  0  0  0  0  0  0
  150.9703  143.1456  159.8873 C   0  0  0  0  0  0  0  0  0  0  0  0
  151.8400  144.1808  160.6227 C   0  0  0  0  0  0  0  0  0  0  0  0
  151.9074  145.3685  159.8419 O   0  0  0  0  0  0  0  0  0  0  0  0
  152.4587  145.1227  158.5531 C   0  0  0  0  0  0  0  0  0  0  0  0
  151.6025  144.0762  157.8158 C   0  0  0  0  0  0  0  0  0  0  0  0
  152.2698  140.5556  158.6911 N   0  0  0  0  0  0  0  0  0  0  0  0
  152.2262  139.5127  157.7798 C   0  0  0  0  0  0  0  0  0  0  0  0
  151.6331  139.8990  156.6188 C   0  0  0  0  0  0  0  0  0  0  0  0
  151.4081  138.9924  155.4704 C   0  0  0  0  0  0  0  0  0  0  0  0
  150.8453  139.3852  154.4505 O   0  0  0  0  0  0  0  0  0  0  0  0
  151.8878  137.7302  155.7058 N   0  5  0  0  0  0  0  0  0  0  0  0
  152.5000  137.2987  156.8629 C   0  0  0  0  0  0  0  0  0  0  0  0
  152.8993  136.1408  156.9943 O   0  0  0  0  0  0  0  0  0  0  0  0
  152.6752  138.1698  157.9058 N   0  0  0  0  0  0  0  0  0  0  0  0
  153.3142  137.7372  159.1520 C   0  0  0  0  0  0  0  0  0  0  0  0
  147.0192  142.3053  153.1082 H   0  0  0  0  0  0  0  0  0  0  0  0
  146.7176  142.1631  154.8409 H   0  0  0  0  0  0  0  0  0  0  0  0
  147.1790  140.7350  153.8960 H   0  0  0  0  0  0  0  0  0  0  0  0
  148.4880  141.6366  156.2600 H   0  0  0  0  0  0  0  0  0  0  0  0
  149.2924  140.4041  155.2976 H   0  0  0  0  0  0  0  0  0  0  0  0
  151.1725  142.2105  154.9132 H   0  0  0  0  0  0  0  0  0  0  0  0
  150.4217  143.0799  156.1955 H   0  0  0  0  0  0  0  0  0  0  0  0
  149.9631  143.5416  159.7519 H   0  0  0  0  0  0  0  0  0  0  0  0
  150.8521  142.2404  160.4816 H   0  0  0  0  0  0  0  0  0  0  0  0
  151.4041  144.4194  161.5928 H   0  0  0  0  0  0  0  0  0  0  0  0
  152.8438  143.7947  160.8071 H   0  0  0  0  0  0  0  0  0  0  0  0
  152.4773  146.0571  157.9923 H   0  0  0  0  0  0  0  0  0  0  0  0
  153.4920  144.7855  158.6459 H   0  0  0  0  0  0  0  0  0  0  0  0
  152.0315  143.8802  156.8326 H   0  0  0  0  0  0  0  0  0  0  0  0
  150.5940  144.4568  157.6488 H   0  0  0  0  0  0  0  0  0  0  0  0
  154.3029  137.3209  158.9543 H   0  0  0  0  0  0  0  0  0  0  0  0
  152.7119  136.9703  159.6403 H   0  0  0  0  0  0  0  0  0  0  0  0
  153.4443  138.5528  159.8625 H   0  0  0  0  0  0  0  0  0  0  0  0
  1  2  1  0  0  0  0
  1 23  1  0  0  0  0
  1 24  1  0  0  0  0
  1 25  1  0  0  0  0
  2  3  1  0  0  0  0
  3  4  1  0  0  0  0
  3 26  1  0  0  0  0
  3 27  1  0  0  0  0
  4  5  1  0  0  0  0
  4 28  1  0  0  0  0
  4 29  1  0  0  0  0
  5 15  1  0  0  0  0
  5  6  1  0  0  0  0
  6  7  1  0  0  0  0
  6 13  2  0  0  0  0
  7 12  1  0  0  0  0
  7  8  1  0  0  0  0
  8  9  1  0  0  0  0
  8 30  1  0  0  0  0
  8 31  1  0  0  0  0
  9 10  1  0  0  0  0
  9 32  1  0  0  0  0
  9 33  1  0  0  0  0
 10 11  1  0  0  0  0
 11 12  1  0  0  0  0
 11 34  1  0  0  0  0
 11 35  1  0  0  0  0
 12 36  1  0  0  0  0
 12 37  1  0  0  0  0
 13 14  1  0  0  0  0
 14 21  1  0  0  0  0
 14 15  2  0  0  0  0
 15 16  1  0  0  0  0
 16 17  2  0  0  0  0
 16 18  1  0  0  0  0
 18 19  1  0  0  0  0
 19 20  2  0  0  0  0
 19 21  1  0  0  0  0
 21 22  1  0  0  0  0
 22 38  1  0  0  0  0
 22 39  1  0  0  0  0
 22 40  1  0  0  0  0
M  CHG  1  18  -1
M  END
> <s_m_source_file>
AV-unprocessed.smi

> <i_m_source_file_index>
523

> <i_lp_mmshare_version>
43012

> <i_f3d_flags>
0

> <s_epik_input>
W0NIM11uMWMoPU8pW25IXWMoPU8pYyhjMTIpbihbQ0gyXVtDSDJdT1tDSDNdKWMobjIpTjNbQ0gyXVtDSDJdT1tDSDJdW0NIMl0z

> <s_epik_cmdline>
J2VwaWtfcHl0aG9uJywgJy1waCcsICc3LjAnLCAnLXRuJywgJzgnLCAnLW1hJywgJzIwMCcsICctbWV0YWxfYmluZGluZycsICctaW1hZScsICc8aW5maWxlLm1hZT4nLCAnLW9tYWUnLCAnPG91dGZpbGUubWFlPic=

> <r_lp_tautomer_probability>
1

> <r_epik_Ionization_Penalty>
4.75788

> <r_epik_Ionization_Penalty_Charging>
0.0452179

> <r_epik_Ionization_Penalty_Neutral>
4.71266

> <r_epik_State_Penalty>
4.71244

> <r_epik_Charging_Adjusted_Penalty>
4.75766

> <i_epik_Tot_Q>
-1

> <i_epik_Tot_abs_Q>
1

> <r_epik_Metal_State_Penalty>
0.934872

> <b_epik_Metal_Only>
1

> <s_lp_Force_Field>
OPLS_2005

> <r_lp_Energy>
41.5278

> <b_lp_Chiralities_Consistent>
1

> <s_lp_Variant>
AV-unprocessed.smi:523-2

> <Gold.Version>
5.8.1

> <Gold.Id.Protein>
6NUR|6NUR_protein|mol2

> <Gold.PLP.Fitness>
43.9151

> <Gold.PLP.PLP>
-37.7679

> <Gold.PLP.part.hbond>
-3.0688

> <Gold.PLP.part.metal>
0.0000

> <Gold.PLP.part.buried>
-5.6490

> <Gold.PLP.part.nonpolar>
-28.2220

> <Gold.PLP.part.repulsive>
0.4728

> <Gold.PLP.ligand.clash>
0.0000

> <Gold.PLP.ligand.torsion>
0.7777

> <Gold.PLP.Chemscore.Hbond>
2.4282

> <Gold.PLP.Chemscore.CHOScore>
0.0000

> <Gold.PLP.Chemscore.Metal>
0.0000

> <Gold.Chemscore.Hbonds>
donor molecule, donor type, donor heavy atom, donor atom, acceptor molecule, acceptor atom, score
      P1  H  7989  7998       L1    17  1.00
      P1  H  8011  8017       L1     2  0.17
      P1  H 10752 10765       L1    20  1.00

> <Gold.PLP.Chemscore.Internal.Correction>
0.4179

> <Gold.Rescore>
     Score         DG    S(hbond)    S(metal)    S(lipo)     H(rot)  DE(clash)    DE(int)     intcor
     14.87     -17.67       2.05        0.00      78.77       1.52       0.44       2.36       ----

> <Gold.Chemscore.Fitness>
14.8679

> <Gold.Chemscore.DG>
-17.6675

> <Gold.Chemscore.ZeroCoef>
-5.4800

> <Gold.Chemscore.Hbond>
2.0517

> <Gold.Chemscore.Metal>
0.0000

> <Gold.Chemscore.Lipo>
78.7652

> <Gold.Chemscore.Internal_Hbond>
0.0000

> <Gold.Chemscore.DEClash>
0.4377

> <Gold.Chemscore.DEInternal>
2.3619

> <Gold.Chemscore.Rot>
1.5159

> <Gold.Chemscore.Internal.Correction>
   9.000000E+99

> <Gold.Chemscore.Hbonds>
donor molecule, donor type, donor heavy atom, donor atom, acceptor molecule, acceptor atom, score
      P1  H  7989  7998       L1    17  0.95
      P1  H  8011  8017       L1     2  0.14
      P1  H 10752 10765       L1    20  0.87

> <Gold.Chemscore.Hbond.Weighted>
-6.8526

> <Gold.Chemscore.Metal.Weighted>
-0.0000

> <Gold.Chemscore.Lipo.Weighted>
-9.2155

> <Gold.Chemscore.Internal_Hbond.Weighted>
0.0000

> <Gold.Chemscore.DEClash.Weighted>
0.4377

> <Gold.Chemscore.DEInternal.Weighted>
2.3619

> <Gold.Chemscore.Rot.Weighted>
3.8806

> <Gold.Chemscore.Internal.Correction.Weighted>
   9.000000E+99

> <Gold.Protein.RotatedTorsions>
[ 6907 6896 6895 6894 ] final   35.43 input  -60.11 | X-H torsion
[ 7974 7965 7964 7962 ] final  -23.44 input  175.53 | X-H torsion
[ 8008 7997 7996 7995 ] final -125.33 input   59.86 | X-H torsion
[ 10167 10162 10161 10158 ] final -149.99 input  -65.29 | X-H torsion
[ 10718 10713 10712 10709 ] final  -89.08 input   66.30 | X-H torsion
[ 10763 10752 10751 10750 ] final -113.33 input  -60.55 | X-H torsion
[ 11005 11000 10999 10996 ] final -146.89 input  -57.11 | X-H torsion

> <Gold.Protein.ActiveResidues>
 VAL166  LYS551  ARG553  GLY616  TRP617  ASP618  TYR619  PRO620  LYS621  CYS622 
 ASP623  PHE694  ASN695  SER759  ASP760  ASP761  ALA762  ILE779  LEU786  VAL792 
 PHE793  MET794  SER795  GLU796  ALA797  LYS798  CYS799  TRP800  GLU811  SER814 

> <Gold.Protein.RotatedAtoms>
  152.1161  134.9239  160.0564 H   0  0  0  0  0  0  0  0  0  0  0  0  # atno 6907 bound_to 6896
  152.0398  133.3968  159.4340 H   0  0  0  0  0  0  0  0  0  0  0  0  # atno 6908 bound_to 6896
  150.6846  134.3348  159.4886 H   0  0  0  0  0  0  0  0  0  0  0  0  # atno 6909 bound_to 6896
  146.1616  140.4616  142.8569 H   0  0  0  0  0  0  0  0  0  0  0  0  # atno 7974 bound_to 7965
  155.2115  140.0419  157.2934 H   0  0  0  0  0  0  0  0  0  0  0  0  # atno 8008 bound_to 7997
  154.6008  140.2451  155.7766 H   0  0  0  0  0  0  0  0  0  0  0  0  # atno 8009 bound_to 7997
  156.2320  140.2935  156.0222 H   0  0  0  0  0  0  0  0  0  0  0  0  # atno 8010 bound_to 7997
  139.7394  143.8686  152.2558 H   0  0  0  0  0  0  0  0  0  0  0  0  # atno 10167 bound_to 10162
  155.9984  130.4859  150.5116 H   0  0  0  0  0  0  0  0  0  0  0  0  # atno 10718 bound_to 10713
  154.8391  135.4458  154.1332 H   0  0  0  0  0  0  0  0  0  0  0  0  # atno 10763 bound_to 10752
  153.2537  135.6929  153.7658 H   0  0  0  0  0  0  0  0  0  0  0  0  # atno 10764 bound_to 10752
  153.6961  135.3379  155.3189 H   0  0  0  0  0  0  0  0  0  0  0  0  # atno 10765 bound_to 10752
  140.7773  134.3120  157.5056 H   0  0  0  0  0  0  0  0  0  0  0  0  # atno 11005 bound_to 11000
  144.8035  140.6256  143.6463 LP  0  0  0  0  0  0  0  0  0  0  0  0  # atno 17320 bound_to 7965
  145.4574  139.1516  143.3885 LP  0  0  0  0  0  0  0  0  0  0  0  0  # atno 17321 bound_to 7965
  139.8632  144.7106  150.9075 LP  0  0  0  0  0  0  0  0  0  0  0  0  # atno 17342 bound_to 10162
  140.7783  143.3800  151.1494 LP  0  0  0  0  0  0  0  0  0  0  0  0  # atno 17343 bound_to 10162
  157.3089  131.0660  151.2015 LP  0  0  0  0  0  0  0  0  0  0  0  0  # atno 17370 bound_to 10713
  157.2969  130.6823  149.6143 LP  0  0  0  0  0  0  0  0  0  0  0  0  # atno 17371 bound_to 10713
  139.8747  134.9297  156.3483 LP  0  0  0  0  0  0  0  0  0  0  0  0  # atno 17394 bound_to 11000
  140.9516  133.7447  156.0280 LP  0  0  0  0  0  0  0  0  0  0  0  0  # atno 17395 bound_to 11000

$$$$
