#       Name:                AV-unprocessed.smi:1386
#       Creating user name   scv26
#       Creation time:       Fri Mar 27 05:25:35 2020


#       File generated by GOLD software.
#

@<TRIPOS>MOLECULE
AV-unprocessed.smi:1386
    38    39     1
SMALL
NO_CHARGES


@<TRIPOS>ATOM
      1 ****         0.2839  -3.1830  -1.8100 C.3            1 S1                 0.0000
      2 ****         0.3533  -2.2351  -0.6056 C.3            1 S1                 0.0000
      3 ****         1.8084  -1.8172  -0.3030 C.3            1 S1                 0.0000
      4 ****         1.9234  -0.9628   0.8850 N.pl3          1 S1                 0.0000
      5 ****         1.7145  -1.3218   2.1920 C.2            1 S1                 0.0000
      6 ****         1.9179  -0.1938   2.9445 C.2            1 S1                 0.0000
      7 ****         2.2522   0.8028   2.0672 N.pl3          1 S1                 1.0000
      8 ****         2.2615   0.3317   0.8163 C.2            1 S1                 0.0000
      9 ****        -0.4780  -1.0616  -0.8729 N.am           1 S1                 0.0000
     10 ****        -1.2717  -0.4397   0.0178 C.2            1 S1                 0.0000
     11 ****        -1.4314  -0.8637   1.1632 O.2            1 S1                 0.0000
     12 ****        -1.8542   0.6976  -0.4377 N.am           1 S1                 0.0000
     13 ****        -1.5510   1.3699  -1.7110 C.3            1 S1                 0.0000
     14 ****        -0.4786   2.4442  -1.4640 C.3            1 S1                 0.0000
     15 ****        -1.0806   3.7173  -0.3096 S.3            1 S1                 0.0000
     16 ****        -1.7388   2.6592   1.0184 C.3            1 S1                 0.0000
     17 ****        -2.6474   1.5562   0.4489 C.3            1 S1                 0.0000
     18 ****         0.8671  -4.0869  -1.6317 H              1 S1                 0.0000
     19 ****         0.6721  -2.7096  -2.7125 H              1 S1                 0.0000
     20 ****        -0.7432  -3.4898  -2.0103 H              1 S1                 0.0000
     21 ****        -0.0400  -2.7799   0.2546 H              1 S1                 0.0000
     22 ****         2.4264  -2.6983  -0.1263 H              1 S1                 0.0000
     23 ****         2.2441  -1.2910  -1.1543 H              1 S1                 0.0000
     24 ****         1.4318  -2.3238   2.4807 H              1 S1                 0.0000
     25 ****         1.8514  -0.0300   4.0103 H              1 S1                 0.0000
     26 ****         2.4875   0.8909  -0.0740 H              1 S1                 0.0000
     27 ****        -0.4126  -0.6624  -1.7981 H              1 S1                 0.0000
     28 ****        -1.2215   0.6794  -2.4878 H              1 S1                 0.0000
     29 ****        -2.4540   1.8315  -2.1133 H              1 S1                 0.0000
     30 ****         0.4258   1.9929  -1.0555 H              1 S1                 0.0000
     31 ****        -0.1996   2.9263  -2.4010 H              1 S1                 0.0000
     32 ****        -0.9058   2.2202   1.5692 H              1 S1                 0.0000
     33 ****        -2.2918   3.2825   1.7212 H              1 S1                 0.0000
     34 ****        -3.4818   1.9989  -0.0971 H              1 S1                 0.0000
     35 ****        -3.1035   0.9898   1.2623 H              1 S1                 0.0000
     36 ****         2.4648   1.7583   2.3257 H              1 S1                 0.0000
     37 ****        -0.9632  -1.6967   1.4578 LP             1 S1                 0.0000
     38 ****        -2.0293  -0.3749   1.7984 LP             1 S1                 0.0000
@<TRIPOS>BOND
    1    1    2 1     
    2    1   18 1     
    3    1   19 1     
    4    1   20 1     
    5    2    3 1     
    6    2    9 1     
    7    2   21 1     
    8    3    4 1     
    9    3   22 1     
   10    3   23 1     
   11    4    8 1     
   12    4    5 1     
   13    5    6 2     
   14    5   24 1     
   15    6    7 1     
   16    6   25 1     
   17    7    8 2     
   18    7   36 1     
   19    8   26 1     
   20    9   10 am    
   21    9   27 1     
   22   10   11 2     
   23   10   12 am    
   24   12   17 1     
   25   12   13 1     
   26   13   14 1     
   27   13   28 1     
   28   13   29 1     
   29   14   15 1     
   30   14   30 1     
   31   14   31 1     
   32   15   16 1     
   33   16   17 1     
   34   16   32 1     
   35   16   33 1     
   36   17   34 1     
   37   17   35 1     
   38   11   37 1     
   39   11   38 1     
@<TRIPOS>SUBSTRUCTURE
      1 S1             1
@<TRIPOS>SET
LONE_PAIRS      STATIC     ATOMS    <user>   **** ""
2 37 38
DONOR_HYDROGENS      STATIC     ATOMS    <user>   **** ""
2 36 27
ATOM$BLUE        STATIC     ATOMS    COLORGROUP SYSTEM
2 37 38
ATOM$RED        STATIC     ATOMS    COLORGROUP SYSTEM
2 36 27
