#       Name:                AV-unprocessed.smi:1978
#       Creating user name   scv26
#       Creation time:       Fri Mar 27 10:19:22 2020


#       File generated by GOLD software.
#

@<TRIPOS>MOLECULE
AV-unprocessed.smi:1978
    50    51     1
SMALL
NO_CHARGES


@<TRIPOS>ATOM
      1 ****        -2.7663   6.2432   2.9316 C.3            1 S1                 0.0000
      2 ****        -3.0516   5.0706   2.0567 C.2            1 S1                 0.0000
      3 ****        -2.3171   4.4252   1.1028 C.2            1 S1                 0.0000
      4 ****        -3.1884   3.3896   0.6674 C.2            1 S1                 0.0000
      5 ****        -2.9209   2.4818  -0.2840 N.pl3          1 S1                -1.0000
      6 ****        -2.2505   1.3491   0.0250 C.2            1 S1                 0.0000
      7 ****        -1.8286   1.0275   1.1384 O.2            1 S1                 0.0000
      8 ****        -2.0484   0.5398  -1.0246 N.am           1 S1                 0.0000
      9 ****        -1.3310  -0.7317  -0.9942 C.3            1 S1                 0.0000
     10 ****         0.2117  -0.5617  -0.8770 C.3            1 S1                 0.0000
     11 ****         0.7146   0.3400  -2.0348 C.3            1 S1                 0.0000
     12 ****         0.9138  -1.8916  -0.8288 N.4            1 S1                 1.0000
     13 ****         0.5609  -2.7217   0.3639 C.3            1 S1                 0.0000
     14 ****         1.1058  -4.1544   0.2422 C.3            1 S1                 0.0000
     15 ****         2.6206  -4.1617   0.0275 C.3            1 S1                 0.0000
     16 ****         2.9712  -3.2831  -1.1784 C.3            1 S1                 0.0000
     17 ****         2.3996  -1.8554  -1.0466 C.3            1 S1                 0.0000
     18 ****         3.1582  -1.0260   0.0150 C.3            1 S1                 0.0000
     19 ****        -4.3548   3.4151   1.2897 N.2            1 S1                 0.0000
     20 ****        -4.2733   4.4870   2.1867 O.3            1 S1                 0.0000
     21 ****        -2.7488   7.1635   2.3480 H              1 S1                 0.0000
     22 ****        -1.7979   6.1334   3.4197 H              1 S1                 0.0000
     23 ****        -3.5246   6.3488   3.7079 H              1 S1                 0.0000
     24 ****        -1.3158   4.6549   0.7710 H              1 S1                 0.0000
     25 ****        -2.4166   0.8381  -1.9163 H              1 S1                 0.0000
     26 ****        -1.7576  -1.3050  -0.1739 H              1 S1                 0.0000
     27 ****        -1.5752  -1.2761  -1.9069 H              1 S1                 0.0000
     28 ****         0.4298  -0.0472   0.0596 H              1 S1                 0.0000
     29 ****         0.1682   1.2813  -2.0872 H              1 S1                 0.0000
     30 ****         0.6013  -0.1554  -2.9995 H              1 S1                 0.0000
     31 ****         1.7586   0.6277  -1.9225 H              1 S1                 0.0000
     32 ****         0.9291  -2.2476   1.2740 H              1 S1                 0.0000
     33 ****        -0.5140  -2.8151   0.4878 H              1 S1                 0.0000
     34 ****         0.8557  -4.7247   1.1374 H              1 S1                 0.0000
     35 ****         0.6163  -4.6597  -0.5914 H              1 S1                 0.0000
     36 ****         3.1270  -3.7988   0.9223 H              1 S1                 0.0000
     37 ****         2.9722  -5.1809  -0.1348 H              1 S1                 0.0000
     38 ****         4.0533  -3.2470  -1.3109 H              1 S1                 0.0000
     39 ****         2.5728  -3.7456  -2.0826 H              1 S1                 0.0000
     40 ****         2.5946  -1.3994  -2.0160 H              1 S1                 0.0000
     41 ****         4.2245  -0.9994  -0.2102 H              1 S1                 0.0000
     42 ****         3.0532  -1.4363   1.0185 H              1 S1                 0.0000
     43 ****         2.8179   0.0082   0.0499 H              1 S1                 0.0000
     44 ****         0.5511  -2.3994  -1.6227 H              1 S1                 0.0000
     45 ****        -3.2185   2.6437  -1.2249 LP             1 S1                 0.0000
     46 ****        -1.9726   1.6324   1.9216 LP             1 S1                 0.0000
     47 ****        -1.3426   0.1618   1.2580 LP             1 S1                 0.0000
     48 ****        -5.1304   2.7996   1.1495 LP             1 S1                 0.0000
     49 ****        -4.9890   5.1542   1.9801 LP             1 S1                 0.0000
     50 ****        -4.3891   4.1529   3.1221 LP             1 S1                 0.0000
@<TRIPOS>BOND
    1    1    2 1     
    2    1   21 1     
    3    1   22 1     
    4    1   23 1     
    5    2   20 1     
    6    2    3 2     
    7    3    4 1     
    8    3   24 1     
    9    4    5 1     
   10    4   19 2     
   11    5    6 1     
   12    6    7 2     
   13    6    8 am    
   14    8    9 1     
   15    8   25 1     
   16    9   10 1     
   17    9   26 1     
   18    9   27 1     
   19   10   11 1     
   20   10   12 1     
   21   10   28 1     
   22   11   29 1     
   23   11   30 1     
   24   11   31 1     
   25   12   17 1     
   26   12   13 1     
   27   12   44 1     
   28   13   14 1     
   29   13   32 1     
   30   13   33 1     
   31   14   15 1     
   32   14   34 1     
   33   14   35 1     
   34   15   16 1     
   35   15   36 1     
   36   15   37 1     
   37   16   17 1     
   38   16   38 1     
   39   16   39 1     
   40   17   18 1     
   41   17   40 1     
   42   18   41 1     
   43   18   42 1     
   44   18   43 1     
   45   19   20 1     
   46    5   45 1     
   47    7   46 1     
   48    7   47 1     
   49   19   48 1     
   50   20   49 1     
   51   20   50 1     
@<TRIPOS>SUBSTRUCTURE
      1 S1             1
@<TRIPOS>SET
LONE_PAIRS      STATIC     ATOMS    <user>   **** ""
6 45 46 47 48 49 50
DONOR_HYDROGENS      STATIC     ATOMS    <user>   **** ""
2 25 44
ATOM$BLUE        STATIC     ATOMS    COLORGROUP SYSTEM
6 45 46 47 48 49 50
ATOM$RED        STATIC     ATOMS    COLORGROUP SYSTEM
2 25 44
