#       Name:                AV-unprocessed.smi:3336
#       Creating user name   scv26
#       Creation time:       Fri Mar 27 19:25:32 2020


#       File generated by GOLD software.
#

@<TRIPOS>MOLECULE
AV-unprocessed.smi:3336
    47    48     1
SMALL
NO_CHARGES


@<TRIPOS>ATOM
      1 ****        -2.9121  -1.9403   0.4411 C.3            1 S1                 0.0000
      2 ****        -1.8761  -1.3450  -0.5263 C.3            1 S1                 0.0000
      3 ****        -2.1553  -1.7786  -1.9790 C.3            1 S1                 0.0000
      4 ****        -1.3219  -1.0702  -2.9346 N.pl3          1 S1                 0.0000
      5 ****        -0.1622  -1.4991  -3.5458 C.2            1 S1                 0.0000
      6 ****         0.2717  -0.4847  -4.3503 C.2            1 S1                 0.0000
      7 ****        -0.7014   0.5363  -4.1612 C.2            1 S1                 0.0000
      8 ****        -1.6558   0.1821  -3.3157 N.2            1 S1                 0.0000
      9 ****        -0.5420  -1.8105  -0.1440 N.3            1 S1                 0.0000
     10 ****         0.1399  -0.9816   0.8694 C.3            1 S1                 0.0000
     11 ****         1.3776  -1.7345   1.3841 C.3            1 S1                 0.0000
     12 ****         0.5529   0.4131   0.3397 C.2            1 S1                 0.0000
     13 ****         0.7850   0.5304  -0.8652 O.2            1 S1                 0.0000
     14 ****         0.6543   1.4669   1.1889 N.am           1 S1                 0.0000
     15 ****         0.9984   2.8190   0.7345 C.3            1 S1                 0.0000
     16 ****         2.3473   3.2203   1.3558 C.3            1 S1                 0.0000
     17 ****         2.2511   3.1616   2.7760 O.3            1 S1                 0.0000
     18 ****         1.8975   1.8670   3.2538 C.3            1 S1                 0.0000
     19 ****         0.5468   1.4355   2.6528 C.3            1 S1                 0.0000
     20 ****        -3.9212  -1.6314   0.1666 H              1 S1                 0.0000
     21 ****        -2.7437  -1.6120   1.4666 H              1 S1                 0.0000
     22 ****        -2.8868  -3.0305   0.4308 H              1 S1                 0.0000
     23 ****        -1.9442  -0.2576  -0.4792 H              1 S1                 0.0000
     24 ****        -2.0005  -2.8514  -2.1034 H              1 S1                 0.0000
     25 ****        -3.1983  -1.5854  -2.2344 H              1 S1                 0.0000
     26 ****         0.2555  -2.4765  -3.3540 H              1 S1                 0.0000
     27 ****         1.1522  -0.4724  -4.9753 H              1 S1                 0.0000
     28 ****        -0.7423   1.5176  -4.6104 H              1 S1                 0.0000
     29 ****        -0.5849  -2.7826   0.1256 H              1 S1                 0.0000
     30 ****        -0.5595  -0.8677   1.6949 H              1 S1                 0.0000
     31 ****         1.8918  -1.1784   2.1683 H              1 S1                 0.0000
     32 ****         2.0959  -1.9154   0.5830 H              1 S1                 0.0000
     33 ****         1.1000  -2.7021   1.8032 H              1 S1                 0.0000
     34 ****         1.0542   2.9068  -0.3513 H              1 S1                 0.0000
     35 ****         0.2186   3.5138   1.0502 H              1 S1                 0.0000
     36 ****         3.1481   2.5663   1.0068 H              1 S1                 0.0000
     37 ****         2.6115   4.2360   1.0613 H              1 S1                 0.0000
     38 ****         2.6810   1.1507   3.0015 H              1 S1                 0.0000
     39 ****         1.8334   1.8993   4.3416 H              1 S1                 0.0000
     40 ****        -0.2415   2.1199   2.9693 H              1 S1                 0.0000
     41 ****         0.2837   0.4647   3.0646 H              1 S1                 0.0000
     42 ****        -2.4465   0.7205  -3.0244 LP             1 S1                 0.0000
     43 ****         0.0345  -1.7130  -0.9553 LP             1 S1                 0.0000
     44 ****         0.7043  -0.2623  -1.4694 LP             1 S1                 0.0000
     45 ****         1.0541   1.4183  -1.2385 LP             1 S1                 0.0000
     46 ****         1.5550   3.8138   3.0760 LP             1 S1                 0.0000
     47 ****         3.1360   3.4154   3.1667 LP             1 S1                 0.0000
@<TRIPOS>BOND
    1    1    2 1     
    2    1   20 1     
    3    1   21 1     
    4    1   22 1     
    5    2    3 1     
    6    2    9 1     
    7    2   23 1     
    8    3    4 1     
    9    3   24 1     
   10    3   25 1     
   11    4    8 1     
   12    4    5 1     
   13    5    6 2     
   14    5   26 1     
   15    6    7 1     
   16    6   27 1     
   17    7    8 2     
   18    7   28 1     
   19    9   10 1     
   20    9   29 1     
   21   10   11 1     
   22   10   12 1     
   23   10   30 1     
   24   11   31 1     
   25   11   32 1     
   26   11   33 1     
   27   12   13 2     
   28   12   14 am    
   29   14   19 1     
   30   14   15 1     
   31   15   16 1     
   32   15   34 1     
   33   15   35 1     
   34   16   17 1     
   35   16   36 1     
   36   16   37 1     
   37   17   18 1     
   38   18   19 1     
   39   18   38 1     
   40   18   39 1     
   41   19   40 1     
   42   19   41 1     
   43    8   42 1     
   44    9   43 1     
   45   13   44 1     
   46   13   45 1     
   47   17   46 1     
   48   17   47 1     
@<TRIPOS>SUBSTRUCTURE
      1 S1             1
@<TRIPOS>SET
LONE_PAIRS      STATIC     ATOMS    <user>   **** ""
6 42 43 44 45 46 47
DONOR_HYDROGENS      STATIC     ATOMS    <user>   **** ""
1 29
ATOM$BLUE        STATIC     ATOMS    COLORGROUP SYSTEM
6 42 43 44 45 46 47
ATOM$RED        STATIC     ATOMS    COLORGROUP SYSTEM
1 29
