AV-unprocessed.smi:715|AV-procd|sdf|3485|dock6
  -GOLD-   22720 0483D 1   1.00000     0.00000
 Structure written by MMmdl.
 39 40  0  0  0  0  0  0  0  0  1 V2000
  144.0687  132.5066  150.4937 C   0  0  0  0  0  0  0  0  0  0  0  0
  144.3472  133.7855  151.1109 N   0  0  0  0  0  0  0  0  0  0  0  0
  145.4266  134.6196  150.9143 C   0  0  0  0  0  0  0  0  0  0  0  0
  145.2530  135.7135  151.7163 C   0  0  0  0  0  0  0  0  0  0  0  0
  146.1325  136.9252  151.8780 C   0  0  1  0  0  0  0  0  0  0  0  0
  146.3320  137.5747  150.6382 O   0  0  0  0  0  0  0  0  0  0  0  0
  145.4949  137.9306  152.8527 C   0  0  0  0  0  0  0  0  0  0  0  0
  146.1838  139.2140  152.8068 N   0  0  0  0  0  0  0  0  0  0  0  0
  146.9476  139.7005  153.7949 C   0  0  0  0  0  0  0  0  0  0  0  0
  147.1524  139.0954  154.8474 O   0  0  0  0  0  0  0  0  0  0  0  0
  147.5797  141.0756  153.5521 C   0  0  0  0  0  0  0  0  0  0  0  0
  148.6965  141.4292  154.5565 C   0  0  0  0  0  0  0  0  0  0  0  0
  149.8323  140.4024  154.6446 C   0  0  0  0  0  0  0  0  0  0  0  0
  150.4986  140.6522  156.0028 C   0  0  0  0  0  0  0  0  0  0  0  0
  149.4716  141.4117  156.8566 C   0  0  0  0  0  0  0  0  0  0  0  0
  148.2049  141.5231  156.0025 C   0  0  0  0  0  0  0  0  0  0  0  0
  144.0155  135.4475  152.3694 C   0  0  0  0  0  0  0  0  0  0  0  0
  143.4780  134.2938  152.0078 N   0  0  0  0  0  0  0  0  0  0  0  0
  144.8395  132.2693  149.7597 H   0  0  0  0  0  0  0  0  0  0  0  0
  143.1008  132.5412  149.9924 H   0  0  0  0  0  0  0  0  0  0  0  0
  144.0511  131.7260  151.2550 H   0  0  0  0  0  0  0  0  0  0  0  0
  146.2215  134.3712  150.2263 H   0  0  0  0  0  0  0  0  0  0  0  0
  147.1108  136.6258  152.2569 H   0  0  0  0  0  0  0  0  0  0  0  0
  145.5116  137.9556  150.3642 H   0  0  0  0  0  0  0  0  0  0  0  0
  144.4303  138.0571  152.6482 H   0  0  0  0  0  0  0  0  0  0  0  0
  145.5786  137.5474  153.8713 H   0  0  0  0  0  0  0  0  0  0  0  0
  146.0596  139.7724  151.9749 H   0  0  0  0  0  0  0  0  0  0  0  0
  147.9844  141.0830  152.5397 H   0  0  0  0  0  0  0  0  0  0  0  0
  146.8044  141.8430  153.5789 H   0  0  0  0  0  0  0  0  0  0  0  0
  149.1285  142.3959  154.2909 H   0  0  0  0  0  0  0  0  0  0  0  0
  149.4203  139.3923  154.6250 H   0  0  0  0  0  0  0  0  0  0  0  0
  150.5381  140.4852  153.8173 H   0  0  0  0  0  0  0  0  0  0  0  0
  150.8007  139.7143  156.4701 H   0  0  0  0  0  0  0  0  0  0  0  0
  151.3972  141.2581  155.8787 H   0  0  0  0  0  0  0  0  0  0  0  0
  149.2738  140.9101  157.8043 H   0  0  0  0  0  0  0  0  0  0  0  0
  149.8525  142.4074  157.0878 H   0  0  0  0  0  0  0  0  0  0  0  0
  147.6512  142.4421  156.1974 H   0  0  0  0  0  0  0  0  0  0  0  0
  147.5429  140.6853  156.2262 H   0  0  0  0  0  0  0  0  0  0  0  0
  143.4946  136.0577  153.0924 H   0  0  0  0  0  0  0  0  0  0  0  0
  1  2  1  0  0  0  0
  1 19  1  0  0  0  0
  1 20  1  0  0  0  0
  1 21  1  0  0  0  0
  2 18  1  0  0  0  0
  2  3  1  0  0  0  0
  3  4  2  0  0  0  0
  3 22  1  0  0  0  0
  4  5  1  0  0  0  0
  4 17  1  0  0  0  0
  5  6  1  0  0  0  0
  5  7  1  0  0  0  0
  5 23  1  0  0  0  0
  6 24  1  0  0  0  0
  7  8  1  0  0  0  0
  7 25  1  0  0  0  0
  7 26  1  0  0  0  0
  8  9  1  0  0  0  0
  8 27  1  0  0  0  0
  9 10  2  0  0  0  0
  9 11  1  0  0  0  0
 11 12  1  0  0  0  0
 11 28  1  0  0  0  0
 11 29  1  0  0  0  0
 12 16  1  0  0  0  0
 12 13  1  0  0  0  0
 12 30  1  0  0  0  0
 13 14  1  0  0  0  0
 13 31  1  0  0  0  0
 13 32  1  0  0  0  0
 14 15  1  0  0  0  0
 14 33  1  0  0  0  0
 14 34  1  0  0  0  0
 15 16  1  0  0  0  0
 15 35  1  0  0  0  0
 15 36  1  0  0  0  0
 16 37  1  0  0  0  0
 16 38  1  0  0  0  0
 17 18  2  0  0  0  0
 17 39  1  0  0  0  0
M  END
> <s_m_source_file>
AV-unprocessed.smi

> <i_m_source_file_index>
715

> <i_lp_mmshare_version>
43012

> <i_f3d_flags>
0

> <s_epik_input>
W0NIM11uMVtjSF1jKFtjSF1uMSlbQ0BIXShbT0hdKVtDSDJdW05IXUMoPU8pW0NIMl1bQ0hdMltDSDJdW0NIMl1bQ0gyXVtDSDJdMg==

> <s_epik_cmdline>
J2VwaWtfcHl0aG9uJywgJy1waCcsICc3LjAnLCAnLXRuJywgJzgnLCAnLW1hJywgJzIwMCcsICctbWV0YWxfYmluZGluZycsICctaW1hZScsICc8aW5maWxlLm1hZT4nLCAnLW9tYWUnLCAnPG91dGZpbGUubWFlPic=

> <r_lp_tautomer_probability>
1

> <r_epik_Ionization_Penalty>
4.45533e-05

> <r_epik_Ionization_Penalty_Charging>
0

> <r_epik_Ionization_Penalty_Neutral>
4.45533e-05

> <r_epik_State_Penalty>
-0

> <r_epik_Charging_Adjusted_Penalty>
0

> <i_epik_Tot_Q>
0

> <i_epik_Tot_abs_Q>
0

> <r_epik_Metal_State_Penalty>
-0

> <b_epik_Metal_Only>
0

> <s_lp_Force_Field>
OPLS_2005

> <r_lp_Energy>
19.2831

> <b_lp_Chiralities_Consistent>
1

> <s_lp_Variant>
AV-unprocessed.smi:715-2

> <Gold.Version>
5.8.1

> <Gold.Id.Protein>
6NUR|6NUR_protein|mol2

> <Gold.PLP.Fitness>
41.4003

> <Gold.PLP.PLP>
-33.1390

> <Gold.PLP.part.hbond>
-3.2739

> <Gold.PLP.part.metal>
0.0000

> <Gold.PLP.part.buried>
0.5919

> <Gold.PLP.part.nonpolar>
-30.6070

> <Gold.PLP.part.repulsive>
0.2862

> <Gold.PLP.ligand.clash>
0.0000

> <Gold.PLP.ligand.torsion>
0.3053

> <Gold.PLP.Chemscore.Hbond>
1.9440

> <Gold.PLP.Chemscore.CHOScore>
1.0000

> <Gold.PLP.Chemscore.Metal>
0.0000

> <Gold.Chemscore.Hbonds>
donor molecule, donor type, donor heavy atom, donor atom, acceptor molecule, acceptor atom, score
      L1  H     6    24       P1 10171  1.00
      P1  H  7954  7966       L1     6  0.99
      L1  C     3    22       P1  7921  0.69

> <Gold.PLP.Chemscore.Internal.Correction>
0.0398

> <Gold.Rescore>
     Score         DG    S(hbond)    S(metal)    S(lipo)     H(rot)  DE(clash)    DE(int)     intcor
     10.86     -14.69       1.94        0.00      73.28       2.29       1.36       2.48       ----

> <Gold.Chemscore.Fitness>
10.8621

> <Gold.Chemscore.DG>
-14.6944

> <Gold.Chemscore.ZeroCoef>
-5.4800

> <Gold.Chemscore.Hbond>
1.9443

> <Gold.Chemscore.Metal>
0.0000

> <Gold.Chemscore.Lipo>
73.2848

> <Gold.Chemscore.Internal_Hbond>
0.0000

> <Gold.Chemscore.DEClash>
1.3566

> <Gold.Chemscore.DEInternal>
2.4757

> <Gold.Chemscore.Rot>
2.2866

> <Gold.Chemscore.Internal.Correction>
   9.000000E+99

> <Gold.Chemscore.Hbonds>
donor molecule, donor type, donor heavy atom, donor atom, acceptor molecule, acceptor atom, score
      L1  H     6    24       P1 10171  1.00
      P1  H  7954  7966       L1     6  0.89

> <Gold.Chemscore.Hbond.Weighted>
-6.4939

> <Gold.Chemscore.Metal.Weighted>
-0.0000

> <Gold.Chemscore.Lipo.Weighted>
-8.5743

> <Gold.Chemscore.Internal_Hbond.Weighted>
0.0000

> <Gold.Chemscore.DEClash.Weighted>
1.3566

> <Gold.Chemscore.DEInternal.Weighted>
2.4757

> <Gold.Chemscore.Rot.Weighted>
5.8538

> <Gold.Chemscore.Internal.Correction.Weighted>
   9.000000E+99

> <Gold.Protein.RotatedTorsions>
[ 6907 6896 6895 6894 ] final -111.80 input  -60.11 | X-H torsion
[ 7974 7965 7964 7962 ] final  122.53 input  175.53 | X-H torsion
[ 8008 7997 7996 7995 ] final  123.62 input   59.86 | X-H torsion
[ 10167 10162 10161 10158 ] final  110.09 input  -65.29 | X-H torsion
[ 10718 10713 10712 10709 ] final  -76.41 input   66.30 | X-H torsion
[ 10763 10752 10751 10750 ] final  177.93 input  -60.55 | X-H torsion
[ 11005 11000 10999 10996 ] final  -24.03 input  -57.11 | X-H torsion

> <Gold.Protein.ActiveResidues>
 VAL166  LYS551  ARG553  GLY616  TRP617  ASP618  TYR619  PRO620  LYS621  CYS622 
 ASP623  PHE694  ASN695  SER759  ASP760  ASP761  ALA762  ILE779  LEU786  VAL792 
 PHE793  MET794  SER795  GLU796  ALA797  LYS798  CYS799  TRP800  GLU811  SER814 

> <Gold.Protein.RotatedAtoms>
  150.7715  133.9182  159.3389 H   0  0  0  0  0  0  0  0  0  0  0  0  # atno 6907 bound_to 6896
  151.7068  135.0918  160.0270 H   0  0  0  0  0  0  0  0  0  0  0  0  # atno 6908 bound_to 6896
  152.3734  133.6411  159.6140 H   0  0  0  0  0  0  0  0  0  0  0  0  # atno 6909 bound_to 6896
  145.1065  139.3482  143.4785 H   0  0  0  0  0  0  0  0  0  0  0  0  # atno 7974 bound_to 7965
  156.2772  140.2758  156.1657 H   0  0  0  0  0  0  0  0  0  0  0  0  # atno 8008 bound_to 7997
  155.0707  140.0387  157.2625 H   0  0  0  0  0  0  0  0  0  0  0  0  # atno 8009 bound_to 7997
  154.7043  140.2655  155.6695 H   0  0  0  0  0  0  0  0  0  0  0  0  # atno 8010 bound_to 7997
  139.6715  144.7125  151.1678 H   0  0  0  0  0  0  0  0  0  0  0  0  # atno 10167 bound_to 10162
  156.0176  130.4465  150.3189 H   0  0  0  0  0  0  0  0  0  0  0  0  # atno 10718 bound_to 10713
  154.5010  135.2783  155.1421 H   0  0  0  0  0  0  0  0  0  0  0  0  # atno 10763 bound_to 10752
  154.3054  135.6239  153.5446 H   0  0  0  0  0  0  0  0  0  0  0  0  # atno 10764 bound_to 10752
  152.9902  135.5707  154.5453 H   0  0  0  0  0  0  0  0  0  0  0  0  # atno 10765 bound_to 10752
  140.8807  133.7656  156.0299 H   0  0  0  0  0  0  0  0  0  0  0  0  # atno 11005 bound_to 11000
  146.3528  140.0965  142.8610 LP  0  0  0  0  0  0  0  0  0  0  0  0  # atno 17320 bound_to 7965
  145.0895  140.9275  143.4777 LP  0  0  0  0  0  0  0  0  0  0  0  0  # atno 17321 bound_to 7965
  140.7620  143.5836  150.8869 LP  0  0  0  0  0  0  0  0  0  0  0  0  # atno 17342 bound_to 10162
  139.9502  143.6281  152.3031 LP  0  0  0  0  0  0  0  0  0  0  0  0  # atno 17343 bound_to 10162
  157.1290  131.0266  151.2977 LP  0  0  0  0  0  0  0  0  0  0  0  0  # atno 17370 bound_to 10713
  157.4566  130.7629  149.7199 LP  0  0  0  0  0  0  0  0  0  0  0  0  # atno 17371 bound_to 10713
  140.8464  134.3005  157.5293 LP  0  0  0  0  0  0  0  0  0  0  0  0  # atno 17394 bound_to 11000
  139.8719  134.9444  156.3881 LP  0  0  0  0  0  0  0  0  0  0  0  0  # atno 17395 bound_to 11000

$$$$
