AV-unprocessed.smi:3353|AV-procd|sdf|12954|dock10
  -GOLD-   2272019393D 1   1.00000     0.00000
 Structure written by MMmdl.
 43 44  0  0  0  0  0  0  0  0  2 V2000
  151.1624  142.6594  158.4885 C   0  0  0  0  0  0  0  0  0  0  0  0
  151.2098  142.9113  156.9765 C   0  0  0  0  0  0  0  0  0  0  0  0
  150.9657  141.6976  156.2217 N   0  0  0  0  0  0  0  0  0  0  0  0
  149.9804  141.4596  155.2841 C   0  0  0  0  0  0  0  0  0  0  0  0
  150.1748  140.1748  154.8619 C   0  0  0  0  0  0  0  0  0  0  0  0
  149.4471  139.4210  153.9068 N   0  0  0  0  0  0  0  0  0  0  0  0
  148.1317  139.4893  153.6451 C   0  0  0  0  0  0  0  0  0  0  0  0
  147.3360  140.2414  154.2076 O   0  0  0  0  0  0  0  0  0  0  0  0
  147.7829  138.6257  152.6817 N   0  0  0  0  0  0  0  0  0  0  0  0
  146.4306  138.4438  152.1615 C   0  0  0  0  0  0  0  0  0  0  0  0
  145.7261  137.2196  152.7949 C   0  0  1  0  0  0  0  0  0  0  0  0
  144.1916  137.3263  152.6417 C   0  0  0  0  0  0  0  0  0  0  0  0
  146.2348  135.9458  152.2058 N   0  3  0  0  0  0  0  0  0  0  0  0
  146.0555  134.7443  153.0497 C   0  0  0  0  0  0  0  0  0  0  0  0
  146.1881  133.5416  152.1127 C   0  0  0  0  0  0  0  0  0  0  0  0
  145.9307  134.0879  150.7063 C   0  0  0  0  0  0  0  0  0  0  0  0
  145.6627  135.5836  150.8905 C   0  0  0  0  0  0  0  0  0  0  0  0
  151.2969  139.6951  155.5863 C   0  0  0  0  0  0  0  0  0  0  0  0
  151.7694  140.6211  156.4068 N   0  0  0  0  0  0  0  0  0  0  0  0
  151.3579  143.5785  159.0410 H   0  0  0  0  0  0  0  0  0  0  0  0
  151.9106  141.9249  158.7877 H   0  0  0  0  0  0  0  0  0  0  0  0
  150.1847  142.2881  158.7969 H   0  0  0  0  0  0  0  0  0  0  0  0
  150.4674  143.6580  156.6918 H   0  0  0  0  0  0  0  0  0  0  0  0
  152.1848  143.3085  156.6918 H   0  0  0  0  0  0  0  0  0  0  0  0
  149.2533  142.2110  155.0137 H   0  0  0  0  0  0  0  0  0  0  0  0
  149.9873  138.7607  153.3671 H   0  0  0  0  0  0  0  0  0  0  0  0
  148.5079  138.0514  152.2768 H   0  0  0  0  0  0  0  0  0  0  0  0
  145.8230  139.3357  152.3260 H   0  0  0  0  0  0  0  0  0  0  0  0
  146.5275  138.3266  151.0824 H   0  0  0  0  0  0  0  0  0  0  0  0
  145.9560  137.2091  153.8618 H   0  0  0  0  0  0  0  0  0  0  0  0
  143.8055  138.2565  153.0582 H   0  0  0  0  0  0  0  0  0  0  0  0
  143.6719  136.5244  153.1653 H   0  0  0  0  0  0  0  0  0  0  0  0
  143.8960  137.2885  151.5928 H   0  0  0  0  0  0  0  0  0  0  0  0
  146.7820  134.7012  153.8616 H   0  0  0  0  0  0  0  0  0  0  0  0
  145.0566  134.7542  153.4895 H   0  0  0  0  0  0  0  0  0  0  0  0
  147.1953  133.1269  152.1699 H   0  0  0  0  0  0  0  0  0  0  0  0
  145.4904  132.7473  152.3804 H   0  0  0  0  0  0  0  0  0  0  0  0
  146.8129  133.9346  150.0833 H   0  0  0  0  0  0  0  0  0  0  0  0
  145.0930  133.5888  150.2178 H   0  0  0  0  0  0  0  0  0  0  0  0
  144.5860  135.7619  150.9008 H   0  0  0  0  0  0  0  0  0  0  0  0
  146.0951  136.1721  150.0808 H   0  0  0  0  0  0  0  0  0  0  0  0
  151.7743  138.7271  155.5454 H   0  0  0  0  0  0  0  0  0  0  0  0
  147.2295  136.0511  152.0646 H   0  0  0  0  0  0  0  0  0  0  0  0
  1  2  1  0  0  0  0
  1 20  1  0  0  0  0
  1 21  1  0  0  0  0
  1 22  1  0  0  0  0
  2  3  1  0  0  0  0
  2 23  1  0  0  0  0
  2 24  1  0  0  0  0
  3 19  1  0  0  0  0
  3  4  1  0  0  0  0
  4  5  2  0  0  0  0
  4 25  1  0  0  0  0
  5  6  1  0  0  0  0
  5 18  1  0  0  0  0
  6  7  1  0  0  0  0
  6 26  1  0  0  0  0
  7  8  2  0  0  0  0
  7  9  1  0  0  0  0
  9 10  1  0  0  0  0
  9 27  1  0  0  0  0
 10 11  1  0  0  0  0
 10 28  1  0  0  0  0
 10 29  1  0  0  0  0
 11 12  1  0  0  0  0
 11 13  1  0  0  0  0
 11 30  1  0  0  0  0
 12 31  1  0  0  0  0
 12 32  1  0  0  0  0
 12 33  1  0  0  0  0
 13 17  1  0  0  0  0
 13 14  1  0  0  0  0
 13 43  1  0  0  0  0
 14 15  1  0  0  0  0
 14 34  1  0  0  0  0
 14 35  1  0  0  0  0
 15 16  1  0  0  0  0
 15 36  1  0  0  0  0
 15 37  1  0  0  0  0
 16 17  1  0  0  0  0
 16 38  1  0  0  0  0
 16 39  1  0  0  0  0
 17 40  1  0  0  0  0
 17 41  1  0  0  0  0
 18 19  2  0  0  0  0
 18 42  1  0  0  0  0
M  CHG  1  13   1
M  END
> <s_m_source_file>
AV-unprocessed.smi

> <i_m_source_file_index>
3353

> <i_lp_mmshare_version>
43012

> <i_f3d_flags>
0

> <s_epik_input>
W0NIM11bQ0gyXW4xW2NIXWMoW2NIXW4xKVtOSF1DKD1PKVtOSF1bQ0gyXVtDQEhdKFtDSDNdKU4yW0NIMl1bQ0gyXVtDSDJdW0NIMl0y

> <s_epik_cmdline>
J2VwaWtfcHl0aG9uJywgJy1waCcsICc3LjAnLCAnLXRuJywgJzgnLCAnLW1hJywgJzIwMCcsICctbWV0YWxfYmluZGluZycsICctaW1hZScsICc8aW5maWxlLm1hZT4nLCAnLW9tYWUnLCAnPG91dGZpbGUubWFlPic=

> <r_lp_tautomer_probability>
1

> <r_epik_Ionization_Penalty>
0.000914091

> <r_epik_Ionization_Penalty_Charging>
0.000761583

> <r_epik_Ionization_Penalty_Neutral>
0.000152508

> <r_epik_State_Penalty>
0.000487427

> <r_epik_Charging_Adjusted_Penalty>
0.00124901

> <i_epik_Tot_Q>
1

> <i_epik_Tot_abs_Q>
1

> <r_epik_Metal_State_Penalty>
-0

> <b_epik_Metal_Only>
0

> <s_lp_Force_Field>
OPLS_2005

> <r_lp_Energy>
35.4291

> <b_lp_Chiralities_Consistent>
1

> <s_lp_Variant>
AV-unprocessed.smi:3353-2

> <Gold.Version>
5.8.1

> <Gold.Id.Protein>
6NUR|6NUR_protein|mol2

> <Gold.PLP.Fitness>
44.5691

> <Gold.PLP.PLP>
-34.7274

> <Gold.PLP.part.hbond>
-4.0000

> <Gold.PLP.part.metal>
0.0000

> <Gold.PLP.part.buried>
-1.7717

> <Gold.PLP.part.nonpolar>
-29.7949

> <Gold.PLP.part.repulsive>
0.2858

> <Gold.PLP.ligand.clash>
0.0000

> <Gold.PLP.ligand.torsion>
0.9049

> <Gold.PLP.Chemscore.Hbond>
2.9120

> <Gold.PLP.Chemscore.CHOScore>
0.9570

> <Gold.PLP.Chemscore.Metal>
0.0000

> <Gold.Chemscore.Hbonds>
donor molecule, donor type, donor heavy atom, donor atom, acceptor molecule, acceptor atom, score
      L1  H     9    27       P1  7948  0.88
      L1  H    13    43       P1  7948  2.00
      L1  C     4    25       P1  8028  0.81

> <Gold.PLP.Chemscore.Internal.Correction>
0.0447

> <Gold.Rescore>
     Score         DG    S(hbond)    S(metal)    S(lipo)     H(rot)  DE(clash)    DE(int)     intcor
     15.97     -16.66       1.93        0.00      75.81       1.61       0.07       0.63       ----

> <Gold.Chemscore.Fitness>
15.9666

> <Gold.Chemscore.DG>
-16.6643

> <Gold.Chemscore.ZeroCoef>
-5.4800

> <Gold.Chemscore.Hbond>
1.9282

> <Gold.Chemscore.Metal>
0.0000

> <Gold.Chemscore.Lipo>
75.8120

> <Gold.Chemscore.Internal_Hbond>
0.0000

> <Gold.Chemscore.DEClash>
0.0678

> <Gold.Chemscore.DEInternal>
0.6299

> <Gold.Chemscore.Rot>
1.6117

> <Gold.Chemscore.Internal.Correction>
   9.000000E+99

> <Gold.Chemscore.Hbonds>
donor molecule, donor type, donor heavy atom, donor atom, acceptor molecule, acceptor atom, score
      L1  H     9    27       P1  7948  0.86
      L1  H    13    43       P1  7948  1.00

> <Gold.Chemscore.Hbond.Weighted>
-6.4403

> <Gold.Chemscore.Metal.Weighted>
-0.0000

> <Gold.Chemscore.Lipo.Weighted>
-8.8700

> <Gold.Chemscore.Internal_Hbond.Weighted>
0.0000

> <Gold.Chemscore.DEClash.Weighted>
0.0678

> <Gold.Chemscore.DEInternal.Weighted>
0.6299

> <Gold.Chemscore.Rot.Weighted>
4.1260

> <Gold.Chemscore.Internal.Correction.Weighted>
   9.000000E+99

> <Gold.Protein.RotatedTorsions>
[ 6907 6896 6895 6894 ] final  -77.51 input  -60.11 | X-H torsion
[ 7974 7965 7964 7962 ] final  163.23 input  175.53 | X-H torsion
[ 8008 7997 7996 7995 ] final -106.56 input   59.86 | X-H torsion
[ 10167 10162 10161 10158 ] final   58.04 input  -65.29 | X-H torsion
[ 10718 10713 10712 10709 ] final  -51.05 input   66.30 | X-H torsion
[ 10763 10752 10751 10750 ] final  -36.73 input  -60.55 | X-H torsion
[ 11005 11000 10999 10996 ] final  -81.56 input  -57.11 | X-H torsion

> <Gold.Protein.ActiveResidues>
 VAL166  LYS551  ARG553  GLY616  TRP617  ASP618  TYR619  PRO620  LYS621  CYS622 
 ASP623  PHE694  ASN695  SER759  ASP760  ASP761  ALA762  ILE779  LEU786  VAL792 
 PHE793  MET794  SER795  GLU796  ALA797  LYS798  CYS799  TRP800  GLU811  SER814 

> <Gold.Protein.RotatedAtoms>
  150.6997  134.4411  159.5292 H   0  0  0  0  0  0  0  0  0  0  0  0  # atno 6907 bound_to 6896
  152.2121  134.8489  160.0505 H   0  0  0  0  0  0  0  0  0  0  0  0  # atno 6908 bound_to 6896
  151.9370  133.3592  159.3988 H   0  0  0  0  0  0  0  0  0  0  0  0  # atno 6909 bound_to 6896
  144.7599  139.8152  143.6336 H   0  0  0  0  0  0  0  0  0  0  0  0  # atno 7974 bound_to 7965
  154.9163  140.0408  157.1974 H   0  0  0  0  0  0  0  0  0  0  0  0  # atno 8008 bound_to 7997
  154.8298  140.2897  155.5709 H   0  0  0  0  0  0  0  0  0  0  0  0  # atno 8009 bound_to 7997
  156.2986  140.2503  156.3221 H   0  0  0  0  0  0  0  0  0  0  0  0  # atno 8010 bound_to 7997
  140.1915  144.4080  150.6569 H   0  0  0  0  0  0  0  0  0  0  0  0  # atno 10167 bound_to 10162
  156.1745  130.4149  149.9597 H   0  0  0  0  0  0  0  0  0  0  0  0  # atno 10718 bound_to 10713
  153.8846  135.6818  153.4764 H   0  0  0  0  0  0  0  0  0  0  0  0  # atno 10763 bound_to 10752
  153.1215  135.4738  154.9200 H   0  0  0  0  0  0  0  0  0  0  0  0  # atno 10764 bound_to 10752
  154.7652  135.3222  154.8252 H   0  0  0  0  0  0  0  0  0  0  0  0  # atno 10765 bound_to 10752
  141.1666  133.7202  156.8441 H   0  0  0  0  0  0  0  0  0  0  0  0  # atno 11005 bound_to 11000
  146.1652  139.4780  142.9963 LP  0  0  0  0  0  0  0  0  0  0  0  0  # atno 17320 bound_to 7965
  145.6653  141.0230  143.1687 LP  0  0  0  0  0  0  0  0  0  0  0  0  # atno 17321 bound_to 7965
  140.6452  143.2212  151.6201 LP  0  0  0  0  0  0  0  0  0  0  0  0  # atno 17342 bound_to 10162
  139.5254  144.3076  152.1020 LP  0  0  0  0  0  0  0  0  0  0  0  0  # atno 17343 bound_to 10162
  156.7387  130.9071  151.3631 LP  0  0  0  0  0  0  0  0  0  0  0  0  # atno 17370 bound_to 10713
  157.6826  130.9154  150.0305 LP  0  0  0  0  0  0  0  0  0  0  0  0  # atno 17371 bound_to 10713
  140.1963  134.8930  157.3118 LP  0  0  0  0  0  0  0  0  0  0  0  0  # atno 17394 bound_to 11000
  140.2236  134.3994  155.7554 LP  0  0  0  0  0  0  0  0  0  0  0  0  # atno 17395 bound_to 11000

$$$$
