AV-unprocessed.smi:1306|AV-procd|sdf|5434|dock7
  -GOLD-   22720 4593D 1   1.00000     0.00000
 Structure written by MMmdl.
 39 40  0  0  0  0  0  0  0  0  1 V2000
  150.2096  140.0466  154.1331 O   0  0  0  0  0  0  0  0  0  0  0  0
  149.2027  140.4978  154.6812 C   0  0  0  0  0  0  0  0  0  0  0  0
  147.9478  140.8433  153.8662 C   0  0  0  0  0  0  0  0  0  0  0  0
  147.0947  139.6774  153.5931 N   0  0  0  0  0  0  0  0  0  0  0  0
  147.0393  139.1345  152.3171 C   0  0  0  0  0  0  0  0  0  0  0  0
  146.2827  138.0582  151.9968 C   0  0  0  0  0  0  0  0  0  0  0  0
  145.4668  137.4007  153.0118 C   0  0  0  0  0  0  0  0  0  0  0  0
  144.7478  136.4226  152.8194 O   0  0  0  0  0  0  0  0  0  0  0  0
  145.5514  137.9742  154.2833 N   0  0  0  0  0  0  0  0  0  0  0  0
  146.3309  139.0819  154.6208 C   0  0  0  0  0  0  0  0  0  0  0  0
  146.3372  139.5051  155.7762 O   0  0  0  0  0  0  0  0  0  0  0  0
  149.1284  140.7309  156.0001 N   0  0  0  0  0  0  0  0  0  0  0  0
  150.1895  140.4580  156.9636 C   0  0  0  0  0  0  0  0  0  0  0  0
  150.7689  141.7492  157.5642 C   0  0  0  0  0  0  0  0  0  0  0  0
  152.2043  141.4227  158.6278 S   0  0  0  0  0  0  0  0  0  0  0  0
  152.5197  143.0908  159.2718 C   0  0  0  0  0  0  0  0  0  0  0  0
  152.0644  143.2517  160.7241 C   0  0  0  0  0  0  0  0  0  0  0  0
  151.7961  144.7515  160.9105 C   0  0  0  0  0  0  0  0  0  0  0  0
  151.7276  145.3613  159.5021 C   0  0  0  0  0  0  0  0  0  0  0  0
  151.7457  144.1802  158.5293 C   0  0  0  0  0  0  0  0  0  0  0  0
  145.0051  137.5507  155.0192 H   0  0  0  0  0  0  0  0  0  0  0  0
  147.3743  141.6139  154.3859 H   0  0  0  0  0  0  0  0  0  0  0  0
  148.2670  141.3050  152.9307 H   0  0  0  0  0  0  0  0  0  0  0  0
  147.6308  139.5869  151.5338 H   0  0  0  0  0  0  0  0  0  0  0  0
  146.2822  137.6813  150.9843 H   0  0  0  0  0  0  0  0  0  0  0  0
  148.2655  141.1049  156.3676 H   0  0  0  0  0  0  0  0  0  0  0  0
  149.8101  139.8129  157.7577 H   0  0  0  0  0  0  0  0  0  0  0  0
  150.9763  139.8953  156.4610 H   0  0  0  0  0  0  0  0  0  0  0  0
  151.0579  142.4434  156.7744 H   0  0  0  0  0  0  0  0  0  0  0  0
  150.0038  142.2485  158.1585 H   0  0  0  0  0  0  0  0  0  0  0  0
  153.5890  143.2992  159.2109 H   0  0  0  0  0  0  0  0  0  0  0  0
  151.1369  142.7002  160.8858 H   0  0  0  0  0  0  0  0  0  0  0  0
  152.7995  142.8689  161.4325 H   0  0  0  0  0  0  0  0  0  0  0  0
  150.8662  144.9099  161.4578 H   0  0  0  0  0  0  0  0  0  0  0  0
  152.5951  145.2208  161.4853 H   0  0  0  0  0  0  0  0  0  0  0  0
  150.8467  145.9892  159.3644 H   0  0  0  0  0  0  0  0  0  0  0  0
  152.6050  145.9873  159.3339 H   0  0  0  0  0  0  0  0  0  0  0  0
  152.1958  144.4405  157.5710 H   0  0  0  0  0  0  0  0  0  0  0  0
  150.7239  143.8488  158.3387 H   0  0  0  0  0  0  0  0  0  0  0  0
  1  2  2  0  0  0  0
  2  3  1  0  0  0  0
  2 12  1  0  0  0  0
  3  4  1  0  0  0  0
  3 22  1  0  0  0  0
  3 23  1  0  0  0  0
  4 10  1  0  0  0  0
  4  5  1  0  0  0  0
  5  6  2  0  0  0  0
  5 24  1  0  0  0  0
  6  7  1  0  0  0  0
  6 25  1  0  0  0  0
  7  8  2  0  0  0  0
  7  9  1  0  0  0  0
  9 21  1  0  0  0  0
  9 10  1  0  0  0  0
 10 11  2  0  0  0  0
 12 13  1  0  0  0  0
 12 26  1  0  0  0  0
 13 14  1  0  0  0  0
 13 27  1  0  0  0  0
 13 28  1  0  0  0  0
 14 15  1  0  0  0  0
 14 29  1  0  0  0  0
 14 30  1  0  0  0  0
 15 16  1  0  0  0  0
 16 20  1  0  0  0  0
 16 17  1  0  0  0  0
 16 31  1  0  0  0  0
 17 18  1  0  0  0  0
 17 32  1  0  0  0  0
 17 33  1  0  0  0  0
 18 19  1  0  0  0  0
 18 34  1  0  0  0  0
 18 35  1  0  0  0  0
 19 20  1  0  0  0  0
 19 36  1  0  0  0  0
 19 37  1  0  0  0  0
 20 38  1  0  0  0  0
 20 39  1  0  0  0  0
M  END
> <s_m_source_file>
AV-unprocessed.smi

> <i_m_source_file_index>
1306

> <i_lp_mmshare_version>
43012

> <i_f3d_flags>
0

> <s_epik_input>
Tz1jMVtuSF1jKD1PKVtjSF1bY0hdbjFbQ0gyXUMoPU8pW05IXVtDSDJdW0NIMl1TW0NIXTJbQ0gyXVtDSDJdW0NIMl1bQ0gyXTI=

> <s_epik_cmdline>
J2VwaWtfcHl0aG9uJywgJy1waCcsICc3LjAnLCAnLXRuJywgJzgnLCAnLW1hJywgJzIwMCcsICctbWV0YWxfYmluZGluZycsICctaW1hZScsICc8aW5maWxlLm1hZT4nLCAnLW9tYWUnLCAnPG91dGZpbGUubWFlPic=

> <r_lp_tautomer_probability>
0.999537

> <r_epik_Ionization_Penalty>
0.00337646

> <r_epik_Ionization_Penalty_Charging>
0.00337644

> <r_epik_Ionization_Penalty_Neutral>
2.37506e-08

> <r_epik_State_Penalty>
0.00238979

> <r_epik_Charging_Adjusted_Penalty>
0.00576623

> <i_epik_Tot_Q>
0

> <i_epik_Tot_abs_Q>
0

> <r_epik_Metal_State_Penalty>
0.366399

> <b_epik_Metal_Only>
0

> <s_lp_Force_Field>
OPLS_2005

> <r_lp_Energy>
19.0409

> <b_lp_Chiralities_Consistent>
1

> <s_lp_Variant>
AV-unprocessed.smi:1306-1

> <Gold.Version>
5.8.1

> <Gold.Id.Protein>
6NUR|6NUR_protein|mol2

> <Gold.PLP.Fitness>
44.8355

> <Gold.PLP.PLP>
-41.0903

> <Gold.PLP.part.hbond>
-1.0000

> <Gold.PLP.part.metal>
0.0000

> <Gold.PLP.part.buried>
-3.1490

> <Gold.PLP.part.nonpolar>
-39.2255

> <Gold.PLP.part.repulsive>
1.2056

> <Gold.PLP.ligand.clash>
0.0000

> <Gold.PLP.ligand.torsion>
1.1513

> <Gold.PLP.Chemscore.Hbond>
1.0000

> <Gold.PLP.Chemscore.CHOScore>
1.0000

> <Gold.PLP.Chemscore.Metal>
0.0000

> <Gold.Chemscore.Hbonds>
donor molecule, donor type, donor heavy atom, donor atom, acceptor molecule, acceptor atom, score
      P1  H  7989  7998       L1     1  1.00
      L1  C     5    24       P1  7957  0.98

> <Gold.PLP.Chemscore.Internal.Correction>
0.0478

> <Gold.Rescore>
     Score         DG    S(hbond)    S(metal)    S(lipo)     H(rot)  DE(clash)    DE(int)     intcor
     13.54     -14.85       0.95        0.00     106.47       2.45       0.16       1.14       ----

> <Gold.Chemscore.Fitness>
13.5436

> <Gold.Chemscore.DG>
-14.8519

> <Gold.Chemscore.ZeroCoef>
-5.4800

> <Gold.Chemscore.Hbond>
0.9516

> <Gold.Chemscore.Metal>
0.0000

> <Gold.Chemscore.Lipo>
106.4741

> <Gold.Chemscore.Internal_Hbond>
0.0000

> <Gold.Chemscore.DEClash>
0.1639

> <Gold.Chemscore.DEInternal>
1.1444

> <Gold.Chemscore.Rot>
2.4469

> <Gold.Chemscore.Internal.Correction>
   9.000000E+99

> <Gold.Chemscore.Hbonds>
donor molecule, donor type, donor heavy atom, donor atom, acceptor molecule, acceptor atom, score
      P1  H  7989  7998       L1     1  0.95

> <Gold.Chemscore.Hbond.Weighted>
-3.1784

> <Gold.Chemscore.Metal.Weighted>
-0.0000

> <Gold.Chemscore.Lipo.Weighted>
-12.4575

> <Gold.Chemscore.Internal_Hbond.Weighted>
0.0000

> <Gold.Chemscore.DEClash.Weighted>
0.1639

> <Gold.Chemscore.DEInternal.Weighted>
1.1444

> <Gold.Chemscore.Rot.Weighted>
6.2640

> <Gold.Chemscore.Internal.Correction.Weighted>
   9.000000E+99

> <Gold.Protein.RotatedTorsions>
[ 6907 6896 6895 6894 ] final  143.29 input  -60.11 | X-H torsion
[ 7974 7965 7964 7962 ] final   60.82 input  175.53 | X-H torsion
[ 8008 7997 7996 7995 ] final  -32.50 input   59.86 | X-H torsion
[ 10167 10162 10161 10158 ] final   25.96 input  -65.29 | X-H torsion
[ 10718 10713 10712 10709 ] final -114.38 input   66.30 | X-H torsion
[ 10763 10752 10751 10750 ] final  -53.20 input  -60.55 | X-H torsion
[ 11005 11000 10999 10996 ] final  -17.89 input  -57.11 | X-H torsion

> <Gold.Protein.ActiveResidues>
 VAL166  LYS551  ARG553  GLY616  TRP617  ASP618  TYR619  PRO620  LYS621  CYS622 
 ASP623  PHE694  ASN695  SER759  ASP760  ASP761  ALA762  ILE779  LEU786  VAL792 
 PHE793  MET794  SER795  GLU796  ALA797  LYS798  CYS799  TRP800  GLU811  SER814 

> <Gold.Protein.RotatedAtoms>
  152.2082  133.4891  159.5095 H   0  0  0  0  0  0  0  0  0  0  0  0  # atno 6907 bound_to 6896
  150.6984  134.1502  159.4146 H   0  0  0  0  0  0  0  0  0  0  0  0  # atno 6908 bound_to 6896
  151.9421  135.0208  160.0587 H   0  0  0  0  0  0  0  0  0  0  0  0  # atno 6909 bound_to 6896
  145.8917  139.3516  143.0645 H   0  0  0  0  0  0  0  0  0  0  0  0  # atno 7974 bound_to 7965
  154.4178  140.1736  156.1737 H   0  0  0  0  0  0  0  0  0  0  0  0  # atno 8008 bound_to 7997
  155.9739  140.3383  155.6577 H   0  0  0  0  0  0  0  0  0  0  0  0  # atno 8009 bound_to 7997
  155.6589  140.0698  157.2552 H   0  0  0  0  0  0  0  0  0  0  0  0  # atno 8010 bound_to 7997
  140.5063  144.0233  150.6353 H   0  0  0  0  0  0  0  0  0  0  0  0  # atno 10167 bound_to 10162
  156.0826  130.6024  150.8767 H   0  0  0  0  0  0  0  0  0  0  0  0  # atno 10718 bound_to 10713
  154.1550  135.6484  153.4972 H   0  0  0  0  0  0  0  0  0  0  0  0  # atno 10763 bound_to 10752
  153.0127  135.5347  154.6769 H   0  0  0  0  0  0  0  0  0  0  0  0  # atno 10764 bound_to 10752
  154.6067  135.2949  155.0448 H   0  0  0  0  0  0  0  0  0  0  0  0  # atno 10765 bound_to 10752
  140.8214  133.8065  155.9663 H   0  0  0  0  0  0  0  0  0  0  0  0  # atno 11005 bound_to 11000
  145.8900  140.9309  143.0557 LP  0  0  0  0  0  0  0  0  0  0  0  0  # atno 17320 bound_to 7965
  144.6731  140.0893  143.7466 LP  0  0  0  0  0  0  0  0  0  0  0  0  # atno 17321 bound_to 7965
  140.3543  143.2944  152.0453 LP  0  0  0  0  0  0  0  0  0  0  0  0  # atno 17342 bound_to 10162
  139.4884  144.6350  151.6993 LP  0  0  0  0  0  0  0  0  0  0  0  0  # atno 17343 bound_to 10162
  157.5949  131.0943  150.9057 LP  0  0  0  0  0  0  0  0  0  0  0  0  # atno 17370 bound_to 10713
  156.9226  130.5320  149.5279 LP  0  0  0  0  0  0  0  0  0  0  0  0  # atno 17371 bound_to 10713
  140.9095  134.2278  157.4994 LP  0  0  0  0  0  0  0  0  0  0  0  0  # atno 17394 bound_to 11000
  139.8708  134.9743  156.4843 LP  0  0  0  0  0  0  0  0  0  0  0  0  # atno 17395 bound_to 11000

$$$$
