AV-unprocessed.smi:1381|AV-procd|sdf|5615|dock9
  -GOLD-   22720 5223D 1   1.00000     0.00000
 Structure written by MMmdl.
 42 43  0  0  0  0  0  0  0  0  3 V2000
  143.9330  132.7583  150.4419 C   0  0  0  0  0  0  0  0  0  0  0  0
  145.1079  132.9951  151.3279 C   0  0  0  0  0  0  0  0  0  0  0  0
  146.4483  132.7866  151.1670 C   0  0  0  0  0  0  0  0  0  0  0  0
  146.9963  133.2280  152.4026 C   0  0  0  0  0  0  0  0  0  0  0  0
  148.2975  133.2339  152.7313 N   0  5  0  0  0  0  0  0  0  0  0  0
  148.6798  133.5480  153.9898 C   0  0  0  0  0  0  0  0  0  0  0  0
  148.7832  132.7689  154.9401 O   0  0  0  0  0  0  0  0  0  0  0  0
  148.9694  134.8464  154.1575 N   0  0  0  0  0  0  0  0  0  0  0  0
  149.4268  135.4623  155.3975 C   0  0  0  0  0  0  0  0  0  0  0  0
  149.1468  136.9767  155.4049 C   0  0  0  0  0  0  0  0  0  0  0  0
  149.7134  137.6607  154.2130 N   0  3  1  0  0  0  0  0  0  0  0  0
  149.2335  139.0537  154.0447 C   0  0  0  0  0  0  0  0  0  0  0  0
  149.9464  140.0119  155.0200 C   0  0  2  0  0  0  0  0  0  0  0  0
  149.5236  141.4699  154.8089 C   0  0  0  0  0  0  0  0  0  0  0  0
  151.3511  139.9229  154.8057 O   0  0  0  0  0  0  0  0  0  0  0  0
  151.8691  138.6212  155.0598 C   0  0  2  0  0  0  0  0  0  0  0  0
  153.3880  138.6701  154.8620 C   0  0  0  0  0  0  0  0  0  0  0  0
  151.1941  137.6081  154.1092 C   0  0  0  0  0  0  0  0  0  0  0  0
  146.0717  133.6796  153.2333 N   0  0  0  0  0  0  0  0  0  0  0  0
  144.8570  133.5285  152.5538 O   0  0  0  0  0  0  0  0  0  0  0  0
  143.8410  133.5553  149.7041 H   0  0  0  0  0  0  0  0  0  0  0  0
  143.0082  132.7214  151.0180 H   0  0  0  0  0  0  0  0  0  0  0  0
  144.0352  131.8130  149.9087 H   0  0  0  0  0  0  0  0  0  0  0  0
  146.9560  132.3807  150.3052 H   0  0  0  0  0  0  0  0  0  0  0  0
  148.8662  135.4503  153.3551 H   0  0  0  0  0  0  0  0  0  0  0  0
  148.9058  134.9659  156.2149 H   0  0  0  0  0  0  0  0  0  0  0  0
  150.4907  135.2665  155.5422 H   0  0  0  0  0  0  0  0  0  0  0  0
  148.0661  137.1238  155.4097 H   0  0  0  0  0  0  0  0  0  0  0  0
  149.5161  137.4290  156.3251 H   0  0  0  0  0  0  0  0  0  0  0  0
  149.4356  139.3622  153.0179 H   0  0  0  0  0  0  0  0  0  0  0  0
  148.1509  139.1032  154.1692 H   0  0  0  0  0  0  0  0  0  0  0  0
  149.7198  139.7353  156.0512 H   0  0  0  0  0  0  0  0  0  0  0  0
  148.4516  141.5941  154.9656 H   0  0  0  0  0  0  0  0  0  0  0  0
  149.7564  141.8075  153.7985 H   0  0  0  0  0  0  0  0  0  0  0  0
  150.0393  142.1298  155.5070 H   0  0  0  0  0  0  0  0  0  0  0  0
  151.6717  138.3549  156.0988 H   0  0  0  0  0  0  0  0  0  0  0  0
  153.8407  137.6978  155.0581 H   0  0  0  0  0  0  0  0  0  0  0  0
  153.8457  139.3915  155.5393 H   0  0  0  0  0  0  0  0  0  0  0  0
  153.6455  138.9605  153.8431 H   0  0  0  0  0  0  0  0  0  0  0  0
  151.5646  136.6006  154.2937 H   0  0  0  0  0  0  0  0  0  0  0  0
  151.4648  137.8444  153.0791 H   0  0  0  0  0  0  0  0  0  0  0  0
  149.3488  137.1478  153.4227 H   0  0  0  0  0  0  0  0  0  0  0  0
  1  2  1  0  0  0  0
  1 21  1  0  0  0  0
  1 22  1  0  0  0  0
  1 23  1  0  0  0  0
  2 20  1  0  0  0  0
  2  3  2  0  0  0  0
  3  4  1  0  0  0  0
  3 24  1  0  0  0  0
  4  5  1  0  0  0  0
  4 19  2  0  0  0  0
  5  6  1  0  0  0  0
  6  7  2  0  0  0  0
  6  8  1  0  0  0  0
  8  9  1  0  0  0  0
  8 25  1  0  0  0  0
  9 10  1  0  0  0  0
  9 26  1  0  0  0  0
  9 27  1  0  0  0  0
 10 11  1  0  0  0  0
 10 28  1  0  0  0  0
 10 29  1  0  0  0  0
 11 18  1  0  0  0  0
 11 12  1  0  0  0  0
 11 42  1  0  0  0  0
 12 13  1  0  0  0  0
 12 30  1  0  0  0  0
 12 31  1  0  0  0  0
 13 14  1  0  0  0  0
 13 15  1  0  0  0  0
 13 32  1  0  0  0  0
 14 33  1  0  0  0  0
 14 34  1  0  0  0  0
 14 35  1  0  0  0  0
 15 16  1  0  0  0  0
 16 17  1  0  0  0  0
 16 18  1  0  0  0  0
 16 36  1  0  0  0  0
 17 37  1  0  0  0  0
 17 38  1  0  0  0  0
 17 39  1  0  0  0  0
 18 40  1  0  0  0  0
 18 41  1  0  0  0  0
 19 20  1  0  0  0  0
M  CHG  1   5  -1
M  CHG  1  11   1
M  END
> <s_m_source_file>
AV-unprocessed.smi

> <i_m_source_file_index>
1381

> <i_lp_mmshare_version>
43012

> <i_f3d_flags>
0

> <s_epik_input>
W0NIM11jMVtjSF1jKG5vMSlbTkhdQyg9TylbTkhdW0NIMl1bQ0gyXU4yW0NIMl1bQ0BASF0oW0NIM10pT1tDQEBIXShbQ0gzXSlbQ0gyXTI=

> <s_epik_cmdline>
J2VwaWtfcHl0aG9uJywgJy1waCcsICc3LjAnLCAnLXRuJywgJzgnLCAnLW1hJywgJzIwMCcsICctbWV0YWxfYmluZGluZycsICctaW1hZScsICc8aW5maWxlLm1hZT4nLCAnLW9tYWUnLCAnPG91dGZpbGUubWFlPic=

> <r_epik_Ionization_Penalty>
6.73511

> <r_epik_Ionization_Penalty_Charging>
6.73502

> <r_epik_Ionization_Penalty_Neutral>
9.26583e-05

> <r_epik_State_Penalty>
6.93549

> <r_epik_Charging_Adjusted_Penalty>
13.6705

> <i_epik_Tot_Q>
0

> <i_epik_Tot_abs_Q>
2

> <r_epik_Metal_State_Penalty>
2.87211

> <b_epik_Metal_Only>
1

> <s_lp_Force_Field>
OPLS_2005

> <r_lp_Energy>
4.17006

> <b_lp_Chiralities_Consistent>
1

> <s_lp_Variant>
AV-unprocessed.smi:1381-14

> <Gold.Version>
5.8.1

> <Gold.Id.Protein>
6NUR|6NUR_protein|mol2

> <Gold.PLP.Fitness>
45.1013

> <Gold.PLP.PLP>
-34.9314

> <Gold.PLP.part.hbond>
-3.0000

> <Gold.PLP.part.metal>
0.0000

> <Gold.PLP.part.buried>
-1.5025

> <Gold.PLP.part.nonpolar>
-30.3466

> <Gold.PLP.part.repulsive>
0.6098

> <Gold.PLP.ligand.clash>
0.0000

> <Gold.PLP.ligand.torsion>
0.9649

> <Gold.PLP.Chemscore.Hbond>
4.0000

> <Gold.PLP.Chemscore.CHOScore>
0.0000

> <Gold.PLP.Chemscore.Metal>
0.0000

> <Gold.Chemscore.Hbonds>
donor molecule, donor type, donor heavy atom, donor atom, acceptor molecule, acceptor atom, score
      L1  H     8    25       P1  7948  1.00
      L1  H    11    42       P1  7948  2.00
      P1  H  7989  7998       L1    15  1.00

> <Gold.PLP.Chemscore.Internal.Correction>
0.0998

> <Gold.Rescore>
     Score         DG    S(hbond)    S(metal)    S(lipo)     H(rot)  DE(clash)    DE(int)     intcor
     18.44     -19.42       2.82        0.00      73.29       1.58       0.06       0.93       ----

> <Gold.Chemscore.Fitness>
18.4361

> <Gold.Chemscore.DG>
-19.4235

> <Gold.Chemscore.ZeroCoef>
-5.4800

> <Gold.Chemscore.Hbond>
2.8179

> <Gold.Chemscore.Metal>
0.0000

> <Gold.Chemscore.Lipo>
73.2865

> <Gold.Chemscore.Internal_Hbond>
0.0000

> <Gold.Chemscore.DEClash>
0.0585

> <Gold.Chemscore.DEInternal>
0.9290

> <Gold.Chemscore.Rot>
1.5792

> <Gold.Chemscore.Internal.Correction>
   9.000000E+99

> <Gold.Chemscore.Hbonds>
donor molecule, donor type, donor heavy atom, donor atom, acceptor molecule, acceptor atom, score
      L1  H     8    25       P1  7948  0.78
      L1  H    11    42       P1  7948  0.96
      P1  H  7989  7998       L1    15  0.50

> <Gold.Chemscore.Hbond.Weighted>
-9.4118

> <Gold.Chemscore.Metal.Weighted>
-0.0000

> <Gold.Chemscore.Lipo.Weighted>
-8.5745

> <Gold.Chemscore.Internal_Hbond.Weighted>
0.0000

> <Gold.Chemscore.DEClash.Weighted>
0.0585

> <Gold.Chemscore.DEInternal.Weighted>
0.9290

> <Gold.Chemscore.Rot.Weighted>
4.0428

> <Gold.Chemscore.Internal.Correction.Weighted>
   9.000000E+99

> <Gold.Protein.RotatedTorsions>
[ 6907 6896 6895 6894 ] final   35.59 input  -60.11 | X-H torsion
[ 7974 7965 7964 7962 ] final   14.99 input  175.53 | X-H torsion
[ 8008 7997 7996 7995 ] final   25.15 input   59.86 | X-H torsion
[ 10167 10162 10161 10158 ] final  102.37 input  -65.29 | X-H torsion
[ 10718 10713 10712 10709 ] final   60.76 input   66.30 | X-H torsion
[ 10763 10752 10751 10750 ] final -115.55 input  -60.55 | X-H torsion
[ 11005 11000 10999 10996 ] final  151.95 input  -57.11 | X-H torsion

> <Gold.Protein.ActiveResidues>
 VAL166  LYS551  ARG553  GLY616  TRP617  ASP618  TYR619  PRO620  LYS621  CYS622 
 ASP623  PHE694  ASN695  SER759  ASP760  ASP761  ALA762  ILE779  LEU786  VAL792 
 PHE793  MET794  SER795  GLU796  ALA797  LYS798  CYS799  TRP800  GLU811  SER814 

> <Gold.Protein.RotatedAtoms>
  152.1182  134.9225  160.0563 H   0  0  0  0  0  0  0  0  0  0  0  0  # atno 6907 bound_to 6896
  152.0376  133.3959  159.4331 H   0  0  0  0  0  0  0  0  0  0  0  0  # atno 6908 bound_to 6896
  150.6847  134.3372  159.4896 H   0  0  0  0  0  0  0  0  0  0  0  0  # atno 6909 bound_to 6896
  146.2290  139.8960  142.8547 H   0  0  0  0  0  0  0  0  0  0  0  0  # atno 7974 bound_to 7965
  155.0073  140.3132  155.4843 H   0  0  0  0  0  0  0  0  0  0  0  0  # atno 8008 bound_to 7997
  156.2915  140.2221  156.5127 H   0  0  0  0  0  0  0  0  0  0  0  0  # atno 8009 bound_to 7997
  154.7566  140.0462  157.0926 H   0  0  0  0  0  0  0  0  0  0  0  0  # atno 8010 bound_to 7997
  139.7356  144.7025  151.0654 H   0  0  0  0  0  0  0  0  0  0  0  0  # atno 10167 bound_to 10162
  157.5777  130.8957  149.9376 H   0  0  0  0  0  0  0  0  0  0  0  0  # atno 10718 bound_to 10713
  154.8485  135.4377  154.1681 H   0  0  0  0  0  0  0  0  0  0  0  0  # atno 10763 bound_to 10752
  153.2801  135.6953  153.7400 H   0  0  0  0  0  0  0  0  0  0  0  0  # atno 10764 bound_to 10752
  153.6607  135.3435  155.3101 H   0  0  0  0  0  0  0  0  0  0  0  0  # atno 10765 bound_to 10752
  140.1264  134.8830  157.2144 H   0  0  0  0  0  0  0  0  0  0  0  0  # atno 11005 bound_to 11000
  145.2371  140.9995  143.3957 LP  0  0  0  0  0  0  0  0  0  0  0  0  # atno 17320 bound_to 7965
  144.9482  139.4112  143.6415 LP  0  0  0  0  0  0  0  0  0  0  0  0  # atno 17321 bound_to 7965
  140.7778  143.4988  150.9798 LP  0  0  0  0  0  0  0  0  0  0  0  0  # atno 17342 bound_to 10162
  139.8677  143.7233  152.3169 LP  0  0  0  0  0  0  0  0  0  0  0  0  # atno 17343 bound_to 10162
  156.0822  130.3672  150.0558 LP  0  0  0  0  0  0  0  0  0  0  0  0  # atno 17370 bound_to 10713
  156.8701  130.9521  151.3610 LP  0  0  0  0  0  0  0  0  0  0  0  0  # atno 17371 bound_to 10713
  140.2898  134.3253  155.7318 LP  0  0  0  0  0  0  0  0  0  0  0  0  # atno 17394 bound_to 11000
  141.2162  133.7528  156.9486 LP  0  0  0  0  0  0  0  0  0  0  0  0  # atno 17395 bound_to 11000

$$$$
