AV-unprocessed.smi:2807|AV-procd|sdf|10821|dock4
  -GOLD-   2272015253D 1   1.00000     0.00000
 Structure written by MMmdl.
 31 32  0  0  0  0  0  0  0  0  2 V2000
  151.6746  139.7164  154.7923 O   0  0  0  0  0  0  0  0  0  0  0  0
  150.9113  140.0922  155.6897 C   0  0  0  0  0  0  0  0  0  0  0  0
  149.6674  140.6441  155.6016 N   0  5  0  0  0  0  0  0  0  0  0  0
  148.7680  140.4829  154.4536 C   0  0  1  0  0  0  0  0  0  0  0  0
  147.6761  139.4604  154.8027 C   0  0  0  0  0  0  0  0  0  0  0  0
  146.5304  140.2442  155.4702 C   0  0  0  0  0  0  0  0  0  0  0  0
  146.7986  141.7332  155.2030 C   0  0  0  0  0  0  0  0  0  0  0  0
  147.9459  141.7600  154.1858 C   0  0  1  0  0  0  0  0  0  0  0  0
  148.6846  142.9663  154.2336 O   0  0  0  0  0  0  0  0  0  0  0  0
  151.3833  139.9791  157.1545 C   0  0  0  0  0  0  0  0  0  0  0  0
  150.4713  139.3104  157.8683 F   0  0  0  0  0  0  0  0  0  0  0  0
  152.5167  139.2740  157.1914 F   0  0  0  0  0  0  0  0  0  0  0  0
  151.6502  141.3631  157.7461 C   0  0  0  0  0  0  0  0  0  0  0  0
  152.3008  141.4963  158.9939 C   0  0  0  0  0  0  0  0  0  0  0  0
  152.5481  142.7891  159.4932 C   0  0  0  0  0  0  0  0  0  0  0  0
  152.1360  143.9001  158.7336 C   0  0  0  0  0  0  0  0  0  0  0  0
  151.4925  143.6664  157.5026 C   0  0  0  0  0  0  0  0  0  0  0  0
  151.2490  142.4315  157.0157 N   0  0  0  0  0  0  0  0  0  0  0  0
  149.2998  140.1738  153.5523 H   0  0  0  0  0  0  0  0  0  0  0  0
  147.3049  139.0126  153.8802 H   0  0  0  0  0  0  0  0  0  0  0  0
  148.0381  138.6411  155.4258 H   0  0  0  0  0  0  0  0  0  0  0  0
  145.5669  139.9361  155.0623 H   0  0  0  0  0  0  0  0  0  0  0  0
  146.5010  140.0541  156.5443 H   0  0  0  0  0  0  0  0  0  0  0  0
  145.9145  142.2538  154.8338 H   0  0  0  0  0  0  0  0  0  0  0  0
  147.0954  142.2224  156.1340 H   0  0  0  0  0  0  0  0  0  0  0  0
  147.5193  141.6784  153.1851 H   0  0  0  0  0  0  0  0  0  0  0  0
  149.1800  142.9725  155.0383 H   0  0  0  0  0  0  0  0  0  0  0  0
  152.6133  140.6244  159.5491 H   0  0  0  0  0  0  0  0  0  0  0  0
  153.0472  142.9254  160.4410 H   0  0  0  0  0  0  0  0  0  0  0  0
  152.3104  144.9065  159.0838 H   0  0  0  0  0  0  0  0  0  0  0  0
  151.1626  144.4947  156.8928 H   0  0  0  0  0  0  0  0  0  0  0  0
  1  2  2  0  0  0  0
  2  3  1  0  0  0  0
  2 10  1  0  0  0  0
  3  4  1  0  0  0  0
  4  8  1  0  0  0  0
  4  5  1  0  0  0  0
  4 19  1  0  0  0  0
  5  6  1  0  0  0  0
  5 20  1  0  0  0  0
  5 21  1  0  0  0  0
  6  7  1  0  0  0  0
  6 22  1  0  0  0  0
  6 23  1  0  0  0  0
  7  8  1  0  0  0  0
  7 24  1  0  0  0  0
  7 25  1  0  0  0  0
  8  9  1  0  0  0  0
  8 26  1  0  0  0  0
  9 27  1  0  0  0  0
 10 11  1  0  0  0  0
 10 12  1  0  0  0  0
 10 13  1  0  0  0  0
 13 18  1  0  0  0  0
 13 14  2  0  0  0  0
 14 15  1  0  0  0  0
 14 28  1  0  0  0  0
 15 16  2  0  0  0  0
 15 29  1  0  0  0  0
 16 17  1  0  0  0  0
 16 30  1  0  0  0  0
 17 18  2  0  0  0  0
 17 31  1  0  0  0  0
M  CHG  1   3  -1
M  END
> <s_m_source_file>
AV-unprocessed.smi

> <i_m_source_file_index>
2807

> <i_lp_mmshare_version>
43012

> <i_f3d_flags>
0

> <s_epik_input>
bjFbY0hdW2NIXVtjSF1bY0hdYzFDKEYpKEYpQyg9TylbTkhdW0NAQEhdMltDSDJdW0NIMl1bQ0gyXVtDQEhdMltPSF0=

> <s_epik_cmdline>
J2VwaWtfcHl0aG9uJywgJy1waCcsICc3LjAnLCAnLXRuJywgJzgnLCAnLW1hJywgJzIwMCcsICctbWV0YWxfYmluZGluZycsICctaW1hZScsICc8aW5maWxlLm1hZT4nLCAnLW9tYWUnLCAnPG91dGZpbGUubWFlPic=

> <r_lp_tautomer_probability>
1

> <r_epik_Ionization_Penalty>
5.72231

> <r_epik_Ionization_Penalty_Charging>
5.72231

> <r_epik_Ionization_Penalty_Neutral>
5.49816e-06

> <r_epik_State_Penalty>
5.72227

> <r_epik_Charging_Adjusted_Penalty>
11.4446

> <i_epik_Tot_Q>
-1

> <i_epik_Tot_abs_Q>
1

> <r_epik_Metal_State_Penalty>
1.70075

> <b_epik_Metal_Only>
1

> <s_lp_Force_Field>
OPLS_2005

> <r_lp_Energy>
37.2022

> <b_lp_Chiralities_Consistent>
1

> <s_lp_Variant>
AV-unprocessed.smi:2807-6

> <Gold.Version>
5.8.1

> <Gold.Id.Protein>
6NUR|6NUR_protein|mol2

> <Gold.PLP.Fitness>
41.1742

> <Gold.PLP.PLP>
-33.4639

> <Gold.PLP.part.hbond>
-3.3353

> <Gold.PLP.part.metal>
0.0000

> <Gold.PLP.part.buried>
-1.5932

> <Gold.PLP.part.nonpolar>
-27.8217

> <Gold.PLP.part.repulsive>
0.2174

> <Gold.PLP.ligand.clash>
0.0000

> <Gold.PLP.ligand.torsion>
0.8432

> <Gold.PLP.Chemscore.Hbond>
2.1760

> <Gold.PLP.Chemscore.CHOScore>
0.9335

> <Gold.PLP.Chemscore.Metal>
0.0000

> <Gold.Chemscore.Hbonds>
donor molecule, donor type, donor heavy atom, donor atom, acceptor molecule, acceptor atom, score
      L1  H     9    27       P1  8028  0.02
      P1  H  7989  7998       L1     1  1.00
      P1  H  8022  8030       L1     9  1.00
      L1  C    17    31       P1  8028  0.88

> <Gold.PLP.Chemscore.Internal.Correction>
0.0681

> <Gold.Rescore>
     Score         DG    S(hbond)    S(metal)    S(lipo)     H(rot)  DE(clash)    DE(int)     intcor
     13.06     -16.03       1.83        0.00      81.54       2.00       0.19       2.78       ----

> <Gold.Chemscore.Fitness>
13.0581

> <Gold.Chemscore.DG>
-16.0324

> <Gold.Chemscore.ZeroCoef>
-5.4800

> <Gold.Chemscore.Hbond>
1.8332

> <Gold.Chemscore.Metal>
0.0000

> <Gold.Chemscore.Lipo>
81.5406

> <Gold.Chemscore.Internal_Hbond>
0.0000

> <Gold.Chemscore.DEClash>
0.1910

> <Gold.Chemscore.DEInternal>
2.7832

> <Gold.Chemscore.Rot>
1.9964

> <Gold.Chemscore.Internal.Correction>
   9.000000E+99

> <Gold.Chemscore.Hbonds>
donor molecule, donor type, donor heavy atom, donor atom, acceptor molecule, acceptor atom, score
      L1  H     9    27       P1  8028  0.07
      P1  H  7989  7998       L1     1  0.73
      P1  H  8022  8030       L1     9  0.60

> <Gold.Chemscore.Hbond.Weighted>
-6.1229

> <Gold.Chemscore.Metal.Weighted>
-0.0000

> <Gold.Chemscore.Lipo.Weighted>
-9.5403

> <Gold.Chemscore.Internal_Hbond.Weighted>
0.0000

> <Gold.Chemscore.DEClash.Weighted>
0.1910

> <Gold.Chemscore.DEInternal.Weighted>
2.7832

> <Gold.Chemscore.Rot.Weighted>
5.1108

> <Gold.Chemscore.Internal.Correction.Weighted>
   9.000000E+99

> <Gold.Protein.RotatedTorsions>
[ 6907 6896 6895 6894 ] final -122.90 input  -60.11 | X-H torsion
[ 7974 7965 7964 7962 ] final  -86.98 input  175.53 | X-H torsion
[ 8008 7997 7996 7995 ] final   60.84 input   59.86 | X-H torsion
[ 10167 10162 10161 10158 ] final  -37.55 input  -65.29 | X-H torsion
[ 10718 10713 10712 10709 ] final   83.35 input   66.30 | X-H torsion
[ 10763 10752 10751 10750 ] final   70.10 input  -60.55 | X-H torsion
[ 11005 11000 10999 10996 ] final  144.65 input  -57.11 | X-H torsion

> <Gold.Protein.ActiveResidues>
 VAL166  LYS551  ARG553  GLY616  TRP617  ASP618  TYR619  PRO620  LYS621  CYS622 
 ASP623  PHE694  ASN695  SER759  ASP760  ASP761  ALA762  ILE779  LEU786  VAL792 
 PHE793  MET794  SER795  GLU796  ALA797  LYS798  CYS799  TRP800  GLU811  SER814 

> <Gold.Protein.RotatedAtoms>
  150.8620  133.7630  159.2989 H   0  0  0  0  0  0  0  0  0  0  0  0  # atno 6907 bound_to 6896
  151.5269  135.1066  159.9902 H   0  0  0  0  0  0  0  0  0  0  0  0  # atno 6908 bound_to 6896
  152.4633  133.7824  159.6914 H   0  0  0  0  0  0  0  0  0  0  0  0  # atno 6909 bound_to 6896
  145.4726  140.9559  143.1908 H   0  0  0  0  0  0  0  0  0  0  0  0  # atno 7974 bound_to 7965
  155.5888  140.3492  155.4560 H   0  0  0  0  0  0  0  0  0  0  0  0  # atno 8008 bound_to 7997
  156.0317  140.1276  157.0275 H   0  0  0  0  0  0  0  0  0  0  0  0  # atno 8009 bound_to 7997
  154.4355  140.1042  156.6095 H   0  0  0  0  0  0  0  0  0  0  0  0  # atno 8010 bound_to 7997
  140.7115  143.3335  151.2516 H   0  0  0  0  0  0  0  0  0  0  0  0  # atno 10167 bound_to 10162
  157.6877  131.0087  150.2510 H   0  0  0  0  0  0  0  0  0  0  0  0  # atno 10718 bound_to 10713
  153.0323  135.5186  154.7389 H   0  0  0  0  0  0  0  0  0  0  0  0  # atno 10763 bound_to 10752
  154.6395  135.2910  155.0123 H   0  0  0  0  0  0  0  0  0  0  0  0  # atno 10764 bound_to 10752
  154.1046  135.6631  153.4927 H   0  0  0  0  0  0  0  0  0  0  0  0  # atno 10765 bound_to 10752
  140.0649  134.9184  157.1248 H   0  0  0  0  0  0  0  0  0  0  0  0  # atno 11005 bound_to 11000
  144.7936  139.6279  143.7102 LP  0  0  0  0  0  0  0  0  0  0  0  0  # atno 17320 bound_to 7965
  146.2388  139.5958  142.9506 LP  0  0  0  0  0  0  0  0  0  0  0  0  # atno 17321 bound_to 7965
  139.6823  143.9833  152.2815 LP  0  0  0  0  0  0  0  0  0  0  0  0  # atno 17342 bound_to 10162
  139.9467  144.6647  150.8212 LP  0  0  0  0  0  0  0  0  0  0  0  0  # atno 17343 bound_to 10162
  156.3106  130.3771  149.7665 LP  0  0  0  0  0  0  0  0  0  0  0  0  # atno 17370 bound_to 10713
  156.5266  130.8239  151.3222 LP  0  0  0  0  0  0  0  0  0  0  0  0  # atno 17371 bound_to 10713
  140.3713  134.2387  155.7178 LP  0  0  0  0  0  0  0  0  0  0  0  0  # atno 17394 bound_to 11000
  141.1989  133.8025  157.0563 LP  0  0  0  0  0  0  0  0  0  0  0  0  # atno 17395 bound_to 11000

$$$$
