AV-unprocessed.smi:106|AV-procd|sdf|1011|dock9
  -GOLD-   2262018 13D 1   1.00000     0.00000
 Structure written by MMmdl.
 51 54  0  0  0  0  0  0  0  0  1 V2000
  152.7471  135.5343  156.7713 O   0  0  0  0  0  0  0  0  0  0  0  0
  151.9162  136.3411  157.1949 C   0  0  0  0  0  0  0  0  0  0  0  0
  150.4234  136.1207  156.8655 C   0  0  0  0  0  0  0  0  0  0  0  0
  150.1708  134.9265  156.0272 N   0  0  0  0  0  0  0  0  0  0  0  0
  150.6972  133.6809  156.4501 C   0  0  0  0  0  0  0  0  0  0  0  0
  151.3555  133.5845  157.4870 O   0  0  0  0  0  0  0  0  0  0  0  0
  150.4080  132.5474  155.5800 C   0  0  0  0  0  0  0  0  0  0  0  0
  150.8426  131.3211  155.9166 F   0  0  0  0  0  0  0  0  0  0  0  0
  149.7048  132.7090  154.4406 C   0  0  0  0  0  0  0  0  0  0  0  0
  149.2292  133.9348  154.0175 N   0  0  0  0  0  0  0  0  0  0  0  0
  148.4237  134.0039  152.7383 C   0  0  2  0  0  0  0  0  0  0  0  0
  146.9774  134.4798  152.9412 C   0  0  0  0  0  0  0  0  0  0  0  0
  146.2507  133.6644  151.8937 C   0  0  0  0  0  0  0  0  0  0  0  0
  147.0315  132.3547  151.9135 C   0  0  0  0  0  0  0  0  0  0  0  0
  148.3846  132.7354  152.1502 O   0  0  0  0  0  0  0  0  0  0  0  0
  149.4359  135.0777  154.8257 C   0  0  0  0  0  0  0  0  0  0  0  0
  148.9921  136.1786  154.4972 O   0  0  0  0  0  0  0  0  0  0  0  0
  152.2737  137.4163  157.9394 N   0  0  0  0  0  0  0  0  0  0  0  0
  153.6565  137.6943  158.3564 C   0  0  0  0  0  0  0  0  0  0  0  0
  153.7287  138.5238  159.6533 C   0  0  0  0  0  0  0  0  0  0  0  0
  152.9753  139.7837  159.5738 N   0  0  0  0  0  0  0  0  0  0  0  0
  153.2595  140.7983  160.4300 C   0  0  0  0  0  0  0  0  0  0  0  0
  154.0424  140.6559  161.3714 O   0  0  0  0  0  0  0  0  0  0  0  0
  152.6285  142.1262  160.2231 C   0  0  0  0  0  0  0  0  0  0  0  0
  152.2074  142.7933  159.0977 C   0  0  0  0  0  0  0  0  0  0  0  0
  151.6994  144.0968  159.3729 C   0  0  0  0  0  0  0  0  0  0  0  0
  151.7631  144.4230  160.7011 C   0  0  0  0  0  0  0  0  0  0  0  0
  152.4623  143.1351  161.6427 S   0  0  0  0  0  0  0  0  0  0  0  0
  151.8607  139.7944  158.6137 C   0  0  0  0  0  0  0  0  0  0  0  0
  151.2666  138.3918  158.3825 C   0  0  0  0  0  0  0  0  0  0  0  0
  149.8567  136.0533  157.7956 H   0  0  0  0  0  0  0  0  0  0  0  0
  150.0376  137.0174  156.3793 H   0  0  0  0  0  0  0  0  0  0  0  0
  149.5157  131.8350  153.8346 H   0  0  0  0  0  0  0  0  0  0  0  0
  148.9754  134.6657  152.0696 H   0  0  0  0  0  0  0  0  0  0  0  0
  146.6098  134.2386  153.9377 H   0  0  0  0  0  0  0  0  0  0  0  0
  146.8958  135.5564  152.7902 H   0  0  0  0  0  0  0  0  0  0  0  0
  145.1905  133.5330  152.1118 H   0  0  0  0  0  0  0  0  0  0  0  0
  146.3445  134.1409  150.9170 H   0  0  0  0  0  0  0  0  0  0  0  0
  146.6865  131.7159  152.7268 H   0  0  0  0  0  0  0  0  0  0  0  0
  146.9332  131.7955  150.9828 H   0  0  0  0  0  0  0  0  0  0  0  0
  154.2172  136.7764  158.5303 H   0  0  0  0  0  0  0  0  0  0  0  0
  154.1634  138.2230  157.5480 H   0  0  0  0  0  0  0  0  0  0  0  0
  153.3391  137.9382  160.4878 H   0  0  0  0  0  0  0  0  0  0  0  0
  154.7801  138.7180  159.8728 H   0  0  0  0  0  0  0  0  0  0  0  0
  152.2456  142.3998  158.0931 H   0  0  0  0  0  0  0  0  0  0  0  0
  151.3184  144.7439  158.5967 H   0  0  0  0  0  0  0  0  0  0  0  0
  151.4558  145.3404  161.1810 H   0  0  0  0  0  0  0  0  0  0  0  0
  151.0496  140.4371  158.9577 H   0  0  0  0  0  0  0  0  0  0  0  0
  152.2154  140.2039  157.6673 H   0  0  0  0  0  0  0  0  0  0  0  0
  150.4624  138.4862  157.6509 H   0  0  0  0  0  0  0  0  0  0  0  0
  150.8083  138.0254  159.3022 H   0  0  0  0  0  0  0  0  0  0  0  0
  1  2  2  0  0  0  0
  2  3  1  0  0  0  0
  2 18  1  0  0  0  0
  3  4  1  0  0  0  0
  3 31  1  0  0  0  0
  3 32  1  0  0  0  0
  4 16  1  0  0  0  0
  4  5  1  0  0  0  0
  5  6  2  0  0  0  0
  5  7  1  0  0  0  0
  7  8  1  0  0  0  0
  7  9  2  0  0  0  0
  9 10  1  0  0  0  0
  9 33  1  0  0  0  0
 10 11  1  0  0  0  0
 10 16  1  0  0  0  0
 11 15  1  0  0  0  0
 11 12  1  0  0  0  0
 11 34  1  0  0  0  0
 12 13  1  0  0  0  0
 12 35  1  0  0  0  0
 12 36  1  0  0  0  0
 13 14  1  0  0  0  0
 13 37  1  0  0  0  0
 13 38  1  0  0  0  0
 14 15  1  0  0  0  0
 14 39  1  0  0  0  0
 14 40  1  0  0  0  0
 16 17  2  0  0  0  0
 18 30  1  0  0  0  0
 18 19  1  0  0  0  0
 19 20  1  0  0  0  0
 19 41  1  0  0  0  0
 19 42  1  0  0  0  0
 20 21  1  0  0  0  0
 20 43  1  0  0  0  0
 20 44  1  0  0  0  0
 21 22  1  0  0  0  0
 21 29  1  0  0  0  0
 22 23  2  0  0  0  0
 22 24  1  0  0  0  0
 24 28  1  0  0  0  0
 24 25  2  0  0  0  0
 25 26  1  0  0  0  0
 25 45  1  0  0  0  0
 26 27  2  0  0  0  0
 26 46  1  0  0  0  0
 27 28  1  0  0  0  0
 27 47  1  0  0  0  0
 29 30  1  0  0  0  0
 29 48  1  0  0  0  0
 29 49  1  0  0  0  0
 30 50  1  0  0  0  0
 30 51  1  0  0  0  0
M  END
> <s_m_source_file>
AV-unprocessed.smi

> <i_m_source_file_index>
106

> <i_lp_mmshare_version>
43012

> <i_f3d_flags>
0

> <s_epik_input>
czFbY0hdW2NIXVtjSF1jMUMoPU8pTihbQ0gyXVtDSDJdMilbQ0gyXVtDSDJdTjJDKD1PKVtDSDJdbjNjKD1PKWMoRilbY0hdbihjMz1PKVtDQEBIXTRbQ0gyXVtDSDJdW0NIMl1PNA==

> <s_epik_cmdline>
J2VwaWtfcHl0aG9uJywgJy1waCcsICc3LjAnLCAnLXRuJywgJzgnLCAnLW1hJywgJzIwMCcsICctbWV0YWxfYmluZGluZycsICctaW1hZScsICc8aW5maWxlLm1hZT4nLCAnLW9tYWUnLCAnPG91dGZpbGUubWFlPic=

> <r_lp_tautomer_probability>
1

> <r_epik_Ionization_Penalty>
4.82844e-09

> <r_epik_Ionization_Penalty_Charging>
4.20153e-09

> <r_epik_Ionization_Penalty_Neutral>
6.26919e-10

> <r_epik_State_Penalty>
-0

> <r_epik_Charging_Adjusted_Penalty>
4.20153e-09

> <i_epik_Tot_Q>
0

> <i_epik_Tot_abs_Q>
0

> <r_epik_Metal_State_Penalty>
-0

> <b_epik_Metal_Only>
0

> <s_epik_Chemistry_Notes>
This compound contains an acetal/aminal-like group ( X-CH(R)-Y where X, Y are N, S, or O) that may be acid/base labile, releasing an aldehyde.

> <s_lp_Force_Field>
OPLS_2005

> <r_lp_Energy>
67.8789

> <b_lp_Chiralities_Consistent>
1

> <s_lp_Variant>
AV-unprocessed.smi:106-1

> <Gold.Version>
5.8.1

> <Gold.Id.Protein>
6NUR|6NUR_protein|mol2

> <Gold.PLP.Fitness>
53.6643

> <Gold.PLP.PLP>
-49.6758

> <Gold.PLP.part.hbond>
-1.6945

> <Gold.PLP.part.metal>
0.0000

> <Gold.PLP.part.buried>
-4.8014

> <Gold.PLP.part.nonpolar>
-44.1783

> <Gold.PLP.part.repulsive>
0.7215

> <Gold.PLP.ligand.clash>
0.0000

> <Gold.PLP.ligand.torsion>
0.4593

> <Gold.PLP.Chemscore.Hbond>
1.4471

> <Gold.PLP.Chemscore.CHOScore>
0.0000

> <Gold.PLP.Chemscore.Metal>
0.0000

> <Gold.Chemscore.Hbonds>
donor molecule, donor type, donor heavy atom, donor atom, acceptor molecule, acceptor atom, score
      P1  H  6896  6907       L1     6  0.56
      P1  H 10752 10763       L1     1  1.00

> <Gold.PLP.Chemscore.Internal.Correction>
0.5659

> <Gold.Rescore>
     Score         DG    S(hbond)    S(metal)    S(lipo)     H(rot)  DE(clash)    DE(int)     intcor
     14.21     -18.91       1.87        0.00      96.85       1.63       0.05       4.65       ----

> <Gold.Chemscore.Fitness>
14.2106

> <Gold.Chemscore.DG>
-18.9097

> <Gold.Chemscore.ZeroCoef>
-5.4800

> <Gold.Chemscore.Hbond>
1.8738

> <Gold.Chemscore.Metal>
0.0000

> <Gold.Chemscore.Lipo>
96.8506

> <Gold.Chemscore.Internal_Hbond>
0.0000

> <Gold.Chemscore.DEClash>
0.0525

> <Gold.Chemscore.DEInternal>
4.6467

> <Gold.Chemscore.Rot>
1.6252

> <Gold.Chemscore.Internal.Correction>
   9.000000E+99

> <Gold.Chemscore.Hbonds>
donor molecule, donor type, donor heavy atom, donor atom, acceptor molecule, acceptor atom, score
      P1  H  6896  6907       L1     6  0.56
      P1  H 10752 10763       L1     1  0.96

> <Gold.Chemscore.Hbond.Weighted>
-6.2586

> <Gold.Chemscore.Metal.Weighted>
-0.0000

> <Gold.Chemscore.Lipo.Weighted>
-11.3315

> <Gold.Chemscore.Internal_Hbond.Weighted>
0.0000

> <Gold.Chemscore.DEClash.Weighted>
0.0525

> <Gold.Chemscore.DEInternal.Weighted>
4.6467

> <Gold.Chemscore.Rot.Weighted>
4.1605

> <Gold.Chemscore.Internal.Correction.Weighted>
   9.000000E+99

> <Gold.Protein.RotatedTorsions>
[ 6907 6896 6895 6894 ] final -157.17 input  -60.11 | X-H torsion
[ 7974 7965 7964 7962 ] final -125.84 input  175.53 | X-H torsion
[ 8008 7997 7996 7995 ] final  108.47 input   59.86 | X-H torsion
[ 10167 10162 10161 10158 ] final -113.96 input  -65.29 | X-H torsion
[ 10718 10713 10712 10709 ] final -123.88 input   66.30 | X-H torsion
[ 10763 10752 10751 10750 ] final   95.33 input  -60.55 | X-H torsion
[ 11005 11000 10999 10996 ] final   -4.69 input  -57.11 | X-H torsion

> <Gold.Protein.ActiveResidues>
 VAL166  LYS551  ARG553  GLY616  TRP617  ASP618  TYR619  PRO620  LYS621  CYS622 
 ASP623  PHE694  ASN695  SER759  ASP760  ASP761  ALA762  ILE779  LEU786  VAL792 
 PHE793  MET794  SER795  GLU796  ALA797  LYS798  CYS799  TRP800  GLU811  SER814 

> <Gold.Protein.RotatedAtoms>
  151.2988  133.4132  159.2637 H   0  0  0  0  0  0  0  0  0  0  0  0  # atno 6907 bound_to 6896
  151.0213  134.9472  159.8071 H   0  0  0  0  0  0  0  0  0  0  0  0  # atno 6908 bound_to 6896
  152.5325  134.2951  159.9110 H   0  0  0  0  0  0  0  0  0  0  0  0  # atno 6909 bound_to 6896
  144.9934  140.7753  143.4540 H   0  0  0  0  0  0  0  0  0  0  0  0  # atno 7974 bound_to 7965
  156.1906  140.3076  155.9324 H   0  0  0  0  0  0  0  0  0  0  0  0  # atno 8008 bound_to 7997
  155.3183  140.0454  157.3055 H   0  0  0  0  0  0  0  0  0  0  0  0  # atno 8009 bound_to 7997
  154.5447  140.2272  155.8592 H   0  0  0  0  0  0  0  0  0  0  0  0  # atno 8010 bound_to 7997
  140.1061  143.4569  152.1782 H   0  0  0  0  0  0  0  0  0  0  0  0  # atno 10167 bound_to 10162
  156.1540  130.6555  150.9955 H   0  0  0  0  0  0  0  0  0  0  0  0  # atno 10718 bound_to 10713
  153.2519  135.4258  155.0806 H   0  0  0  0  0  0  0  0  0  0  0  0  # atno 10763 bound_to 10752
  154.8385  135.3428  154.6501 H   0  0  0  0  0  0  0  0  0  0  0  0  # atno 10764 bound_to 10752
  153.6922  135.7033  153.5143 H   0  0  0  0  0  0  0  0  0  0  0  0  # atno 10765 bound_to 10752
  140.6830  133.9137  155.8568 H   0  0  0  0  0  0  0  0  0  0  0  0  # atno 11005 bound_to 11000
  145.2253  139.2140  143.5071 LP  0  0  0  0  0  0  0  0  0  0  0  0  # atno 17320 bound_to 7965
  146.3436  140.2120  142.8590 LP  0  0  0  0  0  0  0  0  0  0  0  0  # atno 17321 bound_to 7965
  139.5644  144.7426  151.4063 LP  0  0  0  0  0  0  0  0  0  0  0  0  # atno 17342 bound_to 10162
  140.6951  143.7768  150.7314 LP  0  0  0  0  0  0  0  0  0  0  0  0  # atno 17343 bound_to 10162
  157.6680  131.0867  150.7682 LP  0  0  0  0  0  0  0  0  0  0  0  0  # atno 17370 bound_to 10713
  156.7748  130.4840  149.5411 LP  0  0  0  0  0  0  0  0  0  0  0  0  # atno 17371 bound_to 10713
  141.0302  134.0767  157.4023 LP  0  0  0  0  0  0  0  0  0  0  0  0  # atno 17394 bound_to 11000
  139.8946  135.0136  156.6958 LP  0  0  0  0  0  0  0  0  0  0  0  0  # atno 17395 bound_to 11000

$$$$
