AV-unprocessed.smi:471|AV-procd|sdf|2659|dock6
  -GOLD-   2262023 73D 1   1.00000     0.00000
 Structure written by MMmdl.
 16 16  0  0  0  0  0  0  0  0  3 V2000
  152.5115  139.8290  156.4820 O   0  0  0  0  0  0  0  0  0  0  0  0
  151.5625  140.1843  155.7492 C   0  0  0  0  0  0  0  0  0  0  0  0
  151.3171  139.7329  154.6086 O   0  5  0  0  0  0  0  0  0  0  0  0
  150.6180  141.2599  156.2961 C   0  0  0  0  0  0  0  0  0  0  0  0
  151.0960  141.8283  157.5688 N   0  0  0  0  0  0  0  0  0  0  0  0
  151.3223  143.2169  157.6109 C   0  0  0  0  0  0  0  0  0  0  0  0
  151.7318  143.8402  158.7319 C   0  0  0  0  0  0  0  0  0  0  0  0
  151.9336  143.0383  159.9314 C   0  0  0  0  0  0  0  0  0  0  0  0
  152.3128  143.5885  160.9638 O   0  0  0  0  0  0  0  0  0  0  0  0
  151.6838  141.6991  159.8480 N   0  5  0  0  0  0  0  0  0  0  0  0
  151.2639  141.0785  158.7009 C   0  0  0  0  0  0  0  0  0  0  0  0
  151.0344  139.8694  158.6629 O   0  0  0  0  0  0  0  0  0  0  0  0
  150.5365  142.0664  155.5657 H   0  0  0  0  0  0  0  0  0  0  0  0
  149.6161  140.8343  156.3645 H   0  0  0  0  0  0  0  0  0  0  0  0
  151.1412  143.7375  156.6819 H   0  0  0  0  0  0  0  0  0  0  0  0
  151.9011  144.9068  158.7436 H   0  0  0  0  0  0  0  0  0  0  0  0
  1  2  2  0  0  0  0
  2  3  1  0  0  0  0
  2  4  1  0  0  0  0
  4  5  1  0  0  0  0
  4 13  1  0  0  0  0
  4 14  1  0  0  0  0
  5 11  1  0  0  0  0
  5  6  1  0  0  0  0
  6  7  2  0  0  0  0
  6 15  1  0  0  0  0
  7  8  1  0  0  0  0
  7 16  1  0  0  0  0
  8  9  2  0  0  0  0
  8 10  1  0  0  0  0
 10 11  1  0  0  0  0
 11 12  2  0  0  0  0
M  CHG  1   3  -1
M  CHG  1  10  -1
M  END
> <s_m_source_file>
AV-unprocessed.smi

> <i_m_source_file_index>
471

> <i_lp_mmshare_version>
43012

> <i_f3d_flags>
0

> <s_epik_input>
Tz1DKFtPSF0pW0NIMl1uMVtjSF1bY0hdYyg9TylbbkhdYzE9Tw==

> <s_epik_cmdline>
J2VwaWtfcHl0aG9uJywgJy1waCcsICc3LjAnLCAnLXRuJywgJzgnLCAnLW1hJywgJzIwMCcsICctbWV0YWxfYmluZGluZycsICctaW1hZScsICc8aW5maWxlLm1hZT4nLCAnLW9tYWUnLCAnPG91dGZpbGUubWFlPic=

> <r_lp_tautomer_probability>
1

> <r_epik_Ionization_Penalty>
3.94908

> <r_epik_Ionization_Penalty_Charging>
0.000183212

> <r_epik_Ionization_Penalty_Neutral>
3.94889

> <r_epik_State_Penalty>
3.94814

> <r_epik_Charging_Adjusted_Penalty>
3.94832

> <i_epik_Tot_Q>
-2

> <i_epik_Tot_abs_Q>
2

> <r_epik_Metal_State_Penalty>
0.342776

> <b_epik_Metal_Only>
1

> <s_lp_Force_Field>
OPLS_2005

> <r_lp_Energy>
13.443

> <b_lp_Chiralities_Consistent>
1

> <s_lp_Variant>
AV-unprocessed.smi:471-2

> <Gold.Version>
5.8.1

> <Gold.Id.Protein>
6NUR|6NUR_protein|mol2

> <Gold.PLP.Fitness>
36.3052

> <Gold.PLP.PLP>
-24.4088

> <Gold.PLP.part.hbond>
-2.0000

> <Gold.PLP.part.metal>
0.0000

> <Gold.PLP.part.buried>
-2.8957

> <Gold.PLP.part.nonpolar>
-19.4682

> <Gold.PLP.part.repulsive>
0.1433

> <Gold.PLP.ligand.clash>
0.0000

> <Gold.PLP.ligand.torsion>
0.0515

> <Gold.PLP.Chemscore.Hbond>
3.0000

> <Gold.PLP.Chemscore.CHOScore>
0.9982

> <Gold.PLP.Chemscore.Metal>
0.0000

> <Gold.Chemscore.Hbonds>
donor molecule, donor type, donor heavy atom, donor atom, acceptor molecule, acceptor atom, score
      P1  H  7989  7998       L1     3  1.00
      P1  H  7997  8009       L1     1  2.00
      L1  C     6    15       P1  8028  0.72

> <Gold.PLP.Chemscore.Internal.Correction>
0.0048

> <Gold.Rescore>
     Score         DG    S(hbond)    S(metal)    S(lipo)     H(rot)  DE(clash)    DE(int)     intcor
      7.32     -11.23       1.96        0.00      29.13       1.64       0.07       3.84       ----

> <Gold.Chemscore.Fitness>
7.3173

> <Gold.Chemscore.DG>
-11.2309

> <Gold.Chemscore.ZeroCoef>
-5.4800

> <Gold.Chemscore.Hbond>
1.9588

> <Gold.Chemscore.Metal>
0.0000

> <Gold.Chemscore.Lipo>
29.1277

> <Gold.Chemscore.Internal_Hbond>
0.0000

> <Gold.Chemscore.DEClash>
0.0727

> <Gold.Chemscore.DEInternal>
3.8409

> <Gold.Chemscore.Rot>
1.6404

> <Gold.Chemscore.Internal.Correction>
   9.000000E+99

> <Gold.Chemscore.Hbonds>
donor molecule, donor type, donor heavy atom, donor atom, acceptor molecule, acceptor atom, score
      P1  H  7989  7998       L1     3  0.74
      P1  H  7997  8009       L1     1  0.99

> <Gold.Chemscore.Hbond.Weighted>
-6.5424

> <Gold.Chemscore.Metal.Weighted>
-0.0000

> <Gold.Chemscore.Lipo.Weighted>
-3.4079

> <Gold.Chemscore.Internal_Hbond.Weighted>
0.0000

> <Gold.Chemscore.DEClash.Weighted>
0.0727

> <Gold.Chemscore.DEInternal.Weighted>
3.8409

> <Gold.Chemscore.Rot.Weighted>
4.1994

> <Gold.Chemscore.Internal.Correction.Weighted>
   9.000000E+99

> <Gold.Protein.RotatedTorsions>
[ 6907 6896 6895 6894 ] final  -91.20 input  -60.11 | X-H torsion
[ 7974 7965 7964 7962 ] final  -16.37 input  175.53 | X-H torsion
[ 8008 7997 7996 7995 ] final -155.52 input   59.86 | X-H torsion
[ 10167 10162 10161 10158 ] final   58.56 input  -65.29 | X-H torsion
[ 10718 10713 10712 10709 ] final  -27.28 input   66.30 | X-H torsion
[ 10763 10752 10751 10750 ] final  -38.18 input  -60.55 | X-H torsion
[ 11005 11000 10999 10996 ] final  -54.30 input  -57.11 | X-H torsion

> <Gold.Protein.ActiveResidues>
 VAL166  LYS551  ARG553  GLY616  TRP617  ASP618  TYR619  PRO620  LYS621  CYS622 
 ASP623  PHE694  ASN695  SER759  ASP760  ASP761  ALA762  ILE779  LEU786  VAL792 
 PHE793  MET794  SER795  GLU796  ALA797  LYS798  CYS799  TRP800  GLU811  SER814 

> <Gold.Protein.RotatedAtoms>
  150.6890  134.2314  159.4435 H   0  0  0  0  0  0  0  0  0  0  0  0  # atno 6907 bound_to 6896
  152.0264  134.9790  160.0581 H   0  0  0  0  0  0  0  0  0  0  0  0  # atno 6908 bound_to 6896
  152.1347  133.4393  159.4775 H   0  0  0  0  0  0  0  0  0  0  0  0  # atno 6909 bound_to 6896
  146.1990  140.3627  142.8430 H   0  0  0  0  0  0  0  0  0  0  0  0  # atno 7974 bound_to 7965
  155.7032  140.0769  157.2402 H   0  0  0  0  0  0  0  0  0  0  0  0  # atno 8008 bound_to 7997
  154.4070  140.1643  156.2267 H   0  0  0  0  0  0  0  0  0  0  0  0  # atno 8009 bound_to 7997
  155.9349  140.3388  155.6282 H   0  0  0  0  0  0  0  0  0  0  0  0  # atno 8010 bound_to 7997
  140.1859  144.4135  150.6593 H   0  0  0  0  0  0  0  0  0  0  0  0  # atno 10167 bound_to 10162
  156.4402  130.4463  149.7058 H   0  0  0  0  0  0  0  0  0  0  0  0  # atno 10718 bound_to 10713
  153.9085  135.6795  153.4752 H   0  0  0  0  0  0  0  0  0  0  0  0  # atno 10763 bound_to 10752
  153.1091  135.4791  154.9001 H   0  0  0  0  0  0  0  0  0  0  0  0  # atno 10764 bound_to 10752
  154.7539  135.3192  154.8462 H   0  0  0  0  0  0  0  0  0  0  0  0  # atno 10765 bound_to 10752
  141.1019  133.6617  156.4299 H   0  0  0  0  0  0  0  0  0  0  0  0  # atno 11005 bound_to 11000
  144.8642  140.7183  143.6088 LP  0  0  0  0  0  0  0  0  0  0  0  0  # atno 17320 bound_to 7965
  145.3547  139.1697  143.4416 LP  0  0  0  0  0  0  0  0  0  0  0  0  # atno 17321 bound_to 7965
  140.6489  143.2220  151.6123 LP  0  0  0  0  0  0  0  0  0  0  0  0  # atno 17342 bound_to 10162
  139.5276  144.3011  152.1072 LP  0  0  0  0  0  0  0  0  0  0  0  0  # atno 17343 bound_to 10162
  156.3925  130.7634  151.2636 LP  0  0  0  0  0  0  0  0  0  0  0  0  # atno 17370 bound_to 10713
  157.7506  131.0263  150.3958 LP  0  0  0  0  0  0  0  0  0  0  0  0  # atno 17371 bound_to 10713
  140.5001  134.6493  157.5245 LP  0  0  0  0  0  0  0  0  0  0  0  0  # atno 17394 bound_to 11000
  139.9873  134.7041  155.9751 LP  0  0  0  0  0  0  0  0  0  0  0  0  # atno 17395 bound_to 11000

$$$$
