#       Name:                AV-unprocessed.smi:1880
#       Creating user name   scv26
#       Creation time:       Fri Mar 27 09:36:25 2020


#       File generated by GOLD software.
#

@<TRIPOS>MOLECULE
AV-unprocessed.smi:1880
    43    45     1
SMALL
NO_CHARGES


@<TRIPOS>ATOM
      1 ****        -0.2604  -2.0854  -0.5116 O.3            1 S1                 0.0000
      2 ****         0.2714  -1.2168  -1.4922 C.3            1 S1                 0.0000
      3 ****         1.8065  -1.2488  -1.4169 C.3            1 S1                 0.0000
      4 ****         2.2534  -0.5002  -0.2979 O.3            1 S1                 0.0000
      5 ****         3.6651  -0.4668  -0.1878 C.3            1 S1                 0.0000
      6 ****         3.9726   0.2913   1.0583 C.2            1 S1                 0.0000
      7 ****         4.1698   1.6170   1.3300 C.2            1 S1                 0.0000
      8 ****         4.4217   1.7062   2.7272 C.2            1 S1                 0.0000
      9 ****         4.3585   0.4277   3.2036 C.2            1 S1                 0.0000
     10 ****         4.0842  -0.4474   2.1983 O.3            1 S1                 0.0000
     11 ****        -0.3213   0.2024  -1.3840 C.3            1 S1                 0.0000
     12 ****        -1.7866   0.2165  -1.4972 N.pl3          1 S1                 0.0000
     13 ****        -2.5711   0.2323  -2.6088 C.2            1 S1                 0.0000
     14 ****        -3.8687   0.2491  -2.1962 N.pl3          1 S1                 1.0000
     15 ****        -3.9148   0.2441  -0.8002 C.ar           1 S1                 0.0000
     16 ****        -4.9952   0.2572   0.0759 C.ar           1 S1                 0.0000
     17 ****        -4.6958   0.2455   1.4541 C.ar           1 S1                 0.0000
     18 ****        -5.7106   0.2602   2.3503 F              1 S1                 0.0000
     19 ****        -3.3625   0.2181   1.9153 C.ar           1 S1                 0.0000
     20 ****        -3.1197   0.2052   3.2473 F              1 S1                 0.0000
     21 ****        -2.2751   0.2039   1.0171 C.ar           1 S1                 0.0000
     22 ****        -2.5801   0.2206  -0.3437 C.ar           1 S1                 0.0000
     23 ****        -1.1969  -2.1300  -0.6261 H              1 S1                 0.0000
     24 ****        -0.0208  -1.6385  -2.4546 H              1 S1                 0.0000
     25 ****         2.1687  -2.2772  -1.3663 H              1 S1                 0.0000
     26 ****         2.2195  -0.8072  -2.3252 H              1 S1                 0.0000
     27 ****         4.0744  -1.4766  -0.1305 H              1 S1                 0.0000
     28 ****         4.1063   0.0284  -1.0539 H              1 S1                 0.0000
     29 ****         4.1353   2.4229   0.6118 H              1 S1                 0.0000
     30 ****         4.6229   2.5930   3.3098 H              1 S1                 0.0000
     31 ****         4.4768  -0.0159   4.1813 H              1 S1                 0.0000
     32 ****        -0.0310   0.6897  -0.4532 H              1 S1                 0.0000
     33 ****         0.0703   0.8272  -2.1877 H              1 S1                 0.0000
     34 ****        -2.2264   0.2332  -3.6331 H              1 S1                 0.0000
     35 ****        -6.0175   0.2761  -0.2722 H              1 S1                 0.0000
     36 ****        -1.2592   0.1780   1.3831 H              1 S1                 0.0000
     37 ****        -4.6625   0.2644  -2.8242 H              1 S1                 0.0000
     38 ****        -0.0486  -1.7343   0.4005 LP             1 S1                 0.0000
     39 ****         0.1361  -2.9972  -0.6181 LP             1 S1                 0.0000
     40 ****         1.8778  -0.9119   0.5325 LP             1 S1                 0.0000
     41 ****         1.9176   0.4376  -0.3862 LP             1 S1                 0.0000
     42 ****         4.8258  -1.1120   2.1075 LP             1 S1                 0.0000
     43 ****         3.2269  -0.9278   2.3834 LP             1 S1                 0.0000
@<TRIPOS>BOND
    1    1    2 1     
    2    1   23 1     
    3    2    3 1     
    4    2   11 1     
    5    2   24 1     
    6    3    4 1     
    7    3   25 1     
    8    3   26 1     
    9    4    5 1     
   10    5    6 1     
   11    5   27 1     
   12    5   28 1     
   13    6   10 1     
   14    6    7 2     
   15    7    8 1     
   16    7   29 1     
   17    8    9 2     
   18    8   30 1     
   19    9   10 1     
   20    9   31 1     
   21   11   12 1     
   22   11   32 1     
   23   11   33 1     
   24   12   22 1     
   25   12   13 1     
   26   13   14 2     
   27   13   34 1     
   28   14   15 1     
   29   14   37 1     
   30   15   22 ar    
   31   15   16 ar    
   32   16   17 ar    
   33   16   35 1     
   34   17   18 1     
   35   17   19 ar    
   36   19   20 1     
   37   19   21 ar    
   38   21   22 ar    
   39   21   36 1     
   40    1   38 1     
   41    1   39 1     
   42    4   40 1     
   43    4   41 1     
   44   10   42 1     
   45   10   43 1     
@<TRIPOS>SUBSTRUCTURE
      1 S1             1
@<TRIPOS>SET
LONE_PAIRS      STATIC     ATOMS    <user>   **** ""
6 38 39 40 41 42 43
DONOR_HYDROGENS      STATIC     ATOMS    <user>   **** ""
2 23 37
ATOM$BLUE        STATIC     ATOMS    COLORGROUP SYSTEM
6 38 39 40 41 42 43
ATOM$RED        STATIC     ATOMS    COLORGROUP SYSTEM
2 23 37
