AV-unprocessed.smi:1780|AV-procd|sdf|7183|dock6
  -GOLD-   22720 8423D 1   1.00000     0.00000
 Structure written by MMmdl.
 43 44  0  0  0  0  0  0  0  0  1 V2000
  153.0976  142.7103  162.1570 C   0  0  0  0  0  0  0  0  0  0  0  0
  153.4664  141.9873  160.8561 C   0  0  0  0  0  0  0  0  0  0  0  0
  152.8222  142.5885  159.7046 N   0  0  0  0  0  0  0  0  0  0  0  0
  151.8814  142.0289  158.8629 C   0  0  0  0  0  0  0  0  0  0  0  0
  151.5884  142.9892  157.9417 C   0  0  0  0  0  0  0  0  0  0  0  0
  150.6645  142.8355  156.8780 N   0  0  0  0  0  0  0  0  0  0  0  0
  150.4012  141.7146  156.1874 C   0  0  0  0  0  0  0  0  0  0  0  0
  150.9724  140.6360  156.3466 O   0  0  0  0  0  0  0  0  0  0  0  0
  149.4194  141.9127  155.2955 N   0  0  0  0  0  0  0  0  0  0  0  0
  148.8726  140.9010  154.3932 C   0  0  0  0  0  0  0  0  0  0  0  0
  147.5700  141.3582  153.6754 C   0  0  2  0  0  0  0  0  0  0  0  0
  146.7881  142.3235  154.6024 C   0  0  0  0  0  0  0  0  0  0  0  0
  146.7392  140.2265  153.1994 N   0  0  0  0  0  0  0  0  0  0  0  0
  146.4680  139.2367  154.2485 C   0  0  0  0  0  0  0  0  0  0  0  0
  145.6309  138.0471  153.7474 C   0  0  0  0  0  0  0  0  0  0  0  0
  146.2871  137.4267  152.6508 O   0  0  0  0  0  0  0  0  0  0  0  0
  146.4972  138.3317  151.5764 C   0  0  0  0  0  0  0  0  0  0  0  0
  147.3416  139.5234  152.0601 C   0  0  0  0  0  0  0  0  0  0  0  0
  152.3923  144.1134  158.2835 C   0  0  0  0  0  0  0  0  0  0  0  0
  153.1347  143.8596  159.3507 N   0  0  0  0  0  0  0  0  0  0  0  0
  153.5809  142.2386  163.0125 H   0  0  0  0  0  0  0  0  0  0  0  0
  152.0210  142.6880  162.3281 H   0  0  0  0  0  0  0  0  0  0  0  0
  153.4118  143.7543  162.1324 H   0  0  0  0  0  0  0  0  0  0  0  0
  154.5464  142.0064  160.7041 H   0  0  0  0  0  0  0  0  0  0  0  0
  153.1725  140.9387  160.9129 H   0  0  0  0  0  0  0  0  0  0  0  0
  151.5128  141.0219  158.9910 H   0  0  0  0  0  0  0  0  0  0  0  0
  150.1310  143.6571  156.6351 H   0  0  0  0  0  0  0  0  0  0  0  0
  149.0116  142.8343  155.2384 H   0  0  0  0  0  0  0  0  0  0  0  0
  149.6716  140.7186  153.6771 H   0  0  0  0  0  0  0  0  0  0  0  0
  148.7042  139.9548  154.9103 H   0  0  0  0  0  0  0  0  0  0  0  0
  147.8763  141.9377  152.8030 H   0  0  0  0  0  0  0  0  0  0  0  0
  147.4043  143.1477  154.9579 H   0  0  0  0  0  0  0  0  0  0  0  0
  146.4011  141.8014  155.4782 H   0  0  0  0  0  0  0  0  0  0  0  0
  145.9514  142.8029  154.0975 H   0  0  0  0  0  0  0  0  0  0  0  0
  147.4079  138.8693  154.6631 H   0  0  0  0  0  0  0  0  0  0  0  0
  145.9123  139.6870  155.0684 H   0  0  0  0  0  0  0  0  0  0  0  0
  145.5003  137.3147  154.5440 H   0  0  0  0  0  0  0  0  0  0  0  0
  144.6343  138.3749  153.4474 H   0  0  0  0  0  0  0  0  0  0  0  0
  147.0079  137.8096  150.7672 H   0  0  0  0  0  0  0  0  0  0  0  0
  145.5383  138.6716  151.1821 H   0  0  0  0  0  0  0  0  0  0  0  0
  147.4568  140.1937  151.2108 H   0  0  0  0  0  0  0  0  0  0  0  0
  148.3398  139.1737  152.3275 H   0  0  0  0  0  0  0  0  0  0  0  0
  152.4688  145.0818  157.8124 H   0  0  0  0  0  0  0  0  0  0  0  0
  1  2  1  0  0  0  0
  1 21  1  0  0  0  0
  1 22  1  0  0  0  0
  1 23  1  0  0  0  0
  2  3  1  0  0  0  0
  2 24  1  0  0  0  0
  2 25  1  0  0  0  0
  3 20  1  0  0  0  0
  3  4  1  0  0  0  0
  4  5  2  0  0  0  0
  4 26  1  0  0  0  0
  5  6  1  0  0  0  0
  5 19  1  0  0  0  0
  6  7  1  0  0  0  0
  6 27  1  0  0  0  0
  7  8  2  0  0  0  0
  7  9  1  0  0  0  0
  9 10  1  0  0  0  0
  9 28  1  0  0  0  0
 10 11  1  0  0  0  0
 10 29  1  0  0  0  0
 10 30  1  0  0  0  0
 11 12  1  0  0  0  0
 11 13  1  0  0  0  0
 11 31  1  0  0  0  0
 12 32  1  0  0  0  0
 12 33  1  0  0  0  0
 12 34  1  0  0  0  0
 13 18  1  0  0  0  0
 13 14  1  0  0  0  0
 14 15  1  0  0  0  0
 14 35  1  0  0  0  0
 14 36  1  0  0  0  0
 15 16  1  0  0  0  0
 15 37  1  0  0  0  0
 15 38  1  0  0  0  0
 16 17  1  0  0  0  0
 17 18  1  0  0  0  0
 17 39  1  0  0  0  0
 17 40  1  0  0  0  0
 18 41  1  0  0  0  0
 18 42  1  0  0  0  0
 19 20  2  0  0  0  0
 19 43  1  0  0  0  0
M  END
> <s_m_source_file>
AV-unprocessed.smi

> <i_m_source_file_index>
1780

> <i_lp_mmshare_version>
43012

> <i_f3d_flags>
0

> <s_epik_input>
W0NIM11bQ0gyXW4xW2NIXWMoW2NIXW4xKVtOSF1DKD1PKVtOSF1bQ0gyXVtDQEhdKFtDSDNdKU4yW0NIMl1bQ0gyXU9bQ0gyXVtDSDJdMg==

> <s_epik_cmdline>
J2VwaWtfcHl0aG9uJywgJy1waCcsICc3LjAnLCAnLXRuJywgJzgnLCAnLW1hJywgJzIwMCcsICctbWV0YWxfYmluZGluZycsICctaW1hZScsICc8aW5maWxlLm1hZT4nLCAnLW9tYWUnLCAnPG91dGZpbGUubWFlPic=

> <r_lp_tautomer_probability>
1

> <r_epik_Ionization_Penalty>
0.242902

> <r_epik_Ionization_Penalty_Charging>
0

> <r_epik_Ionization_Penalty_Neutral>
0.242902

> <r_epik_State_Penalty>
0.233765

> <r_epik_Charging_Adjusted_Penalty>
0.233765

> <i_epik_Tot_Q>
0

> <i_epik_Tot_abs_Q>
0

> <r_epik_Metal_State_Penalty>
0.233759

> <b_epik_Metal_Only>
0

> <s_lp_Force_Field>
OPLS_2005

> <r_lp_Energy>
32.6304

> <b_lp_Chiralities_Consistent>
1

> <s_lp_Variant>
AV-unprocessed.smi:1780-1

> <Gold.Version>
5.8.1

> <Gold.Id.Protein>
6NUR|6NUR_protein|mol2

> <Gold.PLP.Fitness>
47.1869

> <Gold.PLP.PLP>
-42.6404

> <Gold.PLP.part.hbond>
-2.0000

> <Gold.PLP.part.metal>
0.0000

> <Gold.PLP.part.buried>
-1.1306

> <Gold.PLP.part.nonpolar>
-41.1105

> <Gold.PLP.part.repulsive>
1.1368

> <Gold.PLP.ligand.clash>
0.0000

> <Gold.PLP.ligand.torsion>
0.7458

> <Gold.PLP.Chemscore.Hbond>
2.0000

> <Gold.PLP.Chemscore.CHOScore>
0.0000

> <Gold.PLP.Chemscore.Metal>
0.0000

> <Gold.Chemscore.Hbonds>
donor molecule, donor type, donor heavy atom, donor atom, acceptor molecule, acceptor atom, score
      L1  H     6    27       P1  8028  1.00
      L1  H     9    28       P1  8028  1.00

> <Gold.PLP.Chemscore.Internal.Correction>
0.0381

> <Gold.Rescore>
     Score         DG    S(hbond)    S(metal)    S(lipo)     H(rot)  DE(clash)    DE(int)     intcor
     17.00     -20.22       1.95        0.00     105.64       1.61       1.75       1.47       ----

> <Gold.Chemscore.Fitness>
16.9981

> <Gold.Chemscore.DG>
-20.2199

> <Gold.Chemscore.ZeroCoef>
-5.4800

> <Gold.Chemscore.Hbond>
1.9481

> <Gold.Chemscore.Metal>
0.0000

> <Gold.Chemscore.Lipo>
105.6353

> <Gold.Chemscore.Internal_Hbond>
0.0000

> <Gold.Chemscore.DEClash>
1.7514

> <Gold.Chemscore.DEInternal>
1.4704

> <Gold.Chemscore.Rot>
1.6117

> <Gold.Chemscore.Internal.Correction>
   9.000000E+99

> <Gold.Chemscore.Hbonds>
donor molecule, donor type, donor heavy atom, donor atom, acceptor molecule, acceptor atom, score
      L1  H     6    27       P1  8028  0.99
      L1  H     9    28       P1  8028  0.98

> <Gold.Chemscore.Hbond.Weighted>
-6.5066

> <Gold.Chemscore.Metal.Weighted>
-0.0000

> <Gold.Chemscore.Lipo.Weighted>
-12.3593

> <Gold.Chemscore.Internal_Hbond.Weighted>
0.0000

> <Gold.Chemscore.DEClash.Weighted>
1.7514

> <Gold.Chemscore.DEInternal.Weighted>
1.4704

> <Gold.Chemscore.Rot.Weighted>
4.1260

> <Gold.Chemscore.Internal.Correction.Weighted>
   9.000000E+99

> <Gold.Protein.RotatedTorsions>
[ 6907 6896 6895 6894 ] final   32.73 input  -60.11 | X-H torsion
[ 7974 7965 7964 7962 ] final  115.52 input  175.53 | X-H torsion
[ 8008 7997 7996 7995 ] final  -69.46 input   59.86 | X-H torsion
[ 10167 10162 10161 10158 ] final -122.49 input  -65.29 | X-H torsion
[ 10718 10713 10712 10709 ] final  148.98 input   66.30 | X-H torsion
[ 10763 10752 10751 10750 ] final -154.19 input  -60.55 | X-H torsion
[ 11005 11000 10999 10996 ] final   91.38 input  -57.11 | X-H torsion

> <Gold.Protein.ActiveResidues>
 VAL166  LYS551  ARG553  GLY616  TRP617  ASP618  TYR619  PRO620  LYS621  CYS622 
 ASP623  PHE694  ASN695  SER759  ASP760  ASP761  ALA762  ILE779  LEU786  VAL792 
 PHE793  MET794  SER795  GLU796  ALA797  LYS798  CYS799  TRP800  GLU811  SER814 

> <Gold.Protein.RotatedAtoms>
  152.0785  134.9487  160.0573 H   0  0  0  0  0  0  0  0  0  0  0  0  # atno 6907 bound_to 6896
  152.0785  133.4136  159.4499 H   0  0  0  0  0  0  0  0  0  0  0  0  # atno 6908 bound_to 6896
  150.6836  134.2930  159.4718 H   0  0  0  0  0  0  0  0  0  0  0  0  # atno 6909 bound_to 6896
  145.1910  139.3000  143.4368 H   0  0  0  0  0  0  0  0  0  0  0  0  # atno 7974 bound_to 7965
  154.4940  140.0853  156.7657 H   0  0  0  0  0  0  0  0  0  0  0  0  # atno 8008 bound_to 7997
  155.4161  140.3443  155.4249 H   0  0  0  0  0  0  0  0  0  0  0  0  # atno 8009 bound_to 7997
  156.1369  140.1518  156.8969 H   0  0  0  0  0  0  0  0  0  0  0  0  # atno 8010 bound_to 7997
  140.0137  143.5415  152.2251 H   0  0  0  0  0  0  0  0  0  0  0  0  # atno 10167 bound_to 10162
  157.3018  131.0872  151.1384 H   0  0  0  0  0  0  0  0  0  0  0  0  # atno 10718 bound_to 10713
  154.7876  135.3195  154.7851 H   0  0  0  0  0  0  0  0  0  0  0  0  # atno 10763 bound_to 10752
  153.8547  135.6859  153.4793 H   0  0  0  0  0  0  0  0  0  0  0  0  # atno 10764 bound_to 10752
  153.1533  135.4690  154.9608 H   0  0  0  0  0  0  0  0  0  0  0  0  # atno 10765 bound_to 10752
  139.8840  134.8670  156.3419 H   0  0  0  0  0  0  0  0  0  0  0  0  # atno 11005 bound_to 11000
  146.3436  140.2122  142.8590 LP  0  0  0  0  0  0  0  0  0  0  0  0  # atno 17320 bound_to 7965
  145.0041  140.8658  143.5263 LP  0  0  0  0  0  0  0  0  0  0  0  0  # atno 17321 bound_to 7965
  139.6187  144.7625  151.2788 LP  0  0  0  0  0  0  0  0  0  0  0  0  # atno 17342 bound_to 10162
  140.7371  143.6688  150.8099 LP  0  0  0  0  0  0  0  0  0  0  0  0  # atno 17343 bound_to 10162
  157.2740  130.6718  149.6033 LP  0  0  0  0  0  0  0  0  0  0  0  0  # atno 17370 bound_to 10713
  155.9672  130.4470  150.5564 LP  0  0  0  0  0  0  0  0  0  0  0  0  # atno 17371 bound_to 10713
  140.9652  133.7362  156.0457 LP  0  0  0  0  0  0  0  0  0  0  0  0  # atno 17394 bound_to 11000
  140.7939  134.3586  157.5457 LP  0  0  0  0  0  0  0  0  0  0  0  0  # atno 17395 bound_to 11000

$$$$
