AV-unprocessed.smi:1047|AV-procd|sdf|4603|dock6
  -GOLD-   22720 3 93D 1   1.00000     0.00000
 Structure written by MMmdl.
 57 59  0  0  0  0  0  0  0  0  3 V2000
  158.3640  134.9948  151.3008 C   0  0  0  0  0  0  0  0  0  0  0  0
  159.2848  135.6711  152.3263 C   0  0  0  0  0  0  0  0  0  0  0  0
  158.5367  136.2655  153.4622 N   0  3  2  0  0  0  0  0  0  0  0  0
  158.1153  135.2715  154.4804 C   0  0  0  0  0  0  0  0  0  0  0  0
  157.3660  135.9647  155.6299 C   0  0  0  0  0  0  0  0  0  0  0  0
  156.2567  136.6838  155.1073 O   0  0  0  0  0  0  0  0  0  0  0  0
  156.6563  137.7159  154.2112 C   0  0  2  0  0  0  0  0  0  0  0  0
  155.3964  138.4768  153.7734 C   0  0  0  0  0  0  0  0  0  0  0  0
  154.4647  138.6358  154.8851 N   0  0  0  0  0  0  0  0  0  0  0  0
  153.0890  138.2864  154.5436 C   0  0  0  0  0  0  0  0  0  0  0  0
  152.1186  139.4329  154.8765 C   0  0  1  0  0  0  0  0  0  0  0  0
  150.8614  139.1419  154.2986 O   0  0  0  0  0  0  0  0  0  0  0  0
  151.9490  139.6114  156.3982 C   0  0  0  0  0  0  0  0  0  0  0  0
  151.4337  140.9397  156.7613 N   0  0  0  0  0  0  0  0  0  0  0  0
  150.5684  141.7449  156.0872 C   0  0  0  0  0  0  0  0  0  0  0  0
  150.3959  142.8746  156.8270 N   0  3  0  0  0  0  0  0  0  0  0  0
  151.1626  142.7907  157.9909 C   0  0  0  0  0  0  0  0  0  0  0  0
  151.3156  143.6843  159.0443 C   0  0  0  0  0  0  0  0  0  0  0  0
  152.1771  143.2996  160.0961 C   0  0  0  0  0  0  0  0  0  0  0  0
  152.3656  144.2525  161.2644 C   0  0  0  0  0  0  0  0  0  0  0  0
  152.8522  142.0521  160.0671 C   0  0  0  0  0  0  0  0  0  0  0  0
  153.7757  141.6489  161.2040 C   0  0  0  0  0  0  0  0  0  0  0  0
  152.6829  141.1569  158.9864 C   0  0  0  0  0  0  0  0  0  0  0  0
  151.8313  141.5512  157.9568 C   0  0  0  0  0  0  0  0  0  0  0  0
  157.3735  137.0668  153.0109 C   0  0  0  0  0  0  0  0  0  0  0  0
  158.9518  134.4948  150.5308 H   0  0  0  0  0  0  0  0  0  0  0  0
  157.7173  135.7118  150.7957 H   0  0  0  0  0  0  0  0  0  0  0  0
  157.7319  134.2426  151.7736 H   0  0  0  0  0  0  0  0  0  0  0  0
  159.9692  134.9130  152.7099 H   0  0  0  0  0  0  0  0  0  0  0  0
  159.9026  136.4312  151.8458 H   0  0  0  0  0  0  0  0  0  0  0  0
  157.4719  134.5219  154.0171 H   0  0  0  0  0  0  0  0  0  0  0  0
  158.9801  134.7458  154.8840 H   0  0  0  0  0  0  0  0  0  0  0  0
  157.0021  135.2238  156.3420 H   0  0  0  0  0  0  0  0  0  0  0  0
  158.0267  136.6368  156.1799 H   0  0  0  0  0  0  0  0  0  0  0  0
  157.3397  138.4033  154.7143 H   0  0  0  0  0  0  0  0  0  0  0  0
  155.6781  139.4608  153.3968 H   0  0  0  0  0  0  0  0  0  0  0  0
  154.9182  137.9510  152.9459 H   0  0  0  0  0  0  0  0  0  0  0  0
  154.7740  138.0758  155.6733 H   0  0  0  0  0  0  0  0  0  0  0  0
  153.0075  138.0039  153.4930 H   0  0  0  0  0  0  0  0  0  0  0  0
  152.8007  137.4064  155.1203 H   0  0  0  0  0  0  0  0  0  0  0  0
  152.4886  140.3691  154.4550 H   0  0  0  0  0  0  0  0  0  0  0  0
  150.9799  138.4752  153.6397 H   0  0  0  0  0  0  0  0  0  0  0  0
  151.3049  138.8406  156.8217 H   0  0  0  0  0  0  0  0  0  0  0  0
  152.9157  139.5039  156.8922 H   0  0  0  0  0  0  0  0  0  0  0  0
  150.1020  141.5271  155.1370 H   0  0  0  0  0  0  0  0  0  0  0  0
  150.7973  144.6319  159.0599 H   0  0  0  0  0  0  0  0  0  0  0  0
  153.4097  144.5554  161.3467 H   0  0  0  0  0  0  0  0  0  0  0  0
  152.0672  143.7762  162.1986 H   0  0  0  0  0  0  0  0  0  0  0  0
  151.7651  145.1547  161.1445 H   0  0  0  0  0  0  0  0  0  0  0  0
  154.2270  140.6724  161.0253 H   0  0  0  0  0  0  0  0  0  0  0  0
  153.2246  141.5949  162.1431 H   0  0  0  0  0  0  0  0  0  0  0  0
  154.5834  142.3726  161.3164 H   0  0  0  0  0  0  0  0  0  0  0  0
  153.1939  140.2060  158.9698 H   0  0  0  0  0  0  0  0  0  0  0  0
  157.7094  137.8431  152.3220 H   0  0  0  0  0  0  0  0  0  0  0  0
  156.6828  136.4261  152.4594 H   0  0  0  0  0  0  0  0  0  0  0  0
  159.1654  136.9108  153.9190 H   0  0  0  0  0  0  0  0  0  0  0  0
  149.7972  143.6440  156.5557 H   0  0  0  0  0  0  0  0  0  0  0  0
  1  2  1  0  0  0  0
  1 26  1  0  0  0  0
  1 27  1  0  0  0  0
  1 28  1  0  0  0  0
  2  3  1  0  0  0  0
  2 29  1  0  0  0  0
  2 30  1  0  0  0  0
  3 25  1  0  0  0  0
  3  4  1  0  0  0  0
  3 56  1  0  0  0  0
  4  5  1  0  0  0  0
  4 31  1  0  0  0  0
  4 32  1  0  0  0  0
  5  6  1  0  0  0  0
  5 33  1  0  0  0  0
  5 34  1  0  0  0  0
  6  7  1  0  0  0  0
  7  8  1  0  0  0  0
  7 25  1  0  0  0  0
  7 35  1  0  0  0  0
  8  9  1  0  0  0  0
  8 36  1  0  0  0  0
  8 37  1  0  0  0  0
  9 10  1  0  0  0  0
  9 38  1  0  0  0  0
 10 11  1  0  0  0  0
 10 39  1  0  0  0  0
 10 40  1  0  0  0  0
 11 12  1  0  0  0  0
 11 13  1  0  0  0  0
 11 41  1  0  0  0  0
 12 42  1  0  0  0  0
 13 14  1  0  0  0  0
 13 43  1  0  0  0  0
 13 44  1  0  0  0  0
 14 24  1  0  0  0  0
 14 15  1  0  0  0  0
 15 16  2  0  0  0  0
 15 45  1  0  0  0  0
 16 17  1  0  0  0  0
 16 57  1  0  0  0  0
 17 24  2  0  0  0  0
 17 18  1  0  0  0  0
 18 19  2  0  0  0  0
 18 46  1  0  0  0  0
 19 20  1  0  0  0  0
 19 21  1  0  0  0  0
 20 47  1  0  0  0  0
 20 48  1  0  0  0  0
 20 49  1  0  0  0  0
 21 22  1  0  0  0  0
 21 23  2  0  0  0  0
 22 50  1  0  0  0  0
 22 51  1  0  0  0  0
 22 52  1  0  0  0  0
 23 24  1  0  0  0  0
 23 53  1  0  0  0  0
 25 54  1  0  0  0  0
 25 55  1  0  0  0  0
M  CHG  1   3   1
M  CHG  1  16   1
M  END
> <s_m_source_file>
AV-unprocessed.smi

> <i_m_source_file_index>
1047

> <i_lp_mmshare_version>
43012

> <i_f3d_flags>
0

> <s_epik_input>
W0NIM11bQ0gyXU4xW0NIMl1bQ0gyXU9bQ0BIXShbQ0gyXTEpW0NIMl1bTkhdW0NIMl1bQ0BIXShbT0hdKVtDSDJdbihbY0hdbjIpYyhjMjMpW2NIXWMoW0NIM10pYyhbY0hdMylbQ0gzXQ==

> <s_epik_cmdline>
J2VwaWtfcHl0aG9uJywgJy1waCcsICc3LjAnLCAnLXRuJywgJzgnLCAnLW1hJywgJzIwMCcsICctbWV0YWxfYmluZGluZycsICctaW1hZScsICc8aW5maWxlLm1hZT4nLCAnLW9tYWUnLCAnPG91dGZpbGUubWFlPic=

> <r_epik_Ionization_Penalty>
2.03028

> <r_epik_Ionization_Penalty_Charging>
1.21256

> <r_epik_Ionization_Penalty_Neutral>
0.817715

> <r_epik_State_Penalty>
2.54959

> <r_epik_Charging_Adjusted_Penalty>
3.76215

> <i_epik_Tot_Q>
2

> <i_epik_Tot_abs_Q>
2

> <r_epik_Metal_State_Penalty>
6.52811

> <b_epik_Metal_Only>
0

> <s_lp_Force_Field>
OPLS_2005

> <r_lp_Energy>
34.649

> <b_lp_Chiralities_Consistent>
1

> <s_lp_Variant>
AV-unprocessed.smi:1047-44

> <Gold.Version>
5.8.1

> <Gold.Id.Protein>
6NUR|6NUR_protein|mol2

> <Gold.PLP.Fitness>
61.5011

> <Gold.PLP.PLP>
-53.9514

> <Gold.PLP.part.hbond>
-3.7741

> <Gold.PLP.part.metal>
0.0000

> <Gold.PLP.part.buried>
-2.8881

> <Gold.PLP.part.nonpolar>
-47.8807

> <Gold.PLP.part.repulsive>
0.0440

> <Gold.PLP.ligand.clash>
0.0000

> <Gold.PLP.ligand.torsion>
1.6567

> <Gold.PLP.Chemscore.Hbond>
3.5520

> <Gold.PLP.Chemscore.CHOScore>
0.0000

> <Gold.PLP.Chemscore.Metal>
0.0000

> <Gold.Chemscore.Hbonds>
donor molecule, donor type, donor heavy atom, donor atom, acceptor molecule, acceptor atom, score
      L1  H    16    57       P1  8028  2.00
      P1  H  7997  8010       L1     9  0.55
      P1  H 10752 10765       L1     6  0.99

> <Gold.PLP.Chemscore.Internal.Correction>
0.2069

> <Gold.Rescore>
     Score         DG    S(hbond)    S(metal)    S(lipo)     H(rot)  DE(clash)    DE(int)     intcor
     21.27     -24.15       1.95        0.00     163.20       2.71       1.52       1.35       ----

> <Gold.Chemscore.Fitness>
21.2747

> <Gold.Chemscore.DG>
-24.1482

> <Gold.Chemscore.ZeroCoef>
-5.4800

> <Gold.Chemscore.Hbond>
1.9488

> <Gold.Chemscore.Metal>
0.0000

> <Gold.Chemscore.Lipo>
163.1964

> <Gold.Chemscore.Internal_Hbond>
0.0000

> <Gold.Chemscore.DEClash>
1.5232

> <Gold.Chemscore.DEInternal>
1.3503

> <Gold.Chemscore.Rot>
2.7088

> <Gold.Chemscore.Internal.Correction>
   9.000000E+99

> <Gold.Chemscore.Hbonds>
donor molecule, donor type, donor heavy atom, donor atom, acceptor molecule, acceptor atom, score
      L1  H    16    57       P1  8028  1.00
      P1  H  7997  8010       L1     9  0.05
      P1  H 10752 10765       L1     6  0.59

> <Gold.Chemscore.Hbond.Weighted>
-6.5089

> <Gold.Chemscore.Metal.Weighted>
-0.0000

> <Gold.Chemscore.Lipo.Weighted>
-19.0940

> <Gold.Chemscore.Internal_Hbond.Weighted>
0.0000

> <Gold.Chemscore.DEClash.Weighted>
1.5232

> <Gold.Chemscore.DEInternal.Weighted>
1.3503

> <Gold.Chemscore.Rot.Weighted>
6.9346

> <Gold.Chemscore.Internal.Correction.Weighted>
   9.000000E+99

> <Gold.Protein.RotatedTorsions>
[ 6907 6896 6895 6894 ] final -172.05 input  -60.11 | X-H torsion
[ 7974 7965 7964 7962 ] final   20.08 input  175.53 | X-H torsion
[ 8008 7997 7996 7995 ] final  135.77 input   59.86 | X-H torsion
[ 10167 10162 10161 10158 ] final -136.47 input  -65.29 | X-H torsion
[ 10718 10713 10712 10709 ] final  127.06 input   66.30 | X-H torsion
[ 10763 10752 10751 10750 ] final  -19.40 input  -60.55 | X-H torsion
[ 11005 11000 10999 10996 ] final  121.81 input  -57.11 | X-H torsion

> <Gold.Protein.ActiveResidues>
 VAL166  LYS551  ARG553  GLY616  TRP617  ASP618  TYR619  PRO620  LYS621  CYS622 
 ASP623  PHE694  ASN695  SER759  ASP760  ASP761  ALA762  ILE779  LEU786  VAL792 
 PHE793  MET794  SER795  GLU796  ALA797  LYS798  CYS799  TRP800  GLU811  SER814 

> <Gold.Protein.RotatedAtoms>
  151.5338  133.3444  159.2922 H   0  0  0  0  0  0  0  0  0  0  0  0  # atno 6907 bound_to 6896
  150.8577  134.7923  159.7070 H   0  0  0  0  0  0  0  0  0  0  0  0  # atno 6908 bound_to 6896
  152.4606  134.5201  159.9832 H   0  0  0  0  0  0  0  0  0  0  0  0  # atno 6909 bound_to 6896
  146.2125  139.8221  142.8677 H   0  0  0  0  0  0  0  0  0  0  0  0  # atno 7974 bound_to 7965
  156.3003  140.2462  156.3636 H   0  0  0  0  0  0  0  0  0  0  0  0  # atno 8008 bound_to 7997
  154.8854  140.0411  157.1827 H   0  0  0  0  0  0  0  0  0  0  0  0  # atno 8009 bound_to 7997
  154.8652  140.2926  155.5518 H   0  0  0  0  0  0  0  0  0  0  0  0  # atno 8010 bound_to 7997
  139.8674  143.7000  152.2643 H   0  0  0  0  0  0  0  0  0  0  0  0  # atno 10167 bound_to 10162
  157.5365  131.1097  150.8927 H   0  0  0  0  0  0  0  0  0  0  0  0  # atno 10718 bound_to 10713
  153.6043  135.6998  153.5372 H   0  0  0  0  0  0  0  0  0  0  0  0  # atno 10763 bound_to 10752
  153.3071  135.4112  155.1303 H   0  0  0  0  0  0  0  0  0  0  0  0  # atno 10764 bound_to 10752
  154.8576  135.3663  154.5579 H   0  0  0  0  0  0  0  0  0  0  0  0  # atno 10765 bound_to 10752
  139.9241  134.9640  156.8014 H   0  0  0  0  0  0  0  0  0  0  0  0  # atno 11005 bound_to 11000
  145.3085  141.0213  143.3568 LP  0  0  0  0  0  0  0  0  0  0  0  0  # atno 17320 bound_to 7965
  144.8953  139.4720  143.6658 LP  0  0  0  0  0  0  0  0  0  0  0  0  # atno 17321 bound_to 7965
  139.7316  144.7581  151.0793 LP  0  0  0  0  0  0  0  0  0  0  0  0  # atno 17342 bound_to 10162
  140.7766  143.5081  150.9686 LP  0  0  0  0  0  0  0  0  0  0  0  0  # atno 17343 bound_to 10162
  156.9492  130.5413  149.5282 LP  0  0  0  0  0  0  0  0  0  0  0  0  # atno 17370 bound_to 10713
  156.0463  130.5539  150.8887 LP  0  0  0  0  0  0  0  0  0  0  0  0  # atno 17371 bound_to 10713
  140.6386  133.9839  155.7696 LP  0  0  0  0  0  0  0  0  0  0  0  0  # atno 17394 bound_to 11000
  141.0786  134.0097  157.3420 LP  0  0  0  0  0  0  0  0  0  0  0  0  # atno 17395 bound_to 11000

$$$$
