AV-unprocessed.smi:279|AV-procd|sdf|2096|dock4
  -GOLD-   2262021383D 1   1.00000     0.00000
 Structure written by MMmdl.
 50 54  0  0  0  0  0  0  0  0  1 V2000
  153.9131  142.3897  163.0920 O   0  0  0  0  0  0  0  0  0  0  0  0
  152.8410  142.5716  162.1018 S   0  0  0  0  0  0  0  0  0  0  0  0
  151.5557  141.8700  162.2427 O   0  0  0  0  0  0  0  0  0  0  0  0
  152.5228  144.3551  161.8688 C   0  0  0  0  0  0  0  0  0  0  0  0
  152.1880  144.4911  160.3806 C   0  0  0  0  0  0  0  0  0  0  0  0
  153.1167  143.5544  159.5740 C   0  0  2  0  0  0  0  0  0  0  0  0
  152.4904  142.9958  158.2864 C   0  0  0  0  0  0  0  0  0  0  0  0
  152.7843  141.5696  158.2785 N   0  0  0  0  0  0  0  0  0  0  0  0
  152.1890  140.7592  157.3604 C   0  0  0  0  0  0  0  0  0  0  0  0
  152.7505  139.5471  157.1026 N   0  0  0  0  0  0  0  0  0  0  0  0
  152.2025  138.7146  156.2138 C   0  0  0  0  0  0  0  0  0  0  0  0
  151.1110  138.8920  155.4696 N   0  0  0  0  0  0  0  0  0  0  0  0
  150.5473  140.1109  155.7032 C   0  0  0  0  0  0  0  0  0  0  0  0
  151.0122  141.0957  156.6240 C   0  0  0  0  0  0  0  0  0  0  0  0
  150.1679  142.2006  156.5825 N   0  0  0  0  0  0  0  0  0  0  0  0
  149.2572  141.8838  155.7041 C   0  0  0  0  0  0  0  0  0  0  0  0
  149.4233  140.6562  155.1071 N   0  0  0  0  0  0  0  0  0  0  0  0
  148.5499  140.0459  154.1479 C   0  0  0  0  0  0  0  0  0  0  0  0
  147.0805  139.7615  154.4760 C   0  0  0  0  0  0  0  0  0  0  0  0
  147.1341  138.5107  153.5689 C   0  0  0  0  0  0  0  0  0  0  0  0
  146.3767  137.2636  154.0657 C   0  0  0  0  0  0  0  0  0  0  0  0
  146.6775  136.1070  153.3103 O   0  0  0  0  0  0  0  0  0  0  0  0
  146.6837  138.7676  152.1179 C   0  0  0  0  0  0  0  0  0  0  0  0
  147.1410  137.7544  151.2454 O   0  0  0  0  0  0  0  0  0  0  0  0
  148.6612  138.5563  153.8089 C   0  0  0  0  0  0  0  0  0  0  0  0
  152.9088  141.1245  159.6595 C   0  0  0  0  0  0  0  0  0  0  0  0
  153.5046  142.3208  160.4054 C   0  0  2  0  0  0  0  0  0  0  0  0
  154.0331  144.0934  159.3290 H   0  0  0  0  0  0  0  0  0  0  0  0
  154.5906  142.2382  160.4615 H   0  0  0  0  0  0  0  0  0  0  0  0
  151.7217  144.6881  162.5286 H   0  0  0  0  0  0  0  0  0  0  0  0
  153.4348  144.9000  162.1135 H   0  0  0  0  0  0  0  0  0  0  0  0
  151.1498  144.1869  160.2424 H   0  0  0  0  0  0  0  0  0  0  0  0
  152.2624  145.5243  160.0408 H   0  0  0  0  0  0  0  0  0  0  0  0
  151.4100  143.1446  158.2621 H   0  0  0  0  0  0  0  0  0  0  0  0
  152.9228  143.4913  157.4174 H   0  0  0  0  0  0  0  0  0  0  0  0
  152.7126  137.7724  156.0782 H   0  0  0  0  0  0  0  0  0  0  0  0
  148.4375  142.5453  155.4638 H   0  0  0  0  0  0  0  0  0  0  0  0
  148.6314  140.6516  153.2440 H   0  0  0  0  0  0  0  0  0  0  0  0
  146.9314  139.5363  155.5331 H   0  0  0  0  0  0  0  0  0  0  0  0
  146.3894  140.5378  154.1461 H   0  0  0  0  0  0  0  0  0  0  0  0
  146.6185  137.0538  155.1079 H   0  0  0  0  0  0  0  0  0  0  0  0
  145.2979  137.4139  154.0174 H   0  0  0  0  0  0  0  0  0  0  0  0
  147.4383  136.2853  152.7787 H   0  0  0  0  0  0  0  0  0  0  0  0
  145.5969  138.8245  152.0491 H   0  0  0  0  0  0  0  0  0  0  0  0
  147.0609  139.7208  151.7474 H   0  0  0  0  0  0  0  0  0  0  0  0
  147.5666  137.0851  151.7595 H   0  0  0  0  0  0  0  0  0  0  0  0
  149.2743  138.3408  152.9335 H   0  0  0  0  0  0  0  0  0  0  0  0
  148.9849  137.9599  154.6635 H   0  0  0  0  0  0  0  0  0  0  0  0
  151.9185  140.8639  160.0330 H   0  0  0  0  0  0  0  0  0  0  0  0
  153.5500  140.2467  159.7477 H   0  0  0  0  0  0  0  0  0  0  0  0
  1  2  2  0  0  0  0
  2 27  1  0  0  0  0
  2  3  2  0  0  0  0
  2  4  1  0  0  0  0
  4  5  1  0  0  0  0
  4 30  1  0  0  0  0
  4 31  1  0  0  0  0
  5  6  1  0  0  0  0
  5 32  1  0  0  0  0
  5 33  1  0  0  0  0
  6 28  1  0  0  0  0
  6 27  1  0  0  0  0
  6  7  1  0  0  0  0
  7  8  1  0  0  0  0
  7 34  1  0  0  0  0
  7 35  1  0  0  0  0
  8  9  1  0  0  0  0
  8 26  1  0  0  0  0
  9 14  1  0  0  0  0
  9 10  2  0  0  0  0
 10 11  1  0  0  0  0
 11 12  2  0  0  0  0
 11 36  1  0  0  0  0
 12 13  1  0  0  0  0
 13 17  1  0  0  0  0
 13 14  2  0  0  0  0
 14 15  1  0  0  0  0
 15 16  2  0  0  0  0
 16 17  1  0  0  0  0
 16 37  1  0  0  0  0
 17 18  1  0  0  0  0
 18 25  1  0  0  0  0
 18 19  1  0  0  0  0
 18 38  1  0  0  0  0
 19 20  1  0  0  0  0
 19 39  1  0  0  0  0
 19 40  1  0  0  0  0
 20 21  1  0  0  0  0
 20 23  1  0  0  0  0
 20 25  1  0  0  0  0
 21 22  1  0  0  0  0
 21 41  1  0  0  0  0
 21 42  1  0  0  0  0
 22 43  1  0  0  0  0
 23 24  1  0  0  0  0
 23 44  1  0  0  0  0
 23 45  1  0  0  0  0
 24 46  1  0  0  0  0
 25 47  1  0  0  0  0
 25 48  1  0  0  0  0
 26 27  1  0  0  0  0
 26 49  1  0  0  0  0
 26 50  1  0  0  0  0
 27 29  1  0  0  0  0
M  END
> <s_m_source_file>
AV-unprocessed.smi

> <i_m_source_file_index>
279

> <i_lp_mmshare_version>
43012

> <i_f3d_flags>
0

> <s_epik_input>
W0NIMl0xW0NIMl1TKD1PKSg9TylbQ0BASF0oW0NAQEhdMTIpW0NIMl1OKFtDSDJdMiljKG5bY0hdbjMpYyhjMzQpbltjSF1uNFtDSF0oW0NIMl01KVtDSDJdQzUoW0NIMl1bT0hdKVtDSDJdW09IXQ==

> <s_epik_cmdline>
J2VwaWtfcHl0aG9uJywgJy1waCcsICc3LjAnLCAnLXRuJywgJzgnLCAnLW1hJywgJzIwMCcsICctbWV0YWxfYmluZGluZycsICctaW1hZScsICc8aW5maWxlLm1hZT4nLCAnLW9tYWUnLCAnPG91dGZpbGUubWFlPic=

> <r_lp_tautomer_probability>
1

> <r_epik_Ionization_Penalty>
0.000990948

> <r_epik_Ionization_Penalty_Charging>
0

> <r_epik_Ionization_Penalty_Neutral>
0.000990948

> <r_epik_State_Penalty>
0.000515994

> <r_epik_Charging_Adjusted_Penalty>
0.000515994

> <i_epik_Tot_Q>
0

> <i_epik_Tot_abs_Q>
0

> <r_epik_Metal_State_Penalty>
-0

> <b_epik_Metal_Only>
0

> <s_lp_Force_Field>
OPLS_2005

> <r_lp_Energy>
55.7342

> <b_lp_Chiralities_Consistent>
1

> <s_lp_Variant>
AV-unprocessed.smi:279-2

> <Gold.Version>
5.8.1

> <Gold.Id.Protein>
6NUR|6NUR_protein|mol2

> <Gold.PLP.Fitness>
49.0598

> <Gold.PLP.PLP>
-32.8490

> <Gold.PLP.part.hbond>
-5.7559

> <Gold.PLP.part.metal>
0.0000

> <Gold.PLP.part.buried>
9.2881

> <Gold.PLP.part.nonpolar>
-37.4259

> <Gold.PLP.part.repulsive>
1.7991

> <Gold.PLP.ligand.clash>
0.0000

> <Gold.PLP.ligand.torsion>
0.5652

> <Gold.PLP.Chemscore.Hbond>
4.8480

> <Gold.PLP.Chemscore.CHOScore>
0.6758

> <Gold.PLP.Chemscore.Metal>
0.0000

> <Gold.Chemscore.Hbonds>
donor molecule, donor type, donor heavy atom, donor atom, acceptor molecule, acceptor atom, score
      L1  H    22    43       P1  7948  1.00
      L1  H    24    46       P1  7948  0.80
      P1  H  6933  6945       L1     3  0.94
      P1  H  7954  7966       L1    24  1.00
      P1  H  7997  8009       L1    10  0.95
      L1  C    16    37       P1  8028  0.72

> <Gold.PLP.Chemscore.Internal.Correction>
0.7699

> <Gold.Rescore>
     Score         DG    S(hbond)    S(metal)    S(lipo)     H(rot)  DE(clash)    DE(int)     intcor
     13.08     -21.18       3.50        0.00     106.25       3.29       5.35       2.76       ----

> <Gold.Chemscore.Fitness>
13.0778

> <Gold.Chemscore.DG>
-21.1798

> <Gold.Chemscore.ZeroCoef>
-5.4800

> <Gold.Chemscore.Hbond>
3.5038

> <Gold.Chemscore.Metal>
0.0000

> <Gold.Chemscore.Lipo>
106.2454

> <Gold.Chemscore.Internal_Hbond>
0.0000

> <Gold.Chemscore.DEClash>
5.3452

> <Gold.Chemscore.DEInternal>
2.7568

> <Gold.Chemscore.Rot>
3.2944

> <Gold.Chemscore.Internal.Correction>
   9.000000E+99

> <Gold.Chemscore.Hbonds>
donor molecule, donor type, donor heavy atom, donor atom, acceptor molecule, acceptor atom, score
      L1  H    22    43       P1  7948  1.00
      L1  H    24    46       P1  7948  0.78
      P1  H  6933  6945       L1     3  0.87
      P1  H  7954  7966       L1    24  0.35
      P1  H  7997  8009       L1    10  0.18

> <Gold.Chemscore.Hbond.Weighted>
-11.7028

> <Gold.Chemscore.Metal.Weighted>
-0.0000

> <Gold.Chemscore.Lipo.Weighted>
-12.4307

> <Gold.Chemscore.Internal_Hbond.Weighted>
0.0000

> <Gold.Chemscore.DEClash.Weighted>
5.3452

> <Gold.Chemscore.DEInternal.Weighted>
2.7568

> <Gold.Chemscore.Rot.Weighted>
8.4337

> <Gold.Chemscore.Internal.Correction.Weighted>
   9.000000E+99

> <Gold.Protein.RotatedTorsions>
[ 6907 6896 6895 6894 ] final   29.82 input  -60.11 | X-H torsion
[ 7974 7965 7964 7962 ] final  -61.85 input  175.53 | X-H torsion
[ 8008 7997 7996 7995 ] final  179.88 input   59.86 | X-H torsion
[ 10167 10162 10161 10158 ] final  165.02 input  -65.29 | X-H torsion
[ 10718 10713 10712 10709 ] final -130.53 input   66.30 | X-H torsion
[ 10763 10752 10751 10750 ] final  133.64 input  -60.55 | X-H torsion
[ 11005 11000 10999 10996 ] final  -91.23 input  -57.11 | X-H torsion

> <Gold.Protein.ActiveResidues>
 VAL166  LYS551  ARG553  GLY616  TRP617  ASP618  TYR619  PRO620  LYS621  CYS622 
 ASP623  PHE694  ASN695  SER759  ASP760  ASP761  ALA762  ILE779  LEU786  VAL792 
 PHE793  MET794  SER795  GLU796  ALA797  LYS798  CYS799  TRP800  GLU811  SER814 

> <Gold.Protein.RotatedAtoms>
  152.0371  134.9734  160.0573 H   0  0  0  0  0  0  0  0  0  0  0  0  # atno 6907 bound_to 6896
  152.1187  133.4336  159.4673 H   0  0  0  0  0  0  0  0  0  0  0  0  # atno 6908 bound_to 6896
  150.6847  134.2479  159.4542 H   0  0  0  0  0  0  0  0  0  0  0  0  # atno 6909 bound_to 6896
  145.7985  140.8669  143.0244 H   0  0  0  0  0  0  0  0  0  0  0  0  # atno 7974 bound_to 7965
  156.0383  140.1297  157.0183 H   0  0  0  0  0  0  0  0  0  0  0  0  # atno 8008 bound_to 7997
  154.4380  140.1035  156.6271 H   0  0  0  0  0  0  0  0  0  0  0  0  # atno 8009 bound_to 7997
  155.5704  140.3466  155.4516 H   0  0  0  0  0  0  0  0  0  0  0  0  # atno 8010 bound_to 7997
  139.4898  144.4175  151.9226 H   0  0  0  0  0  0  0  0  0  0  0  0  # atno 10167 bound_to 10162
  156.2154  130.6945  151.0696 H   0  0  0  0  0  0  0  0  0  0  0  0  # atno 10718 bound_to 10713
  153.8104  135.3130  155.3400 H   0  0  0  0  0  0  0  0  0  0  0  0  # atno 10763 bound_to 10752
  154.8054  135.4701  154.0381 H   0  0  0  0  0  0  0  0  0  0  0  0  # atno 10764 bound_to 10752
  153.1757  135.6885  153.8634 H   0  0  0  0  0  0  0  0  0  0  0  0  # atno 10765 bound_to 10752
  141.1549  133.7742  156.9850 H   0  0  0  0  0  0  0  0  0  0  0  0  # atno 11005 bound_to 11000
  144.6772  140.0224  143.7483 LP  0  0  0  0  0  0  0  0  0  0  0  0  # atno 17320 bound_to 7965
  145.9903  139.3010  143.0989 LP  0  0  0  0  0  0  0  0  0  0  0  0  # atno 17321 bound_to 7965
  140.3618  144.2963  150.5932 LP  0  0  0  0  0  0  0  0  0  0  0  0  # atno 17342 bound_to 10162
  140.5396  143.2226  151.8107 LP  0  0  0  0  0  0  0  0  0  0  0  0  # atno 17343 bound_to 10162
  157.7060  131.0756  150.6664 LP  0  0  0  0  0  0  0  0  0  0  0  0  # atno 17370 bound_to 10713
  156.6725  130.4543  149.5652 LP  0  0  0  0  0  0  0  0  0  0  0  0  # atno 17371 bound_to 10713
  140.1041  134.9517  157.1967 LP  0  0  0  0  0  0  0  0  0  0  0  0  # atno 17394 bound_to 11000
  140.3280  134.2842  155.7233 LP  0  0  0  0  0  0  0  0  0  0  0  0  # atno 17395 bound_to 11000

$$$$
