AV-unprocessed.smi:1363|AV-procd|sdf|5564|dock4
  -GOLD-   22720 5153D 1   1.00000     0.00000
 Structure written by MMmdl.
 44 45  0  0  0  0  0  0  0  0  1 V2000
  152.9113  132.5505  165.2211 C   0  0  0  0  0  0  0  0  0  0  0  0
  153.3961  133.6175  164.2626 C   0  0  0  0  0  0  0  0  0  0  0  0
  153.4098  134.8805  164.5371 N   0  0  0  0  0  0  0  0  0  0  0  0
  153.8777  135.7758  163.5652 C   0  0  0  0  0  0  0  0  0  0  0  0
  153.8551  137.2429  163.9593 C   0  0  0  0  0  0  0  0  0  0  0  0
  154.3185  135.3442  162.3470 C   0  0  0  0  0  0  0  0  0  0  0  0
  154.8274  136.2969  161.2659 C   0  0  0  0  0  0  0  0  0  0  0  0
  153.7953  137.2789  160.7060 C   0  0  0  0  0  0  0  0  0  0  0  0
  152.6772  136.8845  160.3733 O   0  0  0  0  0  0  0  0  0  0  0  0
  154.1812  138.5605  160.6161 N   0  0  0  0  0  0  0  0  0  0  0  0
  153.3434  139.6551  160.1412 C   0  0  0  0  0  0  0  0  0  0  0  0
  154.1625  140.9473  159.9528 C   0  0  0  0  0  0  0  0  0  0  0  0
  153.4522  142.2445  160.3265 C   0  0  0  0  0  0  0  0  0  0  0  0
  153.1766  143.2399  159.4564 C   0  0  0  0  0  0  0  0  0  0  0  0
  152.4387  144.5159  159.8234 C   0  0  0  0  0  0  0  0  0  0  0  0
  151.7253  144.4120  161.1808 C   0  0  0  0  0  0  0  0  0  0  0  0
  152.6282  143.7483  162.2262 C   0  0  0  0  0  0  0  0  0  0  0  0
  153.0404  142.3306  161.7917 C   0  0  0  0  0  0  0  0  0  0  0  0
  154.2994  133.8998  162.0450 C   0  0  0  0  0  0  0  0  0  0  0  0
  154.6664  133.4042  160.9807 O   0  0  0  0  0  0  0  0  0  0  0  0
  153.8321  133.1117  163.0390 N   0  0  0  0  0  0  0  0  0  0  0  0
  153.7967  132.1153  162.8801 H   0  0  0  0  0  0  0  0  0  0  0  0
  151.8701  132.7323  165.4886 H   0  0  0  0  0  0  0  0  0  0  0  0
  153.5079  132.5666  166.1332 H   0  0  0  0  0  0  0  0  0  0  0  0
  152.9817  131.5535  164.7841 H   0  0  0  0  0  0  0  0  0  0  0  0
  154.8663  137.6490  163.9822 H   0  0  0  0  0  0  0  0  0  0  0  0
  153.4181  137.3801  164.9491 H   0  0  0  0  0  0  0  0  0  0  0  0
  153.2630  137.8235  163.2518 H   0  0  0  0  0  0  0  0  0  0  0  0
  155.6649  136.8636  161.6745 H   0  0  0  0  0  0  0  0  0  0  0  0
  155.2521  135.7387  160.4311 H   0  0  0  0  0  0  0  0  0  0  0  0
  155.1184  138.7964  160.9094 H   0  0  0  0  0  0  0  0  0  0  0  0
  152.9042  139.3469  159.1920 H   0  0  0  0  0  0  0  0  0  0  0  0
  152.5174  139.8158  160.8363 H   0  0  0  0  0  0  0  0  0  0  0  0
  155.0751  140.8886  160.5473 H   0  0  0  0  0  0  0  0  0  0  0  0
  154.4775  141.0234  158.9115 H   0  0  0  0  0  0  0  0  0  0  0  0
  153.4840  143.1742  158.4240 H   0  0  0  0  0  0  0  0  0  0  0  0
  153.1624  145.3314  159.8383 H   0  0  0  0  0  0  0  0  0  0  0  0
  151.7143  144.7489  159.0424 H   0  0  0  0  0  0  0  0  0  0  0  0
  151.4164  145.4019  161.5172 H   0  0  0  0  0  0  0  0  0  0  0  0
  150.8131  143.8238  161.0701 H   0  0  0  0  0  0  0  0  0  0  0  0
  153.5205  144.3596  162.3674 H   0  0  0  0  0  0  0  0  0  0  0  0
  152.1252  143.7096  163.1928 H   0  0  0  0  0  0  0  0  0  0  0  0
  152.2117  141.6391  161.9474 H   0  0  0  0  0  0  0  0  0  0  0  0
  153.8601  141.9852  162.4227 H   0  0  0  0  0  0  0  0  0  0  0  0
  1  2  1  0  0  0  0
  1 23  1  0  0  0  0
  1 24  1  0  0  0  0
  1 25  1  0  0  0  0
  2 21  1  0  0  0  0
  2  3  2  0  0  0  0
  3  4  1  0  0  0  0
  4  5  1  0  0  0  0
  4  6  2  0  0  0  0
  5 26  1  0  0  0  0
  5 27  1  0  0  0  0
  5 28  1  0  0  0  0
  6  7  1  0  0  0  0
  6 19  1  0  0  0  0
  7  8  1  0  0  0  0
  7 29  1  0  0  0  0
  7 30  1  0  0  0  0
  8  9  2  0  0  0  0
  8 10  1  0  0  0  0
 10 11  1  0  0  0  0
 10 31  1  0  0  0  0
 11 12  1  0  0  0  0
 11 32  1  0  0  0  0
 11 33  1  0  0  0  0
 12 13  1  0  0  0  0
 12 34  1  0  0  0  0
 12 35  1  0  0  0  0
 13 18  1  0  0  0  0
 13 14  2  0  0  0  0
 14 15  1  0  0  0  0
 14 36  1  0  0  0  0
 15 16  1  0  0  0  0
 15 37  1  0  0  0  0
 15 38  1  0  0  0  0
 16 17  1  0  0  0  0
 16 39  1  0  0  0  0
 16 40  1  0  0  0  0
 17 18  1  0  0  0  0
 17 41  1  0  0  0  0
 17 42  1  0  0  0  0
 18 43  1  0  0  0  0
 18 44  1  0  0  0  0
 19 20  2  0  0  0  0
 19 21  1  0  0  0  0
 21 22  1  0  0  0  0
M  END
> <s_m_source_file>
AV-unprocessed.smi

> <i_m_source_file_index>
1363

> <i_lp_mmshare_version>
43012

> <i_f3d_flags>
0

> <s_epik_input>
W0NIM11jMW5jKFtDSDNdKWMoYyg9TylbbkhdMSlbQ0gyXUMoPU8pW05IXVtDSDJdW0NIMl1DMj1bQ0hdW0NIMl1bQ0gyXVtDSDJdW0NIMl0y

> <s_epik_cmdline>
J2VwaWtfcHl0aG9uJywgJy1waCcsICc3LjAnLCAnLXRuJywgJzgnLCAnLW1hJywgJzIwMCcsICctbWV0YWxfYmluZGluZycsICctaW1hZScsICc8aW5maWxlLm1hZT4nLCAnLW9tYWUnLCAnPG91dGZpbGUubWFlPic=

> <r_lp_tautomer_probability>
0.839158

> <r_epik_Ionization_Penalty>
0.000390001

> <r_epik_Ionization_Penalty_Charging>
0.000357609

> <r_epik_Ionization_Penalty_Neutral>
3.23917e-05

> <r_epik_State_Penalty>
0.0470088

> <r_epik_Charging_Adjusted_Penalty>
0.0473664

> <i_epik_Tot_Q>
0

> <i_epik_Tot_abs_Q>
0

> <r_epik_Metal_State_Penalty>
0.223611

> <b_epik_Metal_Only>
0

> <s_lp_Force_Field>
OPLS_2005

> <r_lp_Energy>
9.33337

> <b_lp_Chiralities_Consistent>
1

> <s_lp_Variant>
AV-unprocessed.smi:1363-1

> <Gold.Version>
5.8.1

> <Gold.Id.Protein>
6NUR|6NUR_protein|mol2

> <Gold.PLP.Fitness>
48.7509

> <Gold.PLP.PLP>
-46.6688

> <Gold.PLP.part.hbond>
-0.9766

> <Gold.PLP.part.metal>
0.0000

> <Gold.PLP.part.buried>
-6.1777

> <Gold.PLP.part.nonpolar>
-39.9286

> <Gold.PLP.part.repulsive>
0.1495

> <Gold.PLP.ligand.clash>
0.0000

> <Gold.PLP.ligand.torsion>
0.4646

> <Gold.PLP.Chemscore.Hbond>
1.0000

> <Gold.PLP.Chemscore.CHOScore>
0.0000

> <Gold.PLP.Chemscore.Metal>
0.0000

> <Gold.Chemscore.Hbonds>
donor molecule, donor type, donor heavy atom, donor atom, acceptor molecule, acceptor atom, score
      P1  H  6896  6907       L1     9  1.00

> <Gold.PLP.Chemscore.Internal.Correction>
0.0112

> <Gold.Rescore>
     Score         DG    S(hbond)    S(metal)    S(lipo)     H(rot)  DE(clash)    DE(int)     intcor
     17.89     -18.57       0.98        0.00     124.72       1.86       0.04       0.64       ----

> <Gold.Chemscore.Fitness>
17.8886

> <Gold.Chemscore.DG>
-18.5709

> <Gold.Chemscore.ZeroCoef>
-5.4800

> <Gold.Chemscore.Hbond>
0.9784

> <Gold.Chemscore.Metal>
0.0000

> <Gold.Chemscore.Lipo>
124.7229

> <Gold.Chemscore.Internal_Hbond>
0.0000

> <Gold.Chemscore.DEClash>
0.0398

> <Gold.Chemscore.DEInternal>
0.6425

> <Gold.Chemscore.Rot>
1.8631

> <Gold.Chemscore.Internal.Correction>
   9.000000E+99

> <Gold.Chemscore.Hbonds>
donor molecule, donor type, donor heavy atom, donor atom, acceptor molecule, acceptor atom, score
      P1  H  6896  6907       L1     9  0.99

> <Gold.Chemscore.Hbond.Weighted>
-3.2680

> <Gold.Chemscore.Metal.Weighted>
-0.0000

> <Gold.Chemscore.Lipo.Weighted>
-14.5926

> <Gold.Chemscore.Internal_Hbond.Weighted>
0.0000

> <Gold.Chemscore.DEClash.Weighted>
0.0398

> <Gold.Chemscore.DEInternal.Weighted>
0.6425

> <Gold.Chemscore.Rot.Weighted>
4.7697

> <Gold.Chemscore.Internal.Correction.Weighted>
   9.000000E+99

> <Gold.Protein.RotatedTorsions>
[ 6907 6896 6895 6894 ] final   25.53 input  -60.11 | X-H torsion
[ 7974 7965 7964 7962 ] final   -6.25 input  175.53 | X-H torsion
[ 8008 7997 7996 7995 ] final  143.28 input   59.86 | X-H torsion
[ 10167 10162 10161 10158 ] final -104.97 input  -65.29 | X-H torsion
[ 10718 10713 10712 10709 ] final  -29.13 input   66.30 | X-H torsion
[ 10763 10752 10751 10750 ] final  -97.38 input  -60.55 | X-H torsion
[ 11005 11000 10999 10996 ] final -177.19 input  -57.11 | X-H torsion

> <Gold.Protein.ActiveResidues>
 VAL166  LYS551  ARG553  GLY616  TRP617  ASP618  TYR619  PRO620  LYS621  CYS622 
 ASP623  PHE694  ASN695  SER759  ASP760  ASP761  ALA762  ILE779  LEU786  VAL792 
 PHE793  MET794  SER795  GLU796  ALA797  LYS798  CYS799  TRP800  GLU811  SER814 

> <Gold.Protein.RotatedAtoms>
  151.9739  135.0063  160.0553 H   0  0  0  0  0  0  0  0  0  0  0  0  # atno 6907 bound_to 6896
  152.1758  133.4669  159.4941 H   0  0  0  0  0  0  0  0  0  0  0  0  # atno 6908 bound_to 6896
  150.6909  134.1813  159.4293 H   0  0  0  0  0  0  0  0  0  0  0  0  # atno 6909 bound_to 6896
  146.2335  140.2143  142.8336 H   0  0  0  0  0  0  0  0  0  0  0  0  # atno 7974 bound_to 7965
  156.2933  140.2266  156.4866 H   0  0  0  0  0  0  0  0  0  0  0  0  # atno 8008 bound_to 7997
  154.7807  140.0460  157.1146 H   0  0  0  0  0  0  0  0  0  0  0  0  # atno 8009 bound_to 7997
  154.9762  140.3072  155.4969 H   0  0  0  0  0  0  0  0  0  0  0  0  # atno 8010 bound_to 7997
  140.2036  143.3800  152.1109 H   0  0  0  0  0  0  0  0  0  0  0  0  # atno 10167 bound_to 10162
  156.4164  130.4418  149.7215 H   0  0  0  0  0  0  0  0  0  0  0  0  # atno 10718 bound_to 10713
  154.7322  135.5049  153.8983 H   0  0  0  0  0  0  0  0  0  0  0  0  # atno 10763 bound_to 10752
  153.0961  135.6672  153.9769 H   0  0  0  0  0  0  0  0  0  0  0  0  # atno 10764 bound_to 10752
  153.9567  135.3052  155.3415 H   0  0  0  0  0  0  0  0  0  0  0  0  # atno 10765 bound_to 10752
  140.4436  134.6408  157.4769 H   0  0  0  0  0  0  0  0  0  0  0  0  # atno 11005 bound_to 11000
  144.9682  140.8343  143.5471 LP  0  0  0  0  0  0  0  0  0  0  0  0  # atno 17320 bound_to 7965
  145.2121  139.2199  143.5137 LP  0  0  0  0  0  0  0  0  0  0  0  0  # atno 17321 bound_to 7965
  139.5207  144.7037  151.5418 LP  0  0  0  0  0  0  0  0  0  0  0  0  # atno 17342 bound_to 10162
  140.6373  143.8958  150.6659 LP  0  0  0  0  0  0  0  0  0  0  0  0  # atno 17343 bound_to 10162
  156.4173  130.7751  151.2767 LP  0  0  0  0  0  0  0  0  0  0  0  0  # atno 17370 bound_to 10713
  157.7508  131.0193  150.3663 LP  0  0  0  0  0  0  0  0  0  0  0  0  # atno 17371 bound_to 10713
  140.0053  134.6773  155.9465 LP  0  0  0  0  0  0  0  0  0  0  0  0  # atno 17394 bound_to 11000
  141.1695  133.6537  156.4599 LP  0  0  0  0  0  0  0  0  0  0  0  0  # atno 17395 bound_to 11000

$$$$
