AV-unprocessed.smi:3337|AV-procd|sdf|12861|dock1
  -GOLD-   2272019253D 1   1.00000     0.00000
 Structure written by MMmdl.
 46 47  0  0  0  0  0  0  0  0  2 V2000
  153.9846  141.7627  161.4866 C   0  0  0  0  0  0  0  0  0  0  0  0
  153.3413  142.3175  160.2078 C   0  0  2  0  0  0  0  0  0  0  0  0
  152.2672  143.3707  160.5335 C   0  0  0  0  0  0  0  0  0  0  0  0
  151.5727  143.8879  159.2606 C   0  0  1  0  0  0  0  0  0  0  0  0
  152.4566  144.8445  158.4411 C   0  0  0  0  0  0  0  0  0  0  0  0
  151.0466  142.7110  158.4152 C   0  0  0  0  0  0  0  0  0  0  0  0
  152.1190  141.7293  158.1057 N   0  3  2  0  0  0  0  0  0  0  0  0
  151.6525  140.6681  157.1781 C   0  0  0  0  0  0  0  0  0  0  0  0
  150.9604  141.2406  155.9253 C   0  0  0  0  0  0  0  0  0  0  0  0
  149.5918  140.7532  155.8009 N   0  0  0  0  0  0  0  0  0  0  0  0
  148.7560  141.0604  154.7963 C   0  0  0  0  0  0  0  0  0  0  0  0
  149.0755  141.7959  153.8616 O   0  0  0  0  0  0  0  0  0  0  0  0
  147.3509  140.4429  154.8607 C   0  0  2  0  0  0  0  0  0  0  0  0
  147.0587  139.5293  153.6533 C   0  0  0  0  0  0  0  0  0  0  0  0
  146.3483  141.4890  155.0195 N   0  0  0  0  0  0  0  0  0  0  0  0
  145.9563  142.4377  154.1658 C   0  0  0  0  0  0  0  0  0  0  0  0
  144.9771  143.2045  154.6242 N   0  0  0  0  0  0  0  0  0  0  0  0
  144.7904  142.6284  155.8485 C   0  0  0  0  0  0  0  0  0  0  0  0
  145.5765  141.5897  156.1306 N   0  0  0  0  0  0  0  0  0  0  0  0
  152.7399  141.1909  159.3455 C   0  0  0  0  0  0  0  0  0  0  0  0
  153.2493  141.2587  162.1148 H   0  0  0  0  0  0  0  0  0  0  0  0
  154.4352  142.5608  162.0770 H   0  0  0  0  0  0  0  0  0  0  0  0
  154.7703  141.0440  161.2522 H   0  0  0  0  0  0  0  0  0  0  0  0
  154.1333  142.7984  159.6324 H   0  0  0  0  0  0  0  0  0  0  0  0
  151.5180  142.9270  161.1910 H   0  0  0  0  0  0  0  0  0  0  0  0
  152.7041  144.2014  161.0893 H   0  0  0  0  0  0  0  0  0  0  0  0
  150.7080  144.4713  159.5800 H   0  0  0  0  0  0  0  0  0  0  0  0
  153.3400  144.3457  158.0425 H   0  0  0  0  0  0  0  0  0  0  0  0
  152.7953  145.6829  159.0503 H   0  0  0  0  0  0  0  0  0  0  0  0
  151.9044  145.2573  157.5966 H   0  0  0  0  0  0  0  0  0  0  0  0
  150.2425  142.2013  158.9489 H   0  0  0  0  0  0  0  0  0  0  0  0
  150.6118  143.0952  157.4913 H   0  0  0  0  0  0  0  0  0  0  0  0
  152.4931  140.0270  156.9085 H   0  0  0  0  0  0  0  0  0  0  0  0
  150.9336  140.0290  157.6932 H   0  0  0  0  0  0  0  0  0  0  0  0
  150.9277  142.3289  155.9843 H   0  0  0  0  0  0  0  0  0  0  0  0
  151.5077  140.9958  155.0148 H   0  0  0  0  0  0  0  0  0  0  0  0
  149.2527  140.1449  156.5323 H   0  0  0  0  0  0  0  0  0  0  0  0
  147.3026  139.8177  155.7541 H   0  0  0  0  0  0  0  0  0  0  0  0
  147.7905  138.7236  153.5854 H   0  0  0  0  0  0  0  0  0  0  0  0
  147.0805  140.0741  152.7084 H   0  0  0  0  0  0  0  0  0  0  0  0
  146.0747  139.0686  153.7454 H   0  0  0  0  0  0  0  0  0  0  0  0
  146.3940  142.5687  153.1870 H   0  0  0  0  0  0  0  0  0  0  0  0
  144.0486  142.9806  156.5502 H   0  0  0  0  0  0  0  0  0  0  0  0
  153.5276  140.4820  159.0937 H   0  0  0  0  0  0  0  0  0  0  0  0
  151.9913  140.6370  159.9150 H   0  0  0  0  0  0  0  0  0  0  0  0
  152.8362  142.2436  157.6147 H   0  0  0  0  0  0  0  0  0  0  0  0
  1  2  1  0  0  0  0
  1 21  1  0  0  0  0
  1 22  1  0  0  0  0
  1 23  1  0  0  0  0
  2 20  1  0  0  0  0
  2  3  1  0  0  0  0
  2 24  1  0  0  0  0
  3  4  1  0  0  0  0
  3 25  1  0  0  0  0
  3 26  1  0  0  0  0
  4  5  1  0  0  0  0
  4  6  1  0  0  0  0
  4 27  1  0  0  0  0
  5 28  1  0  0  0  0
  5 29  1  0  0  0  0
  5 30  1  0  0  0  0
  6  7  1  0  0  0  0
  6 31  1  0  0  0  0
  6 32  1  0  0  0  0
  7  8  1  0  0  0  0
  7 20  1  0  0  0  0
  7 46  1  0  0  0  0
  8  9  1  0  0  0  0
  8 33  1  0  0  0  0
  8 34  1  0  0  0  0
  9 10  1  0  0  0  0
  9 35  1  0  0  0  0
  9 36  1  0  0  0  0
 10 11  1  0  0  0  0
 10 37  1  0  0  0  0
 11 12  2  0  0  0  0
 11 13  1  0  0  0  0
 13 14  1  0  0  0  0
 13 15  1  0  0  0  0
 13 38  1  0  0  0  0
 14 39  1  0  0  0  0
 14 40  1  0  0  0  0
 14 41  1  0  0  0  0
 15 19  1  0  0  0  0
 15 16  1  0  0  0  0
 16 17  2  0  0  0  0
 16 42  1  0  0  0  0
 17 18  1  0  0  0  0
 18 19  2  0  0  0  0
 18 43  1  0  0  0  0
 20 44  1  0  0  0  0
 20 45  1  0  0  0  0
M  CHG  1   7   1
M  END
> <s_m_source_file>
AV-unprocessed.smi

> <i_m_source_file_index>
3337

> <i_lp_mmshare_version>
43012

> <i_f3d_flags>
0

> <s_epik_input>
W0NIM11bQ0BASF0xW0NIMl1bQ0BASF0oW0NIM10pW0NIMl1OKFtDSDJdMSlbQ0gyXVtDSDJdW05IXUMoPU8pW0NASF0oW0NIM10pbjJbY0hdbltjSF1uMg==

> <s_epik_cmdline>
J2VwaWtfcHl0aG9uJywgJy1waCcsICc3LjAnLCAnLXRuJywgJzgnLCAnLW1hJywgJzIwMCcsICctbWV0YWxfYmluZGluZycsICctaW1hZScsICc8aW5maWxlLm1hZT4nLCAnLW9tYWUnLCAnPG91dGZpbGUubWFlPic=

> <r_lp_tautomer_probability>
1

> <r_epik_Ionization_Penalty>
0.00175613

> <r_epik_Ionization_Penalty_Charging>
0.00174812

> <r_epik_Ionization_Penalty_Neutral>
8.01354e-06

> <r_epik_State_Penalty>
0.00118332

> <r_epik_Charging_Adjusted_Penalty>
0.00293143

> <i_epik_Tot_Q>
1

> <i_epik_Tot_abs_Q>
1

> <r_epik_Metal_State_Penalty>
-0

> <b_epik_Metal_Only>
0

> <s_lp_Force_Field>
OPLS_2005

> <r_lp_Energy>
24.9418

> <b_lp_Chiralities_Consistent>
1

> <s_lp_Variant>
AV-unprocessed.smi:3337-1

> <Gold.Version>
5.8.1

> <Gold.Id.Protein>
6NUR|6NUR_protein|mol2

> <Gold.PLP.Fitness>
46.9829

> <Gold.PLP.PLP>
-45.8456

> <Gold.PLP.part.hbond>
-1.9275

> <Gold.PLP.part.metal>
0.0000

> <Gold.PLP.part.buried>
-6.1531

> <Gold.PLP.part.nonpolar>
-38.0880

> <Gold.PLP.part.repulsive>
0.7767

> <Gold.PLP.ligand.clash>
0.0000

> <Gold.PLP.ligand.torsion>
0.4718

> <Gold.PLP.Chemscore.Hbond>
0.6400

> <Gold.PLP.Chemscore.CHOScore>
0.0000

> <Gold.PLP.Chemscore.Metal>
0.0000

> <Gold.Chemscore.Hbonds>
donor molecule, donor type, donor heavy atom, donor atom, acceptor molecule, acceptor atom, score
      P1  H  8011  8017       L1    12  0.56

> <Gold.PLP.Chemscore.Internal.Correction>
0.1609

> <Gold.Rescore>
     Score         DG    S(hbond)    S(metal)    S(lipo)     H(rot)  DE(clash)    DE(int)     intcor
     12.73     -13.31       0.74        0.00     100.79       2.51       0.15       0.43       ----

> <Gold.Chemscore.Fitness>
12.7336

> <Gold.Chemscore.DG>
-13.3063

> <Gold.Chemscore.ZeroCoef>
-5.4800

> <Gold.Chemscore.Hbond>
0.7386

> <Gold.Chemscore.Metal>
0.0000

> <Gold.Chemscore.Lipo>
100.7910

> <Gold.Chemscore.Internal_Hbond>
0.0000

> <Gold.Chemscore.DEClash>
0.1458

> <Gold.Chemscore.DEInternal>
0.4269

> <Gold.Chemscore.Rot>
2.5129

> <Gold.Chemscore.Internal.Correction>
   9.000000E+99

> <Gold.Chemscore.Hbonds>
donor molecule, donor type, donor heavy atom, donor atom, acceptor molecule, acceptor atom, score
      P1  H  8011  8017       L1    12  0.56

> <Gold.Chemscore.Hbond.Weighted>
-2.4669

> <Gold.Chemscore.Metal.Weighted>
-0.0000

> <Gold.Chemscore.Lipo.Weighted>
-11.7925

> <Gold.Chemscore.Internal_Hbond.Weighted>
0.0000

> <Gold.Chemscore.DEClash.Weighted>
0.1458

> <Gold.Chemscore.DEInternal.Weighted>
0.4269

> <Gold.Chemscore.Rot.Weighted>
6.4331

> <Gold.Chemscore.Internal.Correction.Weighted>
   9.000000E+99

> <Gold.Protein.RotatedTorsions>
[ 6907 6896 6895 6894 ] final  167.46 input  -60.11 | X-H torsion
[ 7974 7965 7964 7962 ] final  172.18 input  175.53 | X-H torsion
[ 8008 7997 7996 7995 ] final  -42.59 input   59.86 | X-H torsion
[ 10167 10162 10161 10158 ] final -139.16 input  -65.29 | X-H torsion
[ 10718 10713 10712 10709 ] final  -19.50 input   66.30 | X-H torsion
[ 10763 10752 10751 10750 ] final  -19.42 input  -60.55 | X-H torsion
[ 11005 11000 10999 10996 ] final   38.98 input  -57.11 | X-H torsion

> <Gold.Protein.ActiveResidues>
 VAL166  LYS551  ARG553  GLY616  TRP617  ASP618  TYR619  PRO620  LYS621  CYS622 
 ASP623  PHE694  ASN695  SER759  ASP760  ASP761  ALA762  ILE779  LEU786  VAL792 
 PHE793  MET794  SER795  GLU796  ALA797  LYS798  CYS799  TRP800  GLU811  SER814 

> <Gold.Protein.RotatedAtoms>
  151.8630  133.3461  159.3709 H   0  0  0  0  0  0  0  0  0  0  0  0  # atno 6907 bound_to 6896
  150.7174  134.5187  159.5652 H   0  0  0  0  0  0  0  0  0  0  0  0  # atno 6908 bound_to 6896
  152.2704  134.7939  160.0466 H   0  0  0  0  0  0  0  0  0  0  0  0  # atno 6909 bound_to 6896
  144.7275  139.9460  143.6430 H   0  0  0  0  0  0  0  0  0  0  0  0  # atno 7974 bound_to 7965
  154.3998  140.1469  156.3380 H   0  0  0  0  0  0  0  0  0  0  0  0  # atno 8008 bound_to 7997
  155.8382  140.3463  155.5594 H   0  0  0  0  0  0  0  0  0  0  0  0  # atno 8009 bound_to 7997
  155.8115  140.0884  157.1891 H   0  0  0  0  0  0  0  0  0  0  0  0  # atno 8010 bound_to 7997
  139.8407  143.7326  152.2663 H   0  0  0  0  0  0  0  0  0  0  0  0  # atno 10167 bound_to 10162
  156.5448  130.4687  149.6481 H   0  0  0  0  0  0  0  0  0  0  0  0  # atno 10718 bound_to 10713
  153.6046  135.6998  153.5371 H   0  0  0  0  0  0  0  0  0  0  0  0  # atno 10763 bound_to 10752
  153.3068  135.4113  155.1301 H   0  0  0  0  0  0  0  0  0  0  0  0  # atno 10764 bound_to 10752
  154.8576  135.3662  154.5582 H   0  0  0  0  0  0  0  0  0  0  0  0  # atno 10765 bound_to 10752
  140.2073  134.3797  155.8066 H   0  0  0  0  0  0  0  0  0  0  0  0  # atno 11005 bound_to 11000
  146.0748  139.3736  143.0500 LP  0  0  0  0  0  0  0  0  0  0  0  0  # atno 17320 bound_to 7965
  145.7919  140.9810  143.1044 LP  0  0  0  0  0  0  0  0  0  0  0  0  # atno 17321 bound_to 7965
  139.7562  144.7520  151.0432 LP  0  0  0  0  0  0  0  0  0  0  0  0  # atno 17342 bound_to 10162
  140.7798  143.4803  151.0027 LP  0  0  0  0  0  0  0  0  0  0  0  0  # atno 17343 bound_to 10162
  156.2938  130.7139  151.1994 LP  0  0  0  0  0  0  0  0  0  0  0  0  # atno 17370 bound_to 10713
  157.7398  131.0524  150.5205 LP  0  0  0  0  0  0  0  0  0  0  0  0  # atno 17371 bound_to 10713
  141.2227  133.7125  156.8359 LP  0  0  0  0  0  0  0  0  0  0  0  0  # atno 17394 bound_to 11000
  140.1989  134.8912  157.3146 LP  0  0  0  0  0  0  0  0  0  0  0  0  # atno 17395 bound_to 11000

$$$$
