AV-unprocessed.smi:772|AV-procd|sdf|3685|dock10
  -GOLD-   22720 1103D 1   1.00000     0.00000
 Structure written by MMmdl.
 46 47  0  0  0  0  0  0  0  0  1 V2000
  143.0047  146.5602  154.6305 C   0  0  0  0  0  0  0  0  0  0  0  0
  143.9996  145.4294  154.4748 C   0  0  0  0  0  0  0  0  0  0  0  0
  144.7151  145.2555  153.2714 C   0  0  0  0  0  0  0  0  0  0  0  0
  145.6164  144.1779  153.1770 C   0  0  0  0  0  0  0  0  0  0  0  0
  145.7669  143.3186  154.2844 C   0  0  0  0  0  0  0  0  0  0  0  0
  146.6946  142.1181  154.2159 C   0  0  0  0  0  0  0  0  0  0  0  0
  146.9619  141.4698  155.5882 C   0  0  0  0  0  0  0  0  0  0  0  0
  148.3909  141.3307  155.8608 N   0  0  0  0  0  0  0  0  0  0  0  0
  149.0579  141.9043  156.8783 C   0  0  0  0  0  0  0  0  0  0  0  0
  148.4927  142.5910  157.7308 O   0  0  0  0  0  0  0  0  0  0  0  0
  150.4015  141.7145  156.8529 N   0  0  0  0  0  0  0  0  0  0  0  0
  151.0952  140.5291  156.3248 C   0  0  0  0  0  0  0  0  0  0  0  0
  151.4039  139.5732  157.4876 C   0  0  0  0  0  0  0  0  0  0  0  0
  152.5253  140.3520  158.6905 S   0  0  0  0  0  0  0  0  0  0  0  0
  151.6628  141.9425  158.9548 C   0  0  1  0  0  0  0  0  0  0  0  0
  152.4507  142.8919  159.8926 C   0  0  0  0  0  0  0  0  0  0  0  0
  152.7785  142.2820  161.2684 C   0  0  0  0  0  0  0  0  0  0  0  0
  151.7544  144.2548  160.0479 C   0  0  0  0  0  0  0  0  0  0  0  0
  151.3136  142.5912  157.5969 C   0  0  0  0  0  0  0  0  0  0  0  0
  145.0092  143.5854  155.4447 C   0  0  0  0  0  0  0  0  0  0  0  0
  144.1413  144.6148  155.5436 N   0  0  0  0  0  0  0  0  0  0  0  0
  143.0708  147.2622  153.7988 H   0  0  0  0  0  0  0  0  0  0  0  0
  143.1917  147.1098  155.5535 H   0  0  0  0  0  0  0  0  0  0  0  0
  141.9890  146.1653  154.6641 H   0  0  0  0  0  0  0  0  0  0  0  0
  144.5732  145.9252  152.4360 H   0  0  0  0  0  0  0  0  0  0  0  0
  146.1714  144.0072  152.2664 H   0  0  0  0  0  0  0  0  0  0  0  0
  146.2629  141.3803  153.5389 H   0  0  0  0  0  0  0  0  0  0  0  0
  147.6398  142.4249  153.7660 H   0  0  0  0  0  0  0  0  0  0  0  0
  146.4738  142.0468  156.3755 H   0  0  0  0  0  0  0  0  0  0  0  0
  146.5108  140.4779  155.6177 H   0  0  0  0  0  0  0  0  0  0  0  0
  148.9266  140.7908  155.1970 H   0  0  0  0  0  0  0  0  0  0  0  0
  150.5275  140.0061  155.5553 H   0  0  0  0  0  0  0  0  0  0  0  0
  152.0217  140.8288  155.8328 H   0  0  0  0  0  0  0  0  0  0  0  0
  150.4842  139.2806  157.9954 H   0  0  0  0  0  0  0  0  0  0  0  0
  151.8696  138.6600  157.1167 H   0  0  0  0  0  0  0  0  0  0  0  0
  150.7218  141.7036  159.4530 H   0  0  0  0  0  0  0  0  0  0  0  0
  153.4052  143.0950  159.4051 H   0  0  0  0  0  0  0  0  0  0  0  0
  151.8767  142.0615  161.8396 H   0  0  0  0  0  0  0  0  0  0  0  0
  153.3796  142.9706  161.8628 H   0  0  0  0  0  0  0  0  0  0  0  0
  153.3501  141.3592  161.1755 H   0  0  0  0  0  0  0  0  0  0  0  0
  150.7958  144.1628  160.5589 H   0  0  0  0  0  0  0  0  0  0  0  0
  151.5718  144.7170  159.0774 H   0  0  0  0  0  0  0  0  0  0  0  0
  152.3694  144.9443  160.6268 H   0  0  0  0  0  0  0  0  0  0  0  0
  152.2146  142.7630  157.0072 H   0  0  0  0  0  0  0  0  0  0  0  0
  150.8787  143.5803  157.7497 H   0  0  0  0  0  0  0  0  0  0  0  0
  145.0875  142.9464  156.3120 H   0  0  0  0  0  0  0  0  0  0  0  0
  1  2  1  0  0  0  0
  1 22  1  0  0  0  0
  1 23  1  0  0  0  0
  1 24  1  0  0  0  0
  2 21  1  0  0  0  0
  2  3  2  0  0  0  0
  3  4  1  0  0  0  0
  3 25  1  0  0  0  0
  4  5  2  0  0  0  0
  4 26  1  0  0  0  0
  5  6  1  0  0  0  0
  5 20  1  0  0  0  0
  6  7  1  0  0  0  0
  6 27  1  0  0  0  0
  6 28  1  0  0  0  0
  7  8  1  0  0  0  0
  7 29  1  0  0  0  0
  7 30  1  0  0  0  0
  8  9  1  0  0  0  0
  8 31  1  0  0  0  0
  9 10  2  0  0  0  0
  9 11  1  0  0  0  0
 11 19  1  0  0  0  0
 11 12  1  0  0  0  0
 12 13  1  0  0  0  0
 12 32  1  0  0  0  0
 12 33  1  0  0  0  0
 13 14  1  0  0  0  0
 13 34  1  0  0  0  0
 13 35  1  0  0  0  0
 14 15  1  0  0  0  0
 15 16  1  0  0  0  0
 15 19  1  0  0  0  0
 15 36  1  0  0  0  0
 16 17  1  0  0  0  0
 16 18  1  0  0  0  0
 16 37  1  0  0  0  0
 17 38  1  0  0  0  0
 17 39  1  0  0  0  0
 17 40  1  0  0  0  0
 18 41  1  0  0  0  0
 18 42  1  0  0  0  0
 18 43  1  0  0  0  0
 19 44  1  0  0  0  0
 19 45  1  0  0  0  0
 20 21  2  0  0  0  0
 20 46  1  0  0  0  0
M  END
> <s_m_source_file>
AV-unprocessed.smi

> <i_m_source_file_index>
772

> <i_lp_mmshare_version>
43012

> <i_f3d_flags>
0

> <s_epik_input>
W0NIM11jMVtjSF1bY0hdYyhbY0hdbjEpW0NIMl1bQ0gyXVtOSF1DKD1PKU4yW0NIMl1bQ0gyXVNbQ0BIXShbQ0gyXTIpW0NIXShbQ0gzXSlbQ0gzXQ==

> <s_epik_cmdline>
J2VwaWtfcHl0aG9uJywgJy1waCcsICc3LjAnLCAnLXRuJywgJzgnLCAnLW1hJywgJzIwMCcsICctbWV0YWxfYmluZGluZycsICctaW1hZScsICc8aW5maWxlLm1hZT4nLCAnLW9tYWUnLCAnPG91dGZpbGUubWFlPic=

> <r_epik_Ionization_Penalty>
0.0566916

> <r_epik_Ionization_Penalty_Charging>
0

> <r_epik_Ionization_Penalty_Neutral>
0.0566916

> <r_epik_State_Penalty>
0.0488669

> <r_epik_Charging_Adjusted_Penalty>
0.0488669

> <i_epik_Tot_Q>
0

> <i_epik_Tot_abs_Q>
0

> <r_epik_Metal_State_Penalty>
0.0445784

> <b_epik_Metal_Only>
0

> <s_lp_Force_Field>
OPLS_2005

> <r_lp_Energy>
25.3974

> <b_lp_Chiralities_Consistent>
1

> <s_lp_Variant>
AV-unprocessed.smi:772-1

> <Gold.Version>
5.8.1

> <Gold.Id.Protein>
6NUR|6NUR_protein|mol2

> <Gold.PLP.Fitness>
45.0149

> <Gold.PLP.PLP>
-46.5264

> <Gold.PLP.part.hbond>
0.0000

> <Gold.PLP.part.metal>
0.0000

> <Gold.PLP.part.buried>
-5.1421

> <Gold.PLP.part.nonpolar>
-42.2997

> <Gold.PLP.part.repulsive>
1.5362

> <Gold.PLP.ligand.clash>
0.0000

> <Gold.PLP.ligand.torsion>
0.8014

> <Gold.PLP.Chemscore.Hbond>
0.0000

> <Gold.PLP.Chemscore.CHOScore>
0.0000

> <Gold.PLP.Chemscore.Metal>
0.0000

> <Gold.PLP.Chemscore.Internal.Correction>
0.0914

> <Gold.Rescore>
     Score         DG    S(hbond)    S(metal)    S(lipo)     H(rot)  DE(clash)    DE(int)     intcor
     15.51     -16.19       0.00        0.00     120.52       1.32       0.04       0.64       ----

> <Gold.Chemscore.Fitness>
15.5127

> <Gold.Chemscore.DG>
-16.1934

> <Gold.Chemscore.ZeroCoef>
-5.4800

> <Gold.Chemscore.Hbond>
0.0000

> <Gold.Chemscore.Metal>
0.0000

> <Gold.Chemscore.Lipo>
120.5214

> <Gold.Chemscore.Internal_Hbond>
0.0000

> <Gold.Chemscore.DEClash>
0.0447

> <Gold.Chemscore.DEInternal>
0.6361

> <Gold.Chemscore.Rot>
1.3233

> <Gold.Chemscore.Internal.Correction>
   9.000000E+99

> <Gold.Chemscore.Hbond.Weighted>
-0.0000

> <Gold.Chemscore.Metal.Weighted>
-0.0000

> <Gold.Chemscore.Lipo.Weighted>
-14.1010

> <Gold.Chemscore.Internal_Hbond.Weighted>
0.0000

> <Gold.Chemscore.DEClash.Weighted>
0.0447

> <Gold.Chemscore.DEInternal.Weighted>
0.6361

> <Gold.Chemscore.Rot.Weighted>
3.3876

> <Gold.Chemscore.Internal.Correction.Weighted>
   9.000000E+99

> <Gold.Protein.RotatedTorsions>
[ 6907 6896 6895 6894 ] final  -94.04 input  -60.11 | X-H torsion
[ 7974 7965 7964 7962 ] final   33.32 input  175.53 | X-H torsion
[ 8008 7997 7996 7995 ] final   93.15 input   59.86 | X-H torsion
[ 10167 10162 10161 10158 ] final  155.94 input  -65.29 | X-H torsion
[ 10718 10713 10712 10709 ] final   -5.88 input   66.30 | X-H torsion
[ 10763 10752 10751 10750 ] final  158.59 input  -60.55 | X-H torsion
[ 11005 11000 10999 10996 ] final   31.61 input  -57.11 | X-H torsion

> <Gold.Protein.ActiveResidues>
 VAL166  LYS551  ARG553  GLY616  TRP617  ASP618  TYR619  PRO620  LYS621  CYS622 
 ASP623  PHE694  ASN695  SER759  ASP760  ASP761  ALA762  ILE779  LEU786  VAL792 
 PHE793  MET794  SER795  GLU796  ALA797  LYS798  CYS799  TRP800  GLU811  SER814 

> <Gold.Protein.RotatedAtoms>
  150.6934  134.1873  159.4271 H   0  0  0  0  0  0  0  0  0  0  0  0  # atno 6907 bound_to 6896
  151.9845  135.0009  160.0568 H   0  0  0  0  0  0  0  0  0  0  0  0  # atno 6908 bound_to 6896
  152.1724  133.4617  159.4953 H   0  0  0  0  0  0  0  0  0  0  0  0  # atno 6909 bound_to 6896
  146.1428  139.6412  142.9151 H   0  0  0  0  0  0  0  0  0  0  0  0  # atno 7974 bound_to 7965
  156.0435  140.3316  155.7270 H   0  0  0  0  0  0  0  0  0  0  0  0  # atno 8008 bound_to 7997
  155.5708  140.0628  157.2824 H   0  0  0  0  0  0  0  0  0  0  0  0  # atno 8009 bound_to 7997
  154.4403  140.1861  156.0866 H   0  0  0  0  0  0  0  0  0  0  0  0  # atno 8010 bound_to 7997
  139.4821  144.5054  151.8106 H   0  0  0  0  0  0  0  0  0  0  0  0  # atno 10167 bound_to 10162
  156.7401  130.5207  149.5826 H   0  0  0  0  0  0  0  0  0  0  0  0  # atno 10718 bound_to 10713
  154.2184  135.2783  155.2933 H   0  0  0  0  0  0  0  0  0  0  0  0  # atno 10763 bound_to 10752
  154.5722  135.5615  153.7109 H   0  0  0  0  0  0  0  0  0  0  0  0  # atno 10764 bound_to 10752
  153.0047  135.6324  154.2323 H   0  0  0  0  0  0  0  0  0  0  0  0  # atno 10765 bound_to 10752
  140.2821  134.2961  155.7798 H   0  0  0  0  0  0  0  0  0  0  0  0  # atno 11005 bound_to 11000
  145.5006  141.0437  143.2542 LP  0  0  0  0  0  0  0  0  0  0  0  0  # atno 17320 bound_to 7965
  144.7812  139.6522  143.7153 LP  0  0  0  0  0  0  0  0  0  0  0  0  # atno 17321 bound_to 7965
  140.4551  144.1801  150.5901 LP  0  0  0  0  0  0  0  0  0  0  0  0  # atno 17342 bound_to 10162
  140.4544  143.2474  151.9305 LP  0  0  0  0  0  0  0  0  0  0  0  0  # atno 17343 bound_to 10162
  156.1471  130.6284  151.0545 LP  0  0  0  0  0  0  0  0  0  0  0  0  # atno 17370 bound_to 10713
  157.6822  131.0835  150.7339 LP  0  0  0  0  0  0  0  0  0  0  0  0  # atno 17371 bound_to 10713
  141.2161  133.7532  156.9496 LP  0  0  0  0  0  0  0  0  0  0  0  0  # atno 17394 bound_to 11000
  140.1274  134.9378  157.2288 LP  0  0  0  0  0  0  0  0  0  0  0  0  # atno 17395 bound_to 11000

$$$$
