AV-unprocessed.smi:1632|AV-procd|sdf|6529|dock3
  -GOLD-   22720 7213D 1   1.00000     0.00000
 Structure written by MMmdl.
 42 44  0  0  0  0  0  0  0  0  1 V2000
  155.3787  139.3071  158.7232 O   0  0  0  0  0  0  0  0  0  0  0  0
  154.7516  138.0698  158.4661 C   0  0  0  0  0  0  0  0  0  0  0  0
  153.6247  137.8371  159.4830 C   0  0  0  0  0  0  0  0  0  0  0  0
  152.2585  138.3936  159.0415 C   0  0  0  0  0  0  0  0  0  0  0  0
  152.2266  139.8924  158.9154 C   0  0  0  0  0  0  0  0  0  0  0  0
  152.9909  140.6658  159.6884 N   0  0  0  0  0  0  0  0  0  0  0  0
  152.6809  141.9389  159.2550 C   0  0  0  0  0  0  0  0  0  0  0  0
  153.1500  143.1976  159.6939 C   0  0  0  0  0  0  0  0  0  0  0  0
  152.6848  144.3833  159.0885 C   0  0  0  0  0  0  0  0  0  0  0  0
  151.7467  144.3268  158.0377 C   0  0  0  0  0  0  0  0  0  0  0  0
  151.2677  143.0824  157.5849 C   0  0  0  0  0  0  0  0  0  0  0  0
  151.7343  141.9015  158.1935 C   0  0  0  0  0  0  0  0  0  0  0  0
  151.4756  140.5483  157.9914 N   0  0  0  0  0  0  0  0  0  0  0  0
  150.5846  139.9960  156.9782 C   0  0  0  0  0  0  0  0  0  0  0  0
  150.7681  140.6478  155.5942 C   0  0  1  0  0  0  0  0  0  0  0  0
  151.9521  140.1666  154.9861 O   0  0  0  0  0  0  0  0  0  0  0  0
  149.5393  140.4380  154.7205 C   0  0  0  0  0  0  0  0  0  0  0  0
  148.7450  141.5394  154.3299 C   0  0  0  0  0  0  0  0  0  0  0  0
  147.6125  141.3476  153.5152 C   0  0  0  0  0  0  0  0  0  0  0  0
  147.2678  140.0536  153.0818 C   0  0  0  0  0  0  0  0  0  0  0  0
  148.0592  138.9525  153.4604 C   0  0  0  0  0  0  0  0  0  0  0  0
  149.1931  139.1419  154.2747 C   0  0  0  0  0  0  0  0  0  0  0  0
  149.9479  138.0715  154.6218 F   0  0  0  0  0  0  0  0  0  0  0  0
  156.2751  139.1433  158.9736 H   0  0  0  0  0  0  0  0  0  0  0  0
  154.3548  138.0867  157.4515 H   0  0  0  0  0  0  0  0  0  0  0  0
  155.4993  137.2778  158.5180 H   0  0  0  0  0  0  0  0  0  0  0  0
  153.5315  136.7696  159.6877 H   0  0  0  0  0  0  0  0  0  0  0  0
  153.9020  138.3013  160.4301 H   0  0  0  0  0  0  0  0  0  0  0  0
  151.9936  137.9712  158.0718 H   0  0  0  0  0  0  0  0  0  0  0  0
  151.4978  138.0450  159.7374 H   0  0  0  0  0  0  0  0  0  0  0  0
  153.8689  143.2504  160.4979 H   0  0  0  0  0  0  0  0  0  0  0  0
  153.0493  145.3401  159.4323 H   0  0  0  0  0  0  0  0  0  0  0  0
  151.3943  145.2393  157.5795 H   0  0  0  0  0  0  0  0  0  0  0  0
  150.5473  143.0372  156.7818 H   0  0  0  0  0  0  0  0  0  0  0  0
  150.7627  138.9223  156.9096 H   0  0  0  0  0  0  0  0  0  0  0  0
  149.5549  140.0980  157.3206 H   0  0  0  0  0  0  0  0  0  0  0  0
  150.9143  141.7176  155.7269 H   0  0  0  0  0  0  0  0  0  0  0  0
  152.6735  140.3096  155.5796 H   0  0  0  0  0  0  0  0  0  0  0  0
  149.0033  142.5377  154.6519 H   0  0  0  0  0  0  0  0  0  0  0  0
  147.0091  142.1939  153.2218 H   0  0  0  0  0  0  0  0  0  0  0  0
  146.3992  139.9058  152.4569 H   0  0  0  0  0  0  0  0  0  0  0  0
  147.7970  137.9602  153.1241 H   0  0  0  0  0  0  0  0  0  0  0  0
  1  2  1  0  0  0  0
  1 24  1  0  0  0  0
  2  3  1  0  0  0  0
  2 25  1  0  0  0  0
  2 26  1  0  0  0  0
  3  4  1  0  0  0  0
  3 27  1  0  0  0  0
  3 28  1  0  0  0  0
  4  5  1  0  0  0  0
  4 29  1  0  0  0  0
  4 30  1  0  0  0  0
  5 13  1  0  0  0  0
  5  6  2  0  0  0  0
  6  7  1  0  0  0  0
  7 12  2  0  0  0  0
  7  8  1  0  0  0  0
  8  9  2  0  0  0  0
  8 31  1  0  0  0  0
  9 10  1  0  0  0  0
  9 32  1  0  0  0  0
 10 11  2  0  0  0  0
 10 33  1  0  0  0  0
 11 12  1  0  0  0  0
 11 34  1  0  0  0  0
 12 13  1  0  0  0  0
 13 14  1  0  0  0  0
 14 15  1  0  0  0  0
 14 35  1  0  0  0  0
 14 36  1  0  0  0  0
 15 16  1  0  0  0  0
 15 17  1  0  0  0  0
 15 37  1  0  0  0  0
 16 38  1  0  0  0  0
 17 22  1  0  0  0  0
 17 18  2  0  0  0  0
 18 19  1  0  0  0  0
 18 39  1  0  0  0  0
 19 20  2  0  0  0  0
 19 40  1  0  0  0  0
 20 21  1  0  0  0  0
 20 41  1  0  0  0  0
 21 22  2  0  0  0  0
 21 42  1  0  0  0  0
 22 23  1  0  0  0  0
M  END
> <s_m_source_file>
AV-unprocessed.smi

> <i_m_source_file_index>
1632

> <i_lp_mmshare_version>
43012

> <i_f3d_flags>
0

> <s_epik_input>
W09IXVtDSDJdW0NIMl1bQ0gyXWMobjEpbihjKGMxMilbY0hdW2NIXVtjSF1bY0hdMilbQ0gyXVtDQEhdKFtPSF0pYzNbY0hdW2NIXVtjSF1bY0hdYzNG

> <s_epik_cmdline>
J2VwaWtfcHl0aG9uJywgJy1waCcsICc3LjAnLCAnLXRuJywgJzgnLCAnLW1hJywgJzIwMCcsICctbWV0YWxfYmluZGluZycsICctaW1hZScsICc8aW5maWxlLm1hZT4nLCAnLW9tYWUnLCAnPG91dGZpbGUubWFlPic=

> <r_epik_Ionization_Penalty>
0.182561

> <r_epik_Ionization_Penalty_Charging>
0

> <r_epik_Ionization_Penalty_Neutral>
0.182561

> <r_epik_State_Penalty>
0.172086

> <r_epik_Charging_Adjusted_Penalty>
0.172086

> <i_epik_Tot_Q>
0

> <i_epik_Tot_abs_Q>
0

> <r_epik_Metal_State_Penalty>
0.000199649

> <b_epik_Metal_Only>
0

> <s_lp_Force_Field>
OPLS_2005

> <r_lp_Energy>
11.8421

> <b_lp_Chiralities_Consistent>
1

> <s_lp_Variant>
AV-unprocessed.smi:1632-2

> <Gold.Version>
5.8.1

> <Gold.Id.Protein>
6NUR|6NUR_protein|mol2

> <Gold.PLP.Fitness>
54.2165

> <Gold.PLP.PLP>
-50.2872

> <Gold.PLP.part.hbond>
-2.0000

> <Gold.PLP.part.metal>
0.0000

> <Gold.PLP.part.buried>
-4.4361

> <Gold.PLP.part.nonpolar>
-42.9027

> <Gold.PLP.part.repulsive>
0.0000

> <Gold.PLP.ligand.clash>
0.0000

> <Gold.PLP.ligand.torsion>
0.9487

> <Gold.PLP.Chemscore.Hbond>
1.8960

> <Gold.PLP.Chemscore.CHOScore>
0.0000

> <Gold.PLP.Chemscore.Metal>
0.0000

> <Gold.Chemscore.Hbonds>
donor molecule, donor type, donor heavy atom, donor atom, acceptor molecule, acceptor atom, score
      P1  H  7989  7998       L1    16  0.65
      P1  H  7997  8010       L1     1  1.00

> <Gold.PLP.Chemscore.Internal.Correction>
0.1387

> <Gold.Rescore>
     Score         DG    S(hbond)    S(metal)    S(lipo)     H(rot)  DE(clash)    DE(int)     intcor
     15.37     -17.63       1.58        0.00     126.08       3.07       0.01       2.25       ----

> <Gold.Chemscore.Fitness>
15.3722

> <Gold.Chemscore.DG>
-17.6340

> <Gold.Chemscore.ZeroCoef>
-5.4800

> <Gold.Chemscore.Hbond>
1.5784

> <Gold.Chemscore.Metal>
0.0000

> <Gold.Chemscore.Lipo>
126.0842

> <Gold.Chemscore.Internal_Hbond>
0.0000

> <Gold.Chemscore.DEClash>
0.0089

> <Gold.Chemscore.DEInternal>
2.2529

> <Gold.Chemscore.Rot>
3.0741

> <Gold.Chemscore.Internal.Correction>
   9.000000E+99

> <Gold.Chemscore.Hbonds>
donor molecule, donor type, donor heavy atom, donor atom, acceptor molecule, acceptor atom, score
      P1  H  7989  7998       L1    16  0.10
      P1  H  7997  8010       L1     1  0.28

> <Gold.Chemscore.Hbond.Weighted>
-5.2720

> <Gold.Chemscore.Metal.Weighted>
-0.0000

> <Gold.Chemscore.Lipo.Weighted>
-14.7519

> <Gold.Chemscore.Internal_Hbond.Weighted>
0.0000

> <Gold.Chemscore.DEClash.Weighted>
0.0089

> <Gold.Chemscore.DEInternal.Weighted>
2.2529

> <Gold.Chemscore.Rot.Weighted>
7.8698

> <Gold.Chemscore.Internal.Correction.Weighted>
   9.000000E+99

> <Gold.Protein.RotatedTorsions>
[ 6907 6896 6895 6894 ] final -140.67 input  -60.11 | X-H torsion
[ 7974 7965 7964 7962 ] final  112.04 input  175.53 | X-H torsion
[ 8008 7997 7996 7995 ] final  -12.65 input   59.86 | X-H torsion
[ 10167 10162 10161 10158 ] final -169.10 input  -65.29 | X-H torsion
[ 10718 10713 10712 10709 ] final  108.78 input   66.30 | X-H torsion
[ 10763 10752 10751 10750 ] final  -76.45 input  -60.55 | X-H torsion
[ 11005 11000 10999 10996 ] final -163.47 input  -57.11 | X-H torsion

> <Gold.Protein.ActiveResidues>
 VAL166  LYS551  ARG553  GLY616  TRP617  ASP618  TYR619  PRO620  LYS621  CYS622 
 ASP623  PHE694  ASN695  SER759  ASP760  ASP761  ALA762  ILE779  LEU786  VAL792 
 PHE793  MET794  SER795  GLU796  ALA797  LYS798  CYS799  TRP800  GLU811  SER814 

> <Gold.Protein.RotatedAtoms>
  151.0637  133.5523  159.2632 H   0  0  0  0  0  0  0  0  0  0  0  0  # atno 6907 bound_to 6896
  151.2488  135.0614  159.9064 H   0  0  0  0  0  0  0  0  0  0  0  0  # atno 6908 bound_to 6896
  152.5401  134.0401  159.8117 H   0  0  0  0  0  0  0  0  0  0  0  0  # atno 6909 bound_to 6896
  145.2346  139.2805  143.4150 H   0  0  0  0  0  0  0  0  0  0  0  0  # atno 7974 bound_to 7965
  154.5359  140.2270  155.8723 H   0  0  0  0  0  0  0  0  0  0  0  0  # atno 8008 bound_to 7997
  156.1811  140.3100  155.9113 H   0  0  0  0  0  0  0  0  0  0  0  0  # atno 8009 bound_to 7997
  155.3355  140.0447  157.3034 H   0  0  0  0  0  0  0  0  0  0  0  0  # atno 8010 bound_to 7997
  139.5944  144.1144  152.1672 H   0  0  0  0  0  0  0  0  0  0  0  0  # atno 10167 bound_to 10162
  157.6571  131.0900  150.6357 H   0  0  0  0  0  0  0  0  0  0  0  0  # atno 10718 bound_to 10713
  154.5000  135.5797  153.6524 H   0  0  0  0  0  0  0  0  0  0  0  0  # atno 10763 bound_to 10752
  152.9877  135.6133  154.3015 H   0  0  0  0  0  0  0  0  0  0  0  0  # atno 10764 bound_to 10752
  154.2921  135.2848  155.2629 H   0  0  0  0  0  0  0  0  0  0  0  0  # atno 10765 bound_to 10752
  140.5978  134.4979  157.5201 H   0  0  0  0  0  0  0  0  0  0  0  0  # atno 11005 bound_to 11000
  146.3344  140.2691  142.8605 LP  0  0  0  0  0  0  0  0  0  0  0  0  # atno 17320 bound_to 7965
  144.9645  140.8308  143.5493 LP  0  0  0  0  0  0  0  0  0  0  0  0  # atno 17321 bound_to 7965
  140.0726  144.5767  150.7180 LP  0  0  0  0  0  0  0  0  0  0  0  0  # atno 17342 bound_to 10162
  140.7200  143.2579  151.4311 LP  0  0  0  0  0  0  0  0  0  0  0  0  # atno 17343 bound_to 10162
  156.6662  130.4526  149.5671 LP  0  0  0  0  0  0  0  0  0  0  0  0  # atno 17370 bound_to 10713
  156.2031  130.6632  151.1188 LP  0  0  0  0  0  0  0  0  0  0  0  0  # atno 17371 bound_to 10713
  139.9246  134.8082  156.1108 LP  0  0  0  0  0  0  0  0  0  0  0  0  # atno 17394 bound_to 11000
  141.0893  133.6721  156.2504 LP  0  0  0  0  0  0  0  0  0  0  0  0  # atno 17395 bound_to 11000

$$$$
