AV-unprocessed.smi:1382|AV-procd|sdf|5621|dock4
  -GOLD-   22720 5233D 1   1.00000     0.00000
 Structure written by MMmdl.
 44 45  0  0  0  0  0  0  0  0  1 V2000
  152.6928  143.2813  162.2058 C   0  0  0  0  0  0  0  0  0  0  0  0
  152.8411  143.4030  160.6856 C   0  0  0  0  0  0  0  0  0  0  0  0
  153.0195  142.0386  160.0003 C   0  0  0  0  0  0  0  0  0  0  0  0
  154.1880  141.2003  160.5590 C   0  0  0  0  0  0  0  0  0  0  0  0
  153.9534  139.7674  160.5416 N   0  0  0  0  0  0  0  0  0  0  0  0
  154.0367  138.9428  161.6692 C   0  0  0  0  0  0  0  0  0  0  0  0
  154.3719  139.5241  162.8834 N   0  0  0  0  0  0  0  0  0  0  0  0
  153.7875  137.6006  161.5966 C   0  0  0  0  0  0  0  0  0  0  0  0
  153.9105  136.7667  162.7229 N   0  0  0  0  0  0  0  0  0  0  0  0
  153.0098  137.0287  163.8490 C   0  0  0  0  0  0  0  0  0  0  0  0
  154.7739  135.7194  162.7754 C   0  0  0  0  0  0  0  0  0  0  0  0
  155.4707  135.4102  161.8069 O   0  0  0  0  0  0  0  0  0  0  0  0
  154.9135  134.9089  164.0909 C   0  0  1  0  0  0  0  0  0  0  0  0
  153.6424  134.1754  164.5376 C   0  0  0  0  0  0  0  0  0  0  0  0
  153.6568  132.8829  163.7334 C   0  0  0  0  0  0  0  0  0  0  0  0
  155.1158  132.7359  163.2902 C   0  0  0  0  0  0  0  0  0  0  0  0
  155.8092  133.8161  163.9083 O   0  0  0  0  0  0  0  0  0  0  0  0
  153.4699  136.9677  160.3095 C   0  0  0  0  0  0  0  0  0  0  0  0
  153.2648  135.7677  160.1304 O   0  0  0  0  0  0  0  0  0  0  0  0
  153.4157  137.8395  159.2257 N   0  0  0  0  0  0  0  0  0  0  0  0
  153.6411  139.2102  159.2782 C   0  0  0  0  0  0  0  0  0  0  0  0
  153.5675  139.8732  158.2430 O   0  0  0  0  0  0  0  0  0  0  0  0
  153.1994  137.4418  158.3233 H   0  0  0  0  0  0  0  0  0  0  0  0
  152.5658  144.2626  162.6633 H   0  0  0  0  0  0  0  0  0  0  0  0
  153.5732  142.8177  162.6514 H   0  0  0  0  0  0  0  0  0  0  0  0
  151.8248  142.6765  162.4694 H   0  0  0  0  0  0  0  0  0  0  0  0
  151.9622  143.9086  160.2846 H   0  0  0  0  0  0  0  0  0  0  0  0
  153.6963  144.0404  160.4593 H   0  0  0  0  0  0  0  0  0  0  0  0
  152.1000  141.4632  160.1124 H   0  0  0  0  0  0  0  0  0  0  0  0
  153.1486  142.1869  158.9278 H   0  0  0  0  0  0  0  0  0  0  0  0
  155.1080  141.3919  160.0090 H   0  0  0  0  0  0  0  0  0  0  0  0
  154.4198  141.4763  161.5896 H   0  0  0  0  0  0  0  0  0  0  0  0
  154.5537  140.5142  162.9667 H   0  0  0  0  0  0  0  0  0  0  0  0
  154.4036  138.9891  163.7393 H   0  0  0  0  0  0  0  0  0  0  0  0
  152.3419  136.1820  164.0145 H   0  0  0  0  0  0  0  0  0  0  0  0
  152.3908  137.9100  163.6735 H   0  0  0  0  0  0  0  0  0  0  0  0
  153.5756  137.2061  164.7649 H   0  0  0  0  0  0  0  0  0  0  0  0
  155.2671  135.5662  164.8848 H   0  0  0  0  0  0  0  0  0  0  0  0
  153.7192  133.9430  165.6005 H   0  0  0  0  0  0  0  0  0  0  0  0
  152.7247  134.7491  164.4021 H   0  0  0  0  0  0  0  0  0  0  0  0
  153.3219  132.0368  164.3342 H   0  0  0  0  0  0  0  0  0  0  0  0
  153.0031  132.9569  162.8635 H   0  0  0  0  0  0  0  0  0  0  0  0
  155.5481  131.7817  163.5915 H   0  0  0  0  0  0  0  0  0  0  0  0
  155.2010  132.8183  162.2058 H   0  0  0  0  0  0  0  0  0  0  0  0
  1  2  1  0  0  0  0
  1 24  1  0  0  0  0
  1 25  1  0  0  0  0
  1 26  1  0  0  0  0
  2  3  1  0  0  0  0
  2 27  1  0  0  0  0
  2 28  1  0  0  0  0
  3  4  1  0  0  0  0
  3 29  1  0  0  0  0
  3 30  1  0  0  0  0
  4  5  1  0  0  0  0
  4 31  1  0  0  0  0
  4 32  1  0  0  0  0
  5 21  1  0  0  0  0
  5  6  1  0  0  0  0
  6  7  1  0  0  0  0
  6  8  2  0  0  0  0
  7 33  1  0  0  0  0
  7 34  1  0  0  0  0
  8  9  1  0  0  0  0
  8 18  1  0  0  0  0
  9 10  1  0  0  0  0
  9 11  1  0  0  0  0
 10 35  1  0  0  0  0
 10 36  1  0  0  0  0
 10 37  1  0  0  0  0
 11 12  2  0  0  0  0
 11 13  1  0  0  0  0
 13 17  1  0  0  0  0
 13 14  1  0  0  0  0
 13 38  1  0  0  0  0
 14 15  1  0  0  0  0
 14 39  1  0  0  0  0
 14 40  1  0  0  0  0
 15 16  1  0  0  0  0
 15 41  1  0  0  0  0
 15 42  1  0  0  0  0
 16 17  1  0  0  0  0
 16 43  1  0  0  0  0
 16 44  1  0  0  0  0
 18 19  2  0  0  0  0
 18 20  1  0  0  0  0
 20 23  1  0  0  0  0
 20 21  1  0  0  0  0
 21 22  2  0  0  0  0
M  END
> <s_m_source_file>
AV-unprocessed.smi

> <i_m_source_file_index>
1382

> <i_lp_mmshare_version>
43012

> <i_f3d_flags>
0

> <s_epik_input>
W0NIM11bQ0gyXVtDSDJdW0NIMl1uMWMoW05IMl0pYyhjKD1PKVtuSF1jMT1PKU4oW0NIM10pQyg9TylbQ0BASF0yW0NIMl1bQ0gyXVtDSDJdTzI=

> <s_epik_cmdline>
J2VwaWtfcHl0aG9uJywgJy1waCcsICc3LjAnLCAnLXRuJywgJzgnLCAnLW1hJywgJzIwMCcsICctbWV0YWxfYmluZGluZycsICctaW1hZScsICc8aW5maWxlLm1hZT4nLCAnLW9tYWUnLCAnPG91dGZpbGUubWFlPic=

> <r_lp_tautomer_probability>
1

> <r_epik_Ionization_Penalty>
1.19634e-05

> <r_epik_Ionization_Penalty_Charging>
6.01811e-06

> <r_epik_Ionization_Penalty_Neutral>
5.94533e-06

> <r_epik_State_Penalty>
-0

> <r_epik_Charging_Adjusted_Penalty>
6.01811e-06

> <i_epik_Tot_Q>
0

> <i_epik_Tot_abs_Q>
0

> <r_epik_Metal_State_Penalty>
-0

> <b_epik_Metal_Only>
0

> <s_epik_Chemistry_Notes>
This compound has an imine and may undergo hydrolysis.

> <s_lp_Force_Field>
OPLS_2005

> <r_lp_Energy>
42.8449

> <b_lp_Chiralities_Consistent>
1

> <s_lp_Variant>
AV-unprocessed.smi:1382-2

> <Gold.Version>
5.8.1

> <Gold.Id.Protein>
6NUR|6NUR_protein|mol2

> <Gold.PLP.Fitness>
42.6272

> <Gold.PLP.PLP>
-37.1408

> <Gold.PLP.part.hbond>
-2.0000

> <Gold.PLP.part.metal>
0.0000

> <Gold.PLP.part.buried>
-2.3037

> <Gold.PLP.part.nonpolar>
-31.8362

> <Gold.PLP.part.repulsive>
0.0809

> <Gold.PLP.ligand.clash>
0.0000

> <Gold.PLP.ligand.torsion>
1.3927

> <Gold.PLP.Chemscore.Hbond>
2.0000

> <Gold.PLP.Chemscore.CHOScore>
0.0000

> <Gold.PLP.Chemscore.Metal>
0.0000

> <Gold.Chemscore.Hbonds>
donor molecule, donor type, donor heavy atom, donor atom, acceptor molecule, acceptor atom, score
      P1  H  6896  6909       L1    19  0.54
      P1  H  7997  8008       L1    22  1.00

> <Gold.PLP.Chemscore.Internal.Correction>
2.2719

> <Gold.Rescore>
     Score         DG    S(hbond)    S(metal)    S(lipo)     H(rot)  DE(clash)    DE(int)     intcor
     13.23     -17.27       1.99        0.00      80.99       1.69       0.01       4.04       ----

> <Gold.Chemscore.Fitness>
13.2270

> <Gold.Chemscore.DG>
-17.2728

> <Gold.Chemscore.ZeroCoef>
-5.4800

> <Gold.Chemscore.Hbond>
1.9923

> <Gold.Chemscore.Metal>
0.0000

> <Gold.Chemscore.Lipo>
80.9905

> <Gold.Chemscore.Internal_Hbond>
0.0000

> <Gold.Chemscore.DEClash>
0.0090

> <Gold.Chemscore.DEInternal>
4.0368

> <Gold.Chemscore.Rot>
1.6942

> <Gold.Chemscore.Internal.Correction>
   9.000000E+99

> <Gold.Chemscore.Hbonds>
donor molecule, donor type, donor heavy atom, donor atom, acceptor molecule, acceptor atom, score
      P1  H  6896  6909       L1    19  0.54
      P1  H  7997  8008       L1    22  0.97

> <Gold.Chemscore.Hbond.Weighted>
-6.6541

> <Gold.Chemscore.Metal.Weighted>
-0.0000

> <Gold.Chemscore.Lipo.Weighted>
-9.4759

> <Gold.Chemscore.Internal_Hbond.Weighted>
0.0000

> <Gold.Chemscore.DEClash.Weighted>
0.0090

> <Gold.Chemscore.DEInternal.Weighted>
4.0368

> <Gold.Chemscore.Rot.Weighted>
4.3372

> <Gold.Chemscore.Internal.Correction.Weighted>
   9.000000E+99

> <Gold.Protein.RotatedTorsions>
[ 6907 6896 6895 6894 ] final  157.16 input  -60.11 | X-H torsion
[ 7974 7965 7964 7962 ] final   39.08 input  175.53 | X-H torsion
[ 8008 7997 7996 7995 ] final  -90.69 input   59.86 | X-H torsion
[ 10167 10162 10161 10158 ] final -165.95 input  -65.29 | X-H torsion
[ 10718 10713 10712 10709 ] final   -2.16 input   66.30 | X-H torsion
[ 10763 10752 10751 10750 ] final  159.98 input  -60.55 | X-H torsion
[ 11005 11000 10999 10996 ] final -119.14 input  -57.11 | X-H torsion

> <Gold.Protein.ActiveResidues>
 VAL166  LYS551  ARG553  GLY616  TRP617  ASP618  TYR619  PRO620  LYS621  CYS622 
 ASP623  PHE694  ASN695  SER759  ASP760  ASP761  ALA762  ILE779  LEU786  VAL792 
 PHE793  MET794  SER795  GLU796  ALA797  LYS798  CYS799  TRP800  GLU811  SER814 

> <Gold.Protein.RotatedAtoms>
  152.0191  133.3891  159.4250 H   0  0  0  0  0  0  0  0  0  0  0  0  # atno 6907 bound_to 6896
  150.6892  134.3646  159.4974 H   0  0  0  0  0  0  0  0  0  0  0  0  # atno 6908 bound_to 6896
  152.1417  134.9057  160.0604 H   0  0  0  0  0  0  0  0  0  0  0  0  # atno 6909 bound_to 6896
  146.1012  139.5694  142.9413 H   0  0  0  0  0  0  0  0  0  0  0  0  # atno 7974 bound_to 7965
  154.7016  140.0527  157.0463 H   0  0  0  0  0  0  0  0  0  0  0  0  # atno 8008 bound_to 7997
  155.0677  140.3196  155.4621 H   0  0  0  0  0  0  0  0  0  0  0  0  # atno 8009 bound_to 7997
  156.2762  140.2087  156.5804 H   0  0  0  0  0  0  0  0  0  0  0  0  # atno 8010 bound_to 7997
  139.6148  144.0742  152.1877 H   0  0  0  0  0  0  0  0  0  0  0  0  # atno 10167 bound_to 10162
  156.7949  130.5374  149.5730 H   0  0  0  0  0  0  0  0  0  0  0  0  # atno 10718 bound_to 10713
  154.2403  135.2775  155.2856 H   0  0  0  0  0  0  0  0  0  0  0  0  # atno 10763 bound_to 10752
  154.5551  135.5663  153.6960 H   0  0  0  0  0  0  0  0  0  0  0  0  # atno 10764 bound_to 10752
  153.0001  135.6284  154.2547 H   0  0  0  0  0  0  0  0  0  0  0  0  # atno 10765 bound_to 10752
  141.0237  134.0086  157.3246 H   0  0  0  0  0  0  0  0  0  0  0  0  # atno 11005 bound_to 11000
  145.5851  141.0377  143.2101 LP  0  0  0  0  0  0  0  0  0  0  0  0  # atno 17320 bound_to 7965
  144.7434  139.7386  143.7302 LP  0  0  0  0  0  0  0  0  0  0  0  0  # atno 17321 bound_to 7965
  140.0370  144.6037  150.7442 LP  0  0  0  0  0  0  0  0  0  0  0  0  # atno 17342 bound_to 10162
  140.7343  143.2727  151.3836 LP  0  0  0  0  0  0  0  0  0  0  0  0  # atno 17343 bound_to 10162
  156.1136  130.6058  151.0086 LP  0  0  0  0  0  0  0  0  0  0  0  0  # atno 17370 bound_to 10713
  157.6582  131.0885  150.7899 LP  0  0  0  0  0  0  0  0  0  0  0  0  # atno 17371 bound_to 10713
  139.9162  135.0197  156.7889 LP  0  0  0  0  0  0  0  0  0  0  0  0  # atno 17394 bound_to 11000
  140.6529  133.9715  155.7764 LP  0  0  0  0  0  0  0  0  0  0  0  0  # atno 17395 bound_to 11000

$$$$
