AV-unprocessed.smi:106|AV-procd|sdf|1012|dock5
  -GOLD-   2262018 13D 1   1.00000     0.00000
 Structure written by MMmdl.
 51 54  0  0  0  0  0  0  0  0  1 V2000
  152.2475  137.2991  157.6678 O   0  0  0  0  0  0  0  0  0  0  0  0
  151.7619  137.1901  156.5398 C   0  0  0  0  0  0  0  0  0  0  0  0
  152.1307  138.2325  155.4609 C   0  0  0  0  0  0  0  0  0  0  0  0
  151.4962  139.5532  155.6707 N   0  0  0  0  0  0  0  0  0  0  0  0
  150.4547  139.9525  154.7968 C   0  0  0  0  0  0  0  0  0  0  0  0
  150.0751  139.2224  153.8801 O   0  0  0  0  0  0  0  0  0  0  0  0
  149.8842  141.2693  155.0568 C   0  0  0  0  0  0  0  0  0  0  0  0
  148.8811  141.7235  154.2864 F   0  0  0  0  0  0  0  0  0  0  0  0
  150.3463  142.0413  156.0617 C   0  0  0  0  0  0  0  0  0  0  0  0
  151.3767  141.6467  156.8962 N   0  0  0  0  0  0  0  0  0  0  0  0
  151.8922  142.5305  158.0123 C   0  0  1  0  0  0  0  0  0  0  0  0
  152.3093  143.9080  157.4639 C   0  0  0  0  0  0  0  0  0  0  0  0
  151.5771  144.8687  158.3794 C   0  0  0  0  0  0  0  0  0  0  0  0
  150.3490  144.0592  158.7677 C   0  0  0  0  0  0  0  0  0  0  0  0
  150.8779  142.7524  158.9507 O   0  0  0  0  0  0  0  0  0  0  0  0
  151.9743  140.3804  156.7151 C   0  0  0  0  0  0  0  0  0  0  0  0
  152.8966  140.0118  157.4459 O   0  0  0  0  0  0  0  0  0  0  0  0
  150.9100  136.1881  156.2122 N   0  0  0  0  0  0  0  0  0  0  0  0
  150.3012  136.0601  154.8784 C   0  0  0  0  0  0  0  0  0  0  0  0
  149.2213  134.9599  154.7856 C   0  0  0  0  0  0  0  0  0  0  0  0
  149.6575  133.6725  155.3527 N   0  0  0  0  0  0  0  0  0  0  0  0
  149.1191  132.5093  154.9053 C   0  0  0  0  0  0  0  0  0  0  0  0
  149.5312  131.4100  155.2806 O   0  0  0  0  0  0  0  0  0  0  0  0
  147.9931  132.5548  153.9389 C   0  0  0  0  0  0  0  0  0  0  0  0
  147.7910  133.2549  152.7737 C   0  0  0  0  0  0  0  0  0  0  0  0
  146.5134  133.0152  152.1875 C   0  0  0  0  0  0  0  0  0  0  0  0
  145.7426  132.1564  152.9243 C   0  0  0  0  0  0  0  0  0  0  0  0
  146.5688  131.6334  154.3660 S   0  0  0  0  0  0  0  0  0  0  0  0
  150.5587  133.7612  156.5131 C   0  0  0  0  0  0  0  0  0  0  0  0
  150.5281  135.1483  157.1756 C   0  0  0  0  0  0  0  0  0  0  0  0
  153.2157  138.3386  155.4198 H   0  0  0  0  0  0  0  0  0  0  0  0
  151.8623  137.8346  154.4816 H   0  0  0  0  0  0  0  0  0  0  0  0
  149.8779  143.0033  156.2020 H   0  0  0  0  0  0  0  0  0  0  0  0
  152.7031  141.9718  158.4829 H   0  0  0  0  0  0  0  0  0  0  0  0
  153.3925  144.0283  157.4912 H   0  0  0  0  0  0  0  0  0  0  0  0
  151.9650  144.0259  156.4351 H   0  0  0  0  0  0  0  0  0  0  0  0
  152.1806  145.0796  159.2634 H   0  0  0  0  0  0  0  0  0  0  0  0
  151.3304  145.8149  157.8972 H   0  0  0  0  0  0  0  0  0  0  0  0
  149.8681  144.4281  159.6738 H   0  0  0  0  0  0  0  0  0  0  0  0
  149.6139  144.0600  157.9617 H   0  0  0  0  0  0  0  0  0  0  0  0
  149.8525  137.0059  154.5731 H   0  0  0  0  0  0  0  0  0  0  0  0
  151.0910  135.8355  154.1599 H   0  0  0  0  0  0  0  0  0  0  0  0
  148.3224  135.2792  155.3152 H   0  0  0  0  0  0  0  0  0  0  0  0
  148.9383  134.8563  153.7366 H   0  0  0  0  0  0  0  0  0  0  0  0
  148.5033  133.9290  152.3228 H   0  0  0  0  0  0  0  0  0  0  0  0
  146.2060  133.4816  151.2631 H   0  0  0  0  0  0  0  0  0  0  0  0
  144.7410  131.8099  152.7165 H   0  0  0  0  0  0  0  0  0  0  0  0
  150.2895  133.0205  157.2675 H   0  0  0  0  0  0  0  0  0  0  0  0
  151.5770  133.5418  156.1911 H   0  0  0  0  0  0  0  0  0  0  0  0
  151.1880  135.1230  158.0438 H   0  0  0  0  0  0  0  0  0  0  0  0
  149.5306  135.3672  157.5595 H   0  0  0  0  0  0  0  0  0  0  0  0
  1  2  2  0  0  0  0
  2  3  1  0  0  0  0
  2 18  1  0  0  0  0
  3  4  1  0  0  0  0
  3 31  1  0  0  0  0
  3 32  1  0  0  0  0
  4 16  1  0  0  0  0
  4  5  1  0  0  0  0
  5  6  2  0  0  0  0
  5  7  1  0  0  0  0
  7  8  1  0  0  0  0
  7  9  2  0  0  0  0
  9 10  1  0  0  0  0
  9 33  1  0  0  0  0
 10 11  1  0  0  0  0
 10 16  1  0  0  0  0
 11 15  1  0  0  0  0
 11 12  1  0  0  0  0
 11 34  1  0  0  0  0
 12 13  1  0  0  0  0
 12 35  1  0  0  0  0
 12 36  1  0  0  0  0
 13 14  1  0  0  0  0
 13 37  1  0  0  0  0
 13 38  1  0  0  0  0
 14 15  1  0  0  0  0
 14 39  1  0  0  0  0
 14 40  1  0  0  0  0
 16 17  2  0  0  0  0
 18 30  1  0  0  0  0
 18 19  1  0  0  0  0
 19 20  1  0  0  0  0
 19 41  1  0  0  0  0
 19 42  1  0  0  0  0
 20 21  1  0  0  0  0
 20 43  1  0  0  0  0
 20 44  1  0  0  0  0
 21 22  1  0  0  0  0
 21 29  1  0  0  0  0
 22 23  2  0  0  0  0
 22 24  1  0  0  0  0
 24 28  1  0  0  0  0
 24 25  2  0  0  0  0
 25 26  1  0  0  0  0
 25 45  1  0  0  0  0
 26 27  2  0  0  0  0
 26 46  1  0  0  0  0
 27 28  1  0  0  0  0
 27 47  1  0  0  0  0
 29 30  1  0  0  0  0
 29 48  1  0  0  0  0
 29 49  1  0  0  0  0
 30 50  1  0  0  0  0
 30 51  1  0  0  0  0
M  END
> <s_m_source_file>
AV-unprocessed.smi

> <i_m_source_file_index>
106

> <i_lp_mmshare_version>
43012

> <i_f3d_flags>
0

> <s_epik_input>
czFbY0hdW2NIXVtjSF1jMUMoPU8pTihbQ0gyXVtDSDJdMilbQ0gyXVtDSDJdTjJDKD1PKVtDSDJdbjNjKD1PKWMoRilbY0hdbihjMz1PKVtDQEBIXTRbQ0gyXVtDSDJdW0NIMl1PNA==

> <s_epik_cmdline>
J2VwaWtfcHl0aG9uJywgJy1waCcsICc3LjAnLCAnLXRuJywgJzgnLCAnLW1hJywgJzIwMCcsICctbWV0YWxfYmluZGluZycsICctaW1hZScsICc8aW5maWxlLm1hZT4nLCAnLW9tYWUnLCAnPG91dGZpbGUubWFlPic=

> <r_lp_tautomer_probability>
1

> <r_epik_Ionization_Penalty>
4.82844e-09

> <r_epik_Ionization_Penalty_Charging>
4.20153e-09

> <r_epik_Ionization_Penalty_Neutral>
6.26919e-10

> <r_epik_State_Penalty>
-0

> <r_epik_Charging_Adjusted_Penalty>
4.20153e-09

> <i_epik_Tot_Q>
0

> <i_epik_Tot_abs_Q>
0

> <r_epik_Metal_State_Penalty>
-0

> <b_epik_Metal_Only>
0

> <s_epik_Chemistry_Notes>
This compound contains an acetal/aminal-like group ( X-CH(R)-Y where X, Y are N, S, or O) that may be acid/base labile, releasing an aldehyde.

> <s_lp_Force_Field>
OPLS_2005

> <r_lp_Energy>
72.1787

> <b_lp_Chiralities_Consistent>
1

> <s_lp_Variant>
AV-unprocessed.smi:106-2

> <Gold.Version>
5.8.1

> <Gold.Id.Protein>
6NUR|6NUR_protein|mol2

> <Gold.PLP.Fitness>
56.3823

> <Gold.PLP.PLP>
-52.2426

> <Gold.PLP.part.hbond>
-1.8546

> <Gold.PLP.part.metal>
0.0000

> <Gold.PLP.part.buried>
-2.5013

> <Gold.PLP.part.nonpolar>
-49.7302

> <Gold.PLP.part.repulsive>
1.2196

> <Gold.PLP.ligand.clash>
0.0000

> <Gold.PLP.ligand.torsion>
1.2462

> <Gold.PLP.Chemscore.Hbond>
1.0000

> <Gold.PLP.Chemscore.CHOScore>
1.0000

> <Gold.PLP.Chemscore.Metal>
0.0000

> <Gold.Chemscore.Hbonds>
donor molecule, donor type, donor heavy atom, donor atom, acceptor molecule, acceptor atom, score
      P1  H  7997  8009       L1    17  1.00
      L1  C     9    33       P1  8028  1.00

> <Gold.PLP.Chemscore.Internal.Correction>
0.6321

> <Gold.Rescore>
     Score         DG    S(hbond)    S(metal)    S(lipo)     H(rot)  DE(clash)    DE(int)     intcor
     13.01     -16.01       0.96        0.00      98.14       1.63       0.27       2.73       ----

> <Gold.Chemscore.Fitness>
13.0055

> <Gold.Chemscore.DG>
-16.0148

> <Gold.Chemscore.ZeroCoef>
-5.4800

> <Gold.Chemscore.Hbond>
0.9619

> <Gold.Chemscore.Metal>
0.0000

> <Gold.Chemscore.Lipo>
98.1410

> <Gold.Chemscore.Internal_Hbond>
0.0000

> <Gold.Chemscore.DEClash>
0.2744

> <Gold.Chemscore.DEInternal>
2.7349

> <Gold.Chemscore.Rot>
1.6252

> <Gold.Chemscore.Internal.Correction>
   9.000000E+99

> <Gold.Chemscore.Hbonds>
donor molecule, donor type, donor heavy atom, donor atom, acceptor molecule, acceptor atom, score
      P1  H  7997  8009       L1    17  0.89

> <Gold.Chemscore.Hbond.Weighted>
-3.2128

> <Gold.Chemscore.Metal.Weighted>
-0.0000

> <Gold.Chemscore.Lipo.Weighted>
-11.4825

> <Gold.Chemscore.Internal_Hbond.Weighted>
0.0000

> <Gold.Chemscore.DEClash.Weighted>
0.2744

> <Gold.Chemscore.DEInternal.Weighted>
2.7349

> <Gold.Chemscore.Rot.Weighted>
4.1605

> <Gold.Chemscore.Internal.Correction.Weighted>
   9.000000E+99

> <Gold.Protein.RotatedTorsions>
[ 6907 6896 6895 6894 ] final -171.98 input  -60.11 | X-H torsion
[ 7974 7965 7964 7962 ] final  174.47 input  175.53 | X-H torsion
[ 8008 7997 7996 7995 ] final  172.32 input   59.86 | X-H torsion
[ 10167 10162 10161 10158 ] final  -84.77 input  -65.29 | X-H torsion
[ 10718 10713 10712 10709 ] final -169.79 input   66.30 | X-H torsion
[ 10763 10752 10751 10750 ] final  -35.49 input  -60.55 | X-H torsion
[ 11005 11000 10999 10996 ] final  -82.91 input  -57.11 | X-H torsion

> <Gold.Protein.ActiveResidues>
 VAL166  LYS551  ARG553  GLY616  TRP617  ASP618  TYR619  PRO620  LYS621  CYS622 
 ASP623  PHE694  ASN695  SER759  ASP760  ASP761  ALA762  ILE779  LEU786  VAL792 
 PHE793  MET794  SER795  GLU796  ALA797  LYS798  CYS799  TRP800  GLU811  SER814 

> <Gold.Protein.RotatedAtoms>
  151.5326  133.3446  159.2920 H   0  0  0  0  0  0  0  0  0  0  0  0  # atno 6907 bound_to 6896
  150.8584  134.7932  159.7075 H   0  0  0  0  0  0  0  0  0  0  0  0  # atno 6908 bound_to 6896
  152.4611  134.5191  159.9829 H   0  0  0  0  0  0  0  0  0  0  0  0  # atno 6909 bound_to 6896
  144.7221  139.9801  143.6438 H   0  0  0  0  0  0  0  0  0  0  0  0  # atno 7974 bound_to 7965
  156.1185  140.1489  156.9238 H   0  0  0  0  0  0  0  0  0  0  0  0  # atno 8008 bound_to 7997
  154.4818  140.0877  156.7437 H   0  0  0  0  0  0  0  0  0  0  0  0  # atno 8009 bound_to 7997
  155.4470  140.3433  155.4298 H   0  0  0  0  0  0  0  0  0  0  0  0  # atno 8010 bound_to 7997
  140.4101  143.2626  151.9029 H   0  0  0  0  0  0  0  0  0  0  0  0  # atno 10167 bound_to 10162
  156.7167  130.9254  151.3094 H   0  0  0  0  0  0  0  0  0  0  0  0  # atno 10718 bound_to 10713
  153.8640  135.6837  153.4780 H   0  0  0  0  0  0  0  0  0  0  0  0  # atno 10763 bound_to 10752
  153.1325  135.4692  154.9369 H   0  0  0  0  0  0  0  0  0  0  0  0  # atno 10764 bound_to 10752
  154.7745  135.3249  154.8070 H   0  0  0  0  0  0  0  0  0  0  0  0  # atno 10765 bound_to 10752
  141.1661  133.7268  156.8642 H   0  0  0  0  0  0  0  0  0  0  0  0  # atno 11005 bound_to 11000
  146.0494  139.3496  143.0649 LP  0  0  0  0  0  0  0  0  0  0  0  0  # atno 17320 bound_to 7965
  145.8234  140.9667  143.0887 LP  0  0  0  0  0  0  0  0  0  0  0  0  # atno 17321 bound_to 7965
  139.4783  144.5546  151.8334 LP  0  0  0  0  0  0  0  0  0  0  0  0  # atno 17342 bound_to 10162
  140.4647  144.1672  150.5910 LP  0  0  0  0  0  0  0  0  0  0  0  0  # atno 17343 bound_to 10162
  157.6914  130.9238  150.0525 LP  0  0  0  0  0  0  0  0  0  0  0  0  # atno 17370 bound_to 10713
  156.1623  130.3644  149.9281 LP  0  0  0  0  0  0  0  0  0  0  0  0  # atno 17371 bound_to 10713
  140.1827  134.9022  157.2967 LP  0  0  0  0  0  0  0  0  0  0  0  0  # atno 17394 bound_to 11000
  140.2377  134.3833  155.7494 LP  0  0  0  0  0  0  0  0  0  0  0  0  # atno 17395 bound_to 11000

$$$$
