AV-unprocessed.smi:1572|AV-procd|sdf|6330|dock5
  -GOLD-   22720 6543D 1   1.00000     0.00000
 Structure written by MMmdl.
 42 43  0  0  0  0  0  0  0  0  3 V2000
  144.1918  132.7560  148.7728 C   0  0  0  0  0  0  0  0  0  0  0  0
  143.5982  133.4250  149.9532 N   0  3  0  0  0  0  0  0  0  0  0  0
  144.2734  134.6893  150.3271 C   0  0  0  0  0  0  0  0  0  0  0  0
  145.6038  134.4323  151.0658 C   0  0  0  0  0  0  0  0  0  0  0  0
  145.3535  133.6344  152.2758 N   0  0  0  0  0  0  0  0  0  0  0  0
  146.4740  133.5453  153.2479 C   0  0  0  0  0  0  0  0  0  0  0  0
  146.1348  132.5875  154.4140 C   0  0  0  0  0  0  0  0  0  0  0  0
  147.7582  133.0307  152.5481 C   0  0  0  0  0  0  0  0  0  0  0  0
  146.7866  134.9632  153.8151 C   0  0  0  0  0  0  0  0  0  0  0  0
  148.1253  135.0526  154.4016 N   0  0  0  0  0  0  0  0  0  0  0  0
  148.6027  136.0532  155.1562 C   0  0  0  0  0  0  0  0  0  0  0  0
  147.8666  136.9843  155.4903 O   0  0  0  0  0  0  0  0  0  0  0  0
  149.9130  135.9240  155.4631 N   0  5  0  0  0  0  0  0  0  0  0  0
  150.7500  136.9565  155.2700 C   0  0  0  0  0  0  0  0  0  0  0  0
  152.0772  136.8495  155.4403 N   0  0  0  0  0  0  0  0  0  0  0  0
  152.7571  138.0329  155.1859 N   0  0  0  0  0  0  0  0  0  0  0  0
  151.9213  139.0045  154.8205 C   0  0  0  0  0  0  0  0  0  0  0  0
  150.2279  138.5637  154.7566 S   0  0  0  0  0  0  0  0  0  0  0  0
  144.8163  132.3366  151.8373 C   0  0  0  0  0  0  0  0  0  0  0  0
  143.4606  132.5443  151.1361 C   0  0  0  0  0  0  0  0  0  0  0  0
  145.2182  132.4386  148.9575 H   0  0  0  0  0  0  0  0  0  0  0  0
  144.1954  133.4290  147.9148 H   0  0  0  0  0  0  0  0  0  0  0  0
  143.6087  131.8761  148.4995 H   0  0  0  0  0  0  0  0  0  0  0  0
  144.4399  135.3005  149.4395 H   0  0  0  0  0  0  0  0  0  0  0  0
  143.6045  135.2614  150.9720 H   0  0  0  0  0  0  0  0  0  0  0  0
  146.3259  133.9361  150.4171 H   0  0  0  0  0  0  0  0  0  0  0  0
  146.0171  135.4082  151.3111 H   0  0  0  0  0  0  0  0  0  0  0  0
  146.9871  132.4811  155.0858 H   0  0  0  0  0  0  0  0  0  0  0  0
  145.8801  131.5880  154.0613 H   0  0  0  0  0  0  0  0  0  0  0  0
  145.3043  132.9503  155.0198 H   0  0  0  0  0  0  0  0  0  0  0  0
  148.6318  133.1584  153.1882 H   0  0  0  0  0  0  0  0  0  0  0  0
  147.9584  133.5654  151.6185 H   0  0  0  0  0  0  0  0  0  0  0  0
  147.7076  131.9662  152.3189 H   0  0  0  0  0  0  0  0  0  0  0  0
  146.6232  135.7490  153.0778 H   0  0  0  0  0  0  0  0  0  0  0  0
  146.0800  135.1950  154.6127 H   0  0  0  0  0  0  0  0  0  0  0  0
  148.7696  134.3123  154.1652 H   0  0  0  0  0  0  0  0  0  0  0  0
  152.3046  139.9866  154.5870 H   0  0  0  0  0  0  0  0  0  0  0  0
  145.5185  131.8344  151.1716 H   0  0  0  0  0  0  0  0  0  0  0  0
  144.6583  131.6640  152.6762 H   0  0  0  0  0  0  0  0  0  0  0  0
  142.7533  132.9983  151.8324 H   0  0  0  0  0  0  0  0  0  0  0  0
  143.0303  131.5865  150.8417 H   0  0  0  0  0  0  0  0  0  0  0  0
  142.6596  133.6751  149.6763 H   0  0  0  0  0  0  0  0  0  0  0  0
  1  2  1  0  0  0  0
  1 21  1  0  0  0  0
  1 22  1  0  0  0  0
  1 23  1  0  0  0  0
  2 20  1  0  0  0  0
  2  3  1  0  0  0  0
  2 42  1  0  0  0  0
  3  4  1  0  0  0  0
  3 24  1  0  0  0  0
  3 25  1  0  0  0  0
  4  5  1  0  0  0  0
  4 26  1  0  0  0  0
  4 27  1  0  0  0  0
  5  6  1  0  0  0  0
  5 19  1  0  0  0  0
  6  7  1  0  0  0  0
  6  8  1  0  0  0  0
  6  9  1  0  0  0  0
  7 28  1  0  0  0  0
  7 29  1  0  0  0  0
  7 30  1  0  0  0  0
  8 31  1  0  0  0  0
  8 32  1  0  0  0  0
  8 33  1  0  0  0  0
  9 10  1  0  0  0  0
  9 34  1  0  0  0  0
  9 35  1  0  0  0  0
 10 11  1  0  0  0  0
 10 36  1  0  0  0  0
 11 12  2  0  0  0  0
 11 13  1  0  0  0  0
 13 14  1  0  0  0  0
 14 18  1  0  0  0  0
 14 15  2  0  0  0  0
 15 16  1  0  0  0  0
 16 17  2  0  0  0  0
 17 18  1  0  0  0  0
 17 37  1  0  0  0  0
 19 20  1  0  0  0  0
 19 38  1  0  0  0  0
 19 39  1  0  0  0  0
 20 40  1  0  0  0  0
 20 41  1  0  0  0  0
M  CHG  1   2   1
M  CHG  1  13  -1
M  END
> <s_m_source_file>
AV-unprocessed.smi

> <i_m_source_file_index>
1572

> <i_lp_mmshare_version>
43012

> <i_f3d_flags>
0

> <s_epik_input>
W0NIM11OMVtDSDJdW0NIMl1OKFtDSDJdW0NIMl0xKUMoW0NIM10pKFtDSDNdKVtDSDJdW05IXUMoPU8pW05IXWMybm5bY0hdczI=

> <s_epik_cmdline>
J2VwaWtfcHl0aG9uJywgJy1waCcsICc3LjAnLCAnLXRuJywgJzgnLCAnLW1hJywgJzIwMCcsICctbWV0YWxfYmluZGluZycsICctaW1hZScsICc8aW5maWxlLm1hZT4nLCAnLW9tYWUnLCAnPG91dGZpbGUubWFlPic=

> <r_lp_tautomer_probability>
1

> <r_epik_Ionization_Penalty>
3.56565

> <r_epik_Ionization_Penalty_Charging>
3.52353

> <r_epik_Ionization_Penalty_Neutral>
0.0421115

> <r_epik_State_Penalty>
3.62656

> <r_epik_Charging_Adjusted_Penalty>
7.1501

> <i_epik_Tot_Q>
0

> <i_epik_Tot_abs_Q>
2

> <r_epik_Metal_State_Penalty>
0.645945

> <b_epik_Metal_Only>
1

> <s_lp_Force_Field>
OPLS_2005

> <r_lp_Energy>
17.8403

> <b_lp_Chiralities_Consistent>
1

> <s_lp_Variant>
AV-unprocessed.smi:1572-4

> <Gold.Version>
5.8.1

> <Gold.Id.Protein>
6NUR|6NUR_protein|mol2

> <Gold.PLP.Fitness>
38.4458

> <Gold.PLP.PLP>
-31.1641

> <Gold.PLP.part.hbond>
-4.0000

> <Gold.PLP.part.metal>
0.0000

> <Gold.PLP.part.buried>
-2.7979

> <Gold.PLP.part.nonpolar>
-24.4817

> <Gold.PLP.part.repulsive>
0.4012

> <Gold.PLP.ligand.clash>
0.0000

> <Gold.PLP.ligand.torsion>
0.8531

> <Gold.PLP.Chemscore.Hbond>
2.9760

> <Gold.PLP.Chemscore.CHOScore>
0.0000

> <Gold.PLP.Chemscore.Metal>
0.0000

> <Gold.Chemscore.Hbonds>
donor molecule, donor type, donor heavy atom, donor atom, acceptor molecule, acceptor atom, score
      L1  H     2    42       P1 10186  2.00
      P1  H 10752 10764       L1    15  0.98

> <Gold.PLP.Chemscore.Internal.Correction>
0.0600

> <Gold.Rescore>
     Score         DG    S(hbond)    S(metal)    S(lipo)     H(rot)  DE(clash)    DE(int)     intcor
     13.25     -15.54       1.87        0.00      69.12       1.67       0.10       2.19       ----

> <Gold.Chemscore.Fitness>
13.2456

> <Gold.Chemscore.DG>
-15.5372

> <Gold.Chemscore.ZeroCoef>
-5.4800

> <Gold.Chemscore.Hbond>
1.8695

> <Gold.Chemscore.Metal>
0.0000

> <Gold.Chemscore.Lipo>
69.1174

> <Gold.Chemscore.Internal_Hbond>
0.0000

> <Gold.Chemscore.DEClash>
0.0978

> <Gold.Chemscore.DEInternal>
2.1938

> <Gold.Chemscore.Rot>
1.6694

> <Gold.Chemscore.Internal.Correction>
   9.000000E+99

> <Gold.Chemscore.Hbonds>
donor molecule, donor type, donor heavy atom, donor atom, acceptor molecule, acceptor atom, score
      L1  H     2    42       P1 10186  1.00
      P1  H 10752 10764       L1    15  0.55

> <Gold.Chemscore.Hbond.Weighted>
-6.2443

> <Gold.Chemscore.Metal.Weighted>
-0.0000

> <Gold.Chemscore.Lipo.Weighted>
-8.0867

> <Gold.Chemscore.Internal_Hbond.Weighted>
0.0000

> <Gold.Chemscore.DEClash.Weighted>
0.0978

> <Gold.Chemscore.DEInternal.Weighted>
2.1938

> <Gold.Chemscore.Rot.Weighted>
4.2738

> <Gold.Chemscore.Internal.Correction.Weighted>
   9.000000E+99

> <Gold.Protein.RotatedTorsions>
[ 6907 6896 6895 6894 ] final -121.22 input  -60.11 | X-H torsion
[ 7974 7965 7964 7962 ] final   59.89 input  175.53 | X-H torsion
[ 8008 7997 7996 7995 ] final    6.19 input   59.86 | X-H torsion
[ 10167 10162 10161 10158 ] final -157.84 input  -65.29 | X-H torsion
[ 10718 10713 10712 10709 ] final -179.81 input   66.30 | X-H torsion
[ 10763 10752 10751 10750 ] final  -56.53 input  -60.55 | X-H torsion
[ 11005 11000 10999 10996 ] final    8.99 input  -57.11 | X-H torsion

> <Gold.Protein.ActiveResidues>
 VAL166  LYS551  ARG553  GLY616  TRP617  ASP618  TYR619  PRO620  LYS621  CYS622 
 ASP623  PHE694  ASN695  SER759  ASP760  ASP761  ALA762  ILE779  LEU786  VAL792 
 PHE793  MET794  SER795  GLU796  ALA797  LYS798  CYS799  TRP800  GLU811  SER814 

> <Gold.Protein.RotatedAtoms>
  150.8464  133.7855  159.3041 H   0  0  0  0  0  0  0  0  0  0  0  0  # atno 6907 bound_to 6896
  151.5541  135.1065  159.9966 H   0  0  0  0  0  0  0  0  0  0  0  0  # atno 6908 bound_to 6896
  152.4517  133.7599  159.6797 H   0  0  0  0  0  0  0  0  0  0  0  0  # atno 6909 bound_to 6896
  145.9021  139.3589  143.0586 H   0  0  0  0  0  0  0  0  0  0  0  0  # atno 7974 bound_to 7965
  154.7379  140.2743  155.6399 H   0  0  0  0  0  0  0  0  0  0  0  0  # atno 8008 bound_to 7997
  156.2866  140.2703  156.2024 H   0  0  0  0  0  0  0  0  0  0  0  0  # atno 8009 bound_to 7997
  155.0296  140.0371  157.2459 H   0  0  0  0  0  0  0  0  0  0  0  0  # atno 8010 bound_to 7997
  139.6739  143.9698  152.2299 H   0  0  0  0  0  0  0  0  0  0  0  0  # atno 10167 bound_to 10162
  156.8646  130.9763  151.3080 H   0  0  0  0  0  0  0  0  0  0  0  0  # atno 10718 bound_to 10713
  154.2081  135.6399  153.5107 H   0  0  0  0  0  0  0  0  0  0  0  0  # atno 10763 bound_to 10752
  152.9996  135.5467  154.6244 H   0  0  0  0  0  0  0  0  0  0  0  0  # atno 10764 bound_to 10752
  154.5674  135.2914  155.0834 H   0  0  0  0  0  0  0  0  0  0  0  0  # atno 10765 bound_to 10752
  140.5308  134.0469  155.7873 H   0  0  0  0  0  0  0  0  0  0  0  0  # atno 11005 bound_to 11000
  145.8778  140.9381  143.0617 LP  0  0  0  0  0  0  0  0  0  0  0  0  # atno 17320 bound_to 7965
  144.6736  140.0739  143.7472 LP  0  0  0  0  0  0  0  0  0  0  0  0  # atno 17321 bound_to 7965
  139.9469  144.6645  150.8210 LP  0  0  0  0  0  0  0  0  0  0  0  0  # atno 17342 bound_to 10162
  140.7628  143.3207  151.2628 LP  0  0  0  0  0  0  0  0  0  0  0  0  # atno 17343 bound_to 10162
  157.6231  130.8670  149.9142 LP  0  0  0  0  0  0  0  0  0  0  0  0  # atno 17370 bound_to 10713
  156.0759  130.3679  150.0680 LP  0  0  0  0  0  0  0  0  0  0  0  0  # atno 17371 bound_to 10713
  141.1282  133.9346  157.2590 LP  0  0  0  0  0  0  0  0  0  0  0  0  # atno 17394 bound_to 11000
  139.9555  135.0166  156.9117 LP  0  0  0  0  0  0  0  0  0  0  0  0  # atno 17395 bound_to 11000

$$$$
