AV-unprocessed.smi:667|AV-procd|sdf|3257|dock5
  -GOLD-   22720 0213D 1   1.00000     0.00000
 Structure written by MMmdl.
 48 49  0  0  0  0  0  0  0  0  1 V2000
  150.1122  141.2578  156.9102 C   0  0  0  0  0  0  0  0  0  0  0  0
  151.1430  141.1858  158.0003 C   0  0  0  0  0  0  0  0  0  0  0  0
  151.4395  142.2773  158.6860 N   0  0  0  0  0  0  0  0  0  0  0  0
  152.3706  141.8820  159.5774 N   0  0  0  0  0  0  0  0  0  0  0  0
  152.9208  142.8507  160.5057 C   0  0  0  0  0  0  0  0  0  0  0  0
  152.6676  140.5389  159.4500 C   0  0  0  0  0  0  0  0  0  0  0  0
  153.6697  139.8563  160.3246 C   0  0  0  0  0  0  0  0  0  0  0  0
  151.8858  140.0499  158.4376 C   0  0  0  0  0  0  0  0  0  0  0  0
  151.8094  138.6424  157.9031 C   0  0  0  0  0  0  0  0  0  0  0  0
  151.2616  137.7138  158.9862 C   0  0  0  0  0  0  0  0  0  0  0  0
  152.0322  137.0202  159.6499 O   0  0  0  0  0  0  0  0  0  0  0  0
  149.9306  137.7148  159.1588 N   0  0  0  0  0  0  0  0  0  0  0  0
  149.2142  136.9210  160.1511 C   0  0  0  0  0  0  0  0  0  0  0  0
  148.2054  135.9381  159.5052 C   0  0  2  0  0  0  0  0  0  0  0  0
  147.4029  136.5812  158.3822 C   0  0  0  0  0  0  0  0  0  0  0  0
  146.2076  137.2049  159.1075 C   0  0  0  0  0  0  0  0  0  0  0  0
  146.1830  136.6187  160.4060 O   0  0  0  0  0  0  0  0  0  0  0  0
  147.0587  135.4990  160.4317 C   0  0  2  0  0  0  0  0  0  0  0  0
  147.4248  135.0957  161.8782 C   0  0  0  0  0  0  0  0  0  0  0  0
  146.3703  134.1599  162.4942 C   0  0  0  0  0  0  0  0  0  0  0  0
  147.6062  136.3369  162.7668 C   0  0  0  0  0  0  0  0  0  0  0  0
  149.2108  140.7130  157.1918 H   0  0  0  0  0  0  0  0  0  0  0  0
  150.4901  140.8209  155.9856 H   0  0  0  0  0  0  0  0  0  0  0  0
  149.8232  142.2870  156.6931 H   0  0  0  0  0  0  0  0  0  0  0  0
  153.9268  143.1279  160.1904 H   0  0  0  0  0  0  0  0  0  0  0  0
  152.9659  142.4200  161.5064 H   0  0  0  0  0  0  0  0  0  0  0  0
  152.2990  143.7467  160.5391 H   0  0  0  0  0  0  0  0  0  0  0  0
  153.9234  138.8692  159.9391 H   0  0  0  0  0  0  0  0  0  0  0  0
  153.2767  139.7299  161.3333 H   0  0  0  0  0  0  0  0  0  0  0  0
  154.5917  140.4340  160.3885 H   0  0  0  0  0  0  0  0  0  0  0  0
  151.1719  138.5824  157.0203 H   0  0  0  0  0  0  0  0  0  0  0  0
  152.7888  138.2817  157.5882 H   0  0  0  0  0  0  0  0  0  0  0  0
  149.3759  138.3189  158.5698 H   0  0  0  0  0  0  0  0  0  0  0  0
  149.9456  136.3889  160.7598 H   0  0  0  0  0  0  0  0  0  0  0  0
  148.6990  137.6060  160.8251 H   0  0  0  0  0  0  0  0  0  0  0  0
  148.7432  135.0641  159.1358 H   0  0  0  0  0  0  0  0  0  0  0  0
  147.9629  137.3057  157.7905 H   0  0  0  0  0  0  0  0  0  0  0  0
  147.0498  135.8074  157.6992 H   0  0  0  0  0  0  0  0  0  0  0  0
  146.3211  138.2846  159.2078 H   0  0  0  0  0  0  0  0  0  0  0  0
  145.2751  137.0089  158.5776 H   0  0  0  0  0  0  0  0  0  0  0  0
  146.5336  134.6654  159.9600 H   0  0  0  0  0  0  0  0  0  0  0  0
  148.3799  134.5706  161.8668 H   0  0  0  0  0  0  0  0  0  0  0  0
  145.3918  134.6396  162.5338 H   0  0  0  0  0  0  0  0  0  0  0  0
  146.6429  133.8785  163.5116 H   0  0  0  0  0  0  0  0  0  0  0  0
  146.2628  133.2382  161.9227 H   0  0  0  0  0  0  0  0  0  0  0  0
  146.6889  136.9242  162.8202 H   0  0  0  0  0  0  0  0  0  0  0  0
  148.3949  136.9862  162.3857 H   0  0  0  0  0  0  0  0  0  0  0  0
  147.8809  136.0559  163.7840 H   0  0  0  0  0  0  0  0  0  0  0  0
  1  2  1  0  0  0  0
  1 22  1  0  0  0  0
  1 23  1  0  0  0  0
  1 24  1  0  0  0  0
  2  8  1  0  0  0  0
  2  3  2  0  0  0  0
  3  4  1  0  0  0  0
  4  5  1  0  0  0  0
  4  6  1  0  0  0  0
  5 25  1  0  0  0  0
  5 26  1  0  0  0  0
  5 27  1  0  0  0  0
  6  7  1  0  0  0  0
  6  8  2  0  0  0  0
  7 28  1  0  0  0  0
  7 29  1  0  0  0  0
  7 30  1  0  0  0  0
  8  9  1  0  0  0  0
  9 10  1  0  0  0  0
  9 31  1  0  0  0  0
  9 32  1  0  0  0  0
 10 11  2  0  0  0  0
 10 12  1  0  0  0  0
 12 13  1  0  0  0  0
 12 33  1  0  0  0  0
 13 14  1  0  0  0  0
 13 34  1  0  0  0  0
 13 35  1  0  0  0  0
 14 18  1  0  0  0  0
 14 15  1  0  0  0  0
 14 36  1  0  0  0  0
 15 16  1  0  0  0  0
 15 37  1  0  0  0  0
 15 38  1  0  0  0  0
 16 17  1  0  0  0  0
 16 39  1  0  0  0  0
 16 40  1  0  0  0  0
 17 18  1  0  0  0  0
 18 19  1  0  0  0  0
 18 41  1  0  0  0  0
 19 20  1  0  0  0  0
 19 21  1  0  0  0  0
 19 42  1  0  0  0  0
 20 43  1  0  0  0  0
 20 44  1  0  0  0  0
 20 45  1  0  0  0  0
 21 46  1  0  0  0  0
 21 47  1  0  0  0  0
 21 48  1  0  0  0  0
M  END
> <s_m_source_file>
AV-unprocessed.smi

> <i_m_source_file_index>
667

> <i_lp_mmshare_version>
43012

> <i_f3d_flags>
0

> <s_epik_input>
W0NIM11jMW5uKFtDSDNdKWMoW0NIM10pYzFbQ0gyXUMoPU8pW05IXVtDSDJdW0NAQEhdMltDSDJdW0NIMl1PW0NASF0yW0NIXShbQ0gzXSlbQ0gzXQ==

> <s_epik_cmdline>
J2VwaWtfcHl0aG9uJywgJy1waCcsICc3LjAnLCAnLXRuJywgJzgnLCAnLW1hJywgJzIwMCcsICctbWV0YWxfYmluZGluZycsICctaW1hZScsICc8aW5maWxlLm1hZT4nLCAnLW9tYWUnLCAnPG91dGZpbGUubWFlPic=

> <r_lp_tautomer_probability>
1

> <r_epik_Ionization_Penalty>
0.00315488

> <r_epik_Ionization_Penalty_Charging>
0

> <r_epik_Ionization_Penalty_Neutral>
0.00315488

> <r_epik_State_Penalty>
0.00222269

> <r_epik_Charging_Adjusted_Penalty>
0.00222269

> <i_epik_Tot_Q>
0

> <i_epik_Tot_abs_Q>
0

> <r_epik_Metal_State_Penalty>
-0

> <b_epik_Metal_Only>
0

> <s_lp_Force_Field>
OPLS_2005

> <r_lp_Energy>
17.3848

> <b_lp_Chiralities_Consistent>
1

> <s_lp_Variant>
AV-unprocessed.smi:667-3

> <Gold.Version>
5.8.1

> <Gold.Id.Protein>
6NUR|6NUR_protein|mol2

> <Gold.PLP.Fitness>
38.2964

> <Gold.PLP.PLP>
-37.1844

> <Gold.PLP.part.hbond>
-1.0000

> <Gold.PLP.part.metal>
0.0000

> <Gold.PLP.part.buried>
-4.0392

> <Gold.PLP.part.nonpolar>
-33.0362

> <Gold.PLP.part.repulsive>
0.2324

> <Gold.PLP.ligand.clash>
0.0000

> <Gold.PLP.ligand.torsion>
0.9738

> <Gold.PLP.Chemscore.Hbond>
1.0000

> <Gold.PLP.Chemscore.CHOScore>
0.0000

> <Gold.PLP.Chemscore.Metal>
0.0000

> <Gold.Chemscore.Hbonds>
donor molecule, donor type, donor heavy atom, donor atom, acceptor molecule, acceptor atom, score
      P1  H  6896  6908       L1    11  1.00

> <Gold.PLP.Chemscore.Internal.Correction>
0.0595

> <Gold.Rescore>
     Score         DG    S(hbond)    S(metal)    S(lipo)     H(rot)  DE(clash)    DE(int)     intcor
     14.88     -15.95       0.98        0.00      94.81       1.52       0.16       0.91       ----

> <Gold.Chemscore.Fitness>
14.8810

> <Gold.Chemscore.DG>
-15.9497

> <Gold.Chemscore.ZeroCoef>
-5.4800

> <Gold.Chemscore.Hbond>
0.9796

> <Gold.Chemscore.Metal>
0.0000

> <Gold.Chemscore.Lipo>
94.8069

> <Gold.Chemscore.Internal_Hbond>
0.0000

> <Gold.Chemscore.DEClash>
0.1596

> <Gold.Chemscore.DEInternal>
0.9091

> <Gold.Chemscore.Rot>
1.5213

> <Gold.Chemscore.Internal.Correction>
   9.000000E+99

> <Gold.Chemscore.Hbonds>
donor molecule, donor type, donor heavy atom, donor atom, acceptor molecule, acceptor atom, score
      P1  H  6896  6908       L1    11  0.99

> <Gold.Chemscore.Hbond.Weighted>
-3.2718

> <Gold.Chemscore.Metal.Weighted>
-0.0000

> <Gold.Chemscore.Lipo.Weighted>
-11.0924

> <Gold.Chemscore.Internal_Hbond.Weighted>
0.0000

> <Gold.Chemscore.DEClash.Weighted>
0.1596

> <Gold.Chemscore.DEInternal.Weighted>
0.9091

> <Gold.Chemscore.Rot.Weighted>
3.8945

> <Gold.Chemscore.Internal.Correction.Weighted>
   9.000000E+99

> <Gold.Protein.RotatedTorsions>
[ 6907 6896 6895 6894 ] final -103.32 input  -60.11 | X-H torsion
[ 7974 7965 7964 7962 ] final   53.87 input  175.53 | X-H torsion
[ 8008 7997 7996 7995 ] final   47.07 input   59.86 | X-H torsion
[ 10167 10162 10161 10158 ] final  -16.22 input  -65.29 | X-H torsion
[ 10718 10713 10712 10709 ] final  137.64 input   66.30 | X-H torsion
[ 10763 10752 10751 10750 ] final   49.97 input  -60.55 | X-H torsion
[ 11005 11000 10999 10996 ] final   31.60 input  -57.11 | X-H torsion

> <Gold.Protein.ActiveResidues>
 VAL166  LYS551  ARG553  GLY616  TRP617  ASP618  TYR619  PRO620  LYS621  CYS622 
 ASP623  PHE694  ASN695  SER759  ASP760  ASP761  ALA762  ILE779  LEU786  VAL792 
 PHE793  MET794  SER795  GLU796  ALA797  LYS798  CYS799  TRP800  GLU811  SER814 

> <Gold.Protein.RotatedAtoms>
  150.7235  134.0447  159.3777 H   0  0  0  0  0  0  0  0  0  0  0  0  # atno 6907 bound_to 6896
  151.8421  135.0584  160.0458 H   0  0  0  0  0  0  0  0  0  0  0  0  # atno 6908 bound_to 6896
  152.2854  133.5474  159.5560 H   0  0  0  0  0  0  0  0  0  0  0  0  # atno 6909 bound_to 6896
  145.9667  139.4110  143.0215 H   0  0  0  0  0  0  0  0  0  0  0  0  # atno 7974 bound_to 7965
  155.3630  140.3419  155.4241 H   0  0  0  0  0  0  0  0  0  0  0  0  # atno 8008 bound_to 7997
  156.1703  140.1629  156.8493 H   0  0  0  0  0  0  0  0  0  0  0  0  # atno 8009 bound_to 7997
  154.5227  140.0763  156.8183 H   0  0  0  0  0  0  0  0  0  0  0  0  # atno 8010 bound_to 7997
  140.7230  143.5138  150.9717 H   0  0  0  0  0  0  0  0  0  0  0  0  # atno 10167 bound_to 10162
  157.4339  131.1051  151.0219 H   0  0  0  0  0  0  0  0  0  0  0  0  # atno 10718 bound_to 10713
  152.9785  135.5894  154.4176 H   0  0  0  0  0  0  0  0  0  0  0  0  # atno 10763 bound_to 10752
  154.3804  135.2767  155.2216 H   0  0  0  0  0  0  0  0  0  0  0  0  # atno 10764 bound_to 10752
  154.4132  135.6076  153.6020 H   0  0  0  0  0  0  0  0  0  0  0  0  # atno 10765 bound_to 10752
  140.2821  134.2960  155.7798 H   0  0  0  0  0  0  0  0  0  0  0  0  # atno 11005 bound_to 11000
  145.7964  140.9791  143.1022 LP  0  0  0  0  0  0  0  0  0  0  0  0  # atno 17320 bound_to 7965
  144.6827  139.9746  143.7482 LP  0  0  0  0  0  0  0  0  0  0  0  0  # atno 17321 bound_to 7965
  139.8853  143.7021  152.3152 LP  0  0  0  0  0  0  0  0  0  0  0  0  # atno 17342 bound_to 10162
  139.7318  144.7580  151.0791 LP  0  0  0  0  0  0  0  0  0  0  0  0  # atno 17343 bound_to 10162
  157.1106  130.6020  149.5481 LP  0  0  0  0  0  0  0  0  0  0  0  0  # atno 17370 bound_to 10713
  155.9923  130.4981  150.7336 LP  0  0  0  0  0  0  0  0  0  0  0  0  # atno 17371 bound_to 10713
  141.2161  133.7532  156.9497 LP  0  0  0  0  0  0  0  0  0  0  0  0  # atno 17394 bound_to 11000
  140.1273  134.9378  157.2288 LP  0  0  0  0  0  0  0  0  0  0  0  0  # atno 17395 bound_to 11000

$$$$
