AV-unprocessed.smi:1697|AV-procd|sdf|6811|dock5
  -GOLD-   22720 7583D 1   1.00000     0.00000
 Structure written by MMmdl.
 53 55  0  0  0  0  0  0  0  0  1 V2000
  143.0208  136.4916  153.0350 C   0  0  0  0  0  0  0  0  0  0  0  0
  144.1994  137.4444  153.2472 C   0  0  0  0  0  0  0  0  0  0  0  0
  144.9131  137.0373  154.4053 O   0  0  0  0  0  0  0  0  0  0  0  0
  145.9349  137.9381  154.8148 C   0  0  0  0  0  0  0  0  0  0  0  0
  145.3673  139.3347  155.1341 C   0  0  0  0  0  0  0  0  0  0  0  0
  146.5082  140.3334  155.3920 C   0  0  0  0  0  0  0  0  0  0  0  0
  147.4412  140.4324  154.2690 N   0  0  0  0  0  0  0  0  0  0  0  0
  148.4640  141.4454  154.5387 C   0  0  0  0  0  0  0  0  0  0  0  0
  149.1198  141.3767  155.9321 C   0  0  2  0  0  0  0  0  0  0  0  0
  148.5635  142.4049  156.7263 O   0  0  0  0  0  0  0  0  0  0  0  0
  150.6506  141.5506  155.8807 C   0  0  0  0  0  0  0  0  0  0  0  0
  151.2768  141.2623  157.1578 N   0  0  0  0  0  0  0  0  0  0  0  0
  151.7436  140.0760  157.5925 C   0  0  0  0  0  0  0  0  0  0  0  0
  152.2891  140.0451  158.8052 N   0  0  0  0  0  0  0  0  0  0  0  0
  152.1558  141.3641  159.2054 C   0  0  0  0  0  0  0  0  0  0  0  0
  152.5379  142.0029  160.4055 C   0  0  0  0  0  0  0  0  0  0  0  0
  152.2982  143.3821  160.6004 C   0  0  0  0  0  0  0  0  0  0  0  0
  152.7245  144.0280  161.9069 C   0  0  0  0  0  0  0  0  0  0  0  0
  151.6658  144.1443  159.5852 C   0  0  0  0  0  0  0  0  0  0  0  0
  151.3936  145.6263  159.7735 C   0  0  0  0  0  0  0  0  0  0  0  0
  151.2810  143.5227  158.3791 C   0  0  0  0  0  0  0  0  0  0  0  0
  151.5248  142.1502  158.1977 C   0  0  0  0  0  0  0  0  0  0  0  0
  148.0178  139.1138  153.9883 C   0  0  0  0  0  0  0  0  0  0  0  0
  146.9476  138.0578  153.6655 C   0  0  0  0  0  0  0  0  0  0  0  0
  142.4436  136.7770  152.1554 H   0  0  0  0  0  0  0  0  0  0  0  0
  142.3492  136.5020  153.8938 H   0  0  0  0  0  0  0  0  0  0  0  0
  143.3663  135.4675  152.8909 H   0  0  0  0  0  0  0  0  0  0  0  0
  144.8440  137.4292  152.3686 H   0  0  0  0  0  0  0  0  0  0  0  0
  143.8308  138.4637  153.3698 H   0  0  0  0  0  0  0  0  0  0  0  0
  146.4539  137.5401  155.6889 H   0  0  0  0  0  0  0  0  0  0  0  0
  144.7566  139.6848  154.3007 H   0  0  0  0  0  0  0  0  0  0  0  0
  144.7153  139.2985  156.0063 H   0  0  0  0  0  0  0  0  0  0  0  0
  146.0747  141.3131  155.5959 H   0  0  0  0  0  0  0  0  0  0  0  0
  147.0469  140.0423  156.2951 H   0  0  0  0  0  0  0  0  0  0  0  0
  149.2565  141.3563  153.7941 H   0  0  0  0  0  0  0  0  0  0  0  0
  148.0315  142.4368  154.3937 H   0  0  0  0  0  0  0  0  0  0  0  0
  148.8703  140.4363  156.4224 H   0  0  0  0  0  0  0  0  0  0  0  0
  148.7809  143.2362  156.3328 H   0  0  0  0  0  0  0  0  0  0  0  0
  151.0845  140.8801  155.1378 H   0  0  0  0  0  0  0  0  0  0  0  0
  150.9150  142.5645  155.5768 H   0  0  0  0  0  0  0  0  0  0  0  0
  151.6842  139.1863  156.9822 H   0  0  0  0  0  0  0  0  0  0  0  0
  153.0184  141.4217  161.1788 H   0  0  0  0  0  0  0  0  0  0  0  0
  151.8541  144.3945  162.4512 H   0  0  0  0  0  0  0  0  0  0  0  0
  153.3954  144.8666  161.7199 H   0  0  0  0  0  0  0  0  0  0  0  0
  153.2474  143.3195  162.5498 H   0  0  0  0  0  0  0  0  0  0  0  0
  150.8486  146.0411  158.9250 H   0  0  0  0  0  0  0  0  0  0  0  0
  152.3297  146.1761  159.8725 H   0  0  0  0  0  0  0  0  0  0  0  0
  150.7949  145.7954  160.6688 H   0  0  0  0  0  0  0  0  0  0  0  0
  150.8010  144.0906  157.5957 H   0  0  0  0  0  0  0  0  0  0  0  0
  148.6945  139.1705  153.1372 H   0  0  0  0  0  0  0  0  0  0  0  0
  148.6152  138.7811  154.8385 H   0  0  0  0  0  0  0  0  0  0  0  0
  147.4194  137.0925  153.4799 H   0  0  0  0  0  0  0  0  0  0  0  0
  146.4322  138.3340  152.7446 H   0  0  0  0  0  0  0  0  0  0  0  0
  1  2  1  0  0  0  0
  1 25  1  0  0  0  0
  1 26  1  0  0  0  0
  1 27  1  0  0  0  0
  2  3  1  0  0  0  0
  2 28  1  0  0  0  0
  2 29  1  0  0  0  0
  3  4  1  0  0  0  0
  4 24  1  0  0  0  0
  4  5  1  0  0  0  0
  4 30  1  0  0  0  0
  5  6  1  0  0  0  0
  5 31  1  0  0  0  0
  5 32  1  0  0  0  0
  6  7  1  0  0  0  0
  6 33  1  0  0  0  0
  6 34  1  0  0  0  0
  7  8  1  0  0  0  0
  7 23  1  0  0  0  0
  8  9  1  0  0  0  0
  8 35  1  0  0  0  0
  8 36  1  0  0  0  0
  9 10  1  0  0  0  0
  9 11  1  0  0  0  0
  9 37  1  0  0  0  0
 10 38  1  0  0  0  0
 11 12  1  0  0  0  0
 11 39  1  0  0  0  0
 11 40  1  0  0  0  0
 12 22  1  0  0  0  0
 12 13  1  0  0  0  0
 13 14  2  0  0  0  0
 13 41  1  0  0  0  0
 14 15  1  0  0  0  0
 15 22  2  0  0  0  0
 15 16  1  0  0  0  0
 16 17  2  0  0  0  0
 16 42  1  0  0  0  0
 17 18  1  0  0  0  0
 17 19  1  0  0  0  0
 18 43  1  0  0  0  0
 18 44  1  0  0  0  0
 18 45  1  0  0  0  0
 19 20  1  0  0  0  0
 19 21  2  0  0  0  0
 20 46  1  0  0  0  0
 20 47  1  0  0  0  0
 20 48  1  0  0  0  0
 21 22  1  0  0  0  0
 21 49  1  0  0  0  0
 23 24  1  0  0  0  0
 23 50  1  0  0  0  0
 23 51  1  0  0  0  0
 24 52  1  0  0  0  0
 24 53  1  0  0  0  0
M  END
> <s_m_source_file>
AV-unprocessed.smi

> <i_m_source_file_index>
1697

> <i_lp_mmshare_version>
43012

> <i_f3d_flags>
0

> <s_epik_input>
W0NIM11bQ0gyXU9bQ0hdMVtDSDJdW0NIMl1OKFtDSDJdW0NIMl0xKVtDSDJdW0NASF0oW09IXSlbQ0gyXW4oW2NIXW4yKWMoYzIzKVtjSF1jKFtDSDNdKWMoW2NIXTMpW0NIM10=

> <s_epik_cmdline>
J2VwaWtfcHl0aG9uJywgJy1waCcsICc3LjAnLCAnLXRuJywgJzgnLCAnLW1hJywgJzIwMCcsICctbWV0YWxfYmluZGluZycsICctaW1hZScsICc8aW5maWxlLm1hZT4nLCAnLW9tYWUnLCAnPG91dGZpbGUubWFlPic=

> <r_epik_Ionization_Penalty>
1.9836

> <r_epik_Ionization_Penalty_Charging>
0

> <r_epik_Ionization_Penalty_Neutral>
1.9836

> <r_epik_State_Penalty>
2.07269

> <r_epik_Charging_Adjusted_Penalty>
2.07269

> <i_epik_Tot_Q>
0

> <i_epik_Tot_abs_Q>
0

> <r_epik_Metal_State_Penalty>
2.00215

> <b_epik_Metal_Only>
0

> <s_lp_Force_Field>
OPLS_2005

> <r_lp_Energy>
30.2153

> <b_lp_Chiralities_Consistent>
1

> <s_lp_Variant>
AV-unprocessed.smi:1697-9

> <Gold.Version>
5.8.1

> <Gold.Id.Protein>
6NUR|6NUR_protein|mol2

> <Gold.PLP.Fitness>
43.3334

> <Gold.PLP.PLP>
-42.5480

> <Gold.PLP.part.hbond>
-1.0000

> <Gold.PLP.part.metal>
0.0000

> <Gold.PLP.part.buried>
-5.6100

> <Gold.PLP.part.nonpolar>
-36.3544

> <Gold.PLP.part.repulsive>
0.1804

> <Gold.PLP.ligand.clash>
0.0000

> <Gold.PLP.ligand.torsion>
1.1618

> <Gold.PLP.Chemscore.Hbond>
1.0000

> <Gold.PLP.Chemscore.CHOScore>
0.0000

> <Gold.PLP.Chemscore.Metal>
0.0000

> <Gold.Chemscore.Hbonds>
donor molecule, donor type, donor heavy atom, donor atom, acceptor molecule, acceptor atom, score
      L1  H    10    38       P1  8028  1.00

> <Gold.PLP.Chemscore.Internal.Correction>
0.1090

> <Gold.Rescore>
     Score         DG    S(hbond)    S(metal)    S(lipo)     H(rot)  DE(clash)    DE(int)     intcor
     16.62     -17.93       1.00        0.00     125.98       2.19       0.21       1.09       ----

> <Gold.Chemscore.Fitness>
16.6212

> <Gold.Chemscore.DG>
-17.9261

> <Gold.Chemscore.ZeroCoef>
-5.4800

> <Gold.Chemscore.Hbond>
0.9953

> <Gold.Chemscore.Metal>
0.0000

> <Gold.Chemscore.Lipo>
125.9771

> <Gold.Chemscore.Internal_Hbond>
0.0000

> <Gold.Chemscore.DEClash>
0.2112

> <Gold.Chemscore.DEInternal>
1.0937

> <Gold.Chemscore.Rot>
2.1943

> <Gold.Chemscore.Internal.Correction>
   9.000000E+99

> <Gold.Chemscore.Hbonds>
donor molecule, donor type, donor heavy atom, donor atom, acceptor molecule, acceptor atom, score
      L1  H    10    38       P1  8028  0.96

> <Gold.Chemscore.Hbond.Weighted>
-3.3241

> <Gold.Chemscore.Metal.Weighted>
-0.0000

> <Gold.Chemscore.Lipo.Weighted>
-14.7393

> <Gold.Chemscore.Internal_Hbond.Weighted>
0.0000

> <Gold.Chemscore.DEClash.Weighted>
0.2112

> <Gold.Chemscore.DEInternal.Weighted>
1.0937

> <Gold.Chemscore.Rot.Weighted>
5.6174

> <Gold.Chemscore.Internal.Correction.Weighted>
   9.000000E+99

> <Gold.Protein.RotatedTorsions>
[ 6907 6896 6895 6894 ] final   89.95 input  -60.11 | X-H torsion
[ 7974 7965 7964 7962 ] final  -70.96 input  175.53 | X-H torsion
[ 8008 7997 7996 7995 ] final  -61.42 input   59.86 | X-H torsion
[ 10167 10162 10161 10158 ] final   69.14 input  -65.29 | X-H torsion
[ 10718 10713 10712 10709 ] final  -17.87 input   66.30 | X-H torsion
[ 10763 10752 10751 10750 ] final    1.60 input  -60.55 | X-H torsion
[ 11005 11000 10999 10996 ] final  -14.90 input  -57.11 | X-H torsion

> <Gold.Protein.ActiveResidues>
 VAL166  LYS551  ARG553  GLY616  TRP617  ASP618  TYR619  PRO620  LYS621  CYS622 
 ASP623  PHE694  ASN695  SER759  ASP760  ASP761  ALA762  ILE779  LEU786  VAL792 
 PHE793  MET794  SER795  GLU796  ALA797  LYS798  CYS799  TRP800  GLU811  SER814 

> <Gold.Protein.RotatedAtoms>
  152.5440  134.1888  159.8665 H   0  0  0  0  0  0  0  0  0  0  0  0  # atno 6907 bound_to 6896
  151.1885  133.4675  159.2602 H   0  0  0  0  0  0  0  0  0  0  0  0  # atno 6908 bound_to 6896
  151.1107  135.0037  159.8548 H   0  0  0  0  0  0  0  0  0  0  0  0  # atno 6909 bound_to 6896
  145.6842  140.9177  143.0816 H   0  0  0  0  0  0  0  0  0  0  0  0  # atno 7974 bound_to 7965
  154.4447  140.1018  156.6428 H   0  0  0  0  0  0  0  0  0  0  0  0  # atno 8008 bound_to 7997
  155.5483  140.3485  155.4444 H   0  0  0  0  0  0  0  0  0  0  0  0  # atno 8009 bound_to 7997
  156.0547  140.1312  156.9999 H   0  0  0  0  0  0  0  0  0  0  0  0  # atno 8010 bound_to 7997
  140.0710  144.5152  150.7227 H   0  0  0  0  0  0  0  0  0  0  0  0  # atno 10167 bound_to 10162
  156.5674  130.4741  149.6378 H   0  0  0  0  0  0  0  0  0  0  0  0  # atno 10718 bound_to 10713
  153.3060  135.6959  153.7159 H   0  0  0  0  0  0  0  0  0  0  0  0  # atno 10763 bound_to 10752
  153.6054  135.3454  155.2961 H   0  0  0  0  0  0  0  0  0  0  0  0  # atno 10764 bound_to 10752
  154.8563  135.4351  154.2185 H   0  0  0  0  0  0  0  0  0  0  0  0  # atno 10765 bound_to 10752
  140.7912  133.8287  155.9381 H   0  0  0  0  0  0  0  0  0  0  0  0  # atno 11005 bound_to 11000
  144.7016  139.8736  143.7442 LP  0  0  0  0  0  0  0  0  0  0  0  0  # atno 17320 bound_to 7965
  146.0938  139.3929  143.0389 LP  0  0  0  0  0  0  0  0  0  0  0  0  # atno 17321 bound_to 7965
  140.7125  143.2517  151.4536 LP  0  0  0  0  0  0  0  0  0  0  0  0  # atno 17342 bound_to 10162
  139.5836  144.1655  152.2000 LP  0  0  0  0  0  0  0  0  0  0  0  0  # atno 17343 bound_to 10162
  156.2744  130.7035  151.1842 LP  0  0  0  0  0  0  0  0  0  0  0  0  # atno 17370 bound_to 10713
  157.7355  131.0571  150.5464 LP  0  0  0  0  0  0  0  0  0  0  0  0  # atno 17371 bound_to 10713
  140.9388  134.1928  157.4812 LP  0  0  0  0  0  0  0  0  0  0  0  0  # atno 17394 bound_to 11000
  139.8731  134.9863  156.5319 LP  0  0  0  0  0  0  0  0  0  0  0  0  # atno 17395 bound_to 11000

$$$$
