AV-unprocessed.smi:3307|AV-procd|sdf|12707|dock4
  -GOLD-   2272019 43D 1   1.00000     0.00000
 Structure written by MMmdl.
 31 32  0  0  0  0  0  0  0  0  2 V2000
  147.4330  142.0495  154.2509 C   0  0  0  0  0  0  0  0  0  0  0  0
  148.6298  141.4404  154.9195 C   0  0  0  0  0  0  0  0  0  0  0  0
  149.5577  140.5038  154.3843 C   0  0  0  0  0  0  0  0  0  0  0  0
  150.4418  140.2845  155.4027 C   0  0  0  0  0  0  0  0  0  0  0  0
  151.6436  139.3997  155.4596 C   0  0  0  0  0  0  0  0  0  0  0  0
  150.0300  141.0672  156.4665 N   0  0  0  0  0  0  0  0  0  0  0  0
  150.6254  141.2105  157.7852 C   0  0  0  0  0  0  0  0  0  0  0  0
  150.7677  142.6843  158.2091 C   0  0  1  0  0  0  0  0  0  0  0  0
  151.6612  142.9304  159.4294 C   0  0  0  0  0  0  0  0  0  0  0  0
  152.0831  144.3836  159.2507 C   0  0  0  0  0  0  0  0  0  0  0  0
  152.2342  144.5227  157.7342 C   0  0  0  0  0  0  0  0  0  0  0  0
  151.3393  143.5145  157.1302 N   0  3  0  0  0  0  0  0  0  0  0  0
  148.9184  141.7728  156.1668 N   0  0  0  0  0  0  0  0  0  0  0  0
  147.3074  141.6635  153.2392 H   0  0  0  0  0  0  0  0  0  0  0  0
  147.5304  143.1331  154.1821 H   0  0  0  0  0  0  0  0  0  0  0  0
  146.5196  141.8302  154.8044 H   0  0  0  0  0  0  0  0  0  0  0  0
  149.5711  140.0591  153.4001 H   0  0  0  0  0  0  0  0  0  0  0  0
  151.7833  138.8734  154.5152 H   0  0  0  0  0  0  0  0  0  0  0  0
  151.5393  138.6516  156.2455 H   0  0  0  0  0  0  0  0  0  0  0  0
  152.5457  139.9784  155.6560 H   0  0  0  0  0  0  0  0  0  0  0  0
  150.0107  140.6683  158.5058 H   0  0  0  0  0  0  0  0  0  0  0  0
  151.5994  140.7203  157.7834 H   0  0  0  0  0  0  0  0  0  0  0  0
  149.7799  143.0927  158.4272 H   0  0  0  0  0  0  0  0  0  0  0  0
  151.1476  142.7509  160.3746 H   0  0  0  0  0  0  0  0  0  0  0  0
  152.5400  142.2845  159.3946 H   0  0  0  0  0  0  0  0  0  0  0  0
  151.2907  145.0434  159.6067 H   0  0  0  0  0  0  0  0  0  0  0  0
  152.9962  144.6312  159.7928 H   0  0  0  0  0  0  0  0  0  0  0  0
  151.9945  145.5274  157.3857 H   0  0  0  0  0  0  0  0  0  0  0  0
  153.2577  144.2968  157.4336 H   0  0  0  0  0  0  0  0  0  0  0  0
  151.8847  142.9319  156.5112 H   0  0  0  0  0  0  0  0  0  0  0  0
  150.5976  143.9608  156.6098 H   0  0  0  0  0  0  0  0  0  0  0  0
  1  2  1  0  0  0  0
  1 14  1  0  0  0  0
  1 15  1  0  0  0  0
  1 16  1  0  0  0  0
  2 13  2  0  0  0  0
  2  3  1  0  0  0  0
  3  4  2  0  0  0  0
  3 17  1  0  0  0  0
  4  5  1  0  0  0  0
  4  6  1  0  0  0  0
  5 18  1  0  0  0  0
  5 19  1  0  0  0  0
  5 20  1  0  0  0  0
  6  7  1  0  0  0  0
  6 13  1  0  0  0  0
  7  8  1  0  0  0  0
  7 21  1  0  0  0  0
  7 22  1  0  0  0  0
  8 12  1  0  0  0  0
  8  9  1  0  0  0  0
  8 23  1  0  0  0  0
  9 10  1  0  0  0  0
  9 24  1  0  0  0  0
  9 25  1  0  0  0  0
 10 11  1  0  0  0  0
 10 26  1  0  0  0  0
 10 27  1  0  0  0  0
 11 12  1  0  0  0  0
 11 28  1  0  0  0  0
 11 29  1  0  0  0  0
 12 30  1  0  0  0  0
 12 31  1  0  0  0  0
M  CHG  1  12   1
M  END
> <s_m_source_file>
AV-unprocessed.smi

> <i_m_source_file_index>
3307

> <i_lp_mmshare_version>
43012

> <i_f3d_flags>
0

> <s_epik_input>
W0NIM11jMVtjSF1jKFtDSDNdKW4objEpW0NIMl1bQ0BASF0yW0NIMl1bQ0gyXVtDSDJdW05IXTI=

> <s_epik_cmdline>
J2VwaWtfcHl0aG9uJywgJy1waCcsICc3LjAnLCAnLXRuJywgJzgnLCAnLW1hJywgJzIwMCcsICctbWV0YWxfYmluZGluZycsICctaW1hZScsICc8aW5maWxlLm1hZT4nLCAnLW9tYWUnLCAnPG91dGZpbGUubWFlPic=

> <r_lp_tautomer_probability>
1

> <r_epik_Ionization_Penalty>
0.000974324

> <r_epik_Ionization_Penalty_Charging>
0.000863359

> <r_epik_Ionization_Penalty_Neutral>
0.000110964

> <r_epik_State_Penalty>
-0

> <r_epik_Charging_Adjusted_Penalty>
0.000863359

> <i_epik_Tot_Q>
1

> <i_epik_Tot_abs_Q>
1

> <r_epik_Metal_State_Penalty>
-0

> <b_epik_Metal_Only>
0

> <s_lp_Force_Field>
OPLS_2005

> <r_lp_Energy>
22.7328

> <b_lp_Chiralities_Consistent>
1

> <s_lp_Variant>
AV-unprocessed.smi:3307-2

> <Gold.Version>
5.8.1

> <Gold.Id.Protein>
6NUR|6NUR_protein|mol2

> <Gold.PLP.Fitness>
38.0384

> <Gold.PLP.PLP>
-32.4997

> <Gold.PLP.part.hbond>
-1.0000

> <Gold.PLP.part.metal>
0.0000

> <Gold.PLP.part.buried>
-2.2796

> <Gold.PLP.part.nonpolar>
-29.3470

> <Gold.PLP.part.repulsive>
0.7006

> <Gold.PLP.ligand.clash>
0.0000

> <Gold.PLP.ligand.torsion>
0.2307

> <Gold.PLP.Chemscore.Hbond>
2.0000

> <Gold.PLP.Chemscore.CHOScore>
0.0000

> <Gold.PLP.Chemscore.Metal>
0.0000

> <Gold.Chemscore.Hbonds>
donor molecule, donor type, donor heavy atom, donor atom, acceptor molecule, acceptor atom, score
      L1  H    12    31       P1  8028  1.76

> <Gold.PLP.Chemscore.Internal.Correction>
0.0001

> <Gold.Rescore>
     Score         DG    S(hbond)    S(metal)    S(lipo)     H(rot)  DE(clash)    DE(int)     intcor
     15.45     -15.73       0.99        0.00      84.77       1.16       0.20       0.08       ----

> <Gold.Chemscore.Fitness>
15.4521

> <Gold.Chemscore.DG>
-15.7337

> <Gold.Chemscore.ZeroCoef>
-5.4800

> <Gold.Chemscore.Hbond>
0.9918

> <Gold.Chemscore.Metal>
0.0000

> <Gold.Chemscore.Lipo>
84.7691

> <Gold.Chemscore.Internal_Hbond>
0.0000

> <Gold.Chemscore.DEClash>
0.1997

> <Gold.Chemscore.DEInternal>
0.0819

> <Gold.Chemscore.Rot>
1.1628

> <Gold.Chemscore.Internal.Correction>
   9.000000E+99

> <Gold.Chemscore.Hbonds>
donor molecule, donor type, donor heavy atom, donor atom, acceptor molecule, acceptor atom, score
      L1  H    12    31       P1  8028  0.86

> <Gold.Chemscore.Hbond.Weighted>
-3.3125

> <Gold.Chemscore.Metal.Weighted>
-0.0000

> <Gold.Chemscore.Lipo.Weighted>
-9.9180

> <Gold.Chemscore.Internal_Hbond.Weighted>
0.0000

> <Gold.Chemscore.DEClash.Weighted>
0.1997

> <Gold.Chemscore.DEInternal.Weighted>
0.0819

> <Gold.Chemscore.Rot.Weighted>
2.9768

> <Gold.Chemscore.Internal.Correction.Weighted>
   9.000000E+99

> <Gold.Protein.RotatedTorsions>
[ 6907 6896 6895 6894 ] final  -18.56 input  -60.11 | X-H torsion
[ 7974 7965 7964 7962 ] final -100.69 input  175.53 | X-H torsion
[ 8008 7997 7996 7995 ] final   24.67 input   59.86 | X-H torsion
[ 10167 10162 10161 10158 ] final  -13.50 input  -65.29 | X-H torsion
[ 10718 10713 10712 10709 ] final   55.26 input   66.30 | X-H torsion
[ 10763 10752 10751 10750 ] final  -97.71 input  -60.55 | X-H torsion
[ 11005 11000 10999 10996 ] final  -42.74 input  -57.11 | X-H torsion

> <Gold.Protein.ActiveResidues>
 VAL166  LYS551  ARG553  GLY616  TRP617  ASP618  TYR619  PRO620  LYS621  CYS622 
 ASP623  PHE694  ASN695  SER759  ASP760  ASP761  ALA762  ILE779  LEU786  VAL792 
 PHE793  MET794  SER795  GLU796  ALA797  LYS798  CYS799  TRP800  GLU811  SER814 

> <Gold.Protein.RotatedAtoms>
  151.2763  135.0700  159.9152 H   0  0  0  0  0  0  0  0  0  0  0  0  # atno 6907 bound_to 6896
  152.5342  134.0078  159.7934 H   0  0  0  0  0  0  0  0  0  0  0  0  # atno 6908 bound_to 6896
  151.0324  133.5728  159.2690 H   0  0  0  0  0  0  0  0  0  0  0  0  # atno 6909 bound_to 6896
  145.2913  140.9353  143.2876 H   0  0  0  0  0  0  0  0  0  0  0  0  # atno 7974 bound_to 7965
  154.9998  140.3124  155.4872 H   0  0  0  0  0  0  0  0  0  0  0  0  # atno 8008 bound_to 7997
  156.2927  140.2234  156.5048 H   0  0  0  0  0  0  0  0  0  0  0  0  # atno 8009 bound_to 7997
  154.7628  140.0458  157.0976 H   0  0  0  0  0  0  0  0  0  0  0  0  # atno 8010 bound_to 7997
  140.7183  143.5420  150.9398 H   0  0  0  0  0  0  0  0  0  0  0  0  # atno 10167 bound_to 10162
  157.5329  130.8643  149.8712 H   0  0  0  0  0  0  0  0  0  0  0  0  # atno 10718 bound_to 10713
  154.7351  135.5036  153.9029 H   0  0  0  0  0  0  0  0  0  0  0  0  # atno 10763 bound_to 10752
  153.0987  135.6679  153.9721 H   0  0  0  0  0  0  0  0  0  0  0  0  # atno 10764 bound_to 10752
  153.9513  135.3057  155.3417 H   0  0  0  0  0  0  0  0  0  0  0  0  # atno 10765 bound_to 10752
  141.0337  133.6809  156.2637 H   0  0  0  0  0  0  0  0  0  0  0  0  # atno 11005 bound_to 11000
  144.9170  139.4458  143.6559 LP  0  0  0  0  0  0  0  0  0  0  0  0  # atno 17320 bound_to 7965
  146.3184  139.8010  142.8965 LP  0  0  0  0  0  0  0  0  0  0  0  0  # atno 17321 bound_to 7965
  139.9143  143.6682  152.3109 LP  0  0  0  0  0  0  0  0  0  0  0  0  # atno 17342 bound_to 10162
  139.7077  144.7625  151.1166 LP  0  0  0  0  0  0  0  0  0  0  0  0  # atno 17343 bound_to 10162
  156.0436  130.3733  150.1373 LP  0  0  0  0  0  0  0  0  0  0  0  0  # atno 17370 bound_to 10713
  156.9557  130.9789  151.3489 LP  0  0  0  0  0  0  0  0  0  0  0  0  # atno 17371 bound_to 10713
  140.6361  134.5214  157.5565 LP  0  0  0  0  0  0  0  0  0  0  0  0  # atno 17394 bound_to 11000
  139.9225  134.8120  156.1167 LP  0  0  0  0  0  0  0  0  0  0  0  0  # atno 17395 bound_to 11000

$$$$
