AV-unprocessed.smi:3232|AV-procd|sdf|12344|dock2
  -GOLD-   2272018203D 1   1.00000     0.00000
 Structure written by MMmdl.
 40 41  0  0  0  0  0  0  0  0  2 V2000
  150.9146  137.6762  154.3729 C   0  0  0  0  0  0  0  0  0  0  0  0
  151.0250  139.1742  154.6848 C   0  0  0  0  0  0  0  0  0  0  0  0
  149.8778  139.9395  154.1373 N   0  3  1  0  0  0  0  0  0  0  0  0
  148.5958  139.2002  154.0568 C   0  0  0  0  0  0  0  0  0  0  0  0
  147.4786  140.2429  154.2018 C   0  0  0  0  0  0  0  0  0  0  0  0
  148.1987  141.5902  154.2051 C   0  0  0  0  0  0  0  0  0  0  0  0
  149.5932  141.2598  154.7517 C   0  0  1  0  0  0  0  0  0  0  0  0
  149.6630  141.2368  156.3015 C   0  0  0  0  0  0  0  0  0  0  0  0
  150.8788  141.8625  156.8129 N   0  0  0  0  0  0  0  0  0  0  0  0
  150.9466  142.6742  157.8813 C   0  0  0  0  0  0  0  0  0  0  0  0
  149.9549  143.0099  158.5300 O   0  0  0  0  0  0  0  0  0  0  0  0
  152.3463  143.1908  158.2575 C   0  0  1  0  0  0  0  0  0  0  0  0
  152.4857  144.7197  158.1095 C   0  0  0  0  0  0  0  0  0  0  0  0
  152.7195  142.7405  159.5934 N   0  0  0  0  0  0  0  0  0  0  0  0
  152.2642  143.1251  160.7877 C   0  0  0  0  0  0  0  0  0  0  0  0
  152.8614  142.5288  161.8095 N   0  0  0  0  0  0  0  0  0  0  0  0
  153.7402  141.7350  161.1286 C   0  0  0  0  0  0  0  0  0  0  0  0
  153.7035  141.8300  159.7996 N   0  0  0  0  0  0  0  0  0  0  0  0
  151.7898  137.1403  154.7409 H   0  0  0  0  0  0  0  0  0  0  0  0
  150.8465  137.5005  153.2989 H   0  0  0  0  0  0  0  0  0  0  0  0
  150.0373  137.2312  154.8431 H   0  0  0  0  0  0  0  0  0  0  0  0
  151.1047  139.3252  155.7621 H   0  0  0  0  0  0  0  0  0  0  0  0
  151.9455  139.5543  154.2399 H   0  0  0  0  0  0  0  0  0  0  0  0
  148.5338  138.6724  153.1046 H   0  0  0  0  0  0  0  0  0  0  0  0
  148.5189  138.4600  154.8548 H   0  0  0  0  0  0  0  0  0  0  0  0
  146.7377  140.1749  153.4045 H   0  0  0  0  0  0  0  0  0  0  0  0
  146.9583  140.0987  155.1497 H   0  0  0  0  0  0  0  0  0  0  0  0
  148.2907  141.9496  153.1791 H   0  0  0  0  0  0  0  0  0  0  0  0
  147.6622  142.3568  154.7629 H   0  0  0  0  0  0  0  0  0  0  0  0
  150.3195  141.9852  154.3824 H   0  0  0  0  0  0  0  0  0  0  0  0
  148.7723  141.6938  156.7361 H   0  0  0  0  0  0  0  0  0  0  0  0
  149.6793  140.2088  156.6630 H   0  0  0  0  0  0  0  0  0  0  0  0
  151.7402  141.6409  156.3347 H   0  0  0  0  0  0  0  0  0  0  0  0
  153.0479  142.7341  157.5577 H   0  0  0  0  0  0  0  0  0  0  0  0
  152.2591  145.0405  157.0921 H   0  0  0  0  0  0  0  0  0  0  0  0
  153.5040  145.0397  158.3317 H   0  0  0  0  0  0  0  0  0  0  0  0
  151.8173  145.2584  158.7826 H   0  0  0  0  0  0  0  0  0  0  0  0
  151.4829  143.8603  160.9127 H   0  0  0  0  0  0  0  0  0  0  0  0
  154.4318  141.0722  161.6274 H   0  0  0  0  0  0  0  0  0  0  0  0
  150.1183  140.1558  153.1804 H   0  0  0  0  0  0  0  0  0  0  0  0
  1  2  1  0  0  0  0
  1 19  1  0  0  0  0
  1 20  1  0  0  0  0
  1 21  1  0  0  0  0
  2  3  1  0  0  0  0
  2 22  1  0  0  0  0
  2 23  1  0  0  0  0
  3  7  1  0  0  0  0
  3  4  1  0  0  0  0
  3 40  1  0  0  0  0
  4  5  1  0  0  0  0
  4 24  1  0  0  0  0
  4 25  1  0  0  0  0
  5  6  1  0  0  0  0
  5 26  1  0  0  0  0
  5 27  1  0  0  0  0
  6  7  1  0  0  0  0
  6 28  1  0  0  0  0
  6 29  1  0  0  0  0
  7  8  1  0  0  0  0
  7 30  1  0  0  0  0
  8  9  1  0  0  0  0
  8 31  1  0  0  0  0
  8 32  1  0  0  0  0
  9 10  1  0  0  0  0
  9 33  1  0  0  0  0
 10 11  2  0  0  0  0
 10 12  1  0  0  0  0
 12 13  1  0  0  0  0
 12 14  1  0  0  0  0
 12 34  1  0  0  0  0
 13 35  1  0  0  0  0
 13 36  1  0  0  0  0
 13 37  1  0  0  0  0
 14 18  1  0  0  0  0
 14 15  1  0  0  0  0
 15 16  2  0  0  0  0
 15 38  1  0  0  0  0
 16 17  1  0  0  0  0
 17 18  2  0  0  0  0
 17 39  1  0  0  0  0
M  CHG  1   3   1
M  END
> <s_m_source_file>
AV-unprocessed.smi

> <i_m_source_file_index>
3232

> <i_lp_mmshare_version>
43012

> <i_f3d_flags>
0

> <s_epik_input>
W0NIM11bQ0gyXU4xW0NIMl1bQ0gyXVtDSDJdW0NASF0xW0NIMl1bTkhdQyg9TylbQ0BIXShbQ0gzXSluMltjSF1uW2NIXW4y

> <s_epik_cmdline>
J2VwaWtfcHl0aG9uJywgJy1waCcsICc3LjAnLCAnLXRuJywgJzgnLCAnLW1hJywgJzIwMCcsICctbWV0YWxfYmluZGluZycsICctaW1hZScsICc8aW5maWxlLm1hZT4nLCAnLW9tYWUnLCAnPG91dGZpbGUubWFlPic=

> <r_lp_tautomer_probability>
1

> <r_epik_Ionization_Penalty>
0.00177695

> <r_epik_Ionization_Penalty_Charging>
0.00176881

> <r_epik_Ionization_Penalty_Neutral>
8.13528e-06

> <r_epik_State_Penalty>
0.00119827

> <r_epik_Charging_Adjusted_Penalty>
0.00296709

> <i_epik_Tot_Q>
1

> <i_epik_Tot_abs_Q>
1

> <r_epik_Metal_State_Penalty>
-0

> <b_epik_Metal_Only>
0

> <s_lp_Force_Field>
OPLS_2005

> <r_lp_Energy>
36.9304

> <b_lp_Chiralities_Consistent>
1

> <s_lp_Variant>
AV-unprocessed.smi:3232-6

> <Gold.Version>
5.8.1

> <Gold.Id.Protein>
6NUR|6NUR_protein|mol2

> <Gold.PLP.Fitness>
42.0084

> <Gold.PLP.PLP>
-41.5889

> <Gold.PLP.part.hbond>
-1.0000

> <Gold.PLP.part.metal>
0.0000

> <Gold.PLP.part.buried>
-5.2116

> <Gold.PLP.part.nonpolar>
-35.7957

> <Gold.PLP.part.repulsive>
1.2512

> <Gold.PLP.ligand.clash>
0.0000

> <Gold.PLP.ligand.torsion>
1.1692

> <Gold.PLP.Chemscore.Hbond>
0.8705

> <Gold.PLP.Chemscore.CHOScore>
0.0000

> <Gold.PLP.Chemscore.Metal>
0.0000

> <Gold.Chemscore.Hbonds>
donor molecule, donor type, donor heavy atom, donor atom, acceptor molecule, acceptor atom, score
      L1  H     3    40       P1  7957  0.86

> <Gold.PLP.Chemscore.Internal.Correction>
0.1465

> <Gold.Rescore>
     Score         DG    S(hbond)    S(metal)    S(lipo)     H(rot)  DE(clash)    DE(int)     intcor
      9.85     -11.05       0.98        0.00      74.00       2.49       0.09       1.11       ----

> <Gold.Chemscore.Fitness>
9.8471

> <Gold.Chemscore.DG>
-11.0500

> <Gold.Chemscore.ZeroCoef>
-5.4800

> <Gold.Chemscore.Hbond>
0.9824

> <Gold.Chemscore.Metal>
0.0000

> <Gold.Chemscore.Lipo>
74.0044

> <Gold.Chemscore.Internal_Hbond>
0.0000

> <Gold.Chemscore.DEClash>
0.0915

> <Gold.Chemscore.DEInternal>
1.1114

> <Gold.Chemscore.Rot>
2.4882

> <Gold.Chemscore.Internal.Correction>
   9.000000E+99

> <Gold.Chemscore.Hbonds>
donor molecule, donor type, donor heavy atom, donor atom, acceptor molecule, acceptor atom, score
      L1  H     3    40       P1  7957  0.80

> <Gold.Chemscore.Hbond.Weighted>
-3.2813

> <Gold.Chemscore.Metal.Weighted>
-0.0000

> <Gold.Chemscore.Lipo.Weighted>
-8.6585

> <Gold.Chemscore.Internal_Hbond.Weighted>
0.0000

> <Gold.Chemscore.DEClash.Weighted>
0.0915

> <Gold.Chemscore.DEInternal.Weighted>
1.1114

> <Gold.Chemscore.Rot.Weighted>
6.3697

> <Gold.Chemscore.Internal.Correction.Weighted>
   9.000000E+99

> <Gold.Protein.RotatedTorsions>
[ 6907 6896 6895 6894 ] final  166.42 input  -60.11 | X-H torsion
[ 7974 7965 7964 7962 ] final  -81.00 input  175.53 | X-H torsion
[ 8008 7997 7996 7995 ] final  -68.39 input   59.86 | X-H torsion
[ 10167 10162 10161 10158 ] final   24.45 input  -65.29 | X-H torsion
[ 10718 10713 10712 10709 ] final   87.37 input   66.30 | X-H torsion
[ 10763 10752 10751 10750 ] final -149.51 input  -60.55 | X-H torsion
[ 11005 11000 10999 10996 ] final  170.89 input  -57.11 | X-H torsion

> <Gold.Protein.ActiveResidues>
 VAL166  LYS551  ARG553  GLY616  TRP617  ASP618  TYR619  PRO620  LYS621  CYS622 
 ASP623  PHE694  ASN695  SER759  ASP760  ASP761  ALA762  ILE779  LEU786  VAL792 
 PHE793  MET794  SER795  GLU796  ALA797  LYS798  CYS799  TRP800  GLU811  SER814 

> <Gold.Protein.RotatedAtoms>
  151.8791  133.3491  159.3760 H   0  0  0  0  0  0  0  0  0  0  0  0  # atno 6907 bound_to 6896
  150.7132  134.5036  159.5582 H   0  0  0  0  0  0  0  0  0  0  0  0  # atno 6908 bound_to 6896
  152.2584  134.8060  160.0485 H   0  0  0  0  0  0  0  0  0  0  0  0  # atno 6909 bound_to 6896
  145.5525  140.9494  143.1491 H   0  0  0  0  0  0  0  0  0  0  0  0  # atno 7974 bound_to 7965
  154.4865  140.0874  156.7497 H   0  0  0  0  0  0  0  0  0  0  0  0  # atno 8008 bound_to 7997
  155.4338  140.3451  155.4264 H   0  0  0  0  0  0  0  0  0  0  0  0  # atno 8009 bound_to 7997
  156.1268  140.1490  156.9112 H   0  0  0  0  0  0  0  0  0  0  0  0  # atno 8010 bound_to 7997
  140.5187  144.0039  150.6406 H   0  0  0  0  0  0  0  0  0  0  0  0  # atno 10167 bound_to 10162
  157.6939  131.0253  150.3114 H   0  0  0  0  0  0  0  0  0  0  0  0  # atno 10718 bound_to 10713
  154.8173  135.3307  154.7140 H   0  0  0  0  0  0  0  0  0  0  0  0  # atno 10763 bound_to 10752
  153.7778  135.6920  153.4898 H   0  0  0  0  0  0  0  0  0  0  0  0  # atno 10764 bound_to 10752
  153.2000  135.4519  155.0203 H   0  0  0  0  0  0  0  0  0  0  0  0  # atno 10765 bound_to 10752
  140.3132  134.7499  157.4007 H   0  0  0  0  0  0  0  0  0  0  0  0  # atno 11005 bound_to 11000
  144.7522  139.7164  143.7268 LP  0  0  0  0  0  0  0  0  0  0  0  0  # atno 17320 bound_to 7965
  146.1907  139.5146  142.9807 LP  0  0  0  0  0  0  0  0  0  0  0  0  # atno 17321 bound_to 7965
  140.3382  143.3035  152.0616 LP  0  0  0  0  0  0  0  0  0  0  0  0  # atno 17342 bound_to 10162
  139.4917  144.6461  151.6775 LP  0  0  0  0  0  0  0  0  0  0  0  0  # atno 17343 bound_to 10162
  156.3615  130.3848  149.7248 LP  0  0  0  0  0  0  0  0  0  0  0  0  # atno 17370 bound_to 10713
  156.4693  130.7989  151.3007 LP  0  0  0  0  0  0  0  0  0  0  0  0  # atno 17371 bound_to 10713
  140.1006  134.5477  155.8356 LP  0  0  0  0  0  0  0  0  0  0  0  0  # atno 17394 bound_to 11000
  141.2103  133.6694  156.6503 LP  0  0  0  0  0  0  0  0  0  0  0  0  # atno 17395 bound_to 11000

$$$$
