AV-unprocessed.smi:1240|AV-procd|sdf|5200|dock3
  -GOLD-   22720 4283D 1   1.00000     0.00000
 Structure written by MMmdl.
 48 50  0  0  0  0  0  0  0  0  2 V2000
  144.4514  136.3816  152.2817 O   0  0  0  0  0  0  0  0  0  0  0  0
  145.6541  136.1725  152.1233 C   0  0  0  0  0  0  0  0  0  0  0  0
  146.6073  137.0231  152.5298 N   0  0  0  0  0  0  0  0  0  0  0  0
  146.3616  138.2911  153.2075 C   0  0  0  0  0  0  0  0  0  0  0  0
  147.6500  139.1165  153.4933 C   0  0  1  0  0  0  0  0  0  0  0  0
  147.4075  140.3955  154.3448 C   0  0  2  0  0  0  0  0  0  0  0  0
  146.4113  140.2576  155.4880 C   0  0  0  0  0  0  0  0  0  0  0  0
  145.9504  141.6928  155.7416 C   0  0  0  0  0  0  0  0  0  0  0  0
  146.2599  142.4264  154.5622 O   0  0  0  0  0  0  0  0  0  0  0  0
  146.7509  141.5405  153.5685 C   0  0  0  0  0  0  0  0  0  0  0  0
  148.7144  138.2787  154.1242 N   0  3  0  0  0  0  0  0  0  0  0  0
  150.0397  138.9261  154.2978 C   0  0  0  0  0  0  0  0  0  0  0  0
  151.0675  137.8910  154.7843 C   0  0  0  0  0  0  0  0  0  0  0  0
  150.6143  137.3052  155.9992 O   0  0  0  0  0  0  0  0  0  0  0  0
  149.3798  136.6167  155.8354 C   0  0  0  0  0  0  0  0  0  0  0  0
  148.2926  137.6031  155.3759 C   0  0  0  0  0  0  0  0  0  0  0  0
  146.1887  135.0942  151.5249 N   0  0  0  0  0  0  0  0  0  0  0  0
  145.5288  133.9519  150.9962 C   0  0  0  0  0  0  0  0  0  0  0  0
  144.1234  133.9978  150.8890 C   0  0  0  0  0  0  0  0  0  0  0  0
  143.4462  132.8851  150.3514 C   0  0  0  0  0  0  0  0  0  0  0  0
  144.0752  131.7718  149.9199 N   0  0  0  0  0  0  0  0  0  0  0  0
  145.4216  131.7351  150.0095 C   0  0  0  0  0  0  0  0  0  0  0  0
  146.1945  132.7917  150.5322 C   0  0  0  0  0  0  0  0  0  0  0  0
  147.5711  136.7784  152.3540 H   0  0  0  0  0  0  0  0  0  0  0  0
  145.6818  138.8614  152.5746 H   0  0  0  0  0  0  0  0  0  0  0  0
  145.8174  138.0826  154.1292 H   0  0  0  0  0  0  0  0  0  0  0  0
  148.0577  139.4532  152.5390 H   0  0  0  0  0  0  0  0  0  0  0  0
  148.3514  140.7535  154.7580 H   0  0  0  0  0  0  0  0  0  0  0  0
  145.5603  139.6490  155.1787 H   0  0  0  0  0  0  0  0  0  0  0  0
  146.8416  139.8081  156.3829 H   0  0  0  0  0  0  0  0  0  0  0  0
  144.8836  141.7401  155.9623 H   0  0  0  0  0  0  0  0  0  0  0  0
  146.4896  142.1350  156.5799 H   0  0  0  0  0  0  0  0  0  0  0  0
  147.4442  142.0523  152.9004 H   0  0  0  0  0  0  0  0  0  0  0  0
  145.9111  141.1769  152.9741 H   0  0  0  0  0  0  0  0  0  0  0  0
  150.3798  139.3618  153.3587 H   0  0  0  0  0  0  0  0  0  0  0  0
  149.9744  139.7356  155.0259 H   0  0  0  0  0  0  0  0  0  0  0  0
  151.2300  137.1185  154.0309 H   0  0  0  0  0  0  0  0  0  0  0  0
  152.0302  138.3710  154.9613 H   0  0  0  0  0  0  0  0  0  0  0  0
  149.4968  135.8032  155.1174 H   0  0  0  0  0  0  0  0  0  0  0  0
  149.0989  136.1637  156.7864 H   0  0  0  0  0  0  0  0  0  0  0  0
  148.1090  138.3388  156.1593 H   0  0  0  0  0  0  0  0  0  0  0  0
  147.3577  137.0648  155.2156 H   0  0  0  0  0  0  0  0  0  0  0  0
  147.1892  135.1106  151.3928 H   0  0  0  0  0  0  0  0  0  0  0  0
  143.5687  134.8651  151.2157 H   0  0  0  0  0  0  0  0  0  0  0  0
  142.3697  132.8916  150.2641 H   0  0  0  0  0  0  0  0  0  0  0  0
  145.9002  130.8374  149.6464 H   0  0  0  0  0  0  0  0  0  0  0  0
  147.2687  132.6948  150.5533 H   0  0  0  0  0  0  0  0  0  0  0  0
  148.8671  137.5259  153.4681 H   0  0  0  0  0  0  0  0  0  0  0  0
  1  2  2  0  0  0  0
  2  3  1  0  0  0  0
  2 17  1  0  0  0  0
  3  4  1  0  0  0  0
  3 24  1  0  0  0  0
  4  5  1  0  0  0  0
  4 25  1  0  0  0  0
  4 26  1  0  0  0  0
  5  6  1  0  0  0  0
  5 11  1  0  0  0  0
  5 27  1  0  0  0  0
  6 10  1  0  0  0  0
  6  7  1  0  0  0  0
  6 28  1  0  0  0  0
  7  8  1  0  0  0  0
  7 29  1  0  0  0  0
  7 30  1  0  0  0  0
  8  9  1  0  0  0  0
  8 31  1  0  0  0  0
  8 32  1  0  0  0  0
  9 10  1  0  0  0  0
 10 33  1  0  0  0  0
 10 34  1  0  0  0  0
 11 16  1  0  0  0  0
 11 12  1  0  0  0  0
 11 48  1  0  0  0  0
 12 13  1  0  0  0  0
 12 35  1  0  0  0  0
 12 36  1  0  0  0  0
 13 14  1  0  0  0  0
 13 37  1  0  0  0  0
 13 38  1  0  0  0  0
 14 15  1  0  0  0  0
 15 16  1  0  0  0  0
 15 39  1  0  0  0  0
 15 40  1  0  0  0  0
 16 41  1  0  0  0  0
 16 42  1  0  0  0  0
 17 18  1  0  0  0  0
 17 43  1  0  0  0  0
 18 23  1  0  0  0  0
 18 19  2  0  0  0  0
 19 20  1  0  0  0  0
 19 44  1  0  0  0  0
 20 21  2  0  0  0  0
 20 45  1  0  0  0  0
 21 22  1  0  0  0  0
 22 23  2  0  0  0  0
 22 46  1  0  0  0  0
 23 47  1  0  0  0  0
M  CHG  1  11   1
M  END
> <s_m_source_file>
AV-unprocessed.smi

> <i_m_source_file_index>
1240

> <i_lp_mmshare_version>
43012

> <i_f3d_flags>
0

> <s_epik_input>
W2NIXTFbY0hdbltjSF1bY0hdYzFbTkhdQyg9TylbTkhdW0NIMl1bQ0BIXShbQ0BASF0yW0NIMl1bQ0gyXU9bQ0gyXTIpTjNbQ0gyXVtDSDJdT1tDSDJdW0NIMl0z

> <s_epik_cmdline>
J2VwaWtfcHl0aG9uJywgJy1waCcsICc3LjAnLCAnLXRuJywgJzgnLCAnLW1hJywgJzIwMCcsICctbWV0YWxfYmluZGluZycsICctaW1hZScsICc8aW5maWxlLm1hZT4nLCAnLW9tYWUnLCAnPG91dGZpbGUubWFlPic=

> <r_epik_Ionization_Penalty>
1.08433

> <r_epik_Ionization_Penalty_Charging>
0.98326

> <r_epik_Ionization_Penalty_Neutral>
0.10107

> <r_epik_State_Penalty>
1.11265

> <r_epik_Charging_Adjusted_Penalty>
2.09591

> <i_epik_Tot_Q>
1

> <i_epik_Tot_abs_Q>
1

> <r_epik_Metal_State_Penalty>
1.10731

> <b_epik_Metal_Only>
0

> <s_lp_Force_Field>
OPLS_2005

> <r_lp_Energy>
42.8142

> <b_lp_Chiralities_Consistent>
1

> <s_lp_Variant>
AV-unprocessed.smi:1240-6

> <Gold.Version>
5.8.1

> <Gold.Id.Protein>
6NUR|6NUR_protein|mol2

> <Gold.PLP.Fitness>
49.6431

> <Gold.PLP.PLP>
-34.9057

> <Gold.PLP.part.hbond>
-3.9092

> <Gold.PLP.part.metal>
0.0000

> <Gold.PLP.part.buried>
-5.2029

> <Gold.PLP.part.nonpolar>
-27.7209

> <Gold.PLP.part.repulsive>
0.6863

> <Gold.PLP.ligand.clash>
0.0000

> <Gold.PLP.ligand.torsion>
0.5272

> <Gold.PLP.Chemscore.Hbond>
4.1765

> <Gold.PLP.Chemscore.CHOScore>
0.9915

> <Gold.PLP.Chemscore.Metal>
0.0000

> <Gold.Chemscore.Hbonds>
donor molecule, donor type, donor heavy atom, donor atom, acceptor molecule, acceptor atom, score
      L1  H     3    24       P1  7948  1.00
      L1  H    11    48       P1  7948  1.92
      L1  H    17    43       P1  7948  0.76
      P1  H 10785 10796       L1    21  0.43
      L1  C    20    45       P1 10186  1.00

> <Gold.PLP.Chemscore.Internal.Correction>
0.2879

> <Gold.Rescore>
     Score         DG    S(hbond)    S(metal)    S(lipo)     H(rot)  DE(clash)    DE(int)     intcor
     19.52     -21.24       2.93        0.00      88.26       1.70       0.06       1.66       ----

> <Gold.Chemscore.Fitness>
19.5196

> <Gold.Chemscore.DG>
-21.2420

> <Gold.Chemscore.ZeroCoef>
-5.4800

> <Gold.Chemscore.Hbond>
2.9320

> <Gold.Chemscore.Metal>
0.0000

> <Gold.Chemscore.Lipo>
88.2602

> <Gold.Chemscore.Internal_Hbond>
0.0000

> <Gold.Chemscore.DEClash>
0.0630

> <Gold.Chemscore.DEInternal>
1.6594

> <Gold.Chemscore.Rot>
1.7021

> <Gold.Chemscore.Internal.Correction>
   9.000000E+99

> <Gold.Chemscore.Hbonds>
donor molecule, donor type, donor heavy atom, donor atom, acceptor molecule, acceptor atom, score
      L1  H     3    24       P1  7948  0.96
      L1  H    11    48       P1  7948  0.90
      L1  H    17    43       P1  7948  0.57
      P1  H 10785 10796       L1    21  0.38

> <Gold.Chemscore.Hbond.Weighted>
-9.7930

> <Gold.Chemscore.Metal.Weighted>
-0.0000

> <Gold.Chemscore.Lipo.Weighted>
-10.3264

> <Gold.Chemscore.Internal_Hbond.Weighted>
0.0000

> <Gold.Chemscore.DEClash.Weighted>
0.0630

> <Gold.Chemscore.DEInternal.Weighted>
1.6594

> <Gold.Chemscore.Rot.Weighted>
4.3575

> <Gold.Chemscore.Internal.Correction.Weighted>
   9.000000E+99

> <Gold.Protein.RotatedTorsions>
[ 6907 6896 6895 6894 ] final   14.41 input  -60.11 | X-H torsion
[ 7974 7965 7964 7962 ] final -178.54 input  175.53 | X-H torsion
[ 8008 7997 7996 7995 ] final   31.69 input   59.86 | X-H torsion
[ 10167 10162 10161 10158 ] final  116.20 input  -65.29 | X-H torsion
[ 10718 10713 10712 10709 ] final -120.94 input   66.30 | X-H torsion
[ 10763 10752 10751 10750 ] final  128.96 input  -60.55 | X-H torsion
[ 11005 11000 10999 10996 ] final  128.68 input  -57.11 | X-H torsion

> <Gold.Protein.ActiveResidues>
 VAL166  LYS551  ARG553  GLY616  TRP617  ASP618  TYR619  PRO620  LYS621  CYS622 
 ASP623  PHE694  ASN695  SER759  ASP760  ASP761  ALA762  ILE779  LEU786  VAL792 
 PHE793  MET794  SER795  GLU796  ALA797  LYS798  CYS799  TRP800  GLU811  SER814 

> <Gold.Protein.RotatedAtoms>
  151.8018  135.0706  160.0401 H   0  0  0  0  0  0  0  0  0  0  0  0  # atno 6907 bound_to 6896
  152.3083  133.5722  159.5672 H   0  0  0  0  0  0  0  0  0  0  0  0  # atno 6908 bound_to 6896
  150.7307  134.0106  159.3710 H   0  0  0  0  0  0  0  0  0  0  0  0  # atno 6909 bound_to 6896
  144.7131  140.0852  143.6424 H   0  0  0  0  0  0  0  0  0  0  0  0  # atno 7974 bound_to 7965
  155.1104  140.3238  155.4523 H   0  0  0  0  0  0  0  0  0  0  0  0  # atno 8008 bound_to 7997
  156.2692  140.2045  156.6176 H   0  0  0  0  0  0  0  0  0  0  0  0  # atno 8009 bound_to 7997
  154.6760  140.0531  157.0203 H   0  0  0  0  0  0  0  0  0  0  0  0  # atno 8010 bound_to 7997
  139.6264  144.7109  151.2525 H   0  0  0  0  0  0  0  0  0  0  0  0  # atno 10167 bound_to 10162
  156.1298  130.6386  150.9602 H   0  0  0  0  0  0  0  0  0  0  0  0  # atno 10718 bound_to 10713
  153.7340  135.3234  155.3291 H   0  0  0  0  0  0  0  0  0  0  0  0  # atno 10763 bound_to 10752
  154.8316  135.4529  154.1093 H   0  0  0  0  0  0  0  0  0  0  0  0  # atno 10764 bound_to 10752
  153.2248  135.6953  153.8039 H   0  0  0  0  0  0  0  0  0  0  0  0  # atno 10765 bound_to 10752
  139.9574  134.9610  156.9037 H   0  0  0  0  0  0  0  0  0  0  0  0  # atno 11005 bound_to 11000
  145.9667  139.2840  143.1123 LP  0  0  0  0  0  0  0  0  0  0  0  0  # atno 17320 bound_to 7965
  145.9161  140.9147  143.0429 LP  0  0  0  0  0  0  0  0  0  0  0  0  # atno 17321 bound_to 7965
  140.7413  143.6561  150.8205 LP  0  0  0  0  0  0  0  0  0  0  0  0  # atno 17342 bound_to 10162
  140.0179  143.5573  152.2812 LP  0  0  0  0  0  0  0  0  0  0  0  0  # atno 17343 bound_to 10162
  157.6476  131.0901  150.8119 LP  0  0  0  0  0  0  0  0  0  0  0  0  # atno 17370 bound_to 10713
  156.8205  130.4982  149.5344 LP  0  0  0  0  0  0  0  0  0  0  0  0  # atno 17371 bound_to 10713
  140.5579  134.0564  155.7389 LP  0  0  0  0  0  0  0  0  0  0  0  0  # atno 17394 bound_to 11000
  141.1247  133.9403  157.2660 LP  0  0  0  0  0  0  0  0  0  0  0  0  # atno 17395 bound_to 11000

$$$$
