#       Name:                AV-unprocessed.smi:1260
#       Creating user name   scv26
#       Creation time:       Fri Mar 27 04:41:22 2020


#       File generated by GOLD software.
#

@<TRIPOS>MOLECULE
AV-unprocessed.smi:1260
    42    44     1
SMALL
NO_CHARGES


@<TRIPOS>ATOM
      1 ****         0.8457   2.4812   0.4273 O.2            1 S1                 0.0000
      2 ****         1.5932   1.5677   0.7748 C.2            1 S1                 0.0000
      3 ****         3.1047   1.7896   0.8098 C.3            1 S1                 0.0000
      4 ****         3.6959   1.4811  -0.4785 N.pl3          1 S1                 0.0000
      5 ****         4.0677   0.3179  -1.0172 C.2            1 S1                 0.0000
      6 ****         4.5524   0.4771  -2.2389 N.2            1 S1                 0.0000
      7 ****         4.4621   1.8448  -2.4371 N.2            1 S1                 0.0000
      8 ****         3.9533   2.4457  -1.3965 N.2            1 S1                 0.0000
      9 ****         1.1588   0.3446   1.1175 N.am           1 S1                 0.0000
     10 ****        -0.2359  -0.0876   1.1007 C.3            1 S1                 0.0000
     11 ****        -0.5597  -1.1137   2.1952 C.3            1 S1                 0.0000
     12 ****        -1.5650  -2.0915   1.5540 C.3            1 S1                 0.0000
     13 ****        -1.8206  -1.6023   0.1789 N.4            1 S1                 1.0000
     14 ****        -3.0885  -0.8260   0.0890 C.3            1 S1                 0.0000
     15 ****        -3.2411  -0.1171  -1.2632 C.3            1 S1                 0.0000
     16 ****        -2.0494   0.8110  -1.5112 C.3            1 S1                 0.0000
     17 ****        -0.7550  -0.0070  -1.4770 C.3            1 S1                 0.0000
     18 ****        -0.6004  -0.8417  -0.1850 C.3            1 S1                 0.0000
     19 ****         3.3235   2.8263   1.0705 H              1 S1                 0.0000
     20 ****         3.5676   1.1600   1.5710 H              1 S1                 0.0000
     21 ****         3.9776  -0.6374  -0.5216 H              1 S1                 0.0000
     22 ****         1.8461  -0.3408   1.3963 H              1 S1                 0.0000
     23 ****        -0.9015   0.7677   1.2298 H              1 S1                 0.0000
     24 ****         0.3329  -1.6576   2.5081 H              1 S1                 0.0000
     25 ****        -0.9734  -0.6278   3.0797 H              1 S1                 0.0000
     26 ****        -1.1199  -3.0851   1.4896 H              1 S1                 0.0000
     27 ****        -2.4808  -2.1874   2.1396 H              1 S1                 0.0000
     28 ****        -3.9296  -1.5016   0.2484 H              1 S1                 0.0000
     29 ****        -3.1292  -0.0857   0.8895 H              1 S1                 0.0000
     30 ****        -3.3149  -0.8533  -2.0648 H              1 S1                 0.0000
     31 ****        -4.1687   0.4557  -1.2802 H              1 S1                 0.0000
     32 ****        -2.1534   1.3084  -2.4760 H              1 S1                 0.0000
     33 ****        -2.0197   1.5976  -0.7563 H              1 S1                 0.0000
     34 ****        -0.7548  -0.6861  -2.3308 H              1 S1                 0.0000
     35 ****         0.1072   0.6445  -1.6194 H              1 S1                 0.0000
     36 ****         0.1832  -1.5801  -0.3689 H              1 S1                 0.0000
     37 ****        -1.9087  -2.3909  -0.4462 H              1 S1                 0.0000
     38 ****         1.2274   3.3683   0.1679 LP             1 S1                 0.0000
     39 ****        -0.1435   2.3365   0.4042 LP             1 S1                 0.0000
     40 ****         4.8992  -0.2204  -2.8659 LP             1 S1                 0.0000
     41 ****         4.7504   2.3129  -3.2724 LP             1 S1                 0.0000
     42 ****         3.7858   3.4264  -1.2956 LP             1 S1                 0.0000
@<TRIPOS>BOND
    1    1    2 2     
    2    2    3 1     
    3    2    9 am    
    4    3    4 1     
    5    3   19 1     
    6    3   20 1     
    7    4    8 1     
    8    4    5 1     
    9    5    6 2     
   10    5   21 1     
   11    6    7 1     
   12    7    8 2     
   13    9   10 1     
   14    9   22 1     
   15   10   18 1     
   16   10   11 1     
   17   10   23 1     
   18   11   12 1     
   19   11   24 1     
   20   11   25 1     
   21   12   13 1     
   22   12   26 1     
   23   12   27 1     
   24   13   18 1     
   25   13   14 1     
   26   13   37 1     
   27   14   15 1     
   28   14   28 1     
   29   14   29 1     
   30   15   16 1     
   31   15   30 1     
   32   15   31 1     
   33   16   17 1     
   34   16   32 1     
   35   16   33 1     
   36   17   18 1     
   37   17   34 1     
   38   17   35 1     
   39   18   36 1     
   40    1   38 1     
   41    1   39 1     
   42    6   40 1     
   43    7   41 1     
   44    8   42 1     
@<TRIPOS>SUBSTRUCTURE
      1 S1             1
@<TRIPOS>SET
LONE_PAIRS      STATIC     ATOMS    <user>   **** ""
5 38 39 40 41 42
DONOR_HYDROGENS      STATIC     ATOMS    <user>   **** ""
2 22 37
ATOM$BLUE        STATIC     ATOMS    COLORGROUP SYSTEM
5 38 39 40 41 42
ATOM$RED        STATIC     ATOMS    COLORGROUP SYSTEM
2 22 37
