AV-unprocessed.smi:720|AV-procd|sdf|3496|dock2
  -GOLD-   22720 0493D 1   1.00000     0.00000
 Structure written by MMmdl.
 47 49  0  0  0  0  0  0  0  0  2 V2000
  147.0527  134.8286  154.3752 C   0  0  0  0  0  0  0  0  0  0  0  0
  148.2377  135.7171  154.3759 N   0  3  0  0  0  0  0  0  0  0  0  0
  149.3720  135.1074  155.1049 C   0  0  0  0  0  0  0  0  0  0  0  0
  147.9459  137.0925  154.8515 C   0  0  0  0  0  0  0  0  0  0  0  0
  147.0570  137.8838  153.8737 C   0  0  0  0  0  0  0  0  0  0  0  0
  147.3391  139.3051  153.9243 N   0  0  0  0  0  0  0  0  0  0  0  0
  146.8119  140.3181  153.1480 C   0  0  0  0  0  0  0  0  0  0  0  0
  147.3840  141.4893  153.5578 C   0  0  0  0  0  0  0  0  0  0  0  0
  148.2583  141.0789  154.6014 C   0  0  0  0  0  0  0  0  0  0  0  0
  149.0540  142.0250  155.2955 N   0  0  0  0  0  0  0  0  0  0  0  0
  149.9857  141.7844  156.2392 C   0  0  0  0  0  0  0  0  0  0  0  0
  150.2690  140.6684  156.6714 O   0  0  0  0  0  0  0  0  0  0  0  0
  150.5992  142.8883  156.7024 N   0  0  0  0  0  0  0  0  0  0  0  0
  151.6486  142.9762  157.7204 C   0  0  1  0  0  0  0  0  0  0  0  0
  152.1612  144.4196  157.9390 C   0  0  0  0  0  0  0  0  0  0  0  0
  151.8912  144.6565  159.4365 C   0  0  2  0  0  0  0  0  0  0  0  0
  152.8414  143.7822  160.2773 C   0  0  0  0  0  0  0  0  0  0  0  0
  152.2751  142.3636  160.0697 C   0  0  0  0  0  0  0  0  0  0  0  0
  151.0931  142.6110  159.1140 C   0  0  1  0  0  0  0  0  0  0  0  0
  150.5587  143.9451  159.6272 C   0  0  0  0  0  0  0  0  0  0  0  0
  148.2340  139.7718  154.8206 N   0  0  0  0  0  0  0  0  0  0  0  0
  146.6412  134.7236  155.3799 H   0  0  0  0  0  0  0  0  0  0  0  0
  147.3194  133.8352  154.0131 H   0  0  0  0  0  0  0  0  0  0  0  0
  146.2692  135.2085  153.7203 H   0  0  0  0  0  0  0  0  0  0  0  0
  149.1330  134.9775  156.1614 H   0  0  0  0  0  0  0  0  0  0  0  0
  150.2638  135.7306  155.0296 H   0  0  0  0  0  0  0  0  0  0  0  0
  149.6185  134.1304  154.6876 H   0  0  0  0  0  0  0  0  0  0  0  0
  147.4902  137.0564  155.8422 H   0  0  0  0  0  0  0  0  0  0  0  0
  148.8923  137.6237  154.9661 H   0  0  0  0  0  0  0  0  0  0  0  0
  147.2148  137.5403  152.8502 H   0  0  0  0  0  0  0  0  0  0  0  0
  146.0000  137.7394  154.0984 H   0  0  0  0  0  0  0  0  0  0  0  0
  146.0820  140.1243  152.3758 H   0  0  0  0  0  0  0  0  0  0  0  0
  147.2055  142.4816  153.1703 H   0  0  0  0  0  0  0  0  0  0  0  0
  148.9066  142.9916  155.0450 H   0  0  0  0  0  0  0  0  0  0  0  0
  150.2927  143.7689  156.3144 H   0  0  0  0  0  0  0  0  0  0  0  0
  152.4638  142.3002  157.4550 H   0  0  0  0  0  0  0  0  0  0  0  0
  153.2175  144.5244  157.6882 H   0  0  0  0  0  0  0  0  0  0  0  0
  151.6059  145.1395  157.3357 H   0  0  0  0  0  0  0  0  0  0  0  0
  151.8969  145.7091  159.7208 H   0  0  0  0  0  0  0  0  0  0  0  0
  153.8789  143.8688  159.9520 H   0  0  0  0  0  0  0  0  0  0  0  0
  152.7963  144.0615  161.3306 H   0  0  0  0  0  0  0  0  0  0  0  0
  153.0124  141.6755  159.6548 H   0  0  0  0  0  0  0  0  0  0  0  0
  151.9271  141.9485  161.0165 H   0  0  0  0  0  0  0  0  0  0  0  0
  150.3691  141.7953  159.1049 H   0  0  0  0  0  0  0  0  0  0  0  0
  150.2312  143.9089  160.6679 H   0  0  0  0  0  0  0  0  0  0  0  0
  149.7554  144.3575  159.0143 H   0  0  0  0  0  0  0  0  0  0  0  0
  148.5390  135.8043  153.4154 H   0  0  0  0  0  0  0  0  0  0  0  0
  1  2  1  0  0  0  0
  1 22  1  0  0  0  0
  1 23  1  0  0  0  0
  1 24  1  0  0  0  0
  2  3  1  0  0  0  0
  2  4  1  0  0  0  0
  2 47  1  0  0  0  0
  3 25  1  0  0  0  0
  3 26  1  0  0  0  0
  3 27  1  0  0  0  0
  4  5  1  0  0  0  0
  4 28  1  0  0  0  0
  4 29  1  0  0  0  0
  5  6  1  0  0  0  0
  5 30  1  0  0  0  0
  5 31  1  0  0  0  0
  6 21  1  0  0  0  0
  6  7  1  0  0  0  0
  7  8  2  0  0  0  0
  7 32  1  0  0  0  0
  8  9  1  0  0  0  0
  8 33  1  0  0  0  0
  9 10  1  0  0  0  0
  9 21  2  0  0  0  0
 10 11  1  0  0  0  0
 10 34  1  0  0  0  0
 11 12  2  0  0  0  0
 11 13  1  0  0  0  0
 13 14  1  0  0  0  0
 13 35  1  0  0  0  0
 14 19  1  0  0  0  0
 14 15  1  0  0  0  0
 14 36  1  0  0  0  0
 15 16  1  0  0  0  0
 15 37  1  0  0  0  0
 15 38  1  0  0  0  0
 16 20  1  0  0  0  0
 16 17  1  0  0  0  0
 16 39  1  0  0  0  0
 17 18  1  0  0  0  0
 17 40  1  0  0  0  0
 17 41  1  0  0  0  0
 18 19  1  0  0  0  0
 18 42  1  0  0  0  0
 18 43  1  0  0  0  0
 19 20  1  0  0  0  0
 19 44  1  0  0  0  0
 20 45  1  0  0  0  0
 20 46  1  0  0  0  0
M  CHG  1   2   1
M  END
> <s_m_source_file>
AV-unprocessed.smi

> <i_m_source_file_index>
720

> <i_lp_mmshare_version>
43012

> <i_f3d_flags>
0

> <s_epik_input>
W0NIM11OKFtDSDNdKVtDSDJdW0NIMl1uMVtjSF1bY0hdYyhuMSlbTkhdQyg9TylbTkhdW0NASF0oW0NIMl1bQ0BIXTIzKVtDQEhdKFtDSDJdMylbQ0gyXVtDSDJdMg==

> <s_epik_cmdline>
J2VwaWtfcHl0aG9uJywgJy1waCcsICc3LjAnLCAnLXRuJywgJzgnLCAnLW1hJywgJzIwMCcsICctbWV0YWxfYmluZGluZycsICctaW1hZScsICc8aW5maWxlLm1hZT4nLCAnLW9tYWUnLCAnPG91dGZpbGUubWFlPic=

> <r_lp_tautomer_probability>
1

> <r_epik_Ionization_Penalty>
0.0272832

> <r_epik_Ionization_Penalty_Charging>
0.027243

> <r_epik_Ionization_Penalty_Neutral>
4.01867e-05

> <r_epik_State_Penalty>
0.0222865

> <r_epik_Charging_Adjusted_Penalty>
0.0495295

> <i_epik_Tot_Q>
1

> <i_epik_Tot_abs_Q>
1

> <r_epik_Metal_State_Penalty>
0.0222866

> <b_epik_Metal_Only>
0

> <s_lp_Force_Field>
OPLS_2005

> <r_lp_Energy>
59.8818

> <b_lp_Chiralities_Consistent>
1

> <s_lp_Variant>
AV-unprocessed.smi:720-2

> <Gold.Version>
5.8.1

> <Gold.Id.Protein>
6NUR|6NUR_protein|mol2

> <Gold.PLP.Fitness>
50.8542

> <Gold.PLP.PLP>
-36.9491

> <Gold.PLP.part.hbond>
-3.0000

> <Gold.PLP.part.metal>
0.0000

> <Gold.PLP.part.buried>
-5.2873

> <Gold.PLP.part.nonpolar>
-30.0518

> <Gold.PLP.part.repulsive>
0.3262

> <Gold.PLP.ligand.clash>
0.0000

> <Gold.PLP.ligand.torsion>
0.3377

> <Gold.PLP.Chemscore.Hbond>
3.8720

> <Gold.PLP.Chemscore.CHOScore>
0.9613

> <Gold.PLP.Chemscore.Metal>
0.0000

> <Gold.Chemscore.Hbonds>
donor molecule, donor type, donor heavy atom, donor atom, acceptor molecule, acceptor atom, score
      L1  H     2    47       P1  7948  2.00
      L1  H    10    34       P1  8028  0.93
      L1  H    13    35       P1  8028  0.94
      L1  C     7    32       P1 10175  0.97

> <Gold.PLP.Chemscore.Internal.Correction>
0.0806

> <Gold.Rescore>
     Score         DG    S(hbond)    S(metal)    S(lipo)     H(rot)  DE(clash)    DE(int)     intcor
     21.29     -22.96       2.88        0.00     102.72       1.62       0.06       1.60       ----

> <Gold.Chemscore.Fitness>
21.2913

> <Gold.Chemscore.DG>
-22.9552

> <Gold.Chemscore.ZeroCoef>
-5.4800

> <Gold.Chemscore.Hbond>
2.8766

> <Gold.Chemscore.Metal>
0.0000

> <Gold.Chemscore.Lipo>
102.7155

> <Gold.Chemscore.Internal_Hbond>
0.0000

> <Gold.Chemscore.DEClash>
0.0635

> <Gold.Chemscore.DEInternal>
1.6004

> <Gold.Chemscore.Rot>
1.6212

> <Gold.Chemscore.Internal.Correction>
   9.000000E+99

> <Gold.Chemscore.Hbonds>
donor molecule, donor type, donor heavy atom, donor atom, acceptor molecule, acceptor atom, score
      L1  H     2    47       P1  7948  1.00
      L1  H    10    34       P1  8028  0.90
      L1  H    13    35       P1  8028  0.91

> <Gold.Chemscore.Hbond.Weighted>
-9.6077

> <Gold.Chemscore.Metal.Weighted>
-0.0000

> <Gold.Chemscore.Lipo.Weighted>
-12.0177

> <Gold.Chemscore.Internal_Hbond.Weighted>
0.0000

> <Gold.Chemscore.DEClash.Weighted>
0.0635

> <Gold.Chemscore.DEInternal.Weighted>
1.6004

> <Gold.Chemscore.Rot.Weighted>
4.1502

> <Gold.Chemscore.Internal.Correction.Weighted>
   9.000000E+99

> <Gold.Protein.RotatedTorsions>
[ 6907 6896 6895 6894 ] final   72.78 input  -60.11 | X-H torsion
[ 7974 7965 7964 7962 ] final  -63.72 input  175.53 | X-H torsion
[ 8008 7997 7996 7995 ] final -130.23 input   59.86 | X-H torsion
[ 10167 10162 10161 10158 ] final   63.74 input  -65.29 | X-H torsion
[ 10718 10713 10712 10709 ] final -170.43 input   66.30 | X-H torsion
[ 10763 10752 10751 10750 ] final  159.59 input  -60.55 | X-H torsion
[ 11005 11000 10999 10996 ] final   62.46 input  -57.11 | X-H torsion

> <Gold.Protein.ActiveResidues>
 VAL166  LYS551  ARG553  GLY616  TRP617  ASP618  TYR619  PRO620  LYS621  CYS622 
 ASP623  PHE694  ASN695  SER759  ASP760  ASP761  ALA762  ILE779  LEU786  VAL792 
 PHE793  MET794  SER795  GLU796  ALA797  LYS798  CYS799  TRP800  GLU811  SER814 

> <Gold.Protein.RotatedAtoms>
  152.4887  134.4521  159.9577 H   0  0  0  0  0  0  0  0  0  0  0  0  # atno 6907 bound_to 6896
  151.4512  133.3611  159.2803 H   0  0  0  0  0  0  0  0  0  0  0  0  # atno 6908 bound_to 6896
  150.9020  134.8457  159.7427 H   0  0  0  0  0  0  0  0  0  0  0  0  # atno 6909 bound_to 6896
  145.7755  140.8790  143.0357 H   0  0  0  0  0  0  0  0  0  0  0  0  # atno 7974 bound_to 7965
  155.2923  140.0449  157.3024 H   0  0  0  0  0  0  0  0  0  0  0  0  # atno 8008 bound_to 7997
  154.5534  140.2324  155.8416 H   0  0  0  0  0  0  0  0  0  0  0  0  # atno 8009 bound_to 7997
  156.1986  140.3031  155.9487 H   0  0  0  0  0  0  0  0  0  0  0  0  # atno 8010 bound_to 7997
  140.1297  144.4654  150.6872 H   0  0  0  0  0  0  0  0  0  0  0  0  # atno 10167 bound_to 10162
  156.7261  130.9288  151.3101 H   0  0  0  0  0  0  0  0  0  0  0  0  # atno 10718 bound_to 10713
  154.2342  135.2777  155.2878 H   0  0  0  0  0  0  0  0  0  0  0  0  # atno 10763 bound_to 10752
  154.5599  135.5650  153.7001 H   0  0  0  0  0  0  0  0  0  0  0  0  # atno 10764 bound_to 10752
  153.0013  135.6295  154.2485 H   0  0  0  0  0  0  0  0  0  0  0  0  # atno 10765 bound_to 10752
  140.0091  134.6324  155.9809 H   0  0  0  0  0  0  0  0  0  0  0  0  # atno 11005 bound_to 11000
  144.6805  139.9916  143.7484 LP  0  0  0  0  0  0  0  0  0  0  0  0  # atno 17320 bound_to 7965
  146.0127  139.3183  143.0861 LP  0  0  0  0  0  0  0  0  0  0  0  0  # atno 17321 bound_to 7965
  140.6824  143.2333  151.5350 LP  0  0  0  0  0  0  0  0  0  0  0  0  # atno 17342 bound_to 10162
  139.5526  144.2357  152.1556 LP  0  0  0  0  0  0  0  0  0  0  0  0  # atno 17343 bound_to 10162
  157.6878  130.9203  150.0433 LP  0  0  0  0  0  0  0  0  0  0  0  0  # atno 17370 bound_to 10713
  156.1561  130.3643  149.9367 LP  0  0  0  0  0  0  0  0  0  0  0  0  # atno 17371 bound_to 10713
  141.1698  133.6537  156.4609 LP  0  0  0  0  0  0  0  0  0  0  0  0  # atno 17394 bound_to 11000
  140.4588  134.6861  157.5075 LP  0  0  0  0  0  0  0  0  0  0  0  0  # atno 17395 bound_to 11000

$$$$
