#       Name:                AV-unprocessed.smi:837
#       Creating user name   scv26
#       Creation time:       Fri Mar 27 01:36:00 2020


#       File generated by GOLD software.
#

@<TRIPOS>MOLECULE
AV-unprocessed.smi:837
    56    58     1
SMALL
NO_CHARGES


@<TRIPOS>ATOM
      1 ****         0.6922   3.4230  -0.5326 C.3            1 S1                 0.0000
      2 ****        -0.8195   3.5925  -0.7999 C.3            1 S1                 0.0000
      3 ****        -1.2844   5.0197  -0.4378 C.3            1 S1                 0.0000
      4 ****        -2.7580   5.2502  -0.8046 C.3            1 S1                 0.0000
      5 ****        -3.6659   4.2096  -0.1360 C.3            1 S1                 0.0000
      6 ****        -3.2245   2.7770  -0.4838 C.3            1 S1                 0.0000
      7 ****        -1.7357   2.5102  -0.1403 C.3            1 S1                 0.0000
      8 ****        -1.5557   2.4564   1.3022 N.pl3          1 S1                -1.0000
      9 ****        -1.1357   1.2174   1.6470 C.2            1 S1                 0.0000
     10 ****        -0.8747   0.8192   2.7818 O.2            1 S1                 0.0000
     11 ****        -1.0235   0.4250   0.5639 N.am           1 S1                 0.0000
     12 ****        -0.5649  -0.9702   0.5911 C.3            1 S1                 0.0000
     13 ****         0.9645  -1.0924   0.6060 C.2            1 S1                 0.0000
     14 ****         1.6651  -0.3099  -0.0375 O.2            1 S1                 0.0000
     15 ****         1.4683  -2.1039   1.3287 N.am           1 S1                 0.0000
     16 ****         2.8888  -2.4093   1.4655 C.3            1 S1                 0.0000
     17 ****         3.4419  -3.1883   0.2576 C.3            1 S1                 0.0000
     18 ****         2.6645  -4.4578  -0.0442 C.ar           1 S1                 0.0000
     19 ****         1.7445  -4.5101  -1.1119 C.ar           1 S1                 0.0000
     20 ****         1.0440  -5.7094  -1.3448 C.ar           1 S1                 0.0000
     21 ****         1.2936  -6.8074  -0.4975 C.ar           1 S1                 0.0000
     22 ****         2.1716  -6.7683   0.5279 N.ar           1 S1                 0.0000
     23 ****         2.8406  -5.6154   0.7432 C.ar           1 S1                 0.0000
     24 ****        -1.3511   1.0942  -0.5470 C.2            1 S1                 0.0000
     25 ****        -1.3457   0.6750  -1.7055 O.2            1 S1                 0.0000
     26 ****         0.9249   3.5078   0.5291 H              1 S1                 0.0000
     27 ****         1.2662   4.1889  -1.0543 H              1 S1                 0.0000
     28 ****         1.0617   2.4577  -0.8783 H              1 S1                 0.0000
     29 ****        -0.9444   3.4966  -1.8800 H              1 S1                 0.0000
     30 ****        -1.1404   5.1978   0.6288 H              1 S1                 0.0000
     31 ****        -0.6670   5.7546  -0.9550 H              1 S1                 0.0000
     32 ****        -3.0616   6.2537  -0.5058 H              1 S1                 0.0000
     33 ****        -2.8780   5.1994  -1.8874 H              1 S1                 0.0000
     34 ****        -3.6481   4.3490   0.9455 H              1 S1                 0.0000
     35 ****        -4.6990   4.3641  -0.4476 H              1 S1                 0.0000
     36 ****        -3.8728   2.0620   0.0261 H              1 S1                 0.0000
     37 ****        -3.3860   2.6171  -1.5512 H              1 S1                 0.0000
     38 ****        -0.9874  -1.4766   1.4608 H              1 S1                 0.0000
     39 ****        -0.9420  -1.5122  -0.2775 H              1 S1                 0.0000
     40 ****         0.8215  -2.7032   1.8205 H              1 S1                 0.0000
     41 ****         3.4601  -1.4927   1.6198 H              1 S1                 0.0000
     42 ****         3.0128  -3.0030   2.3715 H              1 S1                 0.0000
     43 ****         3.4397  -2.5493  -0.6266 H              1 S1                 0.0000
     44 ****         4.4851  -3.4501   0.4373 H              1 S1                 0.0000
     45 ****         1.5745  -3.6471  -1.7391 H              1 S1                 0.0000
     46 ****         0.3312  -5.7857  -2.1525 H              1 S1                 0.0000
     47 ****         0.7728  -7.7416  -0.6466 H              1 S1                 0.0000
     48 ****         3.5336  -5.6149   1.5716 H              1 S1                 0.0000
     49 ****        -1.7163   3.2128   1.9363 LP             1 S1                 0.0000
     50 ****        -0.9670   1.4376   3.5622 LP             1 S1                 0.0000
     51 ****        -0.5702  -0.1227   2.9235 LP             1 S1                 0.0000
     52 ****         1.2381   0.4153  -0.5777 LP             1 S1                 0.0000
     53 ****         2.6609  -0.3998  -0.0198 LP             1 S1                 0.0000
     54 ****         2.3216  -7.5679   1.1093 LP             1 S1                 0.0000
     55 ****        -1.6068   1.2803  -2.4575 LP             1 S1                 0.0000
     56 ****        -1.0801  -0.2705  -1.8939 LP             1 S1                 0.0000
@<TRIPOS>BOND
    1    1    2 1     
    2    1   26 1     
    3    1   27 1     
    4    1   28 1     
    5    2    7 1     
    6    2    3 1     
    7    2   29 1     
    8    3    4 1     
    9    3   30 1     
   10    3   31 1     
   11    4    5 1     
   12    4   32 1     
   13    4   33 1     
   14    5    6 1     
   15    5   34 1     
   16    5   35 1     
   17    6    7 1     
   18    6   36 1     
   19    6   37 1     
   20    7   24 1     
   21    7    8 1     
   22    8    9 1     
   23    9   10 2     
   24    9   11 am    
   25   11   12 1     
   26   11   24 am    
   27   12   13 1     
   28   12   38 1     
   29   12   39 1     
   30   13   14 2     
   31   13   15 am    
   32   15   16 1     
   33   15   40 1     
   34   16   17 1     
   35   16   41 1     
   36   16   42 1     
   37   17   18 1     
   38   17   43 1     
   39   17   44 1     
   40   18   23 ar    
   41   18   19 ar    
   42   19   20 ar    
   43   19   45 1     
   44   20   21 ar    
   45   20   46 1     
   46   21   22 ar    
   47   21   47 1     
   48   22   23 ar    
   49   23   48 1     
   50   24   25 2     
   51    8   49 1     
   52   10   50 1     
   53   10   51 1     
   54   14   52 1     
   55   14   53 1     
   56   22   54 1     
   57   25   55 1     
   58   25   56 1     
@<TRIPOS>SUBSTRUCTURE
      1 S1             1
@<TRIPOS>SET
LONE_PAIRS      STATIC     ATOMS    <user>   **** ""
8 49 50 51 52 53 54 55 56
DONOR_HYDROGENS      STATIC     ATOMS    <user>   **** ""
1 40
ATOM$BLUE        STATIC     ATOMS    COLORGROUP SYSTEM
8 49 50 51 52 53 54 55 56
ATOM$RED        STATIC     ATOMS    COLORGROUP SYSTEM
1 40
