AV-unprocessed.smi:651|AV-procd|sdf|3185|dock10
  -GOLD-   22720 0113D 1   1.00000     0.00000
 Structure written by MMmdl.
 38 39  0  0  0  0  0  0  0  0  1 V2000
  153.1486  142.8095  162.6846 C   0  0  0  0  0  0  0  0  0  0  0  0
  152.7105  142.8179  161.2352 C   0  0  0  0  0  0  0  0  0  0  0  0
  152.2443  144.0025  160.6267 C   0  0  0  0  0  0  0  0  0  0  0  0
  151.8510  143.9526  159.2755 C   0  0  0  0  0  0  0  0  0  0  0  0
  151.9385  142.7249  158.5866 C   0  0  0  0  0  0  0  0  0  0  0  0
  151.5374  142.6194  157.1245 C   0  0  0  0  0  0  0  0  0  0  0  0
  150.1404  142.0115  156.9707 C   0  0  0  0  0  0  0  0  0  0  0  0
  149.4809  141.7291  157.9706 O   0  0  0  0  0  0  0  0  0  0  0  0
  149.7088  141.7948  155.7181 N   0  0  0  0  0  0  0  0  0  0  0  0
  148.4165  141.2119  155.3563 C   0  0  1  0  0  0  0  0  0  0  0  0
  147.8248  141.9050  154.1142 C   0  0  0  0  0  0  0  0  0  0  0  0
  147.2592  140.8000  153.2136 C   0  0  0  0  0  0  0  0  0  0  0  0
  147.2895  139.5202  154.0529 C   0  0  0  0  0  0  0  0  0  0  0  0
  148.4561  139.6933  155.0374 C   0  0  1  0  0  0  0  0  0  0  0  0
  149.7786  139.1866  154.4214 C   0  0  0  0  0  0  0  0  0  0  0  0
  149.7707  137.9572  153.9001 N   0  0  0  0  0  0  0  0  0  0  0  0
  150.7909  139.8851  154.4212 O   0  0  0  0  0  0  0  0  0  0  0  0
  152.4133  141.5973  159.2902 C   0  0  0  0  0  0  0  0  0  0  0  0
  152.7939  141.6366  160.5848 N   0  0  0  0  0  0  0  0  0  0  0  0
  153.2784  143.8240  163.0628 H   0  0  0  0  0  0  0  0  0  0  0  0
  154.0972  142.2832  162.7956 H   0  0  0  0  0  0  0  0  0  0  0  0
  152.4025  142.3071  163.3005 H   0  0  0  0  0  0  0  0  0  0  0  0
  152.1896  144.9290  161.1794 H   0  0  0  0  0  0  0  0  0  0  0  0
  151.4936  144.8416  158.7771 H   0  0  0  0  0  0  0  0  0  0  0  0
  151.5505  143.6062  156.6600 H   0  0  0  0  0  0  0  0  0  0  0  0
  152.2683  142.0091  156.5920 H   0  0  0  0  0  0  0  0  0  0  0  0
  150.3213  142.0509  154.9570 H   0  0  0  0  0  0  0  0  0  0  0  0
  147.7186  141.3651  156.1820 H   0  0  0  0  0  0  0  0  0  0  0  0
  147.0441  142.6069  154.4096 H   0  0  0  0  0  0  0  0  0  0  0  0
  148.5775  142.4757  153.5680 H   0  0  0  0  0  0  0  0  0  0  0  0
  146.2549  141.0307  152.8576 H   0  0  0  0  0  0  0  0  0  0  0  0
  147.8941  140.6817  152.3347 H   0  0  0  0  0  0  0  0  0  0  0  0
  146.3578  139.4296  154.6130 H   0  0  0  0  0  0  0  0  0  0  0  0
  147.3764  138.6272  153.4319 H   0  0  0  0  0  0  0  0  0  0  0  0
  148.2622  139.1215  155.9466 H   0  0  0  0  0  0  0  0  0  0  0  0
  150.6091  137.5810  153.4816 H   0  0  0  0  0  0  0  0  0  0  0  0
  148.9230  137.4091  153.9230 H   0  0  0  0  0  0  0  0  0  0  0  0
  152.4984  140.6387  158.7999 H   0  0  0  0  0  0  0  0  0  0  0  0
  1  2  1  0  0  0  0
  1 20  1  0  0  0  0
  1 21  1  0  0  0  0
  1 22  1  0  0  0  0
  2 19  1  0  0  0  0
  2  3  2  0  0  0  0
  3  4  1  0  0  0  0
  3 23  1  0  0  0  0
  4  5  2  0  0  0  0
  4 24  1  0  0  0  0
  5  6  1  0  0  0  0
  5 18  1  0  0  0  0
  6  7  1  0  0  0  0
  6 25  1  0  0  0  0
  6 26  1  0  0  0  0
  7  8  2  0  0  0  0
  7  9  1  0  0  0  0
  9 10  1  0  0  0  0
  9 27  1  0  0  0  0
 10 14  1  0  0  0  0
 10 11  1  0  0  0  0
 10 28  1  0  0  0  0
 11 12  1  0  0  0  0
 11 29  1  0  0  0  0
 11 30  1  0  0  0  0
 12 13  1  0  0  0  0
 12 31  1  0  0  0  0
 12 32  1  0  0  0  0
 13 14  1  0  0  0  0
 13 33  1  0  0  0  0
 13 34  1  0  0  0  0
 14 15  1  0  0  0  0
 14 35  1  0  0  0  0
 15 16  1  0  0  0  0
 15 17  2  0  0  0  0
 16 36  1  0  0  0  0
 16 37  1  0  0  0  0
 18 19  2  0  0  0  0
 18 38  1  0  0  0  0
M  END
> <s_m_source_file>
AV-unprocessed.smi

> <i_m_source_file_index>
651

> <i_lp_mmshare_version>
43012

> <i_f3d_flags>
0

> <s_epik_input>
W0NIM11jMVtjSF1bY0hdYyhbY0hdbjEpW0NIMl1DKD1PKVtOSF1bQ0BASF0yW0NIMl1bQ0gyXVtDSDJdW0NASF0yQyg9TylbTkgyXQ==

> <s_epik_cmdline>
J2VwaWtfcHl0aG9uJywgJy1waCcsICc3LjAnLCAnLXRuJywgJzgnLCAnLW1hJywgJzIwMCcsICctbWV0YWxfYmluZGluZycsICctaW1hZScsICc8aW5maWxlLm1hZT4nLCAnLW9tYWUnLCAnPG91dGZpbGUubWFlPic=

> <r_epik_Ionization_Penalty>
0.0159502

> <r_epik_Ionization_Penalty_Charging>
0

> <r_epik_Ionization_Penalty_Neutral>
0.0159502

> <r_epik_State_Penalty>
0.012563

> <r_epik_Charging_Adjusted_Penalty>
0.012563

> <i_epik_Tot_Q>
0

> <i_epik_Tot_abs_Q>
0

> <r_epik_Metal_State_Penalty>
0.0122326

> <b_epik_Metal_Only>
0

> <s_lp_Force_Field>
OPLS_2005

> <r_lp_Energy>
12.2285

> <b_lp_Chiralities_Consistent>
1

> <s_lp_Variant>
AV-unprocessed.smi:651-2

> <Gold.Version>
5.8.1

> <Gold.Id.Protein>
6NUR|6NUR_protein|mol2

> <Gold.PLP.Fitness>
42.5071

> <Gold.PLP.PLP>
-41.0465

> <Gold.PLP.part.hbond>
-3.0000

> <Gold.PLP.part.metal>
0.0000

> <Gold.PLP.part.buried>
-7.1839

> <Gold.PLP.part.nonpolar>
-31.4878

> <Gold.PLP.part.repulsive>
0.3705

> <Gold.PLP.ligand.clash>
0.0000

> <Gold.PLP.ligand.torsion>
0.8040

> <Gold.PLP.Chemscore.Hbond>
1.0143

> <Gold.PLP.Chemscore.CHOScore>
0.0000

> <Gold.PLP.Chemscore.Metal>
0.0000

> <Gold.Chemscore.Hbonds>
donor molecule, donor type, donor heavy atom, donor atom, acceptor molecule, acceptor atom, score
      L1  H    16    37       P1  7948  0.01
      P1  H  7989  7998       L1    17  1.00

> <Gold.PLP.Chemscore.Internal.Correction>
0.0257

> <Gold.Rescore>
     Score         DG    S(hbond)    S(metal)    S(lipo)     H(rot)  DE(clash)    DE(int)     intcor
     13.68     -16.14       1.00        0.00     105.68       1.97       0.23       2.23       ----

> <Gold.Chemscore.Fitness>
13.6839

> <Gold.Chemscore.DG>
-16.1385

> <Gold.Chemscore.ZeroCoef>
-5.4800

> <Gold.Chemscore.Hbond>
0.9995

> <Gold.Chemscore.Metal>
0.0000

> <Gold.Chemscore.Lipo>
105.6793

> <Gold.Chemscore.Internal_Hbond>
0.0000

> <Gold.Chemscore.DEClash>
0.2273

> <Gold.Chemscore.DEInternal>
2.2273

> <Gold.Chemscore.Rot>
1.9704

> <Gold.Chemscore.Internal.Correction>
   9.000000E+99

> <Gold.Chemscore.Hbonds>
donor molecule, donor type, donor heavy atom, donor atom, acceptor molecule, acceptor atom, score
      L1  H    16    37       P1  7948  0.02
      P1  H  7989  7998       L1    17  0.98

> <Gold.Chemscore.Hbond.Weighted>
-3.3383

> <Gold.Chemscore.Metal.Weighted>
-0.0000

> <Gold.Chemscore.Lipo.Weighted>
-12.3645

> <Gold.Chemscore.Internal_Hbond.Weighted>
0.0000

> <Gold.Chemscore.DEClash.Weighted>
0.2273

> <Gold.Chemscore.DEInternal.Weighted>
2.2273

> <Gold.Chemscore.Rot.Weighted>
5.0443

> <Gold.Chemscore.Internal.Correction.Weighted>
   9.000000E+99

> <Gold.Protein.RotatedTorsions>
[ 6907 6896 6895 6894 ] final   77.71 input  -60.11 | X-H torsion
[ 7974 7965 7964 7962 ] final  -98.02 input  175.53 | X-H torsion
[ 8008 7997 7996 7995 ] final   70.15 input   59.86 | X-H torsion
[ 10167 10162 10161 10158 ] final  -48.85 input  -65.29 | X-H torsion
[ 10718 10713 10712 10709 ] final  113.20 input   66.30 | X-H torsion
[ 10763 10752 10751 10750 ] final  -66.49 input  -60.55 | X-H torsion
[ 11005 11000 10999 10996 ] final   32.94 input  -57.11 | X-H torsion

> <Gold.Protein.ActiveResidues>
 VAL166  LYS551  ARG553  GLY616  TRP617  ASP618  TYR619  PRO620  LYS621  CYS622 
 ASP623  PHE694  ASN695  SER759  ASP760  ASP761  ALA762  ILE779  LEU786  VAL792 
 PHE793  MET794  SER795  GLU796  ALA797  LYS798  CYS799  TRP800  GLU811  SER814 

> <Gold.Protein.RotatedAtoms>
  152.5129  134.3776  159.9339 H   0  0  0  0  0  0  0  0  0  0  0  0  # atno 6907 bound_to 6896
  151.3732  133.3841  159.2709 H   0  0  0  0  0  0  0  0  0  0  0  0  # atno 6908 bound_to 6896
  150.9562  134.8975  159.7761 H   0  0  0  0  0  0  0  0  0  0  0  0  # atno 6909 bound_to 6896
  145.3261  140.9432  143.2688 H   0  0  0  0  0  0  0  0  0  0  0  0  # atno 7974 bound_to 7965
  155.7344  140.3491  155.5074 H   0  0  0  0  0  0  0  0  0  0  0  0  # atno 8008 bound_to 7997
  155.9152  140.1057  157.1270 H   0  0  0  0  0  0  0  0  0  0  0  0  # atno 8009 bound_to 7997
  154.4061  140.1260  156.4596 H   0  0  0  0  0  0  0  0  0  0  0  0  # atno 8010 bound_to 7997
  140.6712  143.2722  151.4130 H   0  0  0  0  0  0  0  0  0  0  0  0  # atno 10167 bound_to 10162
  157.6351  131.0980  150.7005 H   0  0  0  0  0  0  0  0  0  0  0  0  # atno 10718 bound_to 10713
  154.3605  135.6117  153.5688 H   0  0  0  0  0  0  0  0  0  0  0  0  # atno 10763 bound_to 10752
  152.9794  135.5814  154.4638 H   0  0  0  0  0  0  0  0  0  0  0  0  # atno 10764 bound_to 10752
  154.4375  135.2849  155.1848 H   0  0  0  0  0  0  0  0  0  0  0  0  # atno 10765 bound_to 10752
  140.2683  134.3112  155.7836 H   0  0  0  0  0  0  0  0  0  0  0  0  # atno 11005 bound_to 11000
  144.8900  139.4787  143.6682 LP  0  0  0  0  0  0  0  0  0  0  0  0  # atno 17320 bound_to 7965
  146.3063  139.7593  142.9053 LP  0  0  0  0  0  0  0  0  0  0  0  0  # atno 17321 bound_to 7965
  139.5981  144.1353  152.2167 LP  0  0  0  0  0  0  0  0  0  0  0  0  # atno 17342 bound_to 10162
  140.0729  144.5764  150.7178 LP  0  0  0  0  0  0  0  0  0  0  0  0  # atno 17343 bound_to 10162
  156.7338  130.4718  149.5493 LP  0  0  0  0  0  0  0  0  0  0  0  0  # atno 17370 bound_to 10713
  156.1584  130.6357  151.0687 LP  0  0  0  0  0  0  0  0  0  0  0  0  # atno 17371 bound_to 10713
  141.2181  133.7451  156.9294 LP  0  0  0  0  0  0  0  0  0  0  0  0  # atno 17394 bound_to 11000
  140.1398  134.9301  157.2451 LP  0  0  0  0  0  0  0  0  0  0  0  0  # atno 17395 bound_to 11000

$$$$
