AV-unprocessed.smi:859|AV-procd|sdf|3963|dock4
  -GOLD-   22720 1433D 1   1.00000     0.00000
 Structure written by MMmdl.
 36 37  0  0  0  0  0  0  0  0  2 V2000
  152.5811  140.1319  157.3001 O   0  0  0  0  0  0  0  0  0  0  0  0
  151.5295  140.7643  157.4057 C   0  0  0  0  0  0  0  0  0  0  0  0
  150.4236  140.4755  156.7014 N   0  0  0  0  0  0  0  0  0  0  0  0
  150.3097  139.4145  155.7046 C   0  0  0  0  0  0  0  0  0  0  0  0
  149.9701  139.9662  154.3069 C   0  0  0  0  0  0  0  0  0  0  0  0
  148.5666  140.3728  154.1818 N   0  0  0  0  0  0  0  0  0  0  0  0
  147.9386  141.4002  154.8382 C   0  0  0  0  0  0  0  0  0  0  0  0
  146.6325  141.3895  154.4211 C   0  0  0  0  0  0  0  0  0  0  0  0
  146.5197  140.3604  153.5251 N   0  3  0  0  0  0  0  0  0  0  0  0
  147.6979  139.7466  153.3771 C   0  0  0  0  0  0  0  0  0  0  0  0
  151.4425  141.9663  158.3541 C   0  0  0  0  0  0  0  0  0  0  0  0
  151.0933  143.2534  157.5761 C   0  0  0  0  0  0  0  0  0  0  0  0
  151.0059  144.4667  158.5160 C   0  0  0  0  0  0  0  0  0  0  0  0
  152.3073  144.6484  159.3133 C   0  0  0  0  0  0  0  0  0  0  0  0
  152.6751  143.3682  160.0804 C   0  0  0  0  0  0  0  0  0  0  0  0
  152.7588  142.1567  159.1373 C   0  0  0  0  0  0  0  0  0  0  0  0
  149.6031  141.0436  156.8571 H   0  0  0  0  0  0  0  0  0  0  0  0
  151.2157  138.8069  155.6714 H   0  0  0  0  0  0  0  0  0  0  0  0
  149.5107  138.7475  156.0283 H   0  0  0  0  0  0  0  0  0  0  0  0
  150.5810  140.8441  154.0943 H   0  0  0  0  0  0  0  0  0  0  0  0
  150.1943  139.2302  153.5331 H   0  0  0  0  0  0  0  0  0  0  0  0
  148.4522  142.0397  155.5415 H   0  0  0  0  0  0  0  0  0  0  0  0
  145.7960  142.0186  154.6892 H   0  0  0  0  0  0  0  0  0  0  0  0
  147.9024  138.9022  152.7431 H   0  0  0  0  0  0  0  0  0  0  0  0
  150.6442  141.7776  159.0746 H   0  0  0  0  0  0  0  0  0  0  0  0
  151.8472  143.4468  156.8112 H   0  0  0  0  0  0  0  0  0  0  0  0
  150.1454  143.1304  157.0504 H   0  0  0  0  0  0  0  0  0  0  0  0
  150.7939  145.3685  157.9407 H   0  0  0  0  0  0  0  0  0  0  0  0
  150.1702  144.3358  159.2047 H   0  0  0  0  0  0  0  0  0  0  0  0
  153.1184  144.9117  158.6331 H   0  0  0  0  0  0  0  0  0  0  0  0
  152.2040  145.4819  160.0086 H   0  0  0  0  0  0  0  0  0  0  0  0
  153.6263  143.5042  160.5959 H   0  0  0  0  0  0  0  0  0  0  0  0
  151.9298  143.1783  160.8537 H   0  0  0  0  0  0  0  0  0  0  0  0
  152.9860  141.2604  159.7160 H   0  0  0  0  0  0  0  0  0  0  0  0
  153.5920  142.2972  158.4468 H   0  0  0  0  0  0  0  0  0  0  0  0
  145.6679  140.0974  153.0456 H   0  0  0  0  0  0  0  0  0  0  0  0
  1  2  2  0  0  0  0
  2  3  1  0  0  0  0
  2 11  1  0  0  0  0
  3  4  1  0  0  0  0
  3 17  1  0  0  0  0
  4  5  1  0  0  0  0
  4 18  1  0  0  0  0
  4 19  1  0  0  0  0
  5  6  1  0  0  0  0
  5 20  1  0  0  0  0
  5 21  1  0  0  0  0
  6 10  1  0  0  0  0
  6  7  1  0  0  0  0
  7  8  2  0  0  0  0
  7 22  1  0  0  0  0
  8  9  1  0  0  0  0
  8 23  1  0  0  0  0
  9 10  2  0  0  0  0
  9 36  1  0  0  0  0
 10 24  1  0  0  0  0
 11 16  1  0  0  0  0
 11 12  1  0  0  0  0
 11 25  1  0  0  0  0
 12 13  1  0  0  0  0
 12 26  1  0  0  0  0
 12 27  1  0  0  0  0
 13 14  1  0  0  0  0
 13 28  1  0  0  0  0
 13 29  1  0  0  0  0
 14 15  1  0  0  0  0
 14 30  1  0  0  0  0
 14 31  1  0  0  0  0
 15 16  1  0  0  0  0
 15 32  1  0  0  0  0
 15 33  1  0  0  0  0
 16 34  1  0  0  0  0
 16 35  1  0  0  0  0
M  CHG  1   9   1
M  END
> <s_m_source_file>
AV-unprocessed.smi

> <i_m_source_file_index>
859

> <i_lp_mmshare_version>
43012

> <i_f3d_flags>
0

> <s_epik_input>
W0NIMl0xW0NIMl1bQ0gyXVtDSDJdW0NIMl1bQ0hdMUMoPU8pW05IXVtDSDJdW0NIMl1uMltjSF1bY0hdbltjSF0y

> <s_epik_cmdline>
J2VwaWtfcHl0aG9uJywgJy1waCcsICc3LjAnLCAnLXRuJywgJzgnLCAnLW1hJywgJzIwMCcsICctbWV0YWxfYmluZGluZycsICctaW1hZScsICc8aW5maWxlLm1hZT4nLCAnLW9tYWUnLCAnPG91dGZpbGUubWFlPic=

> <r_lp_tautomer_probability>
1

> <r_epik_Ionization_Penalty>
0.267085

> <r_epik_Ionization_Penalty_Charging>
0

> <r_epik_Ionization_Penalty_Neutral>
0.267085

> <r_epik_State_Penalty>
0.259064

> <r_epik_Charging_Adjusted_Penalty>
0.259064

> <i_epik_Tot_Q>
1

> <i_epik_Tot_abs_Q>
1

> <r_epik_Metal_State_Penalty>
0.54496

> <b_epik_Metal_Only>
0

> <s_lp_Force_Field>
OPLS_2005

> <r_lp_Energy>
13.141

> <b_lp_Chiralities_Consistent>
1

> <s_lp_Variant>
AV-unprocessed.smi:859-1

> <Gold.Version>
5.8.1

> <Gold.Id.Protein>
6NUR|6NUR_protein|mol2

> <Gold.PLP.Fitness>
48.7543

> <Gold.PLP.PLP>
-35.5814

> <Gold.PLP.part.hbond>
-2.0000

> <Gold.PLP.part.metal>
0.0000

> <Gold.PLP.part.buried>
0.2576

> <Gold.PLP.part.nonpolar>
-33.7528

> <Gold.PLP.part.repulsive>
0.0538

> <Gold.PLP.ligand.clash>
0.0000

> <Gold.PLP.ligand.torsion>
0.1042

> <Gold.PLP.Chemscore.Hbond>
3.0000

> <Gold.PLP.Chemscore.CHOScore>
1.4529

> <Gold.PLP.Chemscore.Metal>
0.0000

> <Gold.Chemscore.Hbonds>
donor molecule, donor type, donor heavy atom, donor atom, acceptor molecule, acceptor atom, score
      L1  H     9    36       P1 10175  1.66
      P1  H  7997  8009       L1     1  1.00
      L1  C     7    22       P1  8028  0.56
      L1  C    10    24       P1  7957  0.34

> <Gold.PLP.Chemscore.Internal.Correction>
0.0227

> <Gold.Rescore>
     Score         DG    S(hbond)    S(metal)    S(lipo)     H(rot)  DE(clash)    DE(int)     intcor
     17.83     -18.24       1.98        0.00      93.28       1.86       0.12       0.30       ----

> <Gold.Chemscore.Fitness>
17.8316

> <Gold.Chemscore.DG>
-18.2440

> <Gold.Chemscore.ZeroCoef>
-5.4800

> <Gold.Chemscore.Hbond>
1.9769

> <Gold.Chemscore.Metal>
0.0000

> <Gold.Chemscore.Lipo>
93.2844

> <Gold.Chemscore.Internal_Hbond>
0.0000

> <Gold.Chemscore.DEClash>
0.1163

> <Gold.Chemscore.DEInternal>
0.2962

> <Gold.Chemscore.Rot>
1.8567

> <Gold.Chemscore.Internal.Correction>
   9.000000E+99

> <Gold.Chemscore.Hbonds>
donor molecule, donor type, donor heavy atom, donor atom, acceptor molecule, acceptor atom, score
      L1  H     9    36       P1 10175  0.78
      P1  H  7997  8009       L1     1  0.97

> <Gold.Chemscore.Hbond.Weighted>
-6.6029

> <Gold.Chemscore.Metal.Weighted>
-0.0000

> <Gold.Chemscore.Lipo.Weighted>
-10.9143

> <Gold.Chemscore.Internal_Hbond.Weighted>
0.0000

> <Gold.Chemscore.DEClash.Weighted>
0.1163

> <Gold.Chemscore.DEInternal.Weighted>
0.2962

> <Gold.Chemscore.Rot.Weighted>
4.7531

> <Gold.Chemscore.Internal.Correction.Weighted>
   9.000000E+99

> <Gold.Protein.RotatedTorsions>
[ 6907 6896 6895 6894 ] final  -21.69 input  -60.11 | X-H torsion
[ 7974 7965 7964 7962 ] final  136.58 input  175.53 | X-H torsion
[ 8008 7997 7996 7995 ] final -176.65 input   59.86 | X-H torsion
[ 10167 10162 10161 10158 ] final  -19.75 input  -65.29 | X-H torsion
[ 10718 10713 10712 10709 ] final  -52.22 input   66.30 | X-H torsion
[ 10763 10752 10751 10750 ] final   47.55 input  -60.55 | X-H torsion
[ 11005 11000 10999 10996 ] final  125.39 input  -57.11 | X-H torsion

> <Gold.Protein.ActiveResidues>
 VAL166  LYS551  ARG553  GLY616  TRP617  ASP618  TYR619  PRO620  LYS621  CYS622 
 ASP623  PHE694  ASN695  SER759  ASP760  ASP761  ALA762  ILE779  LEU786  VAL792 
 PHE793  MET794  SER795  GLU796  ALA797  LYS798  CYS799  TRP800  GLU811  SER814 

> <Gold.Protein.RotatedAtoms>
  151.2296  135.0549  159.8981 H   0  0  0  0  0  0  0  0  0  0  0  0  # atno 6907 bound_to 6896
  152.5406  134.0552  159.8138 H   0  0  0  0  0  0  0  0  0  0  0  0  # atno 6908 bound_to 6896
  151.0729  133.5403  159.2657 H   0  0  0  0  0  0  0  0  0  0  0  0  # atno 6909 bound_to 6896
  144.9551  139.4774  143.5507 H   0  0  0  0  0  0  0  0  0  0  0  0  # atno 7974 bound_to 7965
  155.9975  140.1213  157.0579 H   0  0  0  0  0  0  0  0  0  0  0  0  # atno 8008 bound_to 7997
  154.4231  140.1113  156.5719 H   0  0  0  0  0  0  0  0  0  0  0  0  # atno 8009 bound_to 7997
  155.6258  140.3472  155.4669 H   0  0  0  0  0  0  0  0  0  0  0  0  # atno 8010 bound_to 7997
  140.7271  143.4789  151.0145 H   0  0  0  0  0  0  0  0  0  0  0  0  # atno 10167 bound_to 10162
  156.1641  130.4149  149.9747 H   0  0  0  0  0  0  0  0  0  0  0  0  # atno 10718 bound_to 10713
  152.9799  135.5972  154.3781 H   0  0  0  0  0  0  0  0  0  0  0  0  # atno 10763 bound_to 10752
  154.3448  135.2767  155.2405 H   0  0  0  0  0  0  0  0  0  0  0  0  # atno 10764 bound_to 10752
  154.4470  135.5999  153.6222 H   0  0  0  0  0  0  0  0  0  0  0  0  # atno 10765 bound_to 10752
  139.9404  134.9636  156.8552 H   0  0  0  0  0  0  0  0  0  0  0  0  # atno 11005 bound_to 11000
  146.3334  139.8662  142.8848 LP  0  0  0  0  0  0  0  0  0  0  0  0  # atno 17320 bound_to 7965
  145.2785  141.0131  143.3731 LP  0  0  0  0  0  0  0  0  0  0  0  0  # atno 17321 bound_to 7965
  139.8486  143.7468  152.3178 LP  0  0  0  0  0  0  0  0  0  0  0  0  # atno 17342 bound_to 10162
  139.7642  144.7497  151.0319 LP  0  0  0  0  0  0  0  0  0  0  0  0  # atno 17343 bound_to 10162
  156.7568  130.9136  151.3640 LP  0  0  0  0  0  0  0  0  0  0  0  0  # atno 17370 bound_to 10713
  157.6754  130.9090  150.0139 LP  0  0  0  0  0  0  0  0  0  0  0  0  # atno 17371 bound_to 10713
  140.5966  134.0212  155.7520 LP  0  0  0  0  0  0  0  0  0  0  0  0  # atno 17394 bound_to 11000
  141.1036  133.9728  157.3035 LP  0  0  0  0  0  0  0  0  0  0  0  0  # atno 17395 bound_to 11000

$$$$
