AV-unprocessed.smi:479|AV-procd|sdf|2672|dock2
  -GOLD-   2262023 93D 1   1.00000     0.00000
 Structure written by MMmdl.
 45 47  0  0  0  0  0  0  0  0  1 V2000
  153.1951  136.5736  156.7190 C   0  0  0  0  0  0  0  0  0  0  0  0
  152.5139  137.7074  156.2036 O   0  0  0  0  0  0  0  0  0  0  0  0
  151.2379  137.5402  155.7057 C   0  0  0  0  0  0  0  0  0  0  0  0
  150.6965  136.2819  155.3391 C   0  0  0  0  0  0  0  0  0  0  0  0
  149.3819  136.1752  154.8294 C   0  0  0  0  0  0  0  0  0  0  0  0
  148.7921  134.8622  154.4387 C   0  0  0  0  0  0  0  0  0  0  0  0
  149.6741  133.6195  154.5518 C   0  0  0  0  0  0  0  0  0  0  0  0
  147.6368  134.7303  154.0355 O   0  0  0  0  0  0  0  0  0  0  0  0
  148.6128  137.3489  154.6825 C   0  0  0  0  0  0  0  0  0  0  0  0
  149.1401  138.6006  155.0452 C   0  0  0  0  0  0  0  0  0  0  0  0
  150.4526  138.7062  155.5655 C   0  0  0  0  0  0  0  0  0  0  0  0
  151.0275  139.8974  155.9575 O   0  0  0  0  0  0  0  0  0  0  0  0
  150.3304  141.1092  155.6966 C   0  0  0  0  0  0  0  0  0  0  0  0
  150.3095  141.9840  156.9644 C   0  0  2  0  0  0  0  0  0  0  0  0
  149.0796  142.6732  157.0456 O   0  0  0  0  0  0  0  0  0  0  0  0
  151.4861  142.9736  157.0968 C   0  0  0  0  0  0  0  0  0  0  0  0
  151.6269  143.4940  158.4456 N   0  0  0  0  0  0  0  0  0  0  0  0
  151.0837  144.6246  158.9362 C   0  0  0  0  0  0  0  0  0  0  0  0
  151.3223  144.9126  160.2125 N   0  0  0  0  0  0  0  0  0  0  0  0
  152.1224  143.8492  160.5935 C   0  0  0  0  0  0  0  0  0  0  0  0
  152.7172  143.5502  161.8403 C   0  0  0  0  0  0  0  0  0  0  0  0
  153.5052  142.3908  161.9965 C   0  0  0  0  0  0  0  0  0  0  0  0
  153.7151  141.5172  160.9100 C   0  0  0  0  0  0  0  0  0  0  0  0
  153.1353  141.7968  159.6580 C   0  0  0  0  0  0  0  0  0  0  0  0
  152.3417  142.9487  159.5076 C   0  0  0  0  0  0  0  0  0  0  0  0
  154.1690  136.8830  157.0980 H   0  0  0  0  0  0  0  0  0  0  0  0
  153.3660  135.8245  155.9446 H   0  0  0  0  0  0  0  0  0  0  0  0
  152.6480  136.1221  157.5479 H   0  0  0  0  0  0  0  0  0  0  0  0
  151.2936  135.3904  155.4464 H   0  0  0  0  0  0  0  0  0  0  0  0
  150.5353  133.7008  153.8885 H   0  0  0  0  0  0  0  0  0  0  0  0
  149.1130  132.7268  154.2740 H   0  0  0  0  0  0  0  0  0  0  0  0
  150.0279  133.4934  155.5751 H   0  0  0  0  0  0  0  0  0  0  0  0
  147.6067  137.3030  154.2912 H   0  0  0  0  0  0  0  0  0  0  0  0
  148.5124  139.4684  154.9129 H   0  0  0  0  0  0  0  0  0  0  0  0
  150.7855  141.6465  154.8629 H   0  0  0  0  0  0  0  0  0  0  0  0
  149.2996  140.8837  155.4184 H   0  0  0  0  0  0  0  0  0  0  0  0
  150.3314  141.3130  157.8238 H   0  0  0  0  0  0  0  0  0  0  0  0
  149.1501  143.4740  156.5487 H   0  0  0  0  0  0  0  0  0  0  0  0
  152.4209  142.4898  156.8113 H   0  0  0  0  0  0  0  0  0  0  0  0
  151.3523  143.8150  156.4159 H   0  0  0  0  0  0  0  0  0  0  0  0
  150.4691  145.2673  158.3229 H   0  0  0  0  0  0  0  0  0  0  0  0
  152.5656  144.2135  162.6788 H   0  0  0  0  0  0  0  0  0  0  0  0
  153.9526  142.1720  162.9550 H   0  0  0  0  0  0  0  0  0  0  0  0
  154.3202  140.6314  161.0373 H   0  0  0  0  0  0  0  0  0  0  0  0
  153.2940  141.1302  158.8240 H   0  0  0  0  0  0  0  0  0  0  0  0
  1  2  1  0  0  0  0
  1 26  1  0  0  0  0
  1 27  1  0  0  0  0
  1 28  1  0  0  0  0
  2  3  1  0  0  0  0
  3 11  1  0  0  0  0
  3  4  2  0  0  0  0
  4  5  1  0  0  0  0
  4 29  1  0  0  0  0
  5  6  1  0  0  0  0
  5  9  2  0  0  0  0
  6  7  1  0  0  0  0
  6  8  2  0  0  0  0
  7 30  1  0  0  0  0
  7 31  1  0  0  0  0
  7 32  1  0  0  0  0
  9 10  1  0  0  0  0
  9 33  1  0  0  0  0
 10 11  2  0  0  0  0
 10 34  1  0  0  0  0
 11 12  1  0  0  0  0
 12 13  1  0  0  0  0
 13 14  1  0  0  0  0
 13 35  1  0  0  0  0
 13 36  1  0  0  0  0
 14 15  1  0  0  0  0
 14 16  1  0  0  0  0
 14 37  1  0  0  0  0
 15 38  1  0  0  0  0
 16 17  1  0  0  0  0
 16 39  1  0  0  0  0
 16 40  1  0  0  0  0
 17 25  1  0  0  0  0
 17 18  1  0  0  0  0
 18 19  2  0  0  0  0
 18 41  1  0  0  0  0
 19 20  1  0  0  0  0
 20 25  2  0  0  0  0
 20 21  1  0  0  0  0
 21 22  2  0  0  0  0
 21 42  1  0  0  0  0
 22 23  1  0  0  0  0
 22 43  1  0  0  0  0
 23 24  2  0  0  0  0
 23 44  1  0  0  0  0
 24 25  1  0  0  0  0
 24 45  1  0  0  0  0
M  END
> <s_m_source_file>
AV-unprocessed.smi

> <i_m_source_file_index>
479

> <i_lp_mmshare_version>
43012

> <i_f3d_flags>
0

> <s_epik_input>
W0NIM11PYzFbY0hdYyhDKD1PKVtDSDNdKVtjSF1bY0hdYzFPW0NIMl1bQ0BIXShbT0hdKVtDSDJdbihbY0hdbjIpYyhjMjMpW2NIXVtjSF1bY0hdW2NIXTM=

> <s_epik_cmdline>
J2VwaWtfcHl0aG9uJywgJy1waCcsICc3LjAnLCAnLXRuJywgJzgnLCAnLW1hJywgJzIwMCcsICctbWV0YWxfYmluZGluZycsICctaW1hZScsICc8aW5maWxlLm1hZT4nLCAnLW9tYWUnLCAnPG91dGZpbGUubWFlPic=

> <r_lp_tautomer_probability>
0.99995

> <r_epik_Ionization_Penalty>
0.061028

> <r_epik_Ionization_Penalty_Charging>
0

> <r_epik_Ionization_Penalty_Neutral>
0.061028

> <r_epik_State_Penalty>
0.052945

> <r_epik_Charging_Adjusted_Penalty>
0.052945

> <i_epik_Tot_Q>
0

> <i_epik_Tot_abs_Q>
0

> <r_epik_Metal_State_Penalty>
5.53801e-05

> <b_epik_Metal_Only>
0

> <s_lp_Force_Field>
OPLS_2005

> <r_lp_Energy>
25.674

> <b_lp_Chiralities_Consistent>
1

> <s_lp_Variant>
AV-unprocessed.smi:479-1

> <Gold.Version>
5.8.1

> <Gold.Id.Protein>
6NUR|6NUR_protein|mol2

> <Gold.PLP.Fitness>
49.8823

> <Gold.PLP.PLP>
-47.0280

> <Gold.PLP.part.hbond>
-0.8028

> <Gold.PLP.part.metal>
0.0000

> <Gold.PLP.part.buried>
-7.7350

> <Gold.PLP.part.nonpolar>
-39.8159

> <Gold.PLP.part.repulsive>
0.2872

> <Gold.PLP.ligand.clash>
0.0000

> <Gold.PLP.ligand.torsion>
1.5322

> <Gold.PLP.Chemscore.Hbond>
1.0000

> <Gold.PLP.Chemscore.CHOScore>
0.8784

> <Gold.PLP.Chemscore.Metal>
0.0000

> <Gold.Chemscore.Hbonds>
donor molecule, donor type, donor heavy atom, donor atom, acceptor molecule, acceptor atom, score
      L1  H    15    38       P1  8028  1.00
      L1  C    18    41       P1  8029  0.22

> <Gold.PLP.Chemscore.Internal.Correction>
0.2836

> <Gold.Rescore>
     Score         DG    S(hbond)    S(metal)    S(lipo)     H(rot)  DE(clash)    DE(int)     intcor
     15.16     -16.73       0.98        0.00     126.12       2.66       0.06       1.51       ----

> <Gold.Chemscore.Fitness>
15.1605

> <Gold.Chemscore.DG>
-16.7270

> <Gold.Chemscore.ZeroCoef>
-5.4800

> <Gold.Chemscore.Hbond>
0.9846

> <Gold.Chemscore.Metal>
0.0000

> <Gold.Chemscore.Lipo>
126.1246

> <Gold.Chemscore.Internal_Hbond>
0.0000

> <Gold.Chemscore.DEClash>
0.0607

> <Gold.Chemscore.DEInternal>
1.5058

> <Gold.Chemscore.Rot>
2.6555

> <Gold.Chemscore.Internal.Correction>
   9.000000E+99

> <Gold.Chemscore.Hbonds>
donor molecule, donor type, donor heavy atom, donor atom, acceptor molecule, acceptor atom, score
      L1  H    15    38       P1  8028  0.94

> <Gold.Chemscore.Hbond.Weighted>
-3.2884

> <Gold.Chemscore.Metal.Weighted>
-0.0000

> <Gold.Chemscore.Lipo.Weighted>
-14.7566

> <Gold.Chemscore.Internal_Hbond.Weighted>
0.0000

> <Gold.Chemscore.DEClash.Weighted>
0.0607

> <Gold.Chemscore.DEInternal.Weighted>
1.5058

> <Gold.Chemscore.Rot.Weighted>
6.7980

> <Gold.Chemscore.Internal.Correction.Weighted>
   9.000000E+99

> <Gold.Protein.RotatedTorsions>
[ 6907 6896 6895 6894 ] final  -26.20 input  -60.11 | X-H torsion
[ 7974 7965 7964 7962 ] final -117.07 input  175.53 | X-H torsion
[ 8008 7997 7996 7995 ] final  156.71 input   59.86 | X-H torsion
[ 10167 10162 10161 10158 ] final -128.96 input  -65.29 | X-H torsion
[ 10718 10713 10712 10709 ] final  -30.62 input   66.30 | X-H torsion
[ 10763 10752 10751 10750 ] final   27.52 input  -60.55 | X-H torsion
[ 11005 11000 10999 10996 ] final   14.94 input  -57.11 | X-H torsion

> <Gold.Protein.ActiveResidues>
 VAL166  LYS551  ARG553  GLY616  TRP617  ASP618  TYR619  PRO620  LYS621  CYS622 
 ASP623  PHE694  ASN695  SER759  ASP760  ASP761  ALA762  ILE779  LEU786  VAL792 
 PHE793  MET794  SER795  GLU796  ALA797  LYS798  CYS799  TRP800  GLU811  SER814 

> <Gold.Protein.RotatedAtoms>
  151.1644  135.0288  159.8724 H   0  0  0  0  0  0  0  0  0  0  0  0  # atno 6907 bound_to 6896
  152.5450  134.1242  159.8422 H   0  0  0  0  0  0  0  0  0  0  0  0  # atno 6908 bound_to 6896
  151.1341  133.4970  159.2631 H   0  0  0  0  0  0  0  0  0  0  0  0  # atno 6909 bound_to 6896
  145.0894  140.8480  143.3991 H   0  0  0  0  0  0  0  0  0  0  0  0  # atno 7974 bound_to 7965
  156.2407  140.1905  156.6997 H   0  0  0  0  0  0  0  0  0  0  0  0  # atno 8008 bound_to 7997
  154.6191  140.0611  156.9618 H   0  0  0  0  0  0  0  0  0  0  0  0  # atno 8009 bound_to 7997
  155.1891  140.3283  155.4364 H   0  0  0  0  0  0  0  0  0  0  0  0  # atno 8010 bound_to 7997
  139.9448  143.6122  152.2493 H   0  0  0  0  0  0  0  0  0  0  0  0  # atno 10167 bound_to 10162
  156.3975  130.4384  149.7347 H   0  0  0  0  0  0  0  0  0  0  0  0  # atno 10718 bound_to 10713
  153.0550  135.6535  154.0599 H   0  0  0  0  0  0  0  0  0  0  0  0  # atno 10763 bound_to 10752
  154.0279  135.2914  155.3374 H   0  0  0  0  0  0  0  0  0  0  0  0  # atno 10764 bound_to 10752
  154.6860  135.5301  153.8394 H   0  0  0  0  0  0  0  0  0  0  0  0  # atno 10765 bound_to 10752
  140.4639  134.1099  155.7721 H   0  0  0  0  0  0  0  0  0  0  0  0  # atno 11005 bound_to 11000
  145.1083  139.2774  143.5650 LP  0  0  0  0  0  0  0  0  0  0  0  0  # atno 17320 bound_to 7965
  146.3531  140.0671  142.8625 LP  0  0  0  0  0  0  0  0  0  0  0  0  # atno 17321 bound_to 7965
  139.6675  144.7662  151.1845 LP  0  0  0  0  0  0  0  0  0  0  0  0  # atno 17342 bound_to 10162
  140.7600  143.5915  150.8791 LP  0  0  0  0  0  0  0  0  0  0  0  0  # atno 17343 bound_to 10162
  156.4376  130.7845  151.2866 LP  0  0  0  0  0  0  0  0  0  0  0  0  # atno 17370 bound_to 10713
  157.7502  131.0135  150.3425 LP  0  0  0  0  0  0  0  0  0  0  0  0  # atno 17371 bound_to 10713
  141.1608  133.8796  157.1852 LP  0  0  0  0  0  0  0  0  0  0  0  0  # atno 17394 bound_to 11000
  139.9927  135.0058  157.0013 LP  0  0  0  0  0  0  0  0  0  0  0  0  # atno 17395 bound_to 11000

$$$$
