AV-unprocessed.smi:261|AV-procd|sdf|1992|dock4
  -GOLD-   2262021183D 1   1.00000     0.00000
 Structure written by MMmdl.
 51 54  0  0  0  0  0  0  0  0  1 V2000
  150.7233  130.7619  155.3942 C   0  0  0  0  0  0  0  0  0  0  0  0
  151.2086  132.0269  155.8131 O   0  0  0  0  0  0  0  0  0  0  0  0
  150.2205  133.0466  155.7924 C   0  0  2  0  0  0  0  0  0  0  0  0
  149.8738  133.5256  154.3818 C   0  0  0  0  0  0  0  0  0  0  0  0
  149.3606  134.9641  154.5782 C   0  0  1  0  0  0  0  0  0  0  0  0
  147.8275  135.0222  154.6690 C   0  0  0  0  0  0  0  0  0  0  0  0
  147.1604  135.1396  153.5185 N   0  0  0  0  0  0  0  0  0  0  0  0
  147.2489  134.9459  155.7519 O   0  0  0  0  0  0  0  0  0  0  0  0
  149.9630  135.4015  155.8409 N   0  0  0  0  0  0  0  0  0  0  0  0
  150.5395  136.6224  155.8691 C   0  0  0  0  0  0  0  0  0  0  0  0
  150.7077  137.3234  154.7172 N   0  0  0  0  0  0  0  0  0  0  0  0
  151.2911  138.5257  154.7496 C   0  0  0  0  0  0  0  0  0  0  0  0
  151.7698  139.1938  155.8021 N   0  0  0  0  0  0  0  0  0  0  0  0
  151.6016  138.4872  156.9570 C   0  0  0  0  0  0  0  0  0  0  0  0
  151.0008  137.2038  157.0776 C   0  0  0  0  0  0  0  0  0  0  0  0
  151.0004  136.7972  158.4052 N   0  0  0  0  0  0  0  0  0  0  0  0
  151.5666  137.7887  159.0375 C   0  0  0  0  0  0  0  0  0  0  0  0
  151.9686  138.8405  158.2434 N   0  0  0  0  0  0  0  0  0  0  0  0
  152.6295  140.0592  158.6829 C   0  0  0  0  0  0  0  0  0  0  0  0
  151.7144  141.0055  159.4920 C   0  0  2  0  0  0  0  0  0  0  0  0
  150.5578  141.2894  158.7299 O   0  0  0  0  0  0  0  0  0  0  0  0
  152.3816  142.3395  159.8856 C   0  0  1  0  0  0  0  0  0  0  0  0
  152.6525  143.2871  158.7156 C   0  0  0  0  0  0  0  0  0  0  0  0
  152.6440  144.6669  159.3580 C   0  0  0  0  0  0  0  0  0  0  0  0
  152.0468  144.4293  160.7473 C   0  0  0  0  0  0  0  0  0  0  0  0
  151.5115  143.1156  160.6942 O   0  0  0  0  0  0  0  0  0  0  0  0
  150.7512  134.3270  156.4299 C   0  0  0  0  0  0  0  0  0  0  0  0
  149.3179  132.7299  156.3188 H   0  0  0  0  0  0  0  0  0  0  0  0
  149.6793  135.5817  153.7361 H   0  0  0  0  0  0  0  0  0  0  0  0
  151.5265  130.0274  155.4510 H   0  0  0  0  0  0  0  0  0  0  0  0
  150.3688  130.7882  154.3632 H   0  0  0  0  0  0  0  0  0  0  0  0
  149.9102  130.4204  156.0358 H   0  0  0  0  0  0  0  0  0  0  0  0
  150.7776  133.5482  153.7711 H   0  0  0  0  0  0  0  0  0  0  0  0
  149.1590  132.8720  153.8801 H   0  0  0  0  0  0  0  0  0  0  0  0
  146.1516  135.1820  153.5211 H   0  0  0  0  0  0  0  0  0  0  0  0
  147.6699  135.1855  152.6480 H   0  0  0  0  0  0  0  0  0  0  0  0
  151.3895  139.0229  153.7959 H   0  0  0  0  0  0  0  0  0  0  0  0
  151.7178  137.7760  160.1073 H   0  0  0  0  0  0  0  0  0  0  0  0
  153.5089  139.7880  159.2687 H   0  0  0  0  0  0  0  0  0  0  0  0
  153.0032  140.5768  157.7987 H   0  0  0  0  0  0  0  0  0  0  0  0
  151.3940  140.4834  160.3941 H   0  0  0  0  0  0  0  0  0  0  0  0
  150.4902  142.2266  158.6261 H   0  0  0  0  0  0  0  0  0  0  0  0
  153.3090  142.1649  160.4346 H   0  0  0  0  0  0  0  0  0  0  0  0
  153.5900  143.0635  158.2055 H   0  0  0  0  0  0  0  0  0  0  0  0
  151.8483  143.2235  157.9811 H   0  0  0  0  0  0  0  0  0  0  0  0
  153.6492  145.0826  159.4361 H   0  0  0  0  0  0  0  0  0  0  0  0
  152.0376  145.3606  158.7745 H   0  0  0  0  0  0  0  0  0  0  0  0
  152.8249  144.4675  161.5113 H   0  0  0  0  0  0  0  0  0  0  0  0
  151.2793  145.1588  161.0062 H   0  0  0  0  0  0  0  0  0  0  0  0
  150.6437  134.3093  157.5148 H   0  0  0  0  0  0  0  0  0  0  0  0
  151.8104  134.4559  156.1990 H   0  0  0  0  0  0  0  0  0  0  0  0
  1  2  1  0  0  0  0
  1 30  1  0  0  0  0
  1 31  1  0  0  0  0
  1 32  1  0  0  0  0
  2  3  1  0  0  0  0
  3 28  1  0  0  0  0
  3 27  1  0  0  0  0
  3  4  1  0  0  0  0
  4  5  1  0  0  0  0
  4 33  1  0  0  0  0
  4 34  1  0  0  0  0
  5 29  1  0  0  0  0
  5  6  1  0  0  0  0
  5  9  1  0  0  0  0
  6  7  1  0  0  0  0
  6  8  2  0  0  0  0
  7 35  1  0  0  0  0
  7 36  1  0  0  0  0
  9 10  1  0  0  0  0
  9 27  1  0  0  0  0
 10 15  1  0  0  0  0
 10 11  2  0  0  0  0
 11 12  1  0  0  0  0
 12 13  2  0  0  0  0
 12 37  1  0  0  0  0
 13 14  1  0  0  0  0
 14 18  1  0  0  0  0
 14 15  2  0  0  0  0
 15 16  1  0  0  0  0
 16 17  2  0  0  0  0
 17 18  1  0  0  0  0
 17 38  1  0  0  0  0
 18 19  1  0  0  0  0
 19 20  1  0  0  0  0
 19 39  1  0  0  0  0
 19 40  1  0  0  0  0
 20 21  1  0  0  0  0
 20 22  1  0  0  0  0
 20 41  1  0  0  0  0
 21 42  1  0  0  0  0
 22 26  1  0  0  0  0
 22 23  1  0  0  0  0
 22 43  1  0  0  0  0
 23 24  1  0  0  0  0
 23 44  1  0  0  0  0
 23 45  1  0  0  0  0
 24 25  1  0  0  0  0
 24 46  1  0  0  0  0
 24 47  1  0  0  0  0
 25 26  1  0  0  0  0
 25 48  1  0  0  0  0
 25 49  1  0  0  0  0
 27 50  1  0  0  0  0
 27 51  1  0  0  0  0
M  END
> <s_m_source_file>
AV-unprocessed.smi

> <i_m_source_file_index>
261

> <i_lp_mmshare_version>
43012

> <i_f3d_flags>
0

> <s_epik_input>
W0NIM11PW0NASF0xW0NIMl1bQ0BASF0oQyg9TylbTkgyXSlOKFtDSDJdMSljKG5bY0hdbjIpYyhjMjMpbltjSF1uM1tDSDJdW0NASF0oW09IXSlbQ0BASF00W0NIMl1bQ0gyXVtDSDJdTzQ=

> <s_epik_cmdline>
J2VwaWtfcHl0aG9uJywgJy1waCcsICc3LjAnLCAnLXRuJywgJzgnLCAnLW1hJywgJzIwMCcsICctbWV0YWxfYmluZGluZycsICctaW1hZScsICc8aW5maWxlLm1hZT4nLCAnLW9tYWUnLCAnPG91dGZpbGUubWFlPic=

> <r_lp_tautomer_probability>
1

> <r_epik_Ionization_Penalty>
0.000713824

> <r_epik_Ionization_Penalty_Charging>
0

> <r_epik_Ionization_Penalty_Neutral>
0.000713824

> <r_epik_State_Penalty>
0.000402132

> <r_epik_Charging_Adjusted_Penalty>
0.000402132

> <i_epik_Tot_Q>
0

> <i_epik_Tot_abs_Q>
0

> <r_epik_Metal_State_Penalty>
-0

> <b_epik_Metal_Only>
0

> <s_lp_Force_Field>
OPLS_2005

> <r_lp_Energy>
43.7776

> <b_lp_Chiralities_Consistent>
1

> <s_lp_Variant>
AV-unprocessed.smi:261-10

> <Gold.Version>
5.8.1

> <Gold.Id.Protein>
6NUR|6NUR_protein|mol2

> <Gold.PLP.Fitness>
43.5139

> <Gold.PLP.PLP>
-41.3293

> <Gold.PLP.part.hbond>
-2.9859

> <Gold.PLP.part.metal>
0.0000

> <Gold.PLP.part.buried>
-7.0683

> <Gold.PLP.part.nonpolar>
-31.2057

> <Gold.PLP.part.repulsive>
0.3221

> <Gold.PLP.ligand.clash>
0.0000

> <Gold.PLP.ligand.torsion>
1.0240

> <Gold.PLP.Chemscore.Hbond>
1.2879

> <Gold.PLP.Chemscore.CHOScore>
0.0000

> <Gold.PLP.Chemscore.Metal>
0.0000

> <Gold.Chemscore.Hbonds>
donor molecule, donor type, donor heavy atom, donor atom, acceptor molecule, acceptor atom, score
      L1  H     7    36       P1  7948  0.80
      P1  H  6896  6907       L1    16  0.41

> <Gold.PLP.Chemscore.Internal.Correction>
0.3690

> <Gold.Rescore>
     Score         DG    S(hbond)    S(metal)    S(lipo)     H(rot)  DE(clash)    DE(int)     intcor
     11.91     -13.11       1.93        0.00      88.34       3.57       0.13       1.07       ----

> <Gold.Chemscore.Fitness>
11.9064

> <Gold.Chemscore.DG>
-13.1076

> <Gold.Chemscore.ZeroCoef>
-5.4800

> <Gold.Chemscore.Hbond>
1.9286

> <Gold.Chemscore.Metal>
0.0000

> <Gold.Chemscore.Lipo>
88.3378

> <Gold.Chemscore.Internal_Hbond>
0.0000

> <Gold.Chemscore.DEClash>
0.1291

> <Gold.Chemscore.DEInternal>
1.0721

> <Gold.Chemscore.Rot>
3.5740

> <Gold.Chemscore.Internal.Correction>
   9.000000E+99

> <Gold.Chemscore.Hbonds>
donor molecule, donor type, donor heavy atom, donor atom, acceptor molecule, acceptor atom, score
      L1  H     7    36       P1  7948  0.79
      P1  H  6896  6907       L1    16  0.16

> <Gold.Chemscore.Hbond.Weighted>
-6.4415

> <Gold.Chemscore.Metal.Weighted>
-0.0000

> <Gold.Chemscore.Lipo.Weighted>
-10.3355

> <Gold.Chemscore.Internal_Hbond.Weighted>
0.0000

> <Gold.Chemscore.DEClash.Weighted>
0.1291

> <Gold.Chemscore.DEInternal.Weighted>
1.0721

> <Gold.Chemscore.Rot.Weighted>
9.1495

> <Gold.Chemscore.Internal.Correction.Weighted>
   9.000000E+99

> <Gold.Protein.RotatedTorsions>
[ 6907 6896 6895 6894 ] final  -23.43 input  -60.11 | X-H torsion
[ 7974 7965 7964 7962 ] final  -93.74 input  175.53 | X-H torsion
[ 8008 7997 7996 7995 ] final -173.05 input   59.86 | X-H torsion
[ 10167 10162 10161 10158 ] final  -21.46 input  -65.29 | X-H torsion
[ 10718 10713 10712 10709 ] final   15.67 input   66.30 | X-H torsion
[ 10763 10752 10751 10750 ] final  -90.29 input  -60.55 | X-H torsion
[ 11005 11000 10999 10996 ] final   39.80 input  -57.11 | X-H torsion

> <Gold.Protein.ActiveResidues>
 VAL166  LYS551  ARG553  GLY616  TRP617  ASP618  TYR619  PRO620  LYS621  CYS622 
 ASP623  PHE694  ASN695  SER759  ASP760  ASP761  ALA762  ILE779  LEU786  VAL792 
 PHE793  MET794  SER795  GLU796  ALA797  LYS798  CYS799  TRP800  GLU811  SER814 

> <Gold.Protein.RotatedAtoms>
  151.2041  135.0454  159.8883 H   0  0  0  0  0  0  0  0  0  0  0  0  # atno 6907 bound_to 6896
  152.5430  134.0818  159.8249 H   0  0  0  0  0  0  0  0  0  0  0  0  # atno 6908 bound_to 6896
  151.0962  133.5230  159.2644 H   0  0  0  0  0  0  0  0  0  0  0  0  # atno 6909 bound_to 6896
  145.3825  140.9519  143.2385 H   0  0  0  0  0  0  0  0  0  0  0  0  # atno 7974 bound_to 7965
  155.9525  140.1129  157.0965 H   0  0  0  0  0  0  0  0  0  0  0  0  # atno 8008 bound_to 7997
  154.4113  140.1198  156.5138 H   0  0  0  0  0  0  0  0  0  0  0  0  # atno 8009 bound_to 7997
  155.6824  140.3473  155.4863 H   0  0  0  0  0  0  0  0  0  0  0  0  # atno 8010 bound_to 7997
  140.7282  143.4626  151.0358 H   0  0  0  0  0  0  0  0  0  0  0  0  # atno 10167 bound_to 10162
  157.0569  130.6292  149.5778 H   0  0  0  0  0  0  0  0  0  0  0  0  # atno 10718 bound_to 10713
  154.6642  135.5310  153.8056 H   0  0  0  0  0  0  0  0  0  0  0  0  # atno 10763 bound_to 10752
  153.0460  135.6513  154.0825 H   0  0  0  0  0  0  0  0  0  0  0  0  # atno 10764 bound_to 10752
  154.0731  135.2953  155.3284 H   0  0  0  0  0  0  0  0  0  0  0  0  # atno 10765 bound_to 10752
  140.1992  134.3891  155.8105 H   0  0  0  0  0  0  0  0  0  0  0  0  # atno 11005 bound_to 11000
  144.8497  139.5341  143.6862 LP  0  0  0  0  0  0  0  0  0  0  0  0  # atno 17320 bound_to 7965
  146.2835  139.6941  142.9212 LP  0  0  0  0  0  0  0  0  0  0  0  0  # atno 17321 bound_to 7965
  139.8312  143.7689  152.3180 LP  0  0  0  0  0  0  0  0  0  0  0  0  # atno 17342 bound_to 10162
  139.7805  144.7446  151.0095 LP  0  0  0  0  0  0  0  0  0  0  0  0  # atno 17343 bound_to 10162
  155.9990  130.5065  150.7592 LP  0  0  0  0  0  0  0  0  0  0  0  0  # atno 17370 bound_to 10713
  157.4986  131.0917  151.0341 LP  0  0  0  0  0  0  0  0  0  0  0  0  # atno 17371 bound_to 10713
  141.2227  133.7085  156.8229 LP  0  0  0  0  0  0  0  0  0  0  0  0  # atno 17394 bound_to 11000
  140.2073  134.8853  157.3235 LP  0  0  0  0  0  0  0  0  0  0  0  0  # atno 17395 bound_to 11000

$$$$
