AV-unprocessed.smi:632|AV-procd|sdf|3129|dock2
  -GOLD-   22720 0 53D 1   1.00000     0.00000
 Structure written by MMmdl.
 41 42  0  0  0  0  0  0  0  0  2 V2000
  145.8549  135.1054  162.6988 C   0  0  0  0  0  0  0  0  0  0  0  0
  145.7430  136.4660  161.9840 C   0  0  0  0  0  0  0  0  0  0  0  0
  144.3652  136.5145  161.2871 C   0  0  0  0  0  0  0  0  0  0  0  0
  145.7846  137.6206  163.0044 C   0  0  0  0  0  0  0  0  0  0  0  0
  146.8713  136.6170  160.9900 C   0  0  0  0  0  0  0  0  0  0  0  0
  147.0128  137.7141  160.2362 N   0  0  0  0  0  0  0  0  0  0  0  0
  148.1136  137.6480  159.3955 N   0  0  0  0  0  0  0  0  0  0  0  0
  148.8077  136.5101  159.5268 C   0  0  0  0  0  0  0  0  0  0  0  0
  149.9091  136.2457  158.8046 N   0  5  0  0  0  0  0  0  0  0  0  0
  150.4015  137.1784  157.9575 C   0  0  0  0  0  0  0  0  0  0  0  0
  150.6401  137.0210  156.7579 O   0  0  0  0  0  0  0  0  0  0  0  0
  150.6275  138.3669  158.5364 N   0  0  0  0  0  0  0  0  0  0  0  0
  151.1444  139.5641  157.8774 C   0  0  2  0  0  0  0  0  0  0  0  0
  151.3642  140.6929  158.9038 C   0  0  0  0  0  0  0  0  0  0  0  0
  151.8458  141.9879  158.2255 C   0  0  0  0  0  0  0  0  0  0  0  0
  150.9089  142.4381  157.0882 C   0  0  2  0  0  0  0  0  0  0  0  0
  149.6855  142.9060  157.6210 O   0  0  0  0  0  0  0  0  0  0  0  0
  150.6460  141.2990  156.0847 C   0  0  0  0  0  0  0  0  0  0  0  0
  150.1653  140.0117  156.7773 C   0  0  0  0  0  0  0  0  0  0  0  0
  148.1199  135.4030  160.7112 S   0  0  0  0  0  0  0  0  0  0  0  0
  145.0434  134.9630  163.4130 H   0  0  0  0  0  0  0  0  0  0  0  0
  146.7915  135.0197  163.2508 H   0  0  0  0  0  0  0  0  0  0  0  0
  145.8168  134.2800  161.9866 H   0  0  0  0  0  0  0  0  0  0  0  0
  144.2523  135.7088  160.5603 H   0  0  0  0  0  0  0  0  0  0  0  0
  144.2116  137.4597  160.7649 H   0  0  0  0  0  0  0  0  0  0  0  0
  143.5533  136.4110  162.0079 H   0  0  0  0  0  0  0  0  0  0  0  0
  144.9687  137.5460  163.7241 H   0  0  0  0  0  0  0  0  0  0  0  0
  145.7013  138.5893  162.5101 H   0  0  0  0  0  0  0  0  0  0  0  0
  146.7164  137.6205  163.5711 H   0  0  0  0  0  0  0  0  0  0  0  0
  150.4193  138.4461  159.5209 H   0  0  0  0  0  0  0  0  0  0  0  0
  152.0983  139.3300  157.4008 H   0  0  0  0  0  0  0  0  0  0  0  0
  150.4361  140.8870  159.4434 H   0  0  0  0  0  0  0  0  0  0  0  0
  152.0940  140.3818  159.6521 H   0  0  0  0  0  0  0  0  0  0  0  0
  151.9523  142.7816  158.9658 H   0  0  0  0  0  0  0  0  0  0  0  0
  152.8429  141.8193  157.8170 H   0  0  0  0  0  0  0  0  0  0  0  0
  151.3659  143.2769  156.5620 H   0  0  0  0  0  0  0  0  0  0  0  0
  149.3992  143.6473  157.1097 H   0  0  0  0  0  0  0  0  0  0  0  0
  149.9203  141.6149  155.3344 H   0  0  0  0  0  0  0  0  0  0  0  0
  151.5680  141.0840  155.5431 H   0  0  0  0  0  0  0  0  0  0  0  0
  150.0509  139.2199  156.0361 H   0  0  0  0  0  0  0  0  0  0  0  0
  149.1755  140.1756  157.2059 H   0  0  0  0  0  0  0  0  0  0  0  0
  1  2  1  0  0  0  0
  1 21  1  0  0  0  0
  1 22  1  0  0  0  0
  1 23  1  0  0  0  0
  2  3  1  0  0  0  0
  2  4  1  0  0  0  0
  2  5  1  0  0  0  0
  3 24  1  0  0  0  0
  3 25  1  0  0  0  0
  3 26  1  0  0  0  0
  4 27  1  0  0  0  0
  4 28  1  0  0  0  0
  4 29  1  0  0  0  0
  5 20  1  0  0  0  0
  5  6  2  0  0  0  0
  6  7  1  0  0  0  0
  7  8  2  0  0  0  0
  8  9  1  0  0  0  0
  8 20  1  0  0  0  0
  9 10  1  0  0  0  0
 10 11  2  0  0  0  0
 10 12  1  0  0  0  0
 12 13  1  0  0  0  0
 12 30  1  0  0  0  0
 13 19  1  0  0  0  0
 13 14  1  0  0  0  0
 13 31  1  0  0  0  0
 14 15  1  0  0  0  0
 14 32  1  0  0  0  0
 14 33  1  0  0  0  0
 15 16  1  0  0  0  0
 15 34  1  0  0  0  0
 15 35  1  0  0  0  0
 16 17  1  0  0  0  0
 16 18  1  0  0  0  0
 16 36  1  0  0  0  0
 17 37  1  0  0  0  0
 18 19  1  0  0  0  0
 18 38  1  0  0  0  0
 18 39  1  0  0  0  0
 19 40  1  0  0  0  0
 19 41  1  0  0  0  0
M  CHG  1   9  -1
M  END
> <s_m_source_file>
AV-unprocessed.smi

> <i_m_source_file_index>
632

> <i_lp_mmshare_version>
43012

> <i_f3d_flags>
0

> <s_epik_input>
W0NIM11DKFtDSDNdKShbQ0gzXSljMW5uYyhzMSlbTkhdQyg9TylbTkhdW0NAQEhdMltDSDJdW0NIMl1bQ0BASF0oW09IXSlbQ0gyXVtDSDJdMg==

> <s_epik_cmdline>
J2VwaWtfcHl0aG9uJywgJy1waCcsICc3LjAnLCAnLXRuJywgJzgnLCAnLW1hJywgJzIwMCcsICctbWV0YWxfYmluZGluZycsICctaW1hZScsICc8aW5maWxlLm1hZT4nLCAnLW9tYWUnLCAnPG91dGZpbGUubWFlPic=

> <r_lp_tautomer_probability>
1

> <r_epik_Ionization_Penalty>
4.62389

> <r_epik_Ionization_Penalty_Charging>
4.45204

> <r_epik_Ionization_Penalty_Neutral>
0.171842

> <r_epik_State_Penalty>
4.45172

> <r_epik_Charging_Adjusted_Penalty>
8.90376

> <i_epik_Tot_Q>
-1

> <i_epik_Tot_abs_Q>
1

> <r_epik_Metal_State_Penalty>
0.795834

> <b_epik_Metal_Only>
1

> <s_lp_Force_Field>
OPLS_2005

> <r_lp_Energy>
3.40986

> <b_lp_Chiralities_Consistent>
1

> <s_lp_Variant>
AV-unprocessed.smi:632-4

> <Gold.Version>
5.8.1

> <Gold.Id.Protein>
6NUR|6NUR_protein|mol2

> <Gold.PLP.Fitness>
39.7278

> <Gold.PLP.PLP>
-28.6631

> <Gold.PLP.part.hbond>
-4.0429

> <Gold.PLP.part.metal>
0.0000

> <Gold.PLP.part.buried>
-5.5244

> <Gold.PLP.part.nonpolar>
-20.6047

> <Gold.PLP.part.repulsive>
0.1437

> <Gold.PLP.ligand.clash>
0.0000

> <Gold.PLP.ligand.torsion>
0.5087

> <Gold.PLP.Chemscore.Hbond>
4.0000

> <Gold.PLP.Chemscore.CHOScore>
0.0000

> <Gold.PLP.Chemscore.Metal>
0.0000

> <Gold.Chemscore.Hbonds>
donor molecule, donor type, donor heavy atom, donor atom, acceptor molecule, acceptor atom, score
      L1  H    17    37       P1  8028  1.00
      P1  H  6896  6909       L1     9  2.00
      P1  H  6934  6947       L1     6  0.88

> <Gold.PLP.Chemscore.Internal.Correction>
0.0822

> <Gold.Rescore>
     Score         DG    S(hbond)    S(metal)    S(lipo)     H(rot)  DE(clash)    DE(int)     intcor
     17.35     -18.01       2.38        0.00      75.65       1.67       0.17       0.49       ----

> <Gold.Chemscore.Fitness>
17.3482

> <Gold.Chemscore.DG>
-18.0115

> <Gold.Chemscore.ZeroCoef>
-5.4800

> <Gold.Chemscore.Hbond>
2.3848

> <Gold.Chemscore.Metal>
0.0000

> <Gold.Chemscore.Lipo>
75.6508

> <Gold.Chemscore.Internal_Hbond>
0.0000

> <Gold.Chemscore.DEClash>
0.1709

> <Gold.Chemscore.DEInternal>
0.4924

> <Gold.Chemscore.Rot>
1.6737

> <Gold.Chemscore.Internal.Correction>
   9.000000E+99

> <Gold.Chemscore.Hbonds>
donor molecule, donor type, donor heavy atom, donor atom, acceptor molecule, acceptor atom, score
      L1  H    17    37       P1  8028  0.78
      P1  H  6896  6909       L1     9  0.60
      P1  H  6934  6947       L1     6  0.33

> <Gold.Chemscore.Hbond.Weighted>
-7.9651

> <Gold.Chemscore.Metal.Weighted>
-0.0000

> <Gold.Chemscore.Lipo.Weighted>
-8.8511

> <Gold.Chemscore.Internal_Hbond.Weighted>
0.0000

> <Gold.Chemscore.DEClash.Weighted>
0.1709

> <Gold.Chemscore.DEInternal.Weighted>
0.4924

> <Gold.Chemscore.Rot.Weighted>
4.2848

> <Gold.Chemscore.Internal.Correction.Weighted>
   9.000000E+99

> <Gold.Protein.RotatedTorsions>
[ 6907 6896 6895 6894 ] final   62.34 input  -60.11 | X-H torsion
[ 7974 7965 7964 7962 ] final  116.98 input  175.53 | X-H torsion
[ 8008 7997 7996 7995 ] final   54.67 input   59.86 | X-H torsion
[ 10167 10162 10161 10158 ] final  -98.28 input  -65.29 | X-H torsion
[ 10718 10713 10712 10709 ] final  120.57 input   66.30 | X-H torsion
[ 10763 10752 10751 10750 ] final   85.78 input  -60.55 | X-H torsion
[ 11005 11000 10999 10996 ] final  -99.20 input  -57.11 | X-H torsion

> <Gold.Protein.ActiveResidues>
 VAL166  LYS551  ARG553  GLY616  TRP617  ASP618  TYR619  PRO620  LYS621  CYS622 
 ASP623  PHE694  ASN695  SER759  ASP760  ASP761  ALA762  ILE779  LEU786  VAL792 
 PHE793  MET794  SER795  GLU796  ALA797  LYS798  CYS799  TRP800  GLU811  SER814 

> <Gold.Protein.RotatedAtoms>
  152.4164  134.6034  160.0006 H   0  0  0  0  0  0  0  0  0  0  0  0  # atno 6907 bound_to 6896
  151.6197  133.3334  159.3093 H   0  0  0  0  0  0  0  0  0  0  0  0  # atno 6908 bound_to 6896
  150.8052  134.7212  159.6704 H   0  0  0  0  0  0  0  0  0  0  0  0  # atno 6909 bound_to 6896
  145.1730  139.3091  143.4458 H   0  0  0  0  0  0  0  0  0  0  0  0  # atno 7974 bound_to 7965
  155.4884  140.3470  155.4351 H   0  0  0  0  0  0  0  0  0  0  0  0  # atno 8008 bound_to 7997
  156.0993  140.1431  156.9517 H   0  0  0  0  0  0  0  0  0  0  0  0  # atno 8009 bound_to 7997
  154.4683  140.0909  156.7057 H   0  0  0  0  0  0  0  0  0  0  0  0  # atno 8010 bound_to 7997
  140.2746  143.3321  152.0501 H   0  0  0  0  0  0  0  0  0  0  0  0  # atno 10167 bound_to 10162
  157.5881  131.1067  150.8053 H   0  0  0  0  0  0  0  0  0  0  0  0  # atno 10718 bound_to 10713
  153.1507  135.4605  154.9632 H   0  0  0  0  0  0  0  0  0  0  0  0  # atno 10763 bound_to 10752
  154.7822  135.3192  154.7967 H   0  0  0  0  0  0  0  0  0  0  0  0  # atno 10764 bound_to 10752
  153.8473  135.6925  153.4850 H   0  0  0  0  0  0  0  0  0  0  0  0  # atno 10765 bound_to 10752
  141.1317  133.8303  157.0941 H   0  0  0  0  0  0  0  0  0  0  0  0  # atno 11005 bound_to 11000
  146.3465  140.1882  142.8589 LP  0  0  0  0  0  0  0  0  0  0  0  0  # atno 17320 bound_to 7965
  145.0214  140.8796  143.5164 LP  0  0  0  0  0  0  0  0  0  0  0  0  # atno 17321 bound_to 7965
  139.4979  144.6633  151.6414 LP  0  0  0  0  0  0  0  0  0  0  0  0  # atno 17342 bound_to 10162
  140.5862  143.9860  150.6297 LP  0  0  0  0  0  0  0  0  0  0  0  0  # atno 17343 bound_to 10162
  156.8482  130.5071  149.5314 LP  0  0  0  0  0  0  0  0  0  0  0  0  # atno 17370 bound_to 10713
  156.0932  130.5912  150.9769 LP  0  0  0  0  0  0  0  0  0  0  0  0  # atno 17371 bound_to 10713
  140.0374  134.9871  157.0897 LP  0  0  0  0  0  0  0  0  0  0  0  0  # atno 17394 bound_to 11000
  140.4189  134.1902  155.7164 LP  0  0  0  0  0  0  0  0  0  0  0  0  # atno 17395 bound_to 11000

$$$$
