AV-unprocessed.smi:1875|AV-procd|sdf|7615|dock1
  -GOLD-   22720 9343D 1   1.00000     0.00000
 Structure written by MMmdl.
 47 49  0  0  0  0  0  0  0  0  1 V2000
  142.9014  145.3181  156.1588 C   0  0  0  0  0  0  0  0  0  0  0  0
  143.8620  144.7735  155.1220 C   0  0  0  0  0  0  0  0  0  0  0  0
  144.0730  145.5303  154.0404 N   0  0  0  0  0  0  0  0  0  0  0  0
  144.9214  145.0418  153.1094 C   0  0  0  0  0  0  0  0  0  0  0  0
  145.5563  143.7934  153.2661 C   0  0  0  0  0  0  0  0  0  0  0  0
  145.2558  143.0861  154.4494 C   0  0  0  0  0  0  0  0  0  0  0  0
  145.8682  141.7294  154.7300 C   0  0  0  0  0  0  0  0  0  0  0  0
  147.2302  141.8424  155.2397 N   0  0  0  0  0  0  0  0  0  0  0  0
  147.9647  140.5818  155.2173 C   0  0  0  0  0  0  0  0  0  0  0  0
  149.3543  140.7606  154.5834 C   0  0  1  0  0  0  0  0  0  0  0  0
  149.1847  141.1766  153.2415 O   0  0  0  0  0  0  0  0  0  0  0  0
  150.1925  141.8126  155.3351 C   0  0  0  0  0  0  0  0  0  0  0  0
  150.7674  141.2924  156.5630 N   0  0  0  0  0  0  0  0  0  0  0  0
  150.9677  139.9980  156.8758 C   0  0  0  0  0  0  0  0  0  0  0  0
  151.5109  139.7349  158.0610 N   0  0  0  0  0  0  0  0  0  0  0  0
  151.6855  141.0078  158.5762 C   0  0  0  0  0  0  0  0  0  0  0  0
  152.2219  141.4302  159.8123 C   0  0  0  0  0  0  0  0  0  0  0  0
  152.3071  142.8035  160.1341 C   0  0  0  0  0  0  0  0  0  0  0  0
  152.8910  143.2129  161.4749 C   0  0  0  0  0  0  0  0  0  0  0  0
  151.8514  143.7791  159.2112 C   0  0  0  0  0  0  0  0  0  0  0  0
  151.9359  145.2605  159.5341 C   0  0  0  0  0  0  0  0  0  0  0  0
  151.3109  143.3743  157.9727 C   0  0  0  0  0  0  0  0  0  0  0  0
  151.2308  142.0047  157.6641 C   0  0  0  0  0  0  0  0  0  0  0  0
  144.4052  143.5792  155.3770 N   0  0  0  0  0  0  0  0  0  0  0  0
  142.8622  146.4076  156.1248 H   0  0  0  0  0  0  0  0  0  0  0  0
  143.2063  145.0242  157.1639 H   0  0  0  0  0  0  0  0  0  0  0  0
  141.8974  144.9329  155.9777 H   0  0  0  0  0  0  0  0  0  0  0  0
  145.0947  145.6511  152.2348 H   0  0  0  0  0  0  0  0  0  0  0  0
  146.2333  143.4022  152.5209 H   0  0  0  0  0  0  0  0  0  0  0  0
  145.2369  141.2135  155.4544 H   0  0  0  0  0  0  0  0  0  0  0  0
  145.8553  141.1287  153.8192 H   0  0  0  0  0  0  0  0  0  0  0  0
  147.2080  142.2029  156.1885 H   0  0  0  0  0  0  0  0  0  0  0  0
  148.0579  140.1678  156.2224 H   0  0  0  0  0  0  0  0  0  0  0  0
  147.3950  139.8551  154.6367 H   0  0  0  0  0  0  0  0  0  0  0  0
  149.8920  139.8109  154.5918 H   0  0  0  0  0  0  0  0  0  0  0  0
  149.3847  140.4486  152.6734 H   0  0  0  0  0  0  0  0  0  0  0  0
  150.9973  142.1879  154.7018 H   0  0  0  0  0  0  0  0  0  0  0  0
  149.5727  142.6731  155.5908 H   0  0  0  0  0  0  0  0  0  0  0  0
  150.6995  139.2040  156.1942 H   0  0  0  0  0  0  0  0  0  0  0  0
  152.5695  140.6868  160.5142 H   0  0  0  0  0  0  0  0  0  0  0  0
  152.1613  143.7814  162.0516 H   0  0  0  0  0  0  0  0  0  0  0  0
  153.7786  143.8299  161.3325 H   0  0  0  0  0  0  0  0  0  0  0  0
  153.1793  142.3434  162.0663 H   0  0  0  0  0  0  0  0  0  0  0  0
  151.5523  145.8689  158.7147 H   0  0  0  0  0  0  0  0  0  0  0  0
  152.9706  145.5543  159.7126 H   0  0  0  0  0  0  0  0  0  0  0  0
  151.3510  145.4914  160.4245 H   0  0  0  0  0  0  0  0  0  0  0  0
  150.9610  144.1071  157.2610 H   0  0  0  0  0  0  0  0  0  0  0  0
  1  2  1  0  0  0  0
  1 25  1  0  0  0  0
  1 26  1  0  0  0  0
  1 27  1  0  0  0  0
  2 24  1  0  0  0  0
  2  3  2  0  0  0  0
  3  4  1  0  0  0  0
  4  5  2  0  0  0  0
  4 28  1  0  0  0  0
  5  6  1  0  0  0  0
  5 29  1  0  0  0  0
  6  7  1  0  0  0  0
  6 24  2  0  0  0  0
  7  8  1  0  0  0  0
  7 30  1  0  0  0  0
  7 31  1  0  0  0  0
  8  9  1  0  0  0  0
  8 32  1  0  0  0  0
  9 10  1  0  0  0  0
  9 33  1  0  0  0  0
  9 34  1  0  0  0  0
 10 11  1  0  0  0  0
 10 12  1  0  0  0  0
 10 35  1  0  0  0  0
 11 36  1  0  0  0  0
 12 13  1  0  0  0  0
 12 37  1  0  0  0  0
 12 38  1  0  0  0  0
 13 23  1  0  0  0  0
 13 14  1  0  0  0  0
 14 15  2  0  0  0  0
 14 39  1  0  0  0  0
 15 16  1  0  0  0  0
 16 23  2  0  0  0  0
 16 17  1  0  0  0  0
 17 18  2  0  0  0  0
 17 40  1  0  0  0  0
 18 19  1  0  0  0  0
 18 20  1  0  0  0  0
 19 41  1  0  0  0  0
 19 42  1  0  0  0  0
 19 43  1  0  0  0  0
 20 21  1  0  0  0  0
 20 22  2  0  0  0  0
 21 44  1  0  0  0  0
 21 45  1  0  0  0  0
 21 46  1  0  0  0  0
 22 23  1  0  0  0  0
 22 47  1  0  0  0  0
M  END
> <s_m_source_file>
AV-unprocessed.smi

> <i_m_source_file_index>
1875

> <i_lp_mmshare_version>
43012

> <i_f3d_flags>
0

> <s_epik_input>
W0NIM11jMW5bY0hdW2NIXWMobjEpW0NIMl1bTkhdW0NIMl1bQ0BIXShbT0hdKVtDSDJdbihbY0hdbjIpYyhjMjMpW2NIXWMoW0NIM10pYyhbY0hdMylbQ0gzXQ==

> <s_epik_cmdline>
J2VwaWtfcHl0aG9uJywgJy1waCcsICc3LjAnLCAnLXRuJywgJzgnLCAnLW1hJywgJzIwMCcsICctbWV0YWxfYmluZGluZycsICctaW1hZScsICc8aW5maWxlLm1hZT4nLCAnLW9tYWUnLCAnPG91dGZpbGUubWFlPic=

> <r_lp_tautomer_probability>
1

> <r_epik_Ionization_Penalty>
1.21192

> <r_epik_Ionization_Penalty_Charging>
0

> <r_epik_Ionization_Penalty_Neutral>
1.21192

> <r_epik_State_Penalty>
1.26105

> <r_epik_Charging_Adjusted_Penalty>
1.26105

> <i_epik_Tot_Q>
0

> <i_epik_Tot_abs_Q>
0

> <r_epik_Metal_State_Penalty>
1.2224

> <b_epik_Metal_Only>
0

> <s_epik_Chemistry_Notes>
This compound contains an electron-poor aromatic ring that is susceptible to covalent hydrolysis at low pH, typically resulting in measured values for nitrogen ring protonation that are around two units higher than predicted values.

> <s_lp_Force_Field>
OPLS_2005

> <r_lp_Energy>
10.0128

> <b_lp_Chiralities_Consistent>
1

> <s_lp_Variant>
AV-unprocessed.smi:1875-4

> <Gold.Version>
5.8.1

> <Gold.Id.Protein>
6NUR|6NUR_protein|mol2

> <Gold.PLP.Fitness>
56.0147

> <Gold.PLP.PLP>
-52.4964

> <Gold.PLP.part.hbond>
-2.5839

> <Gold.PLP.part.metal>
0.0000

> <Gold.PLP.part.buried>
-7.2708

> <Gold.PLP.part.nonpolar>
-42.6711

> <Gold.PLP.part.repulsive>
0.2085

> <Gold.PLP.ligand.clash>
0.0000

> <Gold.PLP.ligand.torsion>
1.1177

> <Gold.PLP.Chemscore.Hbond>
1.8160

> <Gold.PLP.Chemscore.CHOScore>
0.0000

> <Gold.PLP.Chemscore.Metal>
0.0000

> <Gold.Chemscore.Hbonds>
donor molecule, donor type, donor heavy atom, donor atom, acceptor molecule, acceptor atom, score
      L1  H    11    36       P1  7957  0.86
      P1  H  8011  8017       L1    11  0.95

> <Gold.PLP.Chemscore.Internal.Correction>
0.3057

> <Gold.Rescore>
     Score         DG    S(hbond)    S(metal)    S(lipo)     H(rot)  DE(clash)    DE(int)     intcor
     17.69     -18.75       1.41        0.00     132.80       2.72       0.19       0.87       ----

> <Gold.Chemscore.Fitness>
17.6935

> <Gold.Chemscore.DG>
-18.7537

> <Gold.Chemscore.ZeroCoef>
-5.4800

> <Gold.Chemscore.Hbond>
1.4092

> <Gold.Chemscore.Metal>
0.0000

> <Gold.Chemscore.Lipo>
132.7954

> <Gold.Chemscore.Internal_Hbond>
0.0000

> <Gold.Chemscore.DEClash>
0.1928

> <Gold.Chemscore.DEInternal>
0.8674

> <Gold.Chemscore.Rot>
2.7228

> <Gold.Chemscore.Internal.Correction>
   9.000000E+99

> <Gold.Chemscore.Hbonds>
donor molecule, donor type, donor heavy atom, donor atom, acceptor molecule, acceptor atom, score
      L1  H    11    36       P1  7957  0.83
      P1  H  8011  8017       L1    11  0.21

> <Gold.Chemscore.Hbond.Weighted>
-4.7069

> <Gold.Chemscore.Metal.Weighted>
-0.0000

> <Gold.Chemscore.Lipo.Weighted>
-15.5371

> <Gold.Chemscore.Internal_Hbond.Weighted>
0.0000

> <Gold.Chemscore.DEClash.Weighted>
0.1928

> <Gold.Chemscore.DEInternal.Weighted>
0.8674

> <Gold.Chemscore.Rot.Weighted>
6.9702

> <Gold.Chemscore.Internal.Correction.Weighted>
   9.000000E+99

> <Gold.Protein.RotatedTorsions>
[ 6907 6896 6895 6894 ] final  -57.23 input  -60.11 | X-H torsion
[ 7974 7965 7964 7962 ] final  -26.02 input  175.53 | X-H torsion
[ 8008 7997 7996 7995 ] final    4.30 input   59.86 | X-H torsion
[ 10167 10162 10161 10158 ] final  167.23 input  -65.29 | X-H torsion
[ 10718 10713 10712 10709 ] final  107.00 input   66.30 | X-H torsion
[ 10763 10752 10751 10750 ] final   12.97 input  -60.55 | X-H torsion
[ 11005 11000 10999 10996 ] final   48.31 input  -57.11 | X-H torsion

> <Gold.Protein.ActiveResidues>
 VAL166  LYS551  ARG553  GLY616  TRP617  ASP618  TYR619  PRO620  LYS621  CYS622 
 ASP623  PHE694  ASN695  SER759  ASP760  ASP761  ALA762  ILE779  LEU786  VAL792 
 PHE793  MET794  SER795  GLU796  ALA797  LYS798  CYS799  TRP800  GLU811  SER814 

> <Gold.Protein.RotatedAtoms>
  150.8103  134.7253  159.6681 H   0  0  0  0  0  0  0  0  0  0  0  0  # atno 6907 bound_to 6896
  152.4223  134.5929  159.9989 H   0  0  0  0  0  0  0  0  0  0  0  0  # atno 6908 bound_to 6896
  151.6141  133.3307  159.3110 H   0  0  0  0  0  0  0  0  0  0  0  0  # atno 6909 bound_to 6896
  146.1453  140.4965  142.8634 H   0  0  0  0  0  0  0  0  0  0  0  0  # atno 7974 bound_to 7965
  154.7142  140.2699  155.6601 H   0  0  0  0  0  0  0  0  0  0  0  0  # atno 8008 bound_to 7997
  156.2804  140.2747  156.1718 H   0  0  0  0  0  0  0  0  0  0  0  0  # atno 8009 bound_to 7997
  155.0593  140.0371  157.2561 H   0  0  0  0  0  0  0  0  0  0  0  0  # atno 8010 bound_to 7997
  139.4941  144.3944  151.9481 H   0  0  0  0  0  0  0  0  0  0  0  0  # atno 10167 bound_to 10162
  157.6646  131.0863  150.6090 H   0  0  0  0  0  0  0  0  0  0  0  0  # atno 10718 bound_to 10713
  153.1768  135.6821  153.8532 H   0  0  0  0  0  0  0  0  0  0  0  0  # atno 10763 bound_to 10752
  153.7878  135.3173  155.3375 H   0  0  0  0  0  0  0  0  0  0  0  0  # atno 10764 bound_to 10752
  154.8034  135.4764  154.0425 H   0  0  0  0  0  0  0  0  0  0  0  0  # atno 10765 bound_to 10752
  140.1201  134.4840  155.8604 H   0  0  0  0  0  0  0  0  0  0  0  0  # atno 11005 bound_to 11000
  144.7839  140.5896  143.6587 LP  0  0  0  0  0  0  0  0  0  0  0  0  # atno 17320 bound_to 7965
  145.4953  139.1486  143.3687 LP  0  0  0  0  0  0  0  0  0  0  0  0  # atno 17321 bound_to 7965
  140.3382  144.3235  150.5973 LP  0  0  0  0  0  0  0  0  0  0  0  0  # atno 17342 bound_to 10162
  140.5588  143.2195  151.7800 LP  0  0  0  0  0  0  0  0  0  0  0  0  # atno 17343 bound_to 10162
  156.6391  130.4453  149.5759 LP  0  0  0  0  0  0  0  0  0  0  0  0  # atno 17370 bound_to 10713
  156.2223  130.6744  151.1380 LP  0  0  0  0  0  0  0  0  0  0  0  0  # atno 17371 bound_to 10713
  141.2150  133.6757  156.6873 LP  0  0  0  0  0  0  0  0  0  0  0  0  # atno 17394 bound_to 11000
  140.2976  134.8190  157.4070 LP  0  0  0  0  0  0  0  0  0  0  0  0  # atno 17395 bound_to 11000

$$$$
