AV-unprocessed.smi:315|AV-procd|sdf|2323|dock6
  -GOLD-   2262022223D 1   1.00000     0.00000
 Structure written by MMmdl.
 47 49  0  0  0  0  0  0  0  0  2 V2000
  151.9618  138.2230  154.3556 C   0  0  0  0  0  0  0  0  0  0  0  0
  150.9415  139.3465  154.5542 C   0  0  0  0  0  0  0  0  0  0  0  0
  149.7243  138.9686  153.9198 O   0  0  0  0  0  0  0  0  0  0  0  0
  148.7241  139.9127  153.7824 C   0  0  0  0  0  0  0  0  0  0  0  0
  148.9547  141.1720  154.2307 N   0  0  0  0  0  0  0  0  0  0  0  0
  147.9759  142.0904  154.0953 C   0  0  0  0  0  0  0  0  0  0  0  0
  146.7244  141.8041  153.5191 C   0  0  0  0  0  0  0  0  0  0  0  0
  146.4828  140.4981  153.0542 C   0  0  0  0  0  0  0  0  0  0  0  0
  147.5065  139.5281  153.1758 C   0  0  0  0  0  0  0  0  0  0  0  0
  147.3682  138.1773  152.7588 N   0  0  0  0  0  0  0  0  0  0  0  0
  146.2425  137.4676  152.5525 C   0  0  0  0  0  0  0  0  0  0  0  0
  145.1028  137.8924  152.7263 O   0  0  0  0  0  0  0  0  0  0  0  0
  146.4595  136.2177  152.1057 N   0  0  0  0  0  0  0  0  0  0  0  0
  145.4622  135.1950  151.7848 C   0  0  1  0  0  0  0  0  0  0  0  0
  144.3919  135.6581  150.7823 C   0  0  0  0  0  0  0  0  0  0  0  0
  144.1498  134.4522  149.8534 C   0  0  0  0  0  0  0  0  0  0  0  0
  144.9567  133.3335  150.3915 N   0  3  2  0  0  0  0  0  0  0  0  0
  144.1488  132.4234  151.2494 C   0  0  0  0  0  0  0  0  0  0  0  0
  145.0225  131.4060  151.9942 C   0  0  0  0  0  0  0  0  0  0  0  0
  146.0603  132.1313  152.8544 C   0  0  0  0  0  0  0  0  0  0  0  0
  146.9240  133.0312  151.9635 C   0  0  0  0  0  0  0  0  0  0  0  0
  146.0939  133.9902  151.0807 C   0  0  2  0  0  0  0  0  0  0  0  0
  152.9120  138.4719  154.8284 H   0  0  0  0  0  0  0  0  0  0  0  0
  152.1511  138.0487  153.2960 H   0  0  0  0  0  0  0  0  0  0  0  0
  151.6054  137.2894  154.7914 H   0  0  0  0  0  0  0  0  0  0  0  0
  150.7807  139.5122  155.6207 H   0  0  0  0  0  0  0  0  0  0  0  0
  151.3260  140.2712  154.1209 H   0  0  0  0  0  0  0  0  0  0  0  0
  148.1946  143.0823  154.4627 H   0  0  0  0  0  0  0  0  0  0  0  0
  145.9655  142.5683  153.4391 H   0  0  0  0  0  0  0  0  0  0  0  0
  145.5192  140.2641  152.6286 H   0  0  0  0  0  0  0  0  0  0  0  0
  148.2300  137.7207  152.4991 H   0  0  0  0  0  0  0  0  0  0  0  0
  147.4242  135.9530  151.9663 H   0  0  0  0  0  0  0  0  0  0  0  0
  144.9750  134.8528  152.6994 H   0  0  0  0  0  0  0  0  0  0  0  0
  143.4798  135.9568  151.2999 H   0  0  0  0  0  0  0  0  0  0  0  0
  144.7313  136.5148  150.1980 H   0  0  0  0  0  0  0  0  0  0  0  0
  143.0920  134.2012  149.7613 H   0  0  0  0  0  0  0  0  0  0  0  0
  144.5142  134.6848  148.8520 H   0  0  0  0  0  0  0  0  0  0  0  0
  143.5758  133.0049  151.9736 H   0  0  0  0  0  0  0  0  0  0  0  0
  143.4223  131.9007  150.6264 H   0  0  0  0  0  0  0  0  0  0  0  0
  144.3985  130.7690  152.6220 H   0  0  0  0  0  0  0  0  0  0  0  0
  145.5211  130.7485  151.2808 H   0  0  0  0  0  0  0  0  0  0  0  0
  145.5629  132.7237  153.6232 H   0  0  0  0  0  0  0  0  0  0  0  0
  146.6881  131.4088  153.3765 H   0  0  0  0  0  0  0  0  0  0  0  0
  147.6313  133.5952  152.5724 H   0  0  0  0  0  0  0  0  0  0  0  0
  147.5282  132.3959  151.3143 H   0  0  0  0  0  0  0  0  0  0  0  0
  146.7539  134.3697  150.2975 H   0  0  0  0  0  0  0  0  0  0  0  0
  145.3170  132.7816  149.6260 H   0  0  0  0  0  0  0  0  0  0  0  0
  1  2  1  0  0  0  0
  1 23  1  0  0  0  0
  1 24  1  0  0  0  0
  1 25  1  0  0  0  0
  2  3  1  0  0  0  0
  2 26  1  0  0  0  0
  2 27  1  0  0  0  0
  3  4  1  0  0  0  0
  4  9  1  0  0  0  0
  4  5  2  0  0  0  0
  5  6  1  0  0  0  0
  6  7  2  0  0  0  0
  6 28  1  0  0  0  0
  7  8  1  0  0  0  0
  7 29  1  0  0  0  0
  8  9  2  0  0  0  0
  8 30  1  0  0  0  0
  9 10  1  0  0  0  0
 10 11  1  0  0  0  0
 10 31  1  0  0  0  0
 11 12  2  0  0  0  0
 11 13  1  0  0  0  0
 13 14  1  0  0  0  0
 13 32  1  0  0  0  0
 14 22  1  0  0  0  0
 14 15  1  0  0  0  0
 14 33  1  0  0  0  0
 15 16  1  0  0  0  0
 15 34  1  0  0  0  0
 15 35  1  0  0  0  0
 16 17  1  0  0  0  0
 16 36  1  0  0  0  0
 16 37  1  0  0  0  0
 17 22  1  0  0  0  0
 17 18  1  0  0  0  0
 17 47  1  0  0  0  0
 18 19  1  0  0  0  0
 18 38  1  0  0  0  0
 18 39  1  0  0  0  0
 19 20  1  0  0  0  0
 19 40  1  0  0  0  0
 19 41  1  0  0  0  0
 20 21  1  0  0  0  0
 20 42  1  0  0  0  0
 20 43  1  0  0  0  0
 21 22  1  0  0  0  0
 21 44  1  0  0  0  0
 21 45  1  0  0  0  0
 22 46  1  0  0  0  0
M  CHG  1  17   1
M  END
> <s_m_source_file>
AV-unprocessed.smi

> <i_m_source_file_index>
315

> <i_lp_mmshare_version>
43012

> <i_f3d_flags>
0

> <s_epik_input>
W0NIM11bQ0gyXU9jMW5bY0hdW2NIXVtjSF1jMVtOSF1DKD1PKVtOSF1bQ0BIXShbQ0gyXVtDSDJdMilbQ0BASF0oTjIzKVtDSDJdW0NIMl1bQ0gyXVtDSDJdMw==

> <s_epik_cmdline>
J2VwaWtfcHl0aG9uJywgJy1waCcsICc3LjAnLCAnLXRuJywgJzgnLCAnLW1hJywgJzIwMCcsICctbWV0YWxfYmluZGluZycsICctaW1hZScsICc8aW5maWxlLm1hZT4nLCAnLW9tYWUnLCAnPG91dGZpbGUubWFlPic=

> <r_lp_tautomer_probability>
1

> <r_epik_Ionization_Penalty>
0.00106455

> <r_epik_Ionization_Penalty_Charging>
0.000974069

> <r_epik_Ionization_Penalty_Neutral>
9.04821e-05

> <r_epik_State_Penalty>
0.000633842

> <r_epik_Charging_Adjusted_Penalty>
0.00160791

> <i_epik_Tot_Q>
1

> <i_epik_Tot_abs_Q>
1

> <r_epik_Metal_State_Penalty>
-0

> <b_epik_Metal_Only>
0

> <s_lp_Force_Field>
OPLS_2005

> <r_lp_Energy>
51.0433

> <b_lp_Chiralities_Consistent>
1

> <s_lp_Variant>
AV-unprocessed.smi:315-8

> <Gold.Version>
5.8.1

> <Gold.Id.Protein>
6NUR|6NUR_protein|mol2

> <Gold.PLP.Fitness>
42.6987

> <Gold.PLP.PLP>
-34.2834

> <Gold.PLP.part.hbond>
-2.1352

> <Gold.PLP.part.metal>
0.0000

> <Gold.PLP.part.buried>
2.0299

> <Gold.PLP.part.nonpolar>
-35.1682

> <Gold.PLP.part.repulsive>
0.9715

> <Gold.PLP.ligand.clash>
0.0000

> <Gold.PLP.ligand.torsion>
0.1938

> <Gold.PLP.Chemscore.Hbond>
1.9280

> <Gold.PLP.Chemscore.CHOScore>
1.0000

> <Gold.PLP.Chemscore.Metal>
0.0000

> <Gold.Chemscore.Hbonds>
donor molecule, donor type, donor heavy atom, donor atom, acceptor molecule, acceptor atom, score
      L1  H    10    31       P1  7948  0.93
      L1  H    13    32       P1  7948  1.00
      L1  C     6    28       P1  8028  1.00

> <Gold.PLP.Chemscore.Internal.Correction>
0.0190

> <Gold.Rescore>
     Score         DG    S(hbond)    S(metal)    S(lipo)     H(rot)  DE(clash)    DE(int)     intcor
     16.72     -18.65       1.89        0.00      88.62       1.38       0.67       1.26       ----

> <Gold.Chemscore.Fitness>
16.7233

> <Gold.Chemscore.DG>
-18.6484

> <Gold.Chemscore.ZeroCoef>
-5.4800

> <Gold.Chemscore.Hbond>
1.8936

> <Gold.Chemscore.Metal>
0.0000

> <Gold.Chemscore.Lipo>
88.6242

> <Gold.Chemscore.Internal_Hbond>
0.0000

> <Gold.Chemscore.DEClash>
0.6653

> <Gold.Chemscore.DEInternal>
1.2598

> <Gold.Chemscore.Rot>
1.3770

> <Gold.Chemscore.Internal.Correction>
   9.000000E+99

> <Gold.Chemscore.Hbonds>
donor molecule, donor type, donor heavy atom, donor atom, acceptor molecule, acceptor atom, score
      L1  H    10    31       P1  7948  0.90
      L1  H    13    32       P1  7948  0.92

> <Gold.Chemscore.Hbond.Weighted>
-6.3245

> <Gold.Chemscore.Metal.Weighted>
-0.0000

> <Gold.Chemscore.Lipo.Weighted>
-10.3690

> <Gold.Chemscore.Internal_Hbond.Weighted>
0.0000

> <Gold.Chemscore.DEClash.Weighted>
0.6653

> <Gold.Chemscore.DEInternal.Weighted>
1.2598

> <Gold.Chemscore.Rot.Weighted>
3.5252

> <Gold.Chemscore.Internal.Correction.Weighted>
   9.000000E+99

> <Gold.Protein.RotatedTorsions>
[ 6907 6896 6895 6894 ] final  -30.36 input  -60.11 | X-H torsion
[ 7974 7965 7964 7962 ] final -153.57 input  175.53 | X-H torsion
[ 8008 7997 7996 7995 ] final  -78.37 input   59.86 | X-H torsion
[ 10167 10162 10161 10158 ] final   59.01 input  -65.29 | X-H torsion
[ 10718 10713 10712 10709 ] final  -99.88 input   66.30 | X-H torsion
[ 10763 10752 10751 10750 ] final   75.53 input  -60.55 | X-H torsion
[ 11005 11000 10999 10996 ] final  133.49 input  -57.11 | X-H torsion

> <Gold.Protein.ActiveResidues>
 VAL166  LYS551  ARG553  GLY616  TRP617  ASP618  TYR619  PRO620  LYS621  CYS622 
 ASP623  PHE694  ASN695  SER759  ASP760  ASP761  ALA762  ILE779  LEU786  VAL792 
 PHE793  MET794  SER795  GLU796  ALA797  LYS798  CYS799  TRP800  GLU811  SER814 

> <Gold.Protein.RotatedAtoms>
  151.1067  135.0003  159.8474 H   0  0  0  0  0  0  0  0  0  0  0  0  # atno 6907 bound_to 6896
  152.5440  134.1885  159.8674 H   0  0  0  0  0  0  0  0  0  0  0  0  # atno 6908 bound_to 6896
  151.1932  133.4610  159.2628 H   0  0  0  0  0  0  0  0  0  0  0  0  # atno 6909 bound_to 6896
  144.7734  140.4508  143.5891 H   0  0  0  0  0  0  0  0  0  0  0  0  # atno 7974 bound_to 7965
  154.5683  140.0695  156.8926 H   0  0  0  0  0  0  0  0  0  0  0  0  # atno 8008 bound_to 7997
  155.2681  140.3363  155.4249 H   0  0  0  0  0  0  0  0  0  0  0  0  # atno 8009 bound_to 7997
  156.2098  140.1754  156.7705 H   0  0  0  0  0  0  0  0  0  0  0  0  # atno 8010 bound_to 7997
  140.1810  144.4181  150.6615 H   0  0  0  0  0  0  0  0  0  0  0  0  # atno 10167 bound_to 10162
  156.0147  130.5302  150.6736 H   0  0  0  0  0  0  0  0  0  0  0  0  # atno 10718 bound_to 10713
  153.0661  135.4985  154.8203 H   0  0  0  0  0  0  0  0  0  0  0  0  # atno 10763 bound_to 10752
  154.6956  135.2992  154.9419 H   0  0  0  0  0  0  0  0  0  0  0  0  # atno 10764 bound_to 10752
  154.0160  135.6748  153.4821 H   0  0  0  0  0  0  0  0  0  0  0  0  # atno 10765 bound_to 10752
  139.9855  134.9533  156.9732 H   0  0  0  0  0  0  0  0  0  0  0  0  # atno 11005 bound_to 11000
  145.6257  139.1529  143.2997 LP  0  0  0  0  0  0  0  0  0  0  0  0  # atno 17320 bound_to 7965
  146.1897  140.6364  142.9151 LP  0  0  0  0  0  0  0  0  0  0  0  0  # atno 17321 bound_to 7965
  140.6519  143.2227  151.6057 LP  0  0  0  0  0  0  0  0  0  0  0  0  # atno 17342 bound_to 10162
  139.5296  144.2956  152.1116 LP  0  0  0  0  0  0  0  0  0  0  0  0  # atno 17343 bound_to 10162
  157.4453  131.0866  151.0902 LP  0  0  0  0  0  0  0  0  0  0  0  0  # atno 17370 bound_to 10713
  157.1434  130.6153  149.5561 LP  0  0  0  0  0  0  0  0  0  0  0  0  # atno 17371 bound_to 10713
  140.5011  134.1096  155.7251 LP  0  0  0  0  0  0  0  0  0  0  0  0  # atno 17394 bound_to 11000
  141.1521  133.8950  157.2072 LP  0  0  0  0  0  0  0  0  0  0  0  0  # atno 17395 bound_to 11000

$$$$
