#       Name:                AV-unprocessed.smi:527
#       Creating user name   scv26
#       Creation time:       Thu Mar 26 23:30:41 2020


#       File generated by GOLD software.
#

@<TRIPOS>MOLECULE
AV-unprocessed.smi:527
    47    48     1
SMALL
NO_CHARGES


@<TRIPOS>ATOM
      1 ****        -2.5491  -2.3079   2.8594 C.3            1 S1                 0.0000
      2 ****        -2.0941  -1.5652   1.5905 C.3            1 S1                 0.0000
      3 ****        -2.6664  -2.2689   0.3424 C.3            1 S1                 0.0000
      4 ****        -2.2363  -1.5806  -0.9597 C.3            1 S1                 0.0000
      5 ****        -2.6349  -0.0983  -0.9536 C.3            1 S1                 0.0000
      6 ****        -2.0698   0.6412   0.2756 C.3            1 S1                 0.0000
      7 ****        -0.6152   0.7770   0.1781 N.am           1 S1                 0.0000
      8 ****         0.0359   1.7313  -0.5029 C.2            1 S1                 0.0000
      9 ****        -0.5356   2.6243  -1.1323 O.2            1 S1                 0.0000
     10 ****         1.3691   1.5697  -0.4028 N.am           1 S1                 0.0000
     11 ****         2.3331   2.3353  -0.9549 C.2            1 S1                 0.0000
     12 ****         2.1377   3.3380  -1.6445 O.2            1 S1                 0.0000
     13 ****         3.7698   1.8880  -0.6822 C.3            1 S1                 0.0000
     14 ****         4.1909   0.8805  -1.6374 N.pl3          1 S1                 0.0000
     15 ****         4.7972   1.0931  -2.8691 C.2            1 S1                 0.0000
     16 ****         5.0068  -0.1492  -3.4238 C.2            1 S1                 0.0000
     17 ****         4.5382  -1.1345  -2.5578 N.2            1 S1                 0.0000
     18 ****         4.0693  -0.4495  -1.5231 C.2            1 S1                 0.0000
     19 ****        -2.4806  -0.0594   1.5973 C.3            1 S1                 0.0000
     20 ****        -1.9365   0.7007   2.8241 C.3            1 S1                 0.0000
     21 ****        -3.6249  -2.2143   3.0101 H              1 S1                 0.0000
     22 ****        -2.0502  -1.9295   3.7512 H              1 S1                 0.0000
     23 ****        -2.3157  -3.3709   2.7943 H              1 S1                 0.0000
     24 ****        -1.0066  -1.6398   1.5444 H              1 S1                 0.0000
     25 ****        -2.3452  -3.3110   0.3211 H              1 S1                 0.0000
     26 ****        -3.7558  -2.2856   0.3979 H              1 S1                 0.0000
     27 ****        -1.1575  -1.6758  -1.0887 H              1 S1                 0.0000
     28 ****        -2.6931  -2.0828  -1.8128 H              1 S1                 0.0000
     29 ****        -2.3040   0.3812  -1.8757 H              1 S1                 0.0000
     30 ****        -3.7228  -0.0215  -0.9488 H              1 S1                 0.0000
     31 ****        -2.5018   1.6438   0.2889 H              1 S1                 0.0000
     32 ****        -0.0665   0.0855   0.6676 H              1 S1                 0.0000
     33 ****         1.6845   0.7816   0.1430 H              1 S1                 0.0000
     34 ****         4.4452   2.7421  -0.7473 H              1 S1                 0.0000
     35 ****         3.8588   1.4837   0.3274 H              1 S1                 0.0000
     36 ****         5.0211   2.0829  -3.2396 H              1 S1                 0.0000
     37 ****         5.4535  -0.4075  -4.3726 H              1 S1                 0.0000
     38 ****         3.6247  -0.9266  -0.6619 H              1 S1                 0.0000
     39 ****        -3.5690  -0.0054   1.6553 H              1 S1                 0.0000
     40 ****        -0.8558   0.5923   2.9197 H              1 S1                 0.0000
     41 ****        -2.3893   0.3466   3.7498 H              1 S1                 0.0000
     42 ****        -2.1578   1.7659   2.7516 H              1 S1                 0.0000
     43 ****        -1.5347   2.6614  -1.1519 LP             1 S1                 0.0000
     44 ****        -0.0000   3.3115  -1.6231 LP             1 S1                 0.0000
     45 ****         1.2035   3.6410  -1.8328 LP             1 S1                 0.0000
     46 ****         2.9133   3.8485  -2.0156 LP             1 S1                 0.0000
     47 ****         4.5520  -2.1262  -2.6860 LP             1 S1                 0.0000
@<TRIPOS>BOND
    1    1    2 1     
    2    1   21 1     
    3    1   22 1     
    4    1   23 1     
    5    2   19 1     
    6    2    3 1     
    7    2   24 1     
    8    3    4 1     
    9    3   25 1     
   10    3   26 1     
   11    4    5 1     
   12    4   27 1     
   13    4   28 1     
   14    5    6 1     
   15    5   29 1     
   16    5   30 1     
   17    6    7 1     
   18    6   19 1     
   19    6   31 1     
   20    7    8 1     
   21    7   32 1     
   22    8    9 2     
   23    8   10 1     
   24   10   11 1     
   25   10   33 1     
   26   11   12 2     
   27   11   13 1     
   28   13   14 1     
   29   13   34 1     
   30   13   35 1     
   31   14   18 1     
   32   14   15 1     
   33   15   16 2     
   34   15   36 1     
   35   16   17 1     
   36   16   37 1     
   37   17   18 2     
   38   18   38 1     
   39   19   20 1     
   40   19   39 1     
   41   20   40 1     
   42   20   41 1     
   43   20   42 1     
   44    9   43 1     
   45    9   44 1     
   46   12   45 1     
   47   12   46 1     
   48   17   47 1     
@<TRIPOS>SUBSTRUCTURE
      1 S1             1
@<TRIPOS>SET
LONE_PAIRS      STATIC     ATOMS    <user>   **** ""
5 43 44 45 46 47
DONOR_HYDROGENS      STATIC     ATOMS    <user>   **** ""
2 32 33
ATOM$BLUE        STATIC     ATOMS    COLORGROUP SYSTEM
5 43 44 45 46 47
ATOM$RED        STATIC     ATOMS    COLORGROUP SYSTEM
2 32 33
