#       Name:                AV-unprocessed.smi:72
#       Creating user name   scv26
#       Creation time:       Thu Mar 26 17:06:56 2020


#       File generated by GOLD software.
#

@<TRIPOS>MOLECULE
AV-unprocessed.smi:72
    41    42     1
SMALL
NO_CHARGES


@<TRIPOS>ATOM
      1 ****        -4.1263   2.7326  -1.9603 N.2            1 S1                 0.0000
      2 ****        -3.1591   2.2221  -1.3329 C.2            1 S1                 0.0000
      3 ****        -2.0110   1.7226  -2.0574 N.2            1 S1                 0.0000
      4 ****        -1.0418   1.2004  -1.3706 C.2            1 S1                 0.0000
      5 ****        -1.0898   1.1122   0.0835 N.am           1 S1                 0.0000
      6 ****         0.0367   0.4951   0.8962 C.3            1 S1                 0.0000
      7 ****         1.2206   0.4822   0.1488 O.3            1 S1                 0.0000
      8 ****         1.5478  -0.8525  -0.2223 C.3            1 S1                 0.0000
      9 ****         3.0404  -0.9835  -0.5735 C.3            1 S1                 0.0000
     10 ****         3.3137  -2.2719  -1.0824 O.3            1 S1                 0.0000
     11 ****         1.0305  -1.6875   0.9555 C.3            1 S1                 0.0000
     12 ****         1.9439  -1.6693   2.0374 O.3            1 S1                 0.0000
     13 ****        -0.2541  -0.9626   1.3358 C.3            1 S1                 0.0000
     14 ****        -1.3523  -1.5562   0.6649 O.3            1 S1                 0.0000
     15 ****        -2.2304   1.6108   0.7676 C.2            1 S1                 0.0000
     16 ****        -2.2570   1.5137   1.9948 O.2            1 S1                 0.0000
     17 ****        -3.2422   2.1614   0.0407 N.pl3          1 S1                -1.0000
     18 ****         0.1964   1.1732   1.7362 H              1 S1                 0.0000
     19 ****         0.9564  -1.0991  -1.1056 H              1 S1                 0.0000
     20 ****         0.8612  -2.7281   0.6747 H              1 S1                 0.0000
     21 ****        -0.4521  -0.9926   2.4082 H              1 S1                 0.0000
     22 ****        -4.8675   3.0439  -1.3499 H              1 S1                 0.0000
     23 ****        -0.1432   0.8004  -1.8392 H              1 S1                 0.0000
     24 ****         3.3042  -0.2531  -1.3386 H              1 S1                 0.0000
     25 ****         3.6782  -0.7831   0.2873 H              1 S1                 0.0000
     26 ****         4.2324  -2.3210  -1.2983 H              1 S1                 0.0000
     27 ****         2.1030  -0.7691   2.2766 H              1 S1                 0.0000
     28 ****        -2.1220  -1.0333   0.8341 H              1 S1                 0.0000
     29 ****        -4.1559   2.8197  -2.9561 LP             1 S1                 0.0000
     30 ****        -1.9657   1.7779  -3.0549 LP             1 S1                 0.0000
     31 ****         1.9634   0.8646   0.6984 LP             1 S1                 0.0000
     32 ****         1.0977   1.0344  -0.6758 LP             1 S1                 0.0000
     33 ****         2.7655  -2.4336  -1.9029 LP             1 S1                 0.0000
     34 ****         3.0923  -2.9610  -0.3924 LP             1 S1                 0.0000
     35 ****         2.8022  -2.1029   1.7626 LP             1 S1                 0.0000
     36 ****         1.5557  -2.1624   2.8159 LP             1 S1                 0.0000
     37 ****        -1.4937  -2.4859   1.0049 LP             1 S1                 0.0000
     38 ****        -1.1724  -1.5847  -0.3184 LP             1 S1                 0.0000
     39 ****        -1.4900   1.0936   2.4798 LP             1 S1                 0.0000
     40 ****        -3.0455   1.8549   2.5063 LP             1 S1                 0.0000
     41 ****        -4.0495   2.5234   0.5066 LP             1 S1                 0.0000
@<TRIPOS>BOND
    1    1    2 2     
    2    1   22 1     
    3    2   17 1     
    4    2    3 1     
    5    3    4 2     
    6    4    5 1     
    7    4   23 1     
    8    5    6 1     
    9    5   15 am    
   10    6   18 1     
   11    6   13 1     
   12    6    7 1     
   13    7    8 1     
   14    8   19 1     
   15    8    9 1     
   16    8   11 1     
   17    9   10 1     
   18    9   24 1     
   19    9   25 1     
   20   10   26 1     
   21   11   20 1     
   22   11   12 1     
   23   11   13 1     
   24   12   27 1     
   25   13   21 1     
   26   13   14 1     
   27   14   28 1     
   28   15   16 2     
   29   15   17 1     
   30    1   29 1     
   31    3   30 1     
   32    7   31 1     
   33    7   32 1     
   34   10   33 1     
   35   10   34 1     
   36   12   35 1     
   37   12   36 1     
   38   14   37 1     
   39   14   38 1     
   40   16   39 1     
   41   16   40 1     
   42   17   41 1     
@<TRIPOS>SUBSTRUCTURE
      1 S1             1
@<TRIPOS>SET
LONE_PAIRS      STATIC     ATOMS    <user>   **** ""
13 29 30 31 32 33 34 35 36 37 38 39 40 41
DONOR_HYDROGENS      STATIC     ATOMS    <user>   **** ""
4 22 26 27 28
ATOM$BLUE        STATIC     ATOMS    COLORGROUP SYSTEM
13 29 30 31 32 33 34 35 36 37 38 39 40 41
ATOM$RED        STATIC     ATOMS    COLORGROUP SYSTEM
4 22 26 27 28
