AV-unprocessed.smi:61|AV-procd|sdf|597|dock9
  -GOLD-   2262016493D 1   1.00000     0.00000
 Structure written by MMmdl.
 28 29  0  0  0  0  0  0  0  0  1 V2000
  149.9798  142.2373  156.0362 N   0  0  0  0  0  0  0  0  0  0  0  0
  150.7316  141.6184  157.0044 C   0  0  0  0  0  0  0  0  0  0  0  0
  150.8762  140.2976  156.8943 N   0  0  0  0  0  0  0  0  0  0  0  0
  151.6166  139.6914  157.8463 C   0  0  0  0  0  0  0  0  0  0  0  0
  152.2067  140.4144  158.9026 C   0  0  0  0  0  0  0  0  0  0  0  0
  151.9875  141.8126  158.9227 C   0  0  0  0  0  0  0  0  0  0  0  0
  152.5372  142.6118  159.9475 N   0  0  0  0  0  0  0  0  0  0  0  0
  153.4052  141.9440  160.9123 C   0  0  0  0  0  0  0  0  0  0  0  0
  153.1269  142.6011  162.2669 C   0  0  0  0  0  0  0  0  0  0  0  0
  152.5317  143.9545  161.8949 C   0  0  0  0  0  0  0  0  0  0  0  0
  151.7453  143.6429  160.6169 C   0  0  1  0  0  0  0  0  0  0  0  0
  151.5038  144.8866  159.7372 C   0  0  0  0  0  0  0  0  0  0  0  0
  150.8214  145.8772  160.4760 O   0  0  0  0  0  0  0  0  0  0  0  0
  151.2411  142.4019  157.9564 N   0  0  0  0  0  0  0  0  0  0  0  0
  149.8336  143.2360  156.0641 H   0  0  0  0  0  0  0  0  0  0  0  0
  149.5386  141.6952  155.3080 H   0  0  0  0  0  0  0  0  0  0  0  0
  151.7408  138.6219  157.7648 H   0  0  0  0  0  0  0  0  0  0  0  0
  152.8012  139.9138  159.6523 H   0  0  0  0  0  0  0  0  0  0  0  0
  153.2302  140.8682  160.9606 H   0  0  0  0  0  0  0  0  0  0  0  0
  154.4419  142.1050  160.6150 H   0  0  0  0  0  0  0  0  0  0  0  0
  152.3871  142.0152  162.8139 H   0  0  0  0  0  0  0  0  0  0  0  0
  154.0182  142.6832  162.8893 H   0  0  0  0  0  0  0  0  0  0  0  0
  151.9079  144.3749  162.6843 H   0  0  0  0  0  0  0  0  0  0  0  0
  153.3354  144.6624  161.6868 H   0  0  0  0  0  0  0  0  0  0  0  0
  150.7870  143.2029  160.8979 H   0  0  0  0  0  0  0  0  0  0  0  0
  152.4472  145.2944  159.3721 H   0  0  0  0  0  0  0  0  0  0  0  0
  150.9012  144.6474  158.8617 H   0  0  0  0  0  0  0  0  0  0  0  0
  150.7265  145.5749  161.3662 H   0  0  0  0  0  0  0  0  0  0  0  0
  1  2  1  0  0  0  0
  1 15  1  0  0  0  0
  1 16  1  0  0  0  0
  2 14  1  0  0  0  0
  2  3  2  0  0  0  0
  3  4  1  0  0  0  0
  4  5  2  0  0  0  0
  4 17  1  0  0  0  0
  5  6  1  0  0  0  0
  5 18  1  0  0  0  0
  6  7  1  0  0  0  0
  6 14  2  0  0  0  0
  7 11  1  0  0  0  0
  7  8  1  0  0  0  0
  8  9  1  0  0  0  0
  8 19  1  0  0  0  0
  8 20  1  0  0  0  0
  9 10  1  0  0  0  0
  9 21  1  0  0  0  0
  9 22  1  0  0  0  0
 10 11  1  0  0  0  0
 10 23  1  0  0  0  0
 10 24  1  0  0  0  0
 11 12  1  0  0  0  0
 11 25  1  0  0  0  0
 12 13  1  0  0  0  0
 12 26  1  0  0  0  0
 12 27  1  0  0  0  0
 13 28  1  0  0  0  0
M  END
> <s_m_source_file>
AV-unprocessed.smi

> <i_m_source_file_index>
61

> <i_lp_mmshare_version>
43012

> <i_f3d_flags>
0

> <s_epik_input>
W05IMl1jMW5bY0hdW2NIXWMobjEpTjJbQ0gyXVtDSDJdW0NIMl1bQ0BIXTJbQ0gyXVtPSF0=

> <s_epik_cmdline>
J2VwaWtfcHl0aG9uJywgJy1waCcsICc3LjAnLCAnLXRuJywgJzgnLCAnLW1hJywgJzIwMCcsICctbWV0YWxfYmluZGluZycsICctaW1hZScsICc8aW5maWxlLm1hZT4nLCAnLW9tYWUnLCAnPG91dGZpbGUubWFlPic=

> <r_lp_tautomer_probability>
1

> <r_epik_Ionization_Penalty>
0.76024

> <r_epik_Ionization_Penalty_Charging>
0

> <r_epik_Ionization_Penalty_Neutral>
0.76024

> <r_epik_State_Penalty>
0.587668

> <r_epik_Charging_Adjusted_Penalty>
0.587668

> <i_epik_Tot_Q>
0

> <i_epik_Tot_abs_Q>
0

> <r_epik_Metal_State_Penalty>
0.307814

> <b_epik_Metal_Only>
0

> <s_lp_Force_Field>
OPLS_2005

> <r_lp_Energy>
20.8196

> <b_lp_Chiralities_Consistent>
1

> <s_lp_Variant>
AV-unprocessed.smi:61-3

> <Gold.Version>
5.8.1

> <Gold.Id.Protein>
6NUR|6NUR_protein|mol2

> <Gold.PLP.Fitness>
36.6748

> <Gold.PLP.PLP>
-33.7761

> <Gold.PLP.part.hbond>
-3.1809

> <Gold.PLP.part.metal>
0.0000

> <Gold.PLP.part.buried>
-6.5441

> <Gold.PLP.part.nonpolar>
-23.8296

> <Gold.PLP.part.repulsive>
0.1802

> <Gold.PLP.ligand.clash>
0.0000

> <Gold.PLP.ligand.torsion>
0.2163

> <Gold.PLP.Chemscore.Hbond>
0.9920

> <Gold.PLP.Chemscore.CHOScore>
0.0000

> <Gold.PLP.Chemscore.Metal>
0.0000

> <Gold.Chemscore.Hbonds>
donor molecule, donor type, donor heavy atom, donor atom, acceptor molecule, acceptor atom, score
      L1  H     1    15       P1  8028  1.00

> <Gold.PLP.Chemscore.Internal.Correction>
0.3552

> <Gold.Rescore>
     Score         DG    S(hbond)    S(metal)    S(lipo)     H(rot)  DE(clash)    DE(int)     intcor
     10.81     -11.91       0.99        0.00      69.36       1.96       0.05       1.05       ----

> <Gold.Chemscore.Fitness>
10.8078

> <Gold.Chemscore.DG>
-11.9066

> <Gold.Chemscore.ZeroCoef>
-5.4800

> <Gold.Chemscore.Hbond>
0.9937

> <Gold.Chemscore.Metal>
0.0000

> <Gold.Chemscore.Lipo>
69.3615

> <Gold.Chemscore.Internal_Hbond>
0.0000

> <Gold.Chemscore.DEClash>
0.0509

> <Gold.Chemscore.DEInternal>
1.0480

> <Gold.Chemscore.Rot>
1.9561

> <Gold.Chemscore.Internal.Correction>
   9.000000E+99

> <Gold.Chemscore.Hbonds>
donor molecule, donor type, donor heavy atom, donor atom, acceptor molecule, acceptor atom, score
      L1  H     1    15       P1  8028  0.96

> <Gold.Chemscore.Hbond.Weighted>
-3.3190

> <Gold.Chemscore.Metal.Weighted>
-0.0000

> <Gold.Chemscore.Lipo.Weighted>
-8.1153

> <Gold.Chemscore.Internal_Hbond.Weighted>
0.0000

> <Gold.Chemscore.DEClash.Weighted>
0.0509

> <Gold.Chemscore.DEInternal.Weighted>
1.0480

> <Gold.Chemscore.Rot.Weighted>
5.0077

> <Gold.Chemscore.Internal.Correction.Weighted>
   9.000000E+99

> <Gold.Protein.RotatedTorsions>
[ 6907 6896 6895 6894 ] final  114.65 input  -60.11 | X-H torsion
[ 7974 7965 7964 7962 ] final   -4.36 input  175.53 | X-H torsion
[ 8008 7997 7996 7995 ] final  -64.11 input   59.86 | X-H torsion
[ 10167 10162 10161 10158 ] final  -91.30 input  -65.29 | X-H torsion
[ 10718 10713 10712 10709 ] final   80.97 input   66.30 | X-H torsion
[ 10763 10752 10751 10750 ] final  178.76 input  -60.55 | X-H torsion
[ 11005 11000 10999 10996 ] final   15.86 input  -57.11 | X-H torsion

> <Gold.Protein.ActiveResidues>
 VAL166  LYS551  ARG553  GLY616  TRP617  ASP618  TYR619  PRO620  LYS621  CYS622 
 ASP623  PHE694  ASN695  SER759  ASP760  ASP761  ALA762  ILE779  LEU786  VAL792 
 PHE793  MET794  SER795  GLU796  ALA797  LYS798  CYS799  TRP800  GLU811  SER814 

> <Gold.Protein.RotatedAtoms>
  152.4789  133.8206  159.7051 H   0  0  0  0  0  0  0  0  0  0  0  0  # atno 6907 bound_to 6896
  150.8825  133.7343  159.2934 H   0  0  0  0  0  0  0  0  0  0  0  0  # atno 6908 bound_to 6896
  151.4842  135.1057  159.9838 H   0  0  0  0  0  0  0  0  0  0  0  0  # atno 6909 bound_to 6896
  146.2373  140.1860  142.8332 H   0  0  0  0  0  0  0  0  0  0  0  0  # atno 7974 bound_to 7965
  154.4593  140.0960  156.6847 H   0  0  0  0  0  0  0  0  0  0  0  0  # atno 8008 bound_to 7997
  155.5043  140.3474  155.4358 H   0  0  0  0  0  0  0  0  0  0  0  0  # atno 8009 bound_to 7997
  156.0839  140.1380  156.9666 H   0  0  0  0  0  0  0  0  0  0  0  0  # atno 8010 bound_to 7997
  140.3462  143.2915  151.9778 H   0  0  0  0  0  0  0  0  0  0  0  0  # atno 10167 bound_to 10162
  157.6820  130.9983  150.2157 H   0  0  0  0  0  0  0  0  0  0  0  0  # atno 10718 bound_to 10713
  154.5118  135.2789  155.1336 H   0  0  0  0  0  0  0  0  0  0  0  0  # atno 10763 bound_to 10752
  154.2928  135.6263  153.5396 H   0  0  0  0  0  0  0  0  0  0  0  0  # atno 10764 bound_to 10752
  152.9920  135.5678  154.5586 H   0  0  0  0  0  0  0  0  0  0  0  0  # atno 10765 bound_to 10752
  140.4536  134.1199  155.7706 H   0  0  0  0  0  0  0  0  0  0  0  0  # atno 11005 bound_to 11000
  144.9896  140.8534  143.5347 LP  0  0  0  0  0  0  0  0  0  0  0  0  # atno 17320 bound_to 7965
  145.1864  139.2324  143.5265 LP  0  0  0  0  0  0  0  0  0  0  0  0  # atno 17321 bound_to 7965
  139.4833  144.6114  151.7426 LP  0  0  0  0  0  0  0  0  0  0  0  0  # atno 17342 bound_to 10162
  140.5262  144.0802  150.6038 LP  0  0  0  0  0  0  0  0  0  0  0  0  # atno 17343 bound_to 10162
  156.2819  130.3734  149.7927 LP  0  0  0  0  0  0  0  0  0  0  0  0  # atno 17370 bound_to 10713
  156.5613  130.8384  151.3329 LP  0  0  0  0  0  0  0  0  0  0  0  0  # atno 17371 bound_to 10713
  141.1653  133.8714  157.1732 LP  0  0  0  0  0  0  0  0  0  0  0  0  # atno 17394 bound_to 11000
  139.9991  135.0035  157.0149 LP  0  0  0  0  0  0  0  0  0  0  0  0  # atno 17395 bound_to 11000

$$$$
