AV-unprocessed.smi:2607|AV-procd|sdf|10198|dock1
  -GOLD-   2272014213D 1   1.00000     0.00000
 Structure written by MMmdl.
 22 23  0  0  0  0  0  0  0  0  1 V2000
  147.1712  137.3651  155.4114 C   0  0  0  0  0  0  0  0  0  0  0  0
  147.5477  138.5892  154.5545 C   0  0  1  0  0  0  0  0  0  0  0  0
  148.7783  139.3233  155.1116 C   0  0  0  0  0  0  0  0  0  0  0  0
  149.9679  139.4949  154.3585 C   0  0  0  0  0  0  0  0  0  0  0  0
  151.0468  140.1395  154.8559 N   0  0  0  0  0  0  0  0  0  0  0  0
  150.9414  140.6154  156.1154 C   0  0  0  0  0  0  0  0  0  0  0  0
  149.7657  140.4462  156.8748 C   0  0  0  0  0  0  0  0  0  0  0  0
  148.6877  139.8014  156.3781 N   0  0  0  0  0  0  0  0  0  0  0  0
  147.7012  138.1870  153.1615 N   0  0  0  0  0  0  0  0  0  0  0  0
  146.8601  138.8198  152.3333 C   0  0  0  0  0  0  0  0  0  0  0  0
  146.8090  138.6843  151.1134 O   0  0  0  0  0  0  0  0  0  0  0  0
  146.0807  139.6142  153.0710 N   0  0  0  0  0  0  0  0  0  0  0  0
  146.3656  139.5419  154.3698 C   0  0  0  0  0  0  0  0  0  0  0  0
  145.7761  140.1255  155.2783 O   0  0  0  0  0  0  0  0  0  0  0  0
  146.9745  137.6455  156.4468 H   0  0  0  0  0  0  0  0  0  0  0  0
  147.9770  136.6303  155.4180 H   0  0  0  0  0  0  0  0  0  0  0  0
  146.2767  136.8680  155.0327 H   0  0  0  0  0  0  0  0  0  0  0  0
  150.0697  139.1186  153.3518 H   0  0  0  0  0  0  0  0  0  0  0  0
  151.7988  141.1323  156.5203 H   0  0  0  0  0  0  0  0  0  0  0  0
  149.6897  140.8281  157.8819 H   0  0  0  0  0  0  0  0  0  0  0  0
  148.3992  137.5225  152.8605 H   0  0  0  0  0  0  0  0  0  0  0  0
  145.3439  140.1893  152.6893 H   0  0  0  0  0  0  0  0  0  0  0  0
  1  2  1  0  0  0  0
  1 15  1  0  0  0  0
  1 16  1  0  0  0  0
  1 17  1  0  0  0  0
  2 13  1  0  0  0  0
  2  3  1  0  0  0  0
  2  9  1  0  0  0  0
  3  8  1  0  0  0  0
  3  4  2  0  0  0  0
  4  5  1  0  0  0  0
  4 18  1  0  0  0  0
  5  6  2  0  0  0  0
  6  7  1  0  0  0  0
  6 19  1  0  0  0  0
  7  8  2  0  0  0  0
  7 20  1  0  0  0  0
  9 10  1  0  0  0  0
  9 21  1  0  0  0  0
 10 11  2  0  0  0  0
 10 12  1  0  0  0  0
 12 13  1  0  0  0  0
 12 22  1  0  0  0  0
 13 14  2  0  0  0  0
M  END
> <s_m_source_file>
AV-unprocessed.smi

> <i_m_source_file_index>
2607

> <i_lp_mmshare_version>
43012

> <i_f3d_flags>
0

> <s_epik_input>
Tz1DMVtOSF1DKD1PKVtOSF1bQ0BAXTEoW0NIM10pYzJbY0hdbltjSF1bY0hdbjI=

> <s_epik_cmdline>
J2VwaWtfcHl0aG9uJywgJy1waCcsICc3LjAnLCAnLXRuJywgJzgnLCAnLW1hJywgJzIwMCcsICctbWV0YWxfYmluZGluZycsICctaW1hZScsICc8aW5maWxlLm1hZT4nLCAnLW9tYWUnLCAnPG91dGZpbGUubWFlPic=

> <r_lp_tautomer_probability>
1

> <r_epik_Ionization_Penalty>
0.0333762

> <r_epik_Ionization_Penalty_Charging>
0

> <r_epik_Ionization_Penalty_Neutral>
0.0333762

> <r_epik_State_Penalty>
0.027503

> <r_epik_Charging_Adjusted_Penalty>
0.027503

> <i_epik_Tot_Q>
0

> <i_epik_Tot_abs_Q>
0

> <r_epik_Metal_State_Penalty>
0.445281

> <b_epik_Metal_Only>
0

> <s_lp_Force_Field>
OPLS_2005

> <r_lp_Energy>
24.1998

> <b_lp_Chiralities_Consistent>
1

> <s_lp_Variant>
AV-unprocessed.smi:2607-1

> <Gold.Version>
5.8.1

> <Gold.Id.Protein>
6NUR|6NUR_protein|mol2

> <Gold.PLP.Fitness>
32.5179

> <Gold.PLP.PLP>
-17.5480

> <Gold.PLP.part.hbond>
-4.1197

> <Gold.PLP.part.metal>
0.0000

> <Gold.PLP.part.buried>
-3.1349

> <Gold.PLP.part.nonpolar>
-11.3598

> <Gold.PLP.part.repulsive>
0.9100

> <Gold.PLP.ligand.clash>
0.0000

> <Gold.PLP.ligand.torsion>
0.0620

> <Gold.PLP.Chemscore.Hbond>
3.9920

> <Gold.PLP.Chemscore.CHOScore>
1.0000

> <Gold.PLP.Chemscore.Metal>
0.0000

> <Gold.Chemscore.Hbonds>
donor molecule, donor type, donor heavy atom, donor atom, acceptor molecule, acceptor atom, score
      L1  H     9    21       P1  7948  1.00
      L1  H    12    22       P1 10175  0.99
      P1  H  7954  7966       L1    11  0.99
      P1  H  7989  7998       L1     5  1.00
      L1  C     4    18       P1  7957  1.00

> <Gold.PLP.Chemscore.Internal.Correction>
0.1177

> <Gold.Rescore>
     Score         DG    S(hbond)    S(metal)    S(lipo)     H(rot)  DE(clash)    DE(int)     intcor
     17.53     -17.91       3.68        0.00      23.21       1.00       0.24       0.14       ----

> <Gold.Chemscore.Fitness>
17.5303

> <Gold.Chemscore.DG>
-17.9102

> <Gold.Chemscore.ZeroCoef>
-5.4800

> <Gold.Chemscore.Hbond>
3.6752

> <Gold.Chemscore.Metal>
0.0000

> <Gold.Chemscore.Lipo>
23.2062

> <Gold.Chemscore.Internal_Hbond>
0.0000

> <Gold.Chemscore.DEClash>
0.2408

> <Gold.Chemscore.DEInternal>
0.1392

> <Gold.Chemscore.Rot>
1.0000

> <Gold.Chemscore.Internal.Correction>
   9.000000E+99

> <Gold.Chemscore.Hbonds>
donor molecule, donor type, donor heavy atom, donor atom, acceptor molecule, acceptor atom, score
      L1  H     9    21       P1  7948  0.97
      L1  H    12    22       P1 10175  0.89
      P1  H  7954  7966       L1    11  0.90
      P1  H  7989  7998       L1     5  0.30

> <Gold.Chemscore.Hbond.Weighted>
-12.2751

> <Gold.Chemscore.Metal.Weighted>
-0.0000

> <Gold.Chemscore.Lipo.Weighted>
-2.7151

> <Gold.Chemscore.Internal_Hbond.Weighted>
0.0000

> <Gold.Chemscore.DEClash.Weighted>
0.2408

> <Gold.Chemscore.DEInternal.Weighted>
0.1392

> <Gold.Chemscore.Rot.Weighted>
2.5600

> <Gold.Chemscore.Internal.Correction.Weighted>
   9.000000E+99

> <Gold.Protein.RotatedTorsions>
[ 6907 6896 6895 6894 ] final   85.43 input  -60.11 | X-H torsion
[ 7974 7965 7964 7962 ] final -109.49 input  175.53 | X-H torsion
[ 8008 7997 7996 7995 ] final -148.64 input   59.86 | X-H torsion
[ 10167 10162 10161 10158 ] final -160.07 input  -65.29 | X-H torsion
[ 10718 10713 10712 10709 ] final -119.16 input   66.30 | X-H torsion
[ 10763 10752 10751 10750 ] final   44.90 input  -60.55 | X-H torsion
[ 11005 11000 10999 10996 ] final  -87.90 input  -57.11 | X-H torsion

> <Gold.Protein.ActiveResidues>
 VAL166  LYS551  ARG553  GLY616  TRP617  ASP618  TYR619  PRO620  LYS621  CYS622 
 ASP623  PHE694  ASN695  SER759  ASP760  ASP761  ALA762  ILE779  LEU786  VAL792 
 PHE793  MET794  SER795  GLU796  ALA797  LYS798  CYS799  TRP800  GLU811  SER814 

> <Gold.Protein.RotatedAtoms>
  152.5374  134.2587  159.8926 H   0  0  0  0  0  0  0  0  0  0  0  0  # atno 6907 bound_to 6896
  151.2548  133.4325  159.2621 H   0  0  0  0  0  0  0  0  0  0  0  0  # atno 6908 bound_to 6896
  151.0506  134.9685  159.8266 H   0  0  0  0  0  0  0  0  0  0  0  0  # atno 6909 bound_to 6896
  145.1799  140.8966  143.3486 H   0  0  0  0  0  0  0  0  0  0  0  0  # atno 7974 bound_to 7965
  155.5948  140.0656  157.2749 H   0  0  0  0  0  0  0  0  0  0  0  0  # atno 8008 bound_to 7997
  154.4295  140.1829  156.1159 H   0  0  0  0  0  0  0  0  0  0  0  0  # atno 8009 bound_to 7997
  156.0205  140.3317  155.7037 H   0  0  0  0  0  0  0  0  0  0  0  0  # atno 8010 bound_to 7997
  139.6567  143.9986  152.2198 H   0  0  0  0  0  0  0  0  0  0  0  0  # atno 10167 bound_to 10162
  156.1160  130.6286  150.9381 H   0  0  0  0  0  0  0  0  0  0  0  0  # atno 10718 bound_to 10713
  152.9833  135.6056  154.3349 H   0  0  0  0  0  0  0  0  0  0  0  0  # atno 10763 bound_to 10752
  154.3050  135.2772  155.2595 H   0  0  0  0  0  0  0  0  0  0  0  0  # atno 10764 bound_to 10752
  154.4830  135.5912  153.6459 H   0  0  0  0  0  0  0  0  0  0  0  0  # atno 10765 bound_to 10752
  141.1610  133.7538  156.9374 H   0  0  0  0  0  0  0  0  0  0  0  0  # atno 11005 bound_to 11000
  145.0147  139.3478  143.6102 LP  0  0  0  0  0  0  0  0  0  0  0  0  # atno 17320 bound_to 7965
  146.3455  139.9424  142.8739 LP  0  0  0  0  0  0  0  0  0  0  0  0  # atno 17321 bound_to 7965
  139.9714  144.6491  150.7985 LP  0  0  0  0  0  0  0  0  0  0  0  0  # atno 17342 bound_to 10162
  140.7562  143.3061  151.2958 LP  0  0  0  0  0  0  0  0  0  0  0  0  # atno 17343 bound_to 10162
  157.6343  131.0918  150.8380 LP  0  0  0  0  0  0  0  0  0  0  0  0  # atno 17370 bound_to 10713
  156.8483  130.5071  149.5314 LP  0  0  0  0  0  0  0  0  0  0  0  0  # atno 17371 bound_to 10713
  140.1345  134.9334  157.2383 LP  0  0  0  0  0  0  0  0  0  0  0  0  # atno 17394 bound_to 11000
  140.2912  134.3238  155.7315 LP  0  0  0  0  0  0  0  0  0  0  0  0  # atno 17395 bound_to 11000

$$$$
