AV-unprocessed.smi:72|AV-procd|sdf|702|dock3
  -GOLD-   2262017 23D 1   1.00000     0.00000
 Structure written by MMmdl.
 30 31  0  0  0  0  0  0  0  0  2 V2000
  151.2615  144.6583  158.8045 N   0  0  0  0  0  0  0  0  0  0  0  0
  151.0853  143.3556  158.3865 C   0  0  0  0  0  0  0  0  0  0  0  0
  150.3317  143.1418  157.2469 N   0  3  0  0  0  0  0  0  0  0  0  0
  150.0903  141.9431  156.6999 C   0  0  0  0  0  0  0  0  0  0  0  0
  150.6327  140.8691  157.2360 N   0  0  0  0  0  0  0  0  0  0  0  0
  150.3427  139.5104  156.6460 C   0  0  1  0  0  0  0  0  0  0  0  0
  149.0261  139.5382  156.1963 O   0  0  0  0  0  0  0  0  0  0  0  0
  148.9374  138.8322  154.9662 C   0  0  1  0  0  0  0  0  0  0  0  0
  147.7146  139.3154  154.1712 C   0  0  0  0  0  0  0  0  0  0  0  0
  147.7491  138.7867  152.8631 O   0  0  0  0  0  0  0  0  0  0  0  0
  150.2745  139.1480  154.2868 C   0  0  2  0  0  0  0  0  0  0  0  0
  150.6059  138.1359  153.3575 O   0  0  0  0  0  0  0  0  0  0  0  0
  151.2553  139.1533  155.4534 C   0  0  1  0  0  0  0  0  0  0  0  0
  152.3251  140.0559  155.2357 O   0  0  0  0  0  0  0  0  0  0  0  0
  151.3395  140.9793  158.4624 C   0  0  0  0  0  0  0  0  0  0  0  0
  151.7600  139.9796  159.0424 O   0  0  0  0  0  0  0  0  0  0  0  0
  151.5435  142.2761  158.9573 N   0  0  0  0  0  0  0  0  0  0  0  0
  150.4454  138.7715  157.4404 H   0  0  0  0  0  0  0  0  0  0  0  0
  148.8750  137.7623  155.1774 H   0  0  0  0  0  0  0  0  0  0  0  0
  150.2352  140.1224  153.7974 H   0  0  0  0  0  0  0  0  0  0  0  0
  151.6537  138.1525  155.6296 H   0  0  0  0  0  0  0  0  0  0  0  0
  151.7868  144.9077  159.6308 H   0  0  0  0  0  0  0  0  0  0  0  0
  150.8907  145.4627  158.3192 H   0  0  0  0  0  0  0  0  0  0  0  0
  149.4384  141.8707  155.8386 H   0  0  0  0  0  0  0  0  0  0  0  0
  146.7830  139.0442  154.6687 H   0  0  0  0  0  0  0  0  0  0  0  0
  147.7297  140.4021  154.0826 H   0  0  0  0  0  0  0  0  0  0  0  0
  148.3550  139.2964  152.3471 H   0  0  0  0  0  0  0  0  0  0  0  0
  149.8076  137.7885  152.9900 H   0  0  0  0  0  0  0  0  0  0  0  0
  153.1379  139.5739  155.2670 H   0  0  0  0  0  0  0  0  0  0  0  0
  149.9287  143.9524  156.7988 H   0  0  0  0  0  0  0  0  0  0  0  0
  1  2  1  0  0  0  0
  1 22  1  0  0  0  0
  1 23  1  0  0  0  0
  2 17  2  0  0  0  0
  2  3  1  0  0  0  0
  3  4  2  0  0  0  0
  3 30  1  0  0  0  0
  4  5  1  0  0  0  0
  4 24  1  0  0  0  0
  5  6  1  0  0  0  0
  5 15  1  0  0  0  0
  6 18  1  0  0  0  0
  6 13  1  0  0  0  0
  6  7  1  0  0  0  0
  7  8  1  0  0  0  0
  8 19  1  0  0  0  0
  8  9  1  0  0  0  0
  8 11  1  0  0  0  0
  9 10  1  0  0  0  0
  9 25  1  0  0  0  0
  9 26  1  0  0  0  0
 10 27  1  0  0  0  0
 11 20  1  0  0  0  0
 11 12  1  0  0  0  0
 11 13  1  0  0  0  0
 12 28  1  0  0  0  0
 13 21  1  0  0  0  0
 13 14  1  0  0  0  0
 14 29  1  0  0  0  0
 15 16  2  0  0  0  0
 15 17  1  0  0  0  0
M  CHG  1   3   1
M  END
> <s_m_source_file>
AV-unprocessed.smi

> <i_m_source_file_index>
72

> <i_lp_mmshare_version>
43012

> <i_f3d_flags>
0

> <s_epik_input>
W05IMl1jMW5bY0hdbihjKD1PKW4xKVtDQEBIXTJPW0NASF0oW0NIMl1bT0hdKVtDQEBIXShbT0hdKVtDQEhdMltPSF0=

> <s_epik_cmdline>
J2VwaWtfcHl0aG9uJywgJy1waCcsICc3LjAnLCAnLXRuJywgJzgnLCAnLW1hJywgJzIwMCcsICctbWV0YWxfYmluZGluZycsICctaW1hZScsICc8aW5maWxlLm1hZT4nLCAnLW9tYWUnLCAnPG91dGZpbGUubWFlPic=

> <r_lp_tautomer_probability>
4.77166e-05

> <r_epik_Ionization_Penalty>
0.104979

> <r_epik_Ionization_Penalty_Charging>
0.0999619

> <r_epik_Ionization_Penalty_Neutral>
0.00501745

> <r_epik_State_Penalty>
2.51541

> <r_epik_Charging_Adjusted_Penalty>
2.61537

> <i_epik_Tot_Q>
1

> <i_epik_Tot_abs_Q>
1

> <r_epik_Metal_State_Penalty>
3.53763

> <b_epik_Metal_Only>
0

> <s_epik_Chemistry_Notes>
This compound contains an acetal/aminal-like group ( X-CH(R)-Y where X, Y are N, S, or O) that may be acid/base labile, releasing an aldehyde.

> <s_lp_Force_Field>
OPLS_2005

> <r_lp_Energy>
34.1778

> <b_lp_Chiralities_Consistent>
1

> <s_lp_Variant>
AV-unprocessed.smi:72-40

> <Gold.Version>
5.8.1

> <Gold.Id.Protein>
6NUR|6NUR_protein|mol2

> <Gold.PLP.Fitness>
36.6388

> <Gold.PLP.PLP>
-24.2543

> <Gold.PLP.part.hbond>
-7.0245

> <Gold.PLP.part.metal>
0.0000

> <Gold.PLP.part.buried>
-3.8654

> <Gold.PLP.part.nonpolar>
-14.7520

> <Gold.PLP.part.repulsive>
0.1132

> <Gold.PLP.ligand.clash>
0.0000

> <Gold.PLP.ligand.torsion>
0.5928

> <Gold.PLP.Chemscore.Hbond>
4.4552

> <Gold.PLP.Chemscore.CHOScore>
0.0203

> <Gold.PLP.Chemscore.Metal>
0.0000

> <Gold.Chemscore.Hbonds>
donor molecule, donor type, donor heavy atom, donor atom, acceptor molecule, acceptor atom, score
      L1  H     3    30       P1  8028  2.00
      L1  H    10    27       P1  7957  1.00
      L1  H    12    28       P1  7948  0.82
      P1  H  7989  7998       L1    14  0.62
      L1  C     4    24       P1  8028  0.02

> <Gold.PLP.Chemscore.Internal.Correction>
0.1435

> <Gold.Rescore>
     Score         DG    S(hbond)    S(metal)    S(lipo)     H(rot)  DE(clash)    DE(int)     intcor
      6.19      -7.14       2.84        0.00      22.22       4.08       0.17       0.78       ----

> <Gold.Chemscore.Fitness>
6.1870

> <Gold.Chemscore.DG>
-7.1378

> <Gold.Chemscore.ZeroCoef>
-5.4800

> <Gold.Chemscore.Hbond>
2.8438

> <Gold.Chemscore.Metal>
0.0000

> <Gold.Chemscore.Lipo>
22.2226

> <Gold.Chemscore.Internal_Hbond>
0.0000

> <Gold.Chemscore.DEClash>
0.1661

> <Gold.Chemscore.DEInternal>
0.7847

> <Gold.Chemscore.Rot>
4.0783

> <Gold.Chemscore.Internal.Correction>
   9.000000E+99

> <Gold.Chemscore.Hbonds>
donor molecule, donor type, donor heavy atom, donor atom, acceptor molecule, acceptor atom, score
      L1  H     3    30       P1  8028  0.96
      L1  H    10    27       P1  7957  1.00
      L1  H    12    28       P1  7948  0.38
      P1  H  7989  7998       L1    14  0.13

> <Gold.Chemscore.Hbond.Weighted>
-9.4982

> <Gold.Chemscore.Metal.Weighted>
-0.0000

> <Gold.Chemscore.Lipo.Weighted>
-2.6000

> <Gold.Chemscore.Internal_Hbond.Weighted>
0.0000

> <Gold.Chemscore.DEClash.Weighted>
0.1661

> <Gold.Chemscore.DEInternal.Weighted>
0.7847

> <Gold.Chemscore.Rot.Weighted>
10.4404

> <Gold.Chemscore.Internal.Correction.Weighted>
   9.000000E+99

> <Gold.Protein.RotatedTorsions>
[ 6907 6896 6895 6894 ] final    3.57 input  -60.11 | X-H torsion
[ 7974 7965 7964 7962 ] final  143.42 input  175.53 | X-H torsion
[ 8008 7997 7996 7995 ] final  -40.56 input   59.86 | X-H torsion
[ 10167 10162 10161 10158 ] final -150.04 input  -65.29 | X-H torsion
[ 10718 10713 10712 10709 ] final  168.79 input   66.30 | X-H torsion
[ 10763 10752 10751 10750 ] final  -40.51 input  -60.55 | X-H torsion
[ 11005 11000 10999 10996 ] final   16.62 input  -57.11 | X-H torsion

> <Gold.Protein.ActiveResidues>
 VAL166  LYS551  ARG553  GLY616  TRP617  ASP618  TYR619  PRO620  LYS621  CYS622 
 ASP623  PHE694  ASN695  SER759  ASP760  ASP761  ALA762  ILE779  LEU786  VAL792 
 PHE793  MET794  SER795  GLU796  ALA797  LYS798  CYS799  TRP800  GLU811  SER814 

> <Gold.Protein.RotatedAtoms>
  151.6273  135.1026  160.0113 H   0  0  0  0  0  0  0  0  0  0  0  0  # atno 6907 bound_to 6896
  152.4126  133.6982  159.6419 H   0  0  0  0  0  0  0  0  0  0  0  0  # atno 6908 bound_to 6896
  150.8015  133.8515  159.3247 H   0  0  0  0  0  0  0  0  0  0  0  0  # atno 6909 bound_to 6896
  144.8922  139.5542  143.5793 H   0  0  0  0  0  0  0  0  0  0  0  0  # atno 7974 bound_to 7965
  154.4011  140.1522  156.3047 H   0  0  0  0  0  0  0  0  0  0  0  0  # atno 8008 bound_to 7997
  155.8669  140.3450  155.5773 H   0  0  0  0  0  0  0  0  0  0  0  0  # atno 8009 bound_to 7997
  155.7817  140.0844  157.2046 H   0  0  0  0  0  0  0  0  0  0  0  0  # atno 8010 bound_to 7997
  139.7389  143.8692  152.2557 H   0  0  0  0  0  0  0  0  0  0  0  0  # atno 10167 bound_to 10162
  157.0320  131.0262  151.2741 H   0  0  0  0  0  0  0  0  0  0  0  0  # atno 10718 bound_to 10713
  153.9472  135.6754  153.4744 H   0  0  0  0  0  0  0  0  0  0  0  0  # atno 10763 bound_to 10752
  153.0902  135.4878  154.8672 H   0  0  0  0  0  0  0  0  0  0  0  0  # atno 10764 bound_to 10752
  154.7345  135.3146  154.8794 H   0  0  0  0  0  0  0  0  0  0  0  0  # atno 10765 bound_to 10752
  140.4451  134.1282  155.7695 H   0  0  0  0  0  0  0  0  0  0  0  0  # atno 11005 bound_to 11000
  146.3060  139.7583  142.9055 LP  0  0  0  0  0  0  0  0  0  0  0  0  # atno 17320 bound_to 7965
  145.3763  141.0351  143.3203 LP  0  0  0  0  0  0  0  0  0  0  0  0  # atno 17321 bound_to 7965
  139.8637  144.7104  150.9069 LP  0  0  0  0  0  0  0  0  0  0  0  0  # atno 17342 bound_to 10162
  140.7783  143.3796  151.1501 LP  0  0  0  0  0  0  0  0  0  0  0  0  # atno 17343 bound_to 10162
  157.5171  130.7974  149.7768 LP  0  0  0  0  0  0  0  0  0  0  0  0  # atno 17370 bound_to 10713
  156.0066  130.3852  150.2408 LP  0  0  0  0  0  0  0  0  0  0  0  0  # atno 17371 bound_to 10713
  141.1689  133.8649  157.1632 LP  0  0  0  0  0  0  0  0  0  0  0  0  # atno 17394 bound_to 11000
  140.0044  135.0014  157.0260 LP  0  0  0  0  0  0  0  0  0  0  0  0  # atno 17395 bound_to 11000

$$$$
