AV-unprocessed.smi:2867|AV-procd|sdf|11023|dock2
  -GOLD-   2272015483D 1   1.00000     0.00000
 Structure written by MMmdl.
 40 42  0  0  0  0  0  0  0  0  1 V2000
  150.2727  145.0102  159.8311 C   0  0  0  0  0  0  0  0  0  0  0  0
  150.5767  144.1231  158.7690 O   0  0  0  0  0  0  0  0  0  0  0  0
  151.8138  144.4266  158.1493 C   0  0  0  0  0  0  0  0  0  0  0  0
  152.1010  143.3755  157.0711 C   0  0  0  0  0  0  0  0  0  0  0  0
  151.3147  142.1709  157.2839 N   0  0  0  0  0  0  0  0  0  0  0  0
  151.3889  141.3055  158.3270 C   0  0  0  0  0  0  0  0  0  0  0  0
  152.3170  141.4474  159.4397 C   0  0  0  0  0  0  0  0  0  0  0  0
  153.4140  140.5699  159.5701 C   0  0  0  0  0  0  0  0  0  0  0  0
  154.3095  140.7147  160.6477 C   0  0  0  0  0  0  0  0  0  0  0  0
  154.1082  141.7335  161.5992 C   0  0  0  0  0  0  0  0  0  0  0  0
  153.0099  142.6067  161.4747 C   0  0  0  0  0  0  0  0  0  0  0  0
  152.8156  143.5851  162.3903 F   0  0  0  0  0  0  0  0  0  0  0  0
  152.1141  142.4629  160.3975 C   0  0  0  0  0  0  0  0  0  0  0  0
  150.5201  140.2932  158.2824 N   0  0  0  0  0  0  0  0  0  0  0  0
  149.8267  140.5234  157.1108 C   0  0  0  0  0  0  0  0  0  0  0  0
  148.7705  139.8011  156.5117 C   0  0  0  0  0  0  0  0  0  0  0  0
  148.2102  140.2494  155.2968 C   0  0  0  0  0  0  0  0  0  0  0  0
  146.8715  139.3251  154.5544 S   0  0  0  0  0  0  0  0  0  0  0  0
  145.6013  140.4840  154.5530 N   0  0  0  0  0  0  0  0  0  0  0  0
  147.2061  139.0256  153.1535 O   0  0  0  0  0  0  0  0  0  0  0  0
  146.4855  138.2509  155.4823 O   0  0  0  0  0  0  0  0  0  0  0  0
  148.6892  141.4152  154.6628 C   0  0  0  0  0  0  0  0  0  0  0  0
  149.7417  142.1449  155.2477 C   0  0  0  0  0  0  0  0  0  0  0  0
  150.3004  141.6961  156.4599 C   0  0  0  0  0  0  0  0  0  0  0  0
  149.3114  144.7418  160.2689 H   0  0  0  0  0  0  0  0  0  0  0  0
  150.2059  146.0405  159.4785 H   0  0  0  0  0  0  0  0  0  0  0  0
  151.0276  144.9573  160.6169 H   0  0  0  0  0  0  0  0  0  0  0  0
  151.7725  145.4218  157.7032 H   0  0  0  0  0  0  0  0  0  0  0  0
  152.6137  144.4301  158.8920 H   0  0  0  0  0  0  0  0  0  0  0  0
  151.8708  143.7758  156.0835 H   0  0  0  0  0  0  0  0  0  0  0  0
  153.1603  143.1206  157.0586 H   0  0  0  0  0  0  0  0  0  0  0  0
  153.5720  139.7865  158.8432 H   0  0  0  0  0  0  0  0  0  0  0  0
  155.1507  140.0443  160.7447 H   0  0  0  0  0  0  0  0  0  0  0  0
  154.7951  141.8441  162.4251 H   0  0  0  0  0  0  0  0  0  0  0  0
  151.2739  143.1358  160.3047 H   0  0  0  0  0  0  0  0  0  0  0  0
  148.3941  138.9091  156.9900 H   0  0  0  0  0  0  0  0  0  0  0  0
  145.0852  140.4655  153.6739 H   0  0  0  0  0  0  0  0  0  0  0  0
  145.9552  141.4190  154.7537 H   0  0  0  0  0  0  0  0  0  0  0  0
  148.2524  141.7539  153.7346 H   0  0  0  0  0  0  0  0  0  0  0  0
  150.1124  143.0402  154.7712 H   0  0  0  0  0  0  0  0  0  0  0  0
  1  2  1  0  0  0  0
  1 25  1  0  0  0  0
  1 26  1  0  0  0  0
  1 27  1  0  0  0  0
  2  3  1  0  0  0  0
  3  4  1  0  0  0  0
  3 28  1  0  0  0  0
  3 29  1  0  0  0  0
  4  5  1  0  0  0  0
  4 30  1  0  0  0  0
  4 31  1  0  0  0  0
  5 24  1  0  0  0  0
  5  6  1  0  0  0  0
  6  7  1  0  0  0  0
  6 14  2  0  0  0  0
  7 13  1  0  0  0  0
  7  8  2  0  0  0  0
  8  9  1  0  0  0  0
  8 32  1  0  0  0  0
  9 10  2  0  0  0  0
  9 33  1  0  0  0  0
 10 11  1  0  0  0  0
 10 34  1  0  0  0  0
 11 12  1  0  0  0  0
 11 13  2  0  0  0  0
 13 35  1  0  0  0  0
 14 15  1  0  0  0  0
 15 24  2  0  0  0  0
 15 16  1  0  0  0  0
 16 17  2  0  0  0  0
 16 36  1  0  0  0  0
 17 18  1  0  0  0  0
 17 22  1  0  0  0  0
 18 19  1  0  0  0  0
 18 20  2  0  0  0  0
 18 21  2  0  0  0  0
 19 37  1  0  0  0  0
 19 38  1  0  0  0  0
 22 23  2  0  0  0  0
 22 39  1  0  0  0  0
 23 24  1  0  0  0  0
 23 40  1  0  0  0  0
M  END
> <s_m_source_file>
AV-unprocessed.smi

> <i_m_source_file_index>
2867

> <i_lp_mmshare_version>
43012

> <i_f3d_flags>
0

> <s_epik_input>
W05IMl1TKD1PKSg9TyljKFtjSF0xKVtjSF1bY0hdYyhjMTIpbihbQ0gyXVtDSDJdT1tDSDNdKWMobjIpLWMzW2NIXVtjSF1bY0hdYyhGKVtjSF0z

> <s_epik_cmdline>
J2VwaWtfcHl0aG9uJywgJy1waCcsICc3LjAnLCAnLXRuJywgJzgnLCAnLW1hJywgJzIwMCcsICctbWV0YWxfYmluZGluZycsICctaW1hZScsICc8aW5maWxlLm1hZT4nLCAnLW9tYWUnLCAnPG91dGZpbGUubWFlPic=

> <r_epik_Ionization_Penalty>
0.0786023

> <r_epik_Ionization_Penalty_Charging>
0

> <r_epik_Ionization_Penalty_Neutral>
0.0786023

> <r_epik_State_Penalty>
0.0592545

> <r_epik_Charging_Adjusted_Penalty>
0.0592545

> <i_epik_Tot_Q>
0

> <i_epik_Tot_abs_Q>
0

> <r_epik_Metal_State_Penalty>
0.300641

> <b_epik_Metal_Only>
0

> <s_lp_Force_Field>
OPLS_2005

> <r_lp_Energy>
19.4946

> <b_lp_Chiralities_Consistent>
1

> <s_lp_Variant>
AV-unprocessed.smi:2867-1

> <Gold.Version>
5.8.1

> <Gold.Id.Protein>
6NUR|6NUR_protein|mol2

> <Gold.PLP.Fitness>
40.8512

> <Gold.PLP.PLP>
-40.2873

> <Gold.PLP.part.hbond>
-1.0000

> <Gold.PLP.part.metal>
0.0000

> <Gold.PLP.part.buried>
-3.3901

> <Gold.PLP.part.nonpolar>
-36.1279

> <Gold.PLP.part.repulsive>
0.4167

> <Gold.PLP.ligand.clash>
0.0000

> <Gold.PLP.ligand.torsion>
2.7355

> <Gold.PLP.Chemscore.Hbond>
1.0000

> <Gold.PLP.Chemscore.CHOScore>
0.0000

> <Gold.PLP.Chemscore.Metal>
0.0000

> <Gold.Chemscore.Hbonds>
donor molecule, donor type, donor heavy atom, donor atom, acceptor molecule, acceptor atom, score
      L1  H    19    37       P1 10175  1.00

> <Gold.PLP.Chemscore.Internal.Correction>
3.0349

> <Gold.Rescore>
     Score         DG    S(hbond)    S(metal)    S(lipo)     H(rot)  DE(clash)    DE(int)     intcor
     14.20     -18.98       0.99        0.00     118.83       1.45       1.97       2.82       ----

> <Gold.Chemscore.Fitness>
14.1979

> <Gold.Chemscore.DG>
-18.9847

> <Gold.Chemscore.ZeroCoef>
-5.4800

> <Gold.Chemscore.Hbond>
0.9943

> <Gold.Chemscore.Metal>
0.0000

> <Gold.Chemscore.Lipo>
118.8317

> <Gold.Chemscore.Internal_Hbond>
0.0000

> <Gold.Chemscore.DEClash>
1.9675

> <Gold.Chemscore.DEInternal>
2.8193

> <Gold.Chemscore.Rot>
1.4530

> <Gold.Chemscore.Internal.Correction>
   9.000000E+99

> <Gold.Chemscore.Hbonds>
donor molecule, donor type, donor heavy atom, donor atom, acceptor molecule, acceptor atom, score
      L1  H    19    37       P1 10175  0.99

> <Gold.Chemscore.Hbond.Weighted>
-3.3210

> <Gold.Chemscore.Metal.Weighted>
-0.0000

> <Gold.Chemscore.Lipo.Weighted>
-13.9033

> <Gold.Chemscore.Internal_Hbond.Weighted>
0.0000

> <Gold.Chemscore.DEClash.Weighted>
1.9675

> <Gold.Chemscore.DEInternal.Weighted>
2.8193

> <Gold.Chemscore.Rot.Weighted>
3.7196

> <Gold.Chemscore.Internal.Correction.Weighted>
   9.000000E+99

> <Gold.Protein.RotatedTorsions>
[ 6907 6896 6895 6894 ] final  129.84 input  -60.11 | X-H torsion
[ 7974 7965 7964 7962 ] final -167.82 input  175.53 | X-H torsion
[ 8008 7997 7996 7995 ] final -163.14 input   59.86 | X-H torsion
[ 10167 10162 10161 10158 ] final -103.70 input  -65.29 | X-H torsion
[ 10718 10713 10712 10709 ] final -111.15 input   66.30 | X-H torsion
[ 10763 10752 10751 10750 ] final  -98.99 input  -60.55 | X-H torsion
[ 11005 11000 10999 10996 ] final -145.80 input  -57.11 | X-H torsion

> <Gold.Protein.ActiveResidues>
 VAL166  LYS551  ARG553  GLY616  TRP617  ASP618  TYR619  PRO620  LYS621  CYS622 
 ASP623  PHE694  ASN695  SER759  ASP760  ASP761  ALA762  ILE779  LEU786  VAL792 
 PHE793  MET794  SER795  GLU796  ALA797  LYS798  CYS799  TRP800  GLU811  SER814 

> <Gold.Protein.RotatedAtoms>
  152.3585  133.6267  159.5996 H   0  0  0  0  0  0  0  0  0  0  0  0  # atno 6907 bound_to 6896
  150.7585  133.9462  159.3480 H   0  0  0  0  0  0  0  0  0  0  0  0  # atno 6908 bound_to 6896
  151.7304  135.0877  160.0350 H   0  0  0  0  0  0  0  0  0  0  0  0  # atno 6909 bound_to 6896
  144.7215  140.2461  143.6285 H   0  0  0  0  0  0  0  0  0  0  0  0  # atno 7974 bound_to 7965
  155.8170  140.0914  157.1871 H   0  0  0  0  0  0  0  0  0  0  0  0  # atno 8008 bound_to 7997
  154.3979  140.1444  156.3515 H   0  0  0  0  0  0  0  0  0  0  0  0  # atno 8009 bound_to 7997
  155.8305  140.3443  155.5572 H   0  0  0  0  0  0  0  0  0  0  0  0  # atno 8010 bound_to 7997
  140.2172  143.3702  152.1000 H   0  0  0  0  0  0  0  0  0  0  0  0  # atno 10167 bound_to 10162
  156.0630  130.5852  150.8334 H   0  0  0  0  0  0  0  0  0  0  0  0  # atno 10718 bound_to 10713
  154.7460  135.4989  153.9206 H   0  0  0  0  0  0  0  0  0  0  0  0  # atno 10763 bound_to 10752
  153.1093  135.6705  153.9538 H   0  0  0  0  0  0  0  0  0  0  0  0  # atno 10764 bound_to 10752
  153.9301  135.3079  155.3425 H   0  0  0  0  0  0  0  0  0  0  0  0  # atno 10765 bound_to 10752
  140.7885  134.2996  157.5021 H   0  0  0  0  0  0  0  0  0  0  0  0  # atno 11005 bound_to 11000
  145.8273  139.2070  143.1903 LP  0  0  0  0  0  0  0  0  0  0  0  0  # atno 17320 bound_to 7965
  146.0462  140.8116  142.9804 LP  0  0  0  0  0  0  0  0  0  0  0  0  # atno 17321 bound_to 7965
  139.5157  144.6967  151.5609 LP  0  0  0  0  0  0  0  0  0  0  0  0  # atno 17342 bound_to 10162
  140.6281  143.9129  150.6582 LP  0  0  0  0  0  0  0  0  0  0  0  0  # atno 17343 bound_to 10162
  157.5653  131.0946  150.9499 LP  0  0  0  0  0  0  0  0  0  0  0  0  # atno 17370 bound_to 10713
  156.9727  130.5497  149.5291 LP  0  0  0  0  0  0  0  0  0  0  0  0  # atno 17371 bound_to 10713
  139.8734  134.9360  156.3650 LP  0  0  0  0  0  0  0  0  0  0  0  0  # atno 17394 bound_to 11000
  140.9413  133.7513  156.0150 LP  0  0  0  0  0  0  0  0  0  0  0  0  # atno 17395 bound_to 11000

$$$$
