AV-unprocessed.smi:2980|AV-procd|sdf|11373|dock9
  -GOLD-   2272016293D 1   1.00000     0.00000
 Structure written by MMmdl.
 39 40  0  0  0  0  0  0  0  0  2 V2000
  150.6065  135.4179  154.9691 C   0  0  0  0  0  0  0  0  0  0  0  0
  150.6218  136.9439  155.0802 C   0  0  0  0  0  0  0  0  0  0  0  0
  151.9303  137.4059  154.7953 O   0  0  0  0  0  0  0  0  0  0  0  0
  152.0751  138.8048  154.9777 C   0  0  0  0  0  0  0  0  0  0  0  0
  151.7758  139.1708  156.4383 C   0  0  0  0  0  0  0  0  0  0  0  0
  151.2313  140.5319  156.5762 N   0  0  0  0  0  0  0  0  0  0  0  0
  150.2637  141.1758  155.8595 C   0  0  0  0  0  0  0  0  0  0  0  0
  149.4906  140.6436  154.6958 C   0  0  0  0  0  0  0  0  0  0  0  0
  148.4767  141.6742  154.1732 C   0  0  0  0  0  0  0  0  0  0  0  0
  147.2528  141.0312  153.5054 C   0  0  0  0  0  0  0  0  0  0  0  0
  147.6517  139.9705  152.6631 O   0  0  0  0  0  0  0  0  0  0  0  0
  150.1379  142.4270  156.3855 N   0  3  0  0  0  0  0  0  0  0  0  0
  151.0312  142.5880  157.4445 C   0  0  0  0  0  0  0  0  0  0  0  0
  151.2688  143.6775  158.2767 C   0  0  0  0  0  0  0  0  0  0  0  0
  152.2632  143.5152  159.2634 C   0  0  0  0  0  0  0  0  0  0  0  0
  152.9777  142.3067  159.3930 C   0  0  0  0  0  0  0  0  0  0  0  0
  152.7269  141.2091  158.5438 C   0  0  0  0  0  0  0  0  0  0  0  0
  151.7399  141.3760  157.5720 C   0  0  0  0  0  0  0  0  0  0  0  0
  149.6132  135.0217  155.1808 H   0  0  0  0  0  0  0  0  0  0  0  0
  151.3043  134.9676  155.6752 H   0  0  0  0  0  0  0  0  0  0  0  0
  150.8891  135.0959  153.9664 H   0  0  0  0  0  0  0  0  0  0  0  0
  149.9075  137.3751  154.3775 H   0  0  0  0  0  0  0  0  0  0  0  0
  150.3252  137.2486  156.0849 H   0  0  0  0  0  0  0  0  0  0  0  0
  153.0889  139.1119  154.7177 H   0  0  0  0  0  0  0  0  0  0  0  0
  151.3937  139.3411  154.3157 H   0  0  0  0  0  0  0  0  0  0  0  0
  151.0530  138.4724  156.8590 H   0  0  0  0  0  0  0  0  0  0  0  0
  152.6716  139.0791  157.0523 H   0  0  0  0  0  0  0  0  0  0  0  0
  150.1792  140.3515  153.9036 H   0  0  0  0  0  0  0  0  0  0  0  0
  148.9739  139.7344  155.0047 H   0  0  0  0  0  0  0  0  0  0  0  0
  148.1365  142.2903  155.0065 H   0  0  0  0  0  0  0  0  0  0  0  0
  148.9600  142.3548  153.4710 H   0  0  0  0  0  0  0  0  0  0  0  0
  146.5511  140.6597  154.2529 H   0  0  0  0  0  0  0  0  0  0  0  0
  146.7225  141.7697  152.9034 H   0  0  0  0  0  0  0  0  0  0  0  0
  148.3061  140.2927  152.0618 H   0  0  0  0  0  0  0  0  0  0  0  0
  150.7247  144.6051  158.1767 H   0  0  0  0  0  0  0  0  0  0  0  0
  152.4838  144.3343  159.9323 H   0  0  0  0  0  0  0  0  0  0  0  0
  153.7350  142.2195  160.1585 H   0  0  0  0  0  0  0  0  0  0  0  0
  153.2859  140.2911  158.6488 H   0  0  0  0  0  0  0  0  0  0  0  0
  149.4891  143.1216  156.0388 H   0  0  0  0  0  0  0  0  0  0  0  0
  1  2  1  0  0  0  0
  1 19  1  0  0  0  0
  1 20  1  0  0  0  0
  1 21  1  0  0  0  0
  2  3  1  0  0  0  0
  2 22  1  0  0  0  0
  2 23  1  0  0  0  0
  3  4  1  0  0  0  0
  4  5  1  0  0  0  0
  4 24  1  0  0  0  0
  4 25  1  0  0  0  0
  5  6  1  0  0  0  0
  5 26  1  0  0  0  0
  5 27  1  0  0  0  0
  6 18  1  0  0  0  0
  6  7  1  0  0  0  0
  7  8  1  0  0  0  0
  7 12  2  0  0  0  0
  8  9  1  0  0  0  0
  8 28  1  0  0  0  0
  8 29  1  0  0  0  0
  9 10  1  0  0  0  0
  9 30  1  0  0  0  0
  9 31  1  0  0  0  0
 10 11  1  0  0  0  0
 10 32  1  0  0  0  0
 10 33  1  0  0  0  0
 11 34  1  0  0  0  0
 12 13  1  0  0  0  0
 12 39  1  0  0  0  0
 13 18  2  0  0  0  0
 13 14  1  0  0  0  0
 14 15  2  0  0  0  0
 14 35  1  0  0  0  0
 15 16  1  0  0  0  0
 15 36  1  0  0  0  0
 16 17  2  0  0  0  0
 16 37  1  0  0  0  0
 17 18  1  0  0  0  0
 17 38  1  0  0  0  0
M  CHG  1  12   1
M  END
> <s_m_source_file>
AV-unprocessed.smi

> <i_m_source_file_index>
2980

> <i_lp_mmshare_version>
43012

> <i_f3d_flags>
0

> <s_epik_input>
W0NIM11bQ0gyXU9bQ0gyXVtDSDJdbihjKG4xKVtDSDJdW0NIMl1bQ0gyXVtPSF0pYyhjMTIpW2NIXVtjSF1bY0hdW2NIXTI=

> <s_epik_cmdline>
J2VwaWtfcHl0aG9uJywgJy1waCcsICc3LjAnLCAnLXRuJywgJzgnLCAnLW1hJywgJzIwMCcsICctbWV0YWxfYmluZGluZycsICctaW1hZScsICc8aW5maWxlLm1hZT4nLCAnLW9tYWUnLCAnPG91dGZpbGUubWFlPic=

> <r_epik_Ionization_Penalty>
0.813193

> <r_epik_Ionization_Penalty_Charging>
0.813193

> <r_epik_Ionization_Penalty_Neutral>
1.64912e-07

> <r_epik_State_Penalty>
0.845533

> <r_epik_Charging_Adjusted_Penalty>
1.65873

> <i_epik_Tot_Q>
1

> <i_epik_Tot_abs_Q>
1

> <r_epik_Metal_State_Penalty>
4.77586

> <b_epik_Metal_Only>
0

> <s_lp_Force_Field>
OPLS_2005

> <r_lp_Energy>
11.2721

> <b_lp_Chiralities_Consistent>
1

> <s_lp_Variant>
AV-unprocessed.smi:2980-2

> <Gold.Version>
5.8.1

> <Gold.Id.Protein>
6NUR|6NUR_protein|mol2

> <Gold.PLP.Fitness>
52.8121

> <Gold.PLP.PLP>
-42.2830

> <Gold.PLP.part.hbond>
-2.6293

> <Gold.PLP.part.metal>
0.0000

> <Gold.PLP.part.buried>
-4.6475

> <Gold.PLP.part.nonpolar>
-34.6591

> <Gold.PLP.part.repulsive>
0.1790

> <Gold.PLP.ligand.clash>
0.0000

> <Gold.PLP.ligand.torsion>
0.6011

> <Gold.PLP.Chemscore.Hbond>
3.8882

> <Gold.PLP.Chemscore.CHOScore>
0.0000

> <Gold.PLP.Chemscore.Metal>
0.0000

> <Gold.Chemscore.Hbonds>
donor molecule, donor type, donor heavy atom, donor atom, acceptor molecule, acceptor atom, score
      L1  H    11    34       P1  7957  1.00
      L1  H    12    39       P1  8028  2.00
      P1  H 10752 10765       L1     3  0.84

> <Gold.PLP.Chemscore.Internal.Correction>
0.0667

> <Gold.Rescore>
     Score         DG    S(hbond)    S(metal)    S(lipo)     H(rot)  DE(clash)    DE(int)     intcor
     19.77     -20.57       2.77        0.00     106.44       2.58       0.05       0.75       ----

> <Gold.Chemscore.Fitness>
19.7714

> <Gold.Chemscore.DG>
-20.5719

> <Gold.Chemscore.ZeroCoef>
-5.4800

> <Gold.Chemscore.Hbond>
2.7661

> <Gold.Chemscore.Metal>
0.0000

> <Gold.Chemscore.Lipo>
106.4445

> <Gold.Chemscore.Internal_Hbond>
0.0000

> <Gold.Chemscore.DEClash>
0.0472

> <Gold.Chemscore.DEInternal>
0.7532

> <Gold.Chemscore.Rot>
2.5784

> <Gold.Chemscore.Internal.Correction>
   9.000000E+99

> <Gold.Chemscore.Hbonds>
donor molecule, donor type, donor heavy atom, donor atom, acceptor molecule, acceptor atom, score
      L1  H    11    34       P1  7957  0.93
      L1  H    12    39       P1  8028  0.99
      P1  H 10752 10765       L1     3  0.27

> <Gold.Chemscore.Hbond.Weighted>
-9.2386

> <Gold.Chemscore.Metal.Weighted>
-0.0000

> <Gold.Chemscore.Lipo.Weighted>
-12.4540

> <Gold.Chemscore.Internal_Hbond.Weighted>
0.0000

> <Gold.Chemscore.DEClash.Weighted>
0.0472

> <Gold.Chemscore.DEInternal.Weighted>
0.7532

> <Gold.Chemscore.Rot.Weighted>
6.6007

> <Gold.Chemscore.Internal.Correction.Weighted>
   9.000000E+99

> <Gold.Protein.RotatedTorsions>
[ 6907 6896 6895 6894 ] final -112.63 input  -60.11 | X-H torsion
[ 7974 7965 7964 7962 ] final  138.69 input  175.53 | X-H torsion
[ 8008 7997 7996 7995 ] final  117.75 input   59.86 | X-H torsion
[ 10167 10162 10161 10158 ] final  162.47 input  -65.29 | X-H torsion
[ 10718 10713 10712 10709 ] final  110.72 input   66.30 | X-H torsion
[ 10763 10752 10751 10750 ] final  173.30 input  -60.55 | X-H torsion
[ 11005 11000 10999 10996 ] final -170.43 input  -57.11 | X-H torsion

> <Gold.Protein.ActiveResidues>
 VAL166  LYS551  ARG553  GLY616  TRP617  ASP618  TYR619  PRO620  LYS621  CYS622 
 ASP623  PHE694  ASN695  SER759  ASP760  ASP761  ALA762  ILE779  LEU786  VAL792 
 PHE793  MET794  SER795  GLU796  ALA797  LYS798  CYS799  TRP800  GLU811  SER814 

> <Gold.Protein.RotatedAtoms>
  150.7772  133.9061  159.3355 H   0  0  0  0  0  0  0  0  0  0  0  0  # atno 6907 bound_to 6896
  151.6933  135.0941  160.0247 H   0  0  0  0  0  0  0  0  0  0  0  0  # atno 6908 bound_to 6896
  152.3812  133.6510  159.6198 H   0  0  0  0  0  0  0  0  0  0  0  0  # atno 6909 bound_to 6896
  144.9349  139.5001  143.5600 H   0  0  0  0  0  0  0  0  0  0  0  0  # atno 7974 bound_to 7965
  156.2511  140.2889  156.0727 H   0  0  0  0  0  0  0  0  0  0  0  0  # atno 8008 bound_to 7997
  155.1653  140.0400  157.2868 H   0  0  0  0  0  0  0  0  0  0  0  0  # atno 8009 bound_to 7997
  154.6364  140.2512  155.7380 H   0  0  0  0  0  0  0  0  0  0  0  0  # atno 8010 bound_to 7997
  139.4861  144.4434  151.8923 H   0  0  0  0  0  0  0  0  0  0  0  0  # atno 10167 bound_to 10162
  157.6480  131.0938  150.6643 H   0  0  0  0  0  0  0  0  0  0  0  0  # atno 10718 bound_to 10713
  154.4381  135.2761  155.1866 H   0  0  0  0  0  0  0  0  0  0  0  0  # atno 10763 bound_to 10752
  154.3744  135.6101  153.5760 H   0  0  0  0  0  0  0  0  0  0  0  0  # atno 10764 bound_to 10752
  152.9839  135.5865  154.4704 H   0  0  0  0  0  0  0  0  0  0  0  0  # atno 10765 bound_to 10752
  140.5195  134.5723  157.5043 H   0  0  0  0  0  0  0  0  0  0  0  0  # atno 11005 bound_to 11000
  146.3262  139.8326  142.8905 LP  0  0  0  0  0  0  0  0  0  0  0  0  # atno 17320 bound_to 7965
  145.3083  141.0213  143.3569 LP  0  0  0  0  0  0  0  0  0  0  0  0  # atno 17321 bound_to 7965
  140.3887  144.2644  150.5901 LP  0  0  0  0  0  0  0  0  0  0  0  0  # atno 17342 bound_to 10162
  140.5166  143.2276  151.8453 LP  0  0  0  0  0  0  0  0  0  0  0  0  # atno 17343 bound_to 10162
  156.6957  130.4608  149.5587 LP  0  0  0  0  0  0  0  0  0  0  0  0  # atno 17370 bound_to 10713
  156.1830  130.6511  151.0973 LP  0  0  0  0  0  0  0  0  0  0  0  0  # atno 17371 bound_to 10713
  139.9613  134.7447  156.0230 LP  0  0  0  0  0  0  0  0  0  0  0  0  # atno 17394 bound_to 11000
  141.1342  133.6579  156.3546 LP  0  0  0  0  0  0  0  0  0  0  0  0  # atno 17395 bound_to 11000

$$$$
