AV-unprocessed.smi:2061|AV-procd|sdf|8379|dock9
  -GOLD-   2272011 53D 1   1.00000     0.00000
 Structure written by MMmdl.
 44 45  0  0  0  0  0  0  0  0  2 V2000
  145.3715  133.9019  162.8368 C   0  0  0  0  0  0  0  0  0  0  0  0
  146.3212  134.6652  161.9783 C   0  0  0  0  0  0  0  0  0  0  0  0
  146.7104  135.9744  161.9632 C   0  0  0  0  0  0  0  0  0  0  0  0
  147.6446  136.0232  160.8925 C   0  0  0  0  0  0  0  0  0  0  0  0
  148.3037  137.1135  160.4711 N   0  5  0  0  0  0  0  0  0  0  0  0
  149.3035  136.9979  159.5667 C   0  0  0  0  0  0  0  0  0  0  0  0
  149.7346  135.9475  159.0860 O   0  0  0  0  0  0  0  0  0  0  0  0
  149.8401  138.1733  159.2066 N   0  0  0  0  0  0  0  0  0  0  0  0
  150.9297  138.3788  158.2535 C   0  0  0  0  0  0  0  0  0  0  0  0
  150.8266  139.7305  157.4902 C   0  0  1  0  0  0  0  0  0  0  0  0
  149.4124  139.8542  156.8673 C   0  0  0  0  0  0  0  0  0  0  0  0
  151.1869  140.9036  158.3230 N   0  0  0  0  0  0  0  0  0  0  0  0
  151.4601  142.1009  157.5190 C   0  0  0  0  0  0  0  0  0  0  0  0
  151.8620  143.3319  158.3557 C   0  0  1  0  0  0  0  0  0  0  0  0
  150.6820  143.9668  159.1117 C   0  0  0  0  0  0  0  0  0  0  0  0
  152.9417  143.0085  159.2285 O   0  0  0  0  0  0  0  0  0  0  0  0
  152.7176  141.8714  160.0544 C   0  0  2  0  0  0  0  0  0  0  0  0
  153.9876  141.6250  160.8760 C   0  0  0  0  0  0  0  0  0  0  0  0
  152.3524  140.6598  159.1780 C   0  0  0  0  0  0  0  0  0  0  0  0
  147.7946  134.8514  160.2984 N   0  0  0  0  0  0  0  0  0  0  0  0
  146.9538  133.9733  160.9928 O   0  0  0  0  0  0  0  0  0  0  0  0
  144.3418  134.1816  162.6144 H   0  0  0  0  0  0  0  0  0  0  0  0
  145.5573  134.1048  163.8914 H   0  0  0  0  0  0  0  0  0  0  0  0
  145.4726  132.8282  162.6773 H   0  0  0  0  0  0  0  0  0  0  0  0
  146.3842  136.7703  162.6158 H   0  0  0  0  0  0  0  0  0  0  0  0
  149.4520  139.0019  159.6327 H   0  0  0  0  0  0  0  0  0  0  0  0
  151.9072  138.2904  158.7300 H   0  0  0  0  0  0  0  0  0  0  0  0
  150.8461  137.5347  157.5721 H   0  0  0  0  0  0  0  0  0  0  0  0
  151.5341  139.6784  156.6612 H   0  0  0  0  0  0  0  0  0  0  0  0
  149.1399  138.9800  156.2780 H   0  0  0  0  0  0  0  0  0  0  0  0
  149.3320  140.6903  156.1750 H   0  0  0  0  0  0  0  0  0  0  0  0
  148.6520  139.9784  157.6390 H   0  0  0  0  0  0  0  0  0  0  0  0
  152.2580  141.8820  156.8078 H   0  0  0  0  0  0  0  0  0  0  0  0
  150.5887  142.3829  156.9313 H   0  0  0  0  0  0  0  0  0  0  0  0
  152.2427  144.0901  157.6711 H   0  0  0  0  0  0  0  0  0  0  0  0
  149.9256  144.3279  158.4146 H   0  0  0  0  0  0  0  0  0  0  0  0
  151.0140  144.8164  159.7084 H   0  0  0  0  0  0  0  0  0  0  0  0
  150.1940  143.2578  159.7803 H   0  0  0  0  0  0  0  0  0  0  0  0
  151.9004  142.0790  160.7456 H   0  0  0  0  0  0  0  0  0  0  0  0
  153.8658  140.7686  161.5398 H   0  0  0  0  0  0  0  0  0  0  0  0
  154.2266  142.4917  161.4929 H   0  0  0  0  0  0  0  0  0  0  0  0
  154.8440  141.4291  160.2302 H   0  0  0  0  0  0  0  0  0  0  0  0
  152.1629  139.8327  159.8588 H   0  0  0  0  0  0  0  0  0  0  0  0
  153.2082  140.3773  158.5632 H   0  0  0  0  0  0  0  0  0  0  0  0
  1  2  1  0  0  0  0
  1 22  1  0  0  0  0
  1 23  1  0  0  0  0
  1 24  1  0  0  0  0
  2 21  1  0  0  0  0
  2  3  2  0  0  0  0
  3  4  1  0  0  0  0
  3 25  1  0  0  0  0
  4  5  1  0  0  0  0
  4 20  2  0  0  0  0
  5  6  1  0  0  0  0
  6  7  2  0  0  0  0
  6  8  1  0  0  0  0
  8  9  1  0  0  0  0
  8 26  1  0  0  0  0
  9 10  1  0  0  0  0
  9 27  1  0  0  0  0
  9 28  1  0  0  0  0
 10 11  1  0  0  0  0
 10 12  1  0  0  0  0
 10 29  1  0  0  0  0
 11 30  1  0  0  0  0
 11 31  1  0  0  0  0
 11 32  1  0  0  0  0
 12 19  1  0  0  0  0
 12 13  1  0  0  0  0
 13 14  1  0  0  0  0
 13 33  1  0  0  0  0
 13 34  1  0  0  0  0
 14 15  1  0  0  0  0
 14 16  1  0  0  0  0
 14 35  1  0  0  0  0
 15 36  1  0  0  0  0
 15 37  1  0  0  0  0
 15 38  1  0  0  0  0
 16 17  1  0  0  0  0
 17 18  1  0  0  0  0
 17 19  1  0  0  0  0
 17 39  1  0  0  0  0
 18 40  1  0  0  0  0
 18 41  1  0  0  0  0
 18 42  1  0  0  0  0
 19 43  1  0  0  0  0
 19 44  1  0  0  0  0
 20 21  1  0  0  0  0
M  CHG  1   5  -1
M  END
> <s_m_source_file>
AV-unprocessed.smi

> <i_m_source_file_index>
2061

> <i_lp_mmshare_version>
43012

> <i_f3d_flags>
0

> <s_epik_input>
W0NIM11jMVtjSF1jKG5vMSlbTkhdQyg9TylbTkhdW0NIMl1bQ0BIXShbQ0gzXSlOMltDSDJdW0NAQEhdKFtDSDNdKU9bQ0BASF0oW0NIM10pW0NIMl0y

> <s_epik_cmdline>
J2VwaWtfcHl0aG9uJywgJy1waCcsICc3LjAnLCAnLXRuJywgJzgnLCAnLW1hJywgJzIwMCcsICctbWV0YWxfYmluZGluZycsICctaW1hZScsICc8aW5maWxlLm1hZT4nLCAnLW9tYWUnLCAnPG91dGZpbGUubWFlPic=

> <r_epik_Ionization_Penalty>
6.88367

> <r_epik_Ionization_Penalty_Charging>
6.57198

> <r_epik_Ionization_Penalty_Neutral>
0.311681

> <r_epik_State_Penalty>
6.77619

> <r_epik_Charging_Adjusted_Penalty>
13.3482

> <i_epik_Tot_Q>
-1

> <i_epik_Tot_abs_Q>
1

> <r_epik_Metal_State_Penalty>
2.70524

> <b_epik_Metal_Only>
1

> <s_lp_Force_Field>
OPLS_2005

> <r_lp_Energy>
24.642

> <b_lp_Chiralities_Consistent>
1

> <s_lp_Variant>
AV-unprocessed.smi:2061-20

> <Gold.Version>
5.8.1

> <Gold.Id.Protein>
6NUR|6NUR_protein|mol2

> <Gold.PLP.Fitness>
42.7663

> <Gold.PLP.PLP>
-34.0303

> <Gold.PLP.part.hbond>
-3.0000

> <Gold.PLP.part.metal>
0.0000

> <Gold.PLP.part.buried>
-5.4720

> <Gold.PLP.part.nonpolar>
-27.5065

> <Gold.PLP.part.repulsive>
1.3197

> <Gold.PLP.ligand.clash>
0.0000

> <Gold.PLP.ligand.torsion>
0.5160

> <Gold.PLP.Chemscore.Hbond>
3.2224

> <Gold.PLP.Chemscore.CHOScore>
0.0000

> <Gold.PLP.Chemscore.Metal>
0.0000

> <Gold.Chemscore.Hbonds>
donor molecule, donor type, donor heavy atom, donor atom, acceptor molecule, acceptor atom, score
      P1  H  6896  6907       L1     7  1.00
      P1  H  6931  6943       L1     5  1.54
      P1  H  6934  6947       L1     5  0.58

> <Gold.PLP.Chemscore.Internal.Correction>
0.1009

> <Gold.Rescore>
     Score         DG    S(hbond)    S(metal)    S(lipo)     H(rot)  DE(clash)    DE(int)     intcor
     15.57     -17.73       1.64        0.00      91.04       1.52       0.03       2.14       ----

> <Gold.Chemscore.Fitness>
15.5674

> <Gold.Chemscore.DG>
-17.7340

> <Gold.Chemscore.ZeroCoef>
-5.4800

> <Gold.Chemscore.Hbond>
1.6439

> <Gold.Chemscore.Metal>
0.0000

> <Gold.Chemscore.Lipo>
91.0418

> <Gold.Chemscore.Internal_Hbond>
0.0000

> <Gold.Chemscore.DEClash>
0.0300

> <Gold.Chemscore.DEInternal>
2.1365

> <Gold.Chemscore.Rot>
1.5190

> <Gold.Chemscore.Internal.Correction>
   9.000000E+99

> <Gold.Chemscore.Hbonds>
donor molecule, donor type, donor heavy atom, donor atom, acceptor molecule, acceptor atom, score
      P1  H  6896  6907       L1     7  1.00
      P1  H  6931  6943       L1     5  0.32
      P1  H  6934  6947       L1     5  0.25

> <Gold.Chemscore.Hbond.Weighted>
-5.4907

> <Gold.Chemscore.Metal.Weighted>
-0.0000

> <Gold.Chemscore.Lipo.Weighted>
-10.6519

> <Gold.Chemscore.Internal_Hbond.Weighted>
0.0000

> <Gold.Chemscore.DEClash.Weighted>
0.0300

> <Gold.Chemscore.DEInternal.Weighted>
2.1365

> <Gold.Chemscore.Rot.Weighted>
3.8886

> <Gold.Chemscore.Internal.Correction.Weighted>
   9.000000E+99

> <Gold.Protein.RotatedTorsions>
[ 6907 6896 6895 6894 ] final  -53.53 input  -60.11 | X-H torsion
[ 7974 7965 7964 7962 ] final  178.92 input  175.53 | X-H torsion
[ 8008 7997 7996 7995 ] final -164.96 input   59.86 | X-H torsion
[ 10167 10162 10161 10158 ] final  -37.69 input  -65.29 | X-H torsion
[ 10718 10713 10712 10709 ] final  -63.58 input   66.30 | X-H torsion
[ 10763 10752 10751 10750 ] final  151.34 input  -60.55 | X-H torsion
[ 11005 11000 10999 10996 ] final -148.26 input  -57.11 | X-H torsion

> <Gold.Protein.ActiveResidues>
 VAL166  LYS551  ARG553  GLY616  TRP617  ASP618  TYR619  PRO620  LYS621  CYS622 
 ASP623  PHE694  ASN695  SER759  ASP760  ASP761  ALA762  ILE779  LEU786  VAL792 
 PHE793  MET794  SER795  GLU796  ALA797  LYS798  CYS799  TRP800  GLU811  SER814 

> <Gold.Protein.RotatedAtoms>
  150.8418  134.7713  159.6938 H   0  0  0  0  0  0  0  0  0  0  0  0  # atno 6907 bound_to 6896
  152.4504  134.5403  159.9847 H   0  0  0  0  0  0  0  0  0  0  0  0  # atno 6908 bound_to 6896
  151.5541  133.3375  159.2994 H   0  0  0  0  0  0  0  0  0  0  0  0  # atno 6909 bound_to 6896
  144.7151  140.0471  143.6436 H   0  0  0  0  0  0  0  0  0  0  0  0  # atno 7974 bound_to 7965
  155.8430  140.0951  157.1722 H   0  0  0  0  0  0  0  0  0  0  0  0  # atno 8008 bound_to 7997
  154.3982  140.1397  156.3813 H   0  0  0  0  0  0  0  0  0  0  0  0  # atno 8009 bound_to 7997
  155.8043  140.3452  155.5423 H   0  0  0  0  0  0  0  0  0  0  0  0  # atno 8010 bound_to 7997
  140.7112  143.3325  151.2536 H   0  0  0  0  0  0  0  0  0  0  0  0  # atno 10167 bound_to 10162
  156.0782  130.4222  150.1297 H   0  0  0  0  0  0  0  0  0  0  0  0  # atno 10718 bound_to 10713
  154.1022  135.2845  155.3249 H   0  0  0  0  0  0  0  0  0  0  0  0  # atno 10763 bound_to 10752
  154.6547  135.5356  153.7948 H   0  0  0  0  0  0  0  0  0  0  0  0  # atno 10764 bound_to 10752
  153.0375  135.6519  154.1185 H   0  0  0  0  0  0  0  0  0  0  0  0  # atno 10765 bound_to 10752
  140.7631  134.3275  157.5096 H   0  0  0  0  0  0  0  0  0  0  0  0  # atno 11005 bound_to 11000
  145.9975  139.3064  143.0947 LP  0  0  0  0  0  0  0  0  0  0  0  0  # atno 17320 bound_to 7965
  145.8831  140.9350  143.0591 LP  0  0  0  0  0  0  0  0  0  0  0  0  # atno 17321 bound_to 7965
  139.6811  143.9852  152.2809 LP  0  0  0  0  0  0  0  0  0  0  0  0  # atno 17342 bound_to 10162
  139.9483  144.6637  150.8197 LP  0  0  0  0  0  0  0  0  0  0  0  0  # atno 17343 bound_to 10162
  156.9334  130.9721  151.3529 LP  0  0  0  0  0  0  0  0  0  0  0  0  # atno 17370 bound_to 10713
  157.5887  130.8428  149.8627 LP  0  0  0  0  0  0  0  0  0  0  0  0  # atno 17371 bound_to 10713
  139.8767  134.9214  156.3275 LP  0  0  0  0  0  0  0  0  0  0  0  0  # atno 17394 bound_to 11000
  140.9645  133.7367  156.0447 LP  0  0  0  0  0  0  0  0  0  0  0  0  # atno 17395 bound_to 11000

$$$$
