AV-unprocessed.smi:624|AV-procd|sdf|3099|dock9
  -GOLD-   22720 0 23D 1   1.00000     0.00000
 Structure written by MMmdl.
 30 32  0  0  0  0  0  0  0  0  1 V2000
  152.2257  139.9842  158.1624 O   0  0  0  0  0  0  0  0  0  0  0  0
  152.1003  141.0198  157.5094 C   0  0  0  0  0  0  0  0  0  0  0  0
  151.9766  141.0850  156.1738 N   0  0  0  0  0  0  0  0  0  0  0  0
  151.9309  140.0120  155.2489 C   0  0  0  0  0  0  0  0  0  0  0  0
  153.0844  139.4217  154.9147 N   0  0  0  0  0  0  0  0  0  0  0  0
  152.8966  138.3918  154.0009 N   0  0  0  0  0  0  0  0  0  0  0  0
  151.6072  138.2471  153.6803 C   0  0  0  0  0  0  0  0  0  0  0  0
  150.4927  139.3531  154.4637 S   0  0  0  0  0  0  0  0  0  0  0  0
  152.0690  142.2434  158.0575 N   0  0  0  0  0  0  0  0  0  0  0  0
  152.1521  142.5410  159.4840 C   0  0  0  0  0  0  0  0  0  0  0  0
  151.8590  144.0011  159.7920 C   0  0  0  0  0  0  0  0  0  0  0  0
  150.7414  144.7443  159.0977 C   0  0  0  0  0  0  0  0  0  0  0  0
  152.1807  145.0970  158.8028 C   0  0  0  0  0  0  0  0  0  0  0  0
  153.5020  142.1447  160.0546 C   0  0  0  0  0  0  0  0  0  0  0  0
  153.8135  140.7071  160.3954 C   0  0  0  0  0  0  0  0  0  0  0  0
  153.6598  141.7297  161.4985 C   0  0  0  0  0  0  0  0  0  0  0  0
  151.8921  142.0070  155.7720 H   0  0  0  0  0  0  0  0  0  0  0  0
  151.3107  137.4833  152.9766 H   0  0  0  0  0  0  0  0  0  0  0  0
  151.9680  143.0350  157.4390 H   0  0  0  0  0  0  0  0  0  0  0  0
  151.4012  141.9380  159.9991 H   0  0  0  0  0  0  0  0  0  0  0  0
  152.0043  144.2560  160.8403 H   0  0  0  0  0  0  0  0  0  0  0  0
  150.1876  144.2265  158.3175 H   0  0  0  0  0  0  0  0  0  0  0  0
  150.1626  145.4491  159.6912 H   0  0  0  0  0  0  0  0  0  0  0  0
  152.5627  146.0345  159.2011 H   0  0  0  0  0  0  0  0  0  0  0  0
  152.5742  144.8093  157.8300 H   0  0  0  0  0  0  0  0  0  0  0  0
  154.3296  142.7196  159.6423 H   0  0  0  0  0  0  0  0  0  0  0  0
  153.0180  139.9734  160.2788 H   0  0  0  0  0  0  0  0  0  0  0  0
  154.8168  140.3459  160.1794 H   0  0  0  0  0  0  0  0  0  0  0  0
  154.5606  142.0519  162.0171 H   0  0  0  0  0  0  0  0  0  0  0  0
  152.7655  141.6647  162.1148 H   0  0  0  0  0  0  0  0  0  0  0  0
  1  2  2  0  0  0  0
  2  3  1  0  0  0  0
  2  9  1  0  0  0  0
  3  4  1  0  0  0  0
  3 17  1  0  0  0  0
  4  8  1  0  0  0  0
  4  5  2  0  0  0  0
  5  6  1  0  0  0  0
  6  7  2  0  0  0  0
  7  8  1  0  0  0  0
  7 18  1  0  0  0  0
  9 10  1  0  0  0  0
  9 19  1  0  0  0  0
 10 11  1  0  0  0  0
 10 14  1  0  0  0  0
 10 20  1  0  0  0  0
 11 13  1  0  0  0  0
 11 12  1  0  0  0  0
 11 21  1  0  0  0  0
 12 13  1  0  0  0  0
 12 22  1  0  0  0  0
 12 23  1  0  0  0  0
 13 24  1  0  0  0  0
 13 25  1  0  0  0  0
 14 16  1  0  0  0  0
 14 15  1  0  0  0  0
 14 26  1  0  0  0  0
 15 16  1  0  0  0  0
 15 27  1  0  0  0  0
 15 28  1  0  0  0  0
 16 29  1  0  0  0  0
 16 30  1  0  0  0  0
M  END
> <s_m_source_file>
AV-unprocessed.smi

> <i_m_source_file_index>
624

> <i_lp_mmshare_version>
43012

> <i_f3d_flags>
0

> <s_epik_input>
W0NIMl0xW0NIMl1bQ0hdMVtDSF0oW0NIXTJbQ0gyXVtDSDJdMilbTkhdQyg9TylbTkhdYzNubltjSF1zMw==

> <s_epik_cmdline>
J2VwaWtfcHl0aG9uJywgJy1waCcsICc3LjAnLCAnLXRuJywgJzgnLCAnLW1hJywgJzIwMCcsICctbWV0YWxfYmluZGluZycsICctaW1hZScsICc8aW5maWxlLm1hZT4nLCAnLW9tYWUnLCAnPG91dGZpbGUubWFlPic=

> <r_lp_tautomer_probability>
1

> <r_epik_Ionization_Penalty>
0.000305758

> <r_epik_Ionization_Penalty_Charging>
0

> <r_epik_Ionization_Penalty_Neutral>
0.000305758

> <r_epik_State_Penalty>
-0

> <r_epik_Charging_Adjusted_Penalty>
0

> <i_epik_Tot_Q>
0

> <i_epik_Tot_abs_Q>
0

> <r_epik_Metal_State_Penalty>
0.165203

> <b_epik_Metal_Only>
0

> <s_lp_Force_Field>
OPLS_2005

> <r_lp_Energy>
21.213

> <b_lp_Chiralities_Consistent>
1

> <s_lp_Variant>
AV-unprocessed.smi:624-1

> <Gold.Version>
5.8.1

> <Gold.Id.Protein>
6NUR|6NUR_protein|mol2

> <Gold.PLP.Fitness>
43.4035

> <Gold.PLP.PLP>
-38.6137

> <Gold.PLP.part.hbond>
-2.0000

> <Gold.PLP.part.metal>
0.0000

> <Gold.PLP.part.buried>
-4.8057

> <Gold.PLP.part.nonpolar>
-33.0008

> <Gold.PLP.part.repulsive>
0.2773

> <Gold.PLP.ligand.clash>
0.0000

> <Gold.PLP.ligand.torsion>
1.8450

> <Gold.PLP.Chemscore.Hbond>
1.0688

> <Gold.PLP.Chemscore.CHOScore>
1.0539

> <Gold.PLP.Chemscore.Metal>
0.0000

> <Gold.Chemscore.Hbonds>
donor molecule, donor type, donor heavy atom, donor atom, acceptor molecule, acceptor atom, score
      P1  H  7997  8008       L1     5  1.00
      L1  C     7    18       P1  7949  1.00

> <Gold.PLP.Chemscore.Internal.Correction>
2.1117

> <Gold.Rescore>
     Score         DG    S(hbond)    S(metal)    S(lipo)     H(rot)  DE(clash)    DE(int)     intcor
     11.98     -15.16       0.93        0.00      89.66       1.52       0.00       3.18       ----

> <Gold.Chemscore.Fitness>
11.9845

> <Gold.Chemscore.DG>
-15.1626

> <Gold.Chemscore.ZeroCoef>
-5.4800

> <Gold.Chemscore.Hbond>
0.9252

> <Gold.Chemscore.Metal>
0.0000

> <Gold.Chemscore.Lipo>
89.6638

> <Gold.Chemscore.Internal_Hbond>
0.0000

> <Gold.Chemscore.DEClash>
0.0009

> <Gold.Chemscore.DEInternal>
3.1772

> <Gold.Chemscore.Rot>
1.5227

> <Gold.Chemscore.Internal.Correction>
   9.000000E+99

> <Gold.Chemscore.Hbonds>
donor molecule, donor type, donor heavy atom, donor atom, acceptor molecule, acceptor atom, score
      P1  H  7997  8008       L1     5  0.70

> <Gold.Chemscore.Hbond.Weighted>
-3.0902

> <Gold.Chemscore.Metal.Weighted>
-0.0000

> <Gold.Chemscore.Lipo.Weighted>
-10.4907

> <Gold.Chemscore.Internal_Hbond.Weighted>
0.0000

> <Gold.Chemscore.DEClash.Weighted>
0.0009

> <Gold.Chemscore.DEInternal.Weighted>
3.1772

> <Gold.Chemscore.Rot.Weighted>
3.8982

> <Gold.Chemscore.Internal.Correction.Weighted>
   9.000000E+99

> <Gold.Protein.RotatedTorsions>
[ 6907 6896 6895 6894 ] final   70.86 input  -60.11 | X-H torsion
[ 7974 7965 7964 7962 ] final   51.61 input  175.53 | X-H torsion
[ 8008 7997 7996 7995 ] final  -17.58 input   59.86 | X-H torsion
[ 10167 10162 10161 10158 ] final -159.27 input  -65.29 | X-H torsion
[ 10718 10713 10712 10709 ] final   45.54 input   66.30 | X-H torsion
[ 10763 10752 10751 10750 ] final  130.30 input  -60.55 | X-H torsion
[ 11005 11000 10999 10996 ] final  -49.45 input  -57.11 | X-H torsion

> <Gold.Protein.ActiveResidues>
 VAL166  LYS551  ARG553  GLY616  TRP617  ASP618  TYR619  PRO620  LYS621  CYS622 
 ASP623  PHE694  ASN695  SER759  ASP760  ASP761  ALA762  ILE779  LEU786  VAL792 
 PHE793  MET794  SER795  GLU796  ALA797  LYS798  CYS799  TRP800  GLU811  SER814 

> <Gold.Protein.RotatedAtoms>
  152.4775  134.4806  159.9664 H   0  0  0  0  0  0  0  0  0  0  0  0  # atno 6907 bound_to 6896
  151.4819  133.3538  159.2847 H   0  0  0  0  0  0  0  0  0  0  0  0  # atno 6908 bound_to 6896
  150.8824  134.8243  159.7295 H   0  0  0  0  0  0  0  0  0  0  0  0  # atno 6909 bound_to 6896
  145.9897  139.4326  143.0081 H   0  0  0  0  0  0  0  0  0  0  0  0  # atno 7974 bound_to 7965
  154.4968  140.2139  155.9431 H   0  0  0  0  0  0  0  0  0  0  0  0  # atno 8008 bound_to 7997
  156.1380  140.3185  155.8419 H   0  0  0  0  0  0  0  0  0  0  0  0  # atno 8009 bound_to 7997
  155.4173  140.0494  157.3018 H   0  0  0  0  0  0  0  0  0  0  0  0  # atno 8010 bound_to 7997
  139.6628  143.9883  152.2236 H   0  0  0  0  0  0  0  0  0  0  0  0  # atno 10167 bound_to 10162
  157.4386  130.8068  149.7672 H   0  0  0  0  0  0  0  0  0  0  0  0  # atno 10718 bound_to 10713
  153.7559  135.3203  155.3329 H   0  0  0  0  0  0  0  0  0  0  0  0  # atno 10763 bound_to 10752
  154.8247  135.4578  154.0886 H   0  0  0  0  0  0  0  0  0  0  0  0  # atno 10764 bound_to 10752
  153.2102  135.6934  153.8206 H   0  0  0  0  0  0  0  0  0  0  0  0  # atno 10765 bound_to 10752
  141.0760  133.6666  156.3587 H   0  0  0  0  0  0  0  0  0  0  0  0  # atno 11005 bound_to 11000
  145.7649  140.9920  143.1180 LP  0  0  0  0  0  0  0  0  0  0  0  0  # atno 17320 bound_to 7965
  144.6885  139.9375  143.7474 LP  0  0  0  0  0  0  0  0  0  0  0  0  # atno 17321 bound_to 7965
  139.9626  144.6547  150.8065 LP  0  0  0  0  0  0  0  0  0  0  0  0  # atno 17342 bound_to 10162
  140.7587  143.3113  151.2839 LP  0  0  0  0  0  0  0  0  0  0  0  0  # atno 17343 bound_to 10162
  155.9940  130.3921  150.2877 LP  0  0  0  0  0  0  0  0  0  0  0  0  # atno 17370 bound_to 10713
  157.1040  131.0203  151.3074 LP  0  0  0  0  0  0  0  0  0  0  0  0  # atno 17371 bound_to 10713
  140.5573  134.5969  157.5424 LP  0  0  0  0  0  0  0  0  0  0  0  0  # atno 17394 bound_to 11000
  139.9572  134.7515  156.0316 LP  0  0  0  0  0  0  0  0  0  0  0  0  # atno 17395 bound_to 11000

$$$$
