AV-unprocessed.smi:2648|AV-procd|sdf|10287|dock3
  -GOLD-   2272014303D 1   1.00000     0.00000
 Structure written by MMmdl.
 31 32  0  0  0  0  0  0  0  0  2 V2000
  144.5514  136.3968  152.6102 O   0  0  0  0  0  0  0  0  0  0  0  0
  145.7649  136.3297  152.4153 C   0  0  0  0  0  0  0  0  0  0  0  0
  146.6341  137.2571  152.8413 N   0  0  0  0  0  0  0  0  0  0  0  0
  146.2746  138.4553  153.5892 C   0  0  0  0  0  0  0  0  0  0  0  0
  147.0527  139.6852  153.0878 C   0  0  0  0  0  0  0  0  0  0  0  0
  147.3773  140.5908  154.1929 N   0  0  0  0  0  0  0  0  0  0  0  0
  146.5170  140.9456  155.1520 C   0  0  0  0  0  0  0  0  0  0  0  0
  145.3402  140.6054  155.2767 O   0  0  0  0  0  0  0  0  0  0  0  0
  147.2503  141.8600  156.1056 C   0  0  0  0  0  0  0  0  0  0  0  0
  148.5727  141.9153  155.5246 N   0  5  0  0  0  0  0  0  0  0  0  0
  148.5842  141.1481  154.4092 C   0  0  0  0  0  0  0  0  0  0  0  0
  149.5428  140.9503  153.6632 O   0  0  0  0  0  0  0  0  0  0  0  0
  146.3971  135.3284  151.7785 N   0  0  0  0  0  0  0  0  0  0  0  0
  145.8399  134.1694  151.1730 C   0  0  0  0  0  0  0  0  0  0  0  0
  144.4358  134.0970  151.0623 C   0  0  0  0  0  0  0  0  0  0  0  0
  143.8582  132.9509  150.4801 C   0  0  0  0  0  0  0  0  0  0  0  0
  144.5809  131.9048  150.0276 N   0  0  0  0  0  0  0  0  0  0  0  0
  145.9238  131.9692  150.1479 C   0  0  0  0  0  0  0  0  0  0  0  0
  146.6013  133.0680  150.7129 C   0  0  0  0  0  0  0  0  0  0  0  0
  147.6144  137.1222  152.6430 H   0  0  0  0  0  0  0  0  0  0  0  0
  145.2030  138.6178  153.4695 H   0  0  0  0  0  0  0  0  0  0  0  0
  146.4469  138.2993  154.6556 H   0  0  0  0  0  0  0  0  0  0  0  0
  147.9687  139.3734  152.5830 H   0  0  0  0  0  0  0  0  0  0  0  0
  146.4680  140.2149  152.3338 H   0  0  0  0  0  0  0  0  0  0  0  0
  146.7551  142.8306  156.1435 H   0  0  0  0  0  0  0  0  0  0  0  0
  147.2387  141.4355  157.1100 H   0  0  0  0  0  0  0  0  0  0  0  0
  147.4053  135.3757  151.7729 H   0  0  0  0  0  0  0  0  0  0  0  0
  143.8085  134.9047  151.4104 H   0  0  0  0  0  0  0  0  0  0  0  0
  142.7861  132.8718  150.3774 H   0  0  0  0  0  0  0  0  0  0  0  0
  146.4771  131.1142  149.7882 H   0  0  0  0  0  0  0  0  0  0  0  0
  147.6770  133.0369  150.7913 H   0  0  0  0  0  0  0  0  0  0  0  0
  1  2  2  0  0  0  0
  2  3  1  0  0  0  0
  2 13  1  0  0  0  0
  3  4  1  0  0  0  0
  3 20  1  0  0  0  0
  4  5  1  0  0  0  0
  4 21  1  0  0  0  0
  4 22  1  0  0  0  0
  5  6  1  0  0  0  0
  5 23  1  0  0  0  0
  5 24  1  0  0  0  0
  6 11  1  0  0  0  0
  6  7  1  0  0  0  0
  7  8  2  0  0  0  0
  7  9  1  0  0  0  0
  9 10  1  0  0  0  0
  9 25  1  0  0  0  0
  9 26  1  0  0  0  0
 10 11  1  0  0  0  0
 11 12  2  0  0  0  0
 13 14  1  0  0  0  0
 13 27  1  0  0  0  0
 14 19  1  0  0  0  0
 14 15  2  0  0  0  0
 15 16  1  0  0  0  0
 15 28  1  0  0  0  0
 16 17  2  0  0  0  0
 16 29  1  0  0  0  0
 17 18  1  0  0  0  0
 18 19  2  0  0  0  0
 18 30  1  0  0  0  0
 19 31  1  0  0  0  0
M  CHG  1  10  -1
M  END
> <s_m_source_file>
AV-unprocessed.smi

> <i_m_source_file_index>
2648

> <i_lp_mmshare_version>
43012

> <i_f3d_flags>
0

> <s_epik_input>
W2NIXTFbY0hdbltjSF1bY0hdYzFbTkhdQyg9TylbTkhdW0NIMl1bQ0gyXU4yQyg9TylbQ0gyXVtOSF1DMj1P

> <s_epik_cmdline>
J2VwaWtfcHl0aG9uJywgJy1waCcsICc3LjAnLCAnLXRuJywgJzgnLCAnLW1hJywgJzIwMCcsICctbWV0YWxfYmluZGluZycsICctaW1hZScsICc8aW5maWxlLm1hZT4nLCAnLW9tYWUnLCAnPG91dGZpbGUubWFlPic=

> <r_lp_tautomer_probability>
1

> <r_epik_Ionization_Penalty>
5.93063

> <r_epik_Ionization_Penalty_Charging>
5.82164

> <r_epik_Ionization_Penalty_Neutral>
0.10899

> <r_epik_State_Penalty>
5.92035

> <r_epik_Charging_Adjusted_Penalty>
11.742

> <i_epik_Tot_Q>
-1

> <i_epik_Tot_abs_Q>
1

> <r_epik_Metal_State_Penalty>
1.97767

> <b_epik_Metal_Only>
1

> <s_lp_Force_Field>
OPLS_2005

> <r_lp_Energy>
14.3233

> <b_lp_Chiralities_Consistent>
1

> <s_lp_Variant>
AV-unprocessed.smi:2648-3

> <Gold.Version>
5.8.1

> <Gold.Id.Protein>
6NUR|6NUR_protein|mol2

> <Gold.PLP.Fitness>
40.4984

> <Gold.PLP.PLP>
-26.2021

> <Gold.PLP.part.hbond>
-4.1744

> <Gold.PLP.part.metal>
0.0000

> <Gold.PLP.part.buried>
-5.5912

> <Gold.PLP.part.nonpolar>
-21.9359

> <Gold.PLP.part.repulsive>
5.3879

> <Gold.PLP.ligand.clash>
0.0000

> <Gold.PLP.ligand.torsion>
0.5565

> <Gold.PLP.Chemscore.Hbond>
3.3409

> <Gold.PLP.Chemscore.CHOScore>
1.7927

> <Gold.PLP.Chemscore.Metal>
0.0000

> <Gold.Chemscore.Hbonds>
donor molecule, donor type, donor heavy atom, donor atom, acceptor molecule, acceptor atom, score
      L1  H     3    20       P1  7948  1.00
      L1  H    13    27       P1  7948  1.00
      P1  H  7989  7998       L1    12  0.31
      P1  H  8011  8017       L1    12  1.00
      L1  C    16    29       P1 10186  1.00
      L1  C    18    30       P1 10747  0.82

> <Gold.PLP.Chemscore.Internal.Correction>
0.0086

> <Gold.Rescore>
     Score         DG    S(hbond)    S(metal)    S(lipo)     H(rot)  DE(clash)    DE(int)     intcor
     11.83     -15.30       2.58        0.00      51.91       1.90       0.24       3.23       ----

> <Gold.Chemscore.Fitness>
11.8304

> <Gold.Chemscore.DG>
-15.3028

> <Gold.Chemscore.ZeroCoef>
-5.4800

> <Gold.Chemscore.Hbond>
2.5766

> <Gold.Chemscore.Metal>
0.0000

> <Gold.Chemscore.Lipo>
51.9080

> <Gold.Chemscore.Internal_Hbond>
0.0000

> <Gold.Chemscore.DEClash>
0.2420

> <Gold.Chemscore.DEInternal>
3.2304

> <Gold.Chemscore.Rot>
1.8969

> <Gold.Chemscore.Internal.Correction>
   9.000000E+99

> <Gold.Chemscore.Hbonds>
donor molecule, donor type, donor heavy atom, donor atom, acceptor molecule, acceptor atom, score
      L1  H     3    20       P1  7948  0.96
      L1  H    13    27       P1  7948  0.96
      P1  H  7989  7998       L1    12  0.30
      P1  H  8011  8017       L1    12  0.79

> <Gold.Chemscore.Hbond.Weighted>
-8.6057

> <Gold.Chemscore.Metal.Weighted>
-0.0000

> <Gold.Chemscore.Lipo.Weighted>
-6.0732

> <Gold.Chemscore.Internal_Hbond.Weighted>
0.0000

> <Gold.Chemscore.DEClash.Weighted>
0.2420

> <Gold.Chemscore.DEInternal.Weighted>
3.2304

> <Gold.Chemscore.Rot.Weighted>
4.8561

> <Gold.Chemscore.Internal.Correction.Weighted>
   9.000000E+99

> <Gold.Protein.RotatedTorsions>
[ 6907 6896 6895 6894 ] final   20.90 input  -60.11 | X-H torsion
[ 7974 7965 7964 7962 ] final -101.47 input  175.53 | X-H torsion
[ 8008 7997 7996 7995 ] final   29.32 input   59.86 | X-H torsion
[ 10167 10162 10161 10158 ] final   23.63 input  -65.29 | X-H torsion
[ 10718 10713 10712 10709 ] final  -86.84 input   66.30 | X-H torsion
[ 10763 10752 10751 10750 ] final -172.99 input  -60.55 | X-H torsion
[ 11005 11000 10999 10996 ] final  -29.68 input  -57.11 | X-H torsion

> <Gold.Protein.ActiveResidues>
 VAL166  LYS551  ARG553  GLY616  TRP617  ASP618  TYR619  PRO620  LYS621  CYS622 
 ASP623  PHE694  ASN695  SER759  ASP760  ASP761  ALA762  ILE779  LEU786  VAL792 
 PHE793  MET794  SER795  GLU796  ALA797  LYS798  CYS799  TRP800  GLU811  SER814 

> <Gold.Protein.RotatedAtoms>
  151.9035  135.0368  160.0508 H   0  0  0  0  0  0  0  0  0  0  0  0  # atno 6907 bound_to 6896
  152.2338  133.5075  159.5239 H   0  0  0  0  0  0  0  0  0  0  0  0  # atno 6908 bound_to 6896
  150.7033  134.1097  159.4038 H   0  0  0  0  0  0  0  0  0  0  0  0  # atno 6909 bound_to 6896
  145.2812  140.9327  143.2931 H   0  0  0  0  0  0  0  0  0  0  0  0  # atno 7974 bound_to 7965
  155.0726  140.3202  155.4626 H   0  0  0  0  0  0  0  0  0  0  0  0  # atno 8008 bound_to 7997
  156.2787  140.2109  156.5799 H   0  0  0  0  0  0  0  0  0  0  0  0  # atno 8009 bound_to 7997
  154.7043  140.0504  157.0475 H   0  0  0  0  0  0  0  0  0  0  0  0  # atno 8010 bound_to 7997
  140.5254  143.9933  150.6437 H   0  0  0  0  0  0  0  0  0  0  0  0  # atno 10167 bound_to 10162
  155.9988  130.4779  150.4776 H   0  0  0  0  0  0  0  0  0  0  0  0  # atno 10718 bound_to 10713
  154.6130  135.2866  155.0411 H   0  0  0  0  0  0  0  0  0  0  0  0  # atno 10763 bound_to 10752
  154.1634  135.6484  153.4995 H   0  0  0  0  0  0  0  0  0  0  0  0  # atno 10764 bound_to 10752
  153.0203  135.5383  154.6891 H   0  0  0  0  0  0  0  0  0  0  0  0  # atno 10765 bound_to 10752
  140.9317  133.7334  156.0946 H   0  0  0  0  0  0  0  0  0  0  0  0  # atno 11005 bound_to 11000
  144.9252  139.4364  143.6522 LP  0  0  0  0  0  0  0  0  0  0  0  0  # atno 17320 bound_to 7965
  146.3216  139.8133  142.8941 LP  0  0  0  0  0  0  0  0  0  0  0  0  # atno 17321 bound_to 7965
  140.3293  143.3088  152.0704 LP  0  0  0  0  0  0  0  0  0  0  0  0  # atno 17342 bound_to 10162
  139.4936  144.6520  151.6654 LP  0  0  0  0  0  0  0  0  0  0  0  0  # atno 17343 bound_to 10162
  157.2784  131.0602  151.2214 LP  0  0  0  0  0  0  0  0  0  0  0  0  # atno 17370 bound_to 10713
  157.3269  130.6965  149.6301 LP  0  0  0  0  0  0  0  0  0  0  0  0  # atno 17371 bound_to 10713
  140.7853  134.3678  157.5477 LP  0  0  0  0  0  0  0  0  0  0  0  0  # atno 17394 bound_to 11000
  139.8798  134.9107  156.3020 LP  0  0  0  0  0  0  0  0  0  0  0  0  # atno 17395 bound_to 11000

$$$$
