#       Name:                AV-unprocessed.smi:2567
#       Creating user name   scv26
#       Creation time:       Fri Mar 27 14:10:46 2020


#       File generated by GOLD software.
#

@<TRIPOS>MOLECULE
AV-unprocessed.smi:2567
    38    39     1
SMALL
NO_CHARGES


@<TRIPOS>ATOM
      1 ****        -3.4651   2.1555  -1.2594 C.3            1 S1                 0.0000
      2 ****        -2.8018   0.8137  -0.8769 C.3            1 S1                 0.0000
      3 ****        -3.4392   0.3688   0.4577 C.3            1 S1                 0.0000
      4 ****        -3.0887  -0.2389  -1.9628 C.3            1 S1                 0.0000
      5 ****        -1.3087   0.9805  -0.7160 C.2            1 S1                 0.0000
      6 ****        -0.6072   1.7806  -1.5230 N.2            1 S1                 0.0000
      7 ****         0.6639   1.5364  -1.1440 N.pl3          1 S1                 0.0000
      8 ****         0.6688   0.5923  -0.2027 C.2            1 S1                 0.0000
      9 ****         1.9341   0.0700   0.4009 C.3            1 S1                 0.0000
     10 ****         2.3417  -1.2976  -0.1806 C.3            1 S1                 0.0000
     11 ****         3.5336  -1.8107   0.5226 N.4            1 S1                 1.0000
     12 ****         3.3180  -1.8634   1.9822 C.3            1 S1                 0.0000
     13 ****         2.8736  -0.4851   2.5023 C.3            1 S1                 0.0000
     14 ****         1.7086  -0.0601   1.8026 O.3            1 S1                 0.0000
     15 ****        -0.5556   0.1691   0.0921 N.2            1 S1                 0.0000
     16 ****         1.4601   2.0016  -1.5563 H              1 S1                 0.0000
     17 ****        -4.5482   2.0544  -1.3372 H              1 S1                 0.0000
     18 ****        -3.1112   2.5231  -2.2232 H              1 S1                 0.0000
     19 ****        -3.2608   2.9270  -0.5159 H              1 S1                 0.0000
     20 ****        -3.2359   1.0854   1.2544 H              1 S1                 0.0000
     21 ****        -3.0622  -0.6016   0.7828 H              1 S1                 0.0000
     22 ****        -4.5221   0.2755   0.3690 H              1 S1                 0.0000
     23 ****        -4.1603  -0.3850  -2.1015 H              1 S1                 0.0000
     24 ****        -2.6560  -1.2053  -1.7015 H              1 S1                 0.0000
     25 ****        -2.6702   0.0597  -2.9247 H              1 S1                 0.0000
     26 ****         2.7269   0.8015   0.2310 H              1 S1                 0.0000
     27 ****         1.5286  -2.0169  -0.0702 H              1 S1                 0.0000
     28 ****         2.5575  -1.2161  -1.2463 H              1 S1                 0.0000
     29 ****         3.7529  -2.7359   0.1818 H              1 S1                 0.0000
     30 ****         2.5573  -2.6127   2.2053 H              1 S1                 0.0000
     31 ****         4.2377  -2.1818   2.4735 H              1 S1                 0.0000
     32 ****         2.6462  -0.5403   3.5669 H              1 S1                 0.0000
     33 ****         3.6701   0.2515   2.3850 H              1 S1                 0.0000
     34 ****         4.3124  -1.1962   0.3325 H              1 S1                 0.0000
     35 ****        -0.9405   2.4040  -2.2303 LP             1 S1                 0.0000
     36 ****         0.9825  -0.7316   1.9501 LP             1 S1                 0.0000
     37 ****         1.4216   0.8265   2.1654 LP             1 S1                 0.0000
     38 ****        -0.8474  -0.5449   0.7285 LP             1 S1                 0.0000
@<TRIPOS>BOND
    1    1    2 1     
    2    1   17 1     
    3    1   18 1     
    4    1   19 1     
    5    2    3 1     
    6    2    4 1     
    7    2    5 1     
    8    3   20 1     
    9    3   21 1     
   10    3   22 1     
   11    4   23 1     
   12    4   24 1     
   13    4   25 1     
   14    5   15 1     
   15    5    6 2     
   16    6    7 1     
   17    7   16 1     
   18    7    8 1     
   19    8    9 1     
   20    8   15 2     
   21    9   14 1     
   22    9   10 1     
   23    9   26 1     
   24   10   11 1     
   25   10   27 1     
   26   10   28 1     
   27   11   12 1     
   28   11   29 1     
   29   11   34 1     
   30   12   13 1     
   31   12   30 1     
   32   12   31 1     
   33   13   14 1     
   34   13   32 1     
   35   13   33 1     
   36    6   35 1     
   37   14   36 1     
   38   14   37 1     
   39   15   38 1     
@<TRIPOS>SUBSTRUCTURE
      1 S1             1
@<TRIPOS>SET
LONE_PAIRS      STATIC     ATOMS    <user>   **** ""
4 35 36 37 38
DONOR_HYDROGENS      STATIC     ATOMS    <user>   **** ""
3 16 29 34
ATOM$BLUE        STATIC     ATOMS    COLORGROUP SYSTEM
4 35 36 37 38
ATOM$RED        STATIC     ATOMS    COLORGROUP SYSTEM
3 16 29 34
