#       Name:                AV-unprocessed.smi:2604
#       Creating user name   scv26
#       Creation time:       Fri Mar 27 14:20:34 2020


#       File generated by GOLD software.
#

@<TRIPOS>MOLECULE
AV-unprocessed.smi:2604
    28    29     1
SMALL
NO_CHARGES


@<TRIPOS>ATOM
      1 ****        -3.3460  -0.5056  -0.2073 C.ar           1 S1                 0.0000
      2 ****        -3.9225   0.7659  -0.0188 C.ar           1 S1                 0.0000
      3 ****        -3.1942   1.8908   0.1453 N.ar           1 S1                 0.0000
      4 ****        -1.8486   1.7832   0.1242 C.ar           1 S1                 0.0000
      5 ****        -1.1673   0.5596  -0.0585 C.ar           1 S1                 0.0000
      6 ****         0.3529   0.5152  -0.0591 C.3            1 S1                 0.0000
      7 ****         0.9337  -0.2308  -1.2827 C.3            1 S1                 0.0000
      8 ****         2.3924  -0.2017  -1.2377 N.3            1 S1                 0.0000
      9 ****         2.8424  -0.8958  -0.0349 C.3            1 S1                 0.0000
     10 ****         2.3200  -0.1640   1.2157 C.3            1 S1                 0.0000
     11 ****         0.8443  -0.1043   1.1905 N.4            1 S1                 1.0000
     12 ****        -1.9420  -0.6093  -0.2274 C.ar           1 S1                 0.0000
     13 ****        -3.9673  -1.3803  -0.3313 H              1 S1                 0.0000
     14 ****        -4.9961   0.8820   0.0045 H              1 S1                 0.0000
     15 ****        -1.3009   2.7039   0.2618 H              1 S1                 0.0000
     16 ****         0.7163   1.5445  -0.0805 H              1 S1                 0.0000
     17 ****         0.5927  -1.2661  -1.3215 H              1 S1                 0.0000
     18 ****         0.6041   0.2497  -2.2045 H              1 S1                 0.0000
     19 ****         2.7653  -0.6640  -2.0556 H              1 S1                 0.0000
     20 ****         2.5017  -1.9322  -0.0515 H              1 S1                 0.0000
     21 ****         3.9324  -0.9173  -0.0270 H              1 S1                 0.0000
     22 ****         2.6399  -0.6816   2.1201 H              1 S1                 0.0000
     23 ****         2.7248   0.8480   1.2659 H              1 S1                 0.0000
     24 ****         0.5155   0.4290   1.9826 H              1 S1                 0.0000
     25 ****        -1.4744  -1.5734  -0.3626 H              1 S1                 0.0000
     26 ****         0.4813  -1.0447   1.2503 H              1 S1                 0.0000
     27 ****        -3.6381   2.7769   0.2785 LP             1 S1                 0.0000
     28 ****         2.7127   0.7455  -1.2218 LP             1 S1                 0.0000
@<TRIPOS>BOND
    1    1   12 ar    
    2    1    2 ar    
    3    1   13 1     
    4    2    3 ar    
    5    2   14 1     
    6    3    4 ar    
    7    4    5 ar    
    8    4   15 1     
    9    5    6 1     
   10    5   12 ar    
   11    6   11 1     
   12    6    7 1     
   13    6   16 1     
   14    7    8 1     
   15    7   17 1     
   16    7   18 1     
   17    8    9 1     
   18    8   19 1     
   19    9   10 1     
   20    9   20 1     
   21    9   21 1     
   22   10   11 1     
   23   10   22 1     
   24   10   23 1     
   25   11   24 1     
   26   11   26 1     
   27   12   25 1     
   28    3   27 1     
   29    8   28 1     
@<TRIPOS>SUBSTRUCTURE
      1 S1             1
@<TRIPOS>SET
LONE_PAIRS      STATIC     ATOMS    <user>   **** ""
2 27 28
DONOR_HYDROGENS      STATIC     ATOMS    <user>   **** ""
3 19 24 26
ATOM$BLUE        STATIC     ATOMS    COLORGROUP SYSTEM
2 27 28
ATOM$RED        STATIC     ATOMS    COLORGROUP SYSTEM
3 19 24 26
