AV-unprocessed.smi:72|AV-procd|sdf|758|dock10
  -GOLD-   2262017 93D 1   1.00000     0.00000
 Structure written by MMmdl.
 29 30  0  0  0  0  0  0  0  0  1 V2000
  153.9056  138.3552  159.5736 N   0  0  0  0  0  0  0  0  0  0  0  0
  152.8917  138.3927  158.6392 C   0  0  0  0  0  0  0  0  0  0  0  0
  153.1801  139.0440  157.4317 N   0  0  0  0  0  0  0  0  0  0  0  0
  152.2268  139.0888  156.5557 C   0  0  0  0  0  0  0  0  0  0  0  0
  150.9283  138.4979  156.8226 N   0  0  0  0  0  0  0  0  0  0  0  0
  149.8247  138.5421  155.7897 C   0  0  1  0  0  0  0  0  0  0  0  0
  148.7377  139.2431  156.3188 O   0  0  0  0  0  0  0  0  0  0  0  0
  148.2180  140.1322  155.3360 C   0  0  1  0  0  0  0  0  0  0  0  0
  147.4764  141.2922  156.0184 C   0  0  0  0  0  0  0  0  0  0  0  0
  147.0899  142.2525  155.0585 O   0  0  0  0  0  0  0  0  0  0  0  0
  149.4817  140.5647  154.5904 C   0  0  2  0  0  0  0  0  0  0  0  0
  149.2117  141.1258  153.3195 O   0  0  0  0  0  0  0  0  0  0  0  0
  150.2931  139.2739  154.5214 C   0  0  2  0  0  0  0  0  0  0  0  0
  150.0022  138.5128  153.3638 O   0  0  0  0  0  0  0  0  0  0  0  0
  150.7118  137.8303  158.0595 C   0  0  0  0  0  0  0  0  0  0  0  0
  149.6329  137.2862  158.2936 O   0  0  0  0  0  0  0  0  0  0  0  0
  151.7722  137.8178  158.9740 N   0  0  0  0  0  0  0  0  0  0  0  0
  149.5115  137.5126  155.6112 H   0  0  0  0  0  0  0  0  0  0  0  0
  147.5612  139.5820  154.6588 H   0  0  0  0  0  0  0  0  0  0  0  0
  150.0257  141.2960  155.1898 H   0  0  0  0  0  0  0  0  0  0  0  0
  151.3664  139.4679  154.5488 H   0  0  0  0  0  0  0  0  0  0  0  0
  153.8129  137.9128  160.4764 H   0  0  0  0  0  0  0  0  0  0  0  0
  154.8164  138.7646  159.4238 H   0  0  0  0  0  0  0  0  0  0  0  0
  152.3344  139.5605  155.5780 H   0  0  0  0  0  0  0  0  0  0  0  0
  146.6078  140.9367  156.5738 H   0  0  0  0  0  0  0  0  0  0  0  0
  148.1341  141.7912  156.7305 H   0  0  0  0  0  0  0  0  0  0  0  0
  147.6926  142.9791  155.1001 H   0  0  0  0  0  0  0  0  0  0  0  0
  149.3339  140.4557  152.6645 H   0  0  0  0  0  0  0  0  0  0  0  0
  149.8605  139.1076  152.6432 H   0  0  0  0  0  0  0  0  0  0  0  0
  1  2  1  0  0  0  0
  1 22  1  0  0  0  0
  1 23  1  0  0  0  0
  2 17  2  0  0  0  0
  2  3  1  0  0  0  0
  3  4  2  0  0  0  0
  4  5  1  0  0  0  0
  4 24  1  0  0  0  0
  5  6  1  0  0  0  0
  5 15  1  0  0  0  0
  6 18  1  0  0  0  0
  6 13  1  0  0  0  0
  6  7  1  0  0  0  0
  7  8  1  0  0  0  0
  8 19  1  0  0  0  0
  8  9  1  0  0  0  0
  8 11  1  0  0  0  0
  9 10  1  0  0  0  0
  9 25  1  0  0  0  0
  9 26  1  0  0  0  0
 10 27  1  0  0  0  0
 11 20  1  0  0  0  0
 11 12  1  0  0  0  0
 11 13  1  0  0  0  0
 12 28  1  0  0  0  0
 13 21  1  0  0  0  0
 13 14  1  0  0  0  0
 14 29  1  0  0  0  0
 15 16  2  0  0  0  0
 15 17  1  0  0  0  0
M  END
> <s_m_source_file>
AV-unprocessed.smi

> <i_m_source_file_index>
72

> <i_lp_mmshare_version>
43012

> <i_f3d_flags>
0

> <s_epik_input>
W05IMl1jMW5bY0hdbihjKD1PKW4xKVtDQEBIXTJPW0NASF0oW0NIMl1bT0hdKVtDQEBIXShbT0hdKVtDQEhdMltPSF0=

> <s_epik_cmdline>
J2VwaWtfcHl0aG9uJywgJy1waCcsICc3LjAnLCAnLXRuJywgJzgnLCAnLW1hJywgJzIwMCcsICctbWV0YWxfYmluZGluZycsICctaW1hZScsICc8aW5maWxlLm1hZT4nLCAnLW9tYWUnLCAnPG91dGZpbGUubWFlPic=

> <r_lp_tautomer_probability>
4.77166e-05

> <r_epik_Ionization_Penalty>
1.3546

> <r_epik_Ionization_Penalty_Charging>
1.46833e-10

> <r_epik_Ionization_Penalty_Neutral>
1.3546

> <r_epik_State_Penalty>
3.51908

> <r_epik_Charging_Adjusted_Penalty>
3.51908

> <i_epik_Tot_Q>
0

> <i_epik_Tot_abs_Q>
0

> <r_epik_Metal_State_Penalty>
3.44088

> <b_epik_Metal_Only>
1

> <s_epik_Chemistry_Notes>
This compound contains an acetal/aminal-like group ( X-CH(R)-Y where X, Y are N, S, or O) that may be acid/base labile, releasing an aldehyde.

> <s_lp_Force_Field>
OPLS_2005

> <r_lp_Energy>
31.7119

> <b_lp_Chiralities_Consistent>
1

> <s_lp_Variant>
AV-unprocessed.smi:72-96

> <Gold.Version>
5.8.1

> <Gold.Id.Protein>
6NUR|6NUR_protein|mol2

> <Gold.PLP.Fitness>
35.6835

> <Gold.PLP.PLP>
-21.0638

> <Gold.PLP.part.hbond>
-6.7032

> <Gold.PLP.part.metal>
0.0000

> <Gold.PLP.part.buried>
-4.2615

> <Gold.PLP.part.nonpolar>
-10.2981

> <Gold.PLP.part.repulsive>
0.0577

> <Gold.PLP.ligand.clash>
0.0000

> <Gold.PLP.ligand.torsion>
0.0180

> <Gold.PLP.Chemscore.Hbond>
4.8800

> <Gold.PLP.Chemscore.CHOScore>
0.0000

> <Gold.PLP.Chemscore.Metal>
0.0000

> <Gold.Chemscore.Hbonds>
donor molecule, donor type, donor heavy atom, donor atom, acceptor molecule, acceptor atom, score
      L1  H    10    27       P1  8028  0.70
      L1  H    12    28       P1  7957  0.99
      L1  H    14    29       P1  7957  1.00
      P1  H  7997  8008       L1     3  1.00
      P1  H  8011  8017       L1    12  0.75

> <Gold.PLP.Chemscore.Internal.Correction>
0.0157

> <Gold.Rescore>
     Score         DG    S(hbond)    S(metal)    S(lipo)     H(rot)  DE(clash)    DE(int)     intcor
      9.82     -10.16       3.77        0.00      21.32       4.06       0.00       0.34       ----

> <Gold.Chemscore.Fitness>
9.8151

> <Gold.Chemscore.DG>
-10.1609

> <Gold.Chemscore.ZeroCoef>
-5.4800

> <Gold.Chemscore.Hbond>
3.7664

> <Gold.Chemscore.Metal>
0.0000

> <Gold.Chemscore.Lipo>
21.3226

> <Gold.Chemscore.Internal_Hbond>
0.0000

> <Gold.Chemscore.DEClash>
0.0029

> <Gold.Chemscore.DEInternal>
0.3429

> <Gold.Chemscore.Rot>
4.0600

> <Gold.Chemscore.Internal.Correction>
   9.000000E+99

> <Gold.Chemscore.Hbonds>
donor molecule, donor type, donor heavy atom, donor atom, acceptor molecule, acceptor atom, score
      L1  H    10    27       P1  8028  0.46
      L1  H    12    28       P1  7957  0.91
      L1  H    14    29       P1  7957  0.85
      P1  H  7997  8008       L1     3  0.88
      P1  H  8011  8017       L1    12  0.09

> <Gold.Chemscore.Hbond.Weighted>
-12.5798

> <Gold.Chemscore.Metal.Weighted>
-0.0000

> <Gold.Chemscore.Lipo.Weighted>
-2.4947

> <Gold.Chemscore.Internal_Hbond.Weighted>
0.0000

> <Gold.Chemscore.DEClash.Weighted>
0.0029

> <Gold.Chemscore.DEInternal.Weighted>
0.3429

> <Gold.Chemscore.Rot.Weighted>
10.3936

> <Gold.Chemscore.Internal.Correction.Weighted>
   9.000000E+99

> <Gold.Protein.RotatedTorsions>
[ 6907 6896 6895 6894 ] final   72.31 input  -60.11 | X-H torsion
[ 7974 7965 7964 7962 ] final  -51.29 input  175.53 | X-H torsion
[ 8008 7997 7996 7995 ] final  -86.20 input   59.86 | X-H torsion
[ 10167 10162 10161 10158 ] final  -16.73 input  -65.29 | X-H torsion
[ 10718 10713 10712 10709 ] final  145.35 input   66.30 | X-H torsion
[ 10763 10752 10751 10750 ] final   25.30 input  -60.55 | X-H torsion
[ 11005 11000 10999 10996 ] final -137.27 input  -57.11 | X-H torsion

> <Gold.Protein.ActiveResidues>
 VAL166  LYS551  ARG553  GLY616  TRP617  ASP618  TYR619  PRO620  LYS621  CYS622 
 ASP623  PHE694  ASN695  SER759  ASP760  ASP761  ALA762  ILE779  LEU786  VAL792 
 PHE793  MET794  SER795  GLU796  ALA797  LYS798  CYS799  TRP800  GLU811  SER814 

> <Gold.Protein.RotatedAtoms>
  152.4860  134.4591  159.9598 H   0  0  0  0  0  0  0  0  0  0  0  0  # atno 6907 bound_to 6896
  151.4587  133.3592  159.2814 H   0  0  0  0  0  0  0  0  0  0  0  0  # atno 6908 bound_to 6896
  150.8971  134.8405  159.7395 H   0  0  0  0  0  0  0  0  0  0  0  0  # atno 6909 bound_to 6896
  145.9205  140.7837  142.9649 H   0  0  0  0  0  0  0  0  0  0  0  0  # atno 7974 bound_to 7965
  154.6493  140.0581  156.9937 H   0  0  0  0  0  0  0  0  0  0  0  0  # atno 8008 bound_to 7997
  155.1396  140.3264  155.4436 H   0  0  0  0  0  0  0  0  0  0  0  0  # atno 8009 bound_to 7997
  156.2568  140.1966  156.6512 H   0  0  0  0  0  0  0  0  0  0  0  0  # atno 8010 bound_to 7997
  140.7238  143.5086  150.9778 H   0  0  0  0  0  0  0  0  0  0  0  0  # atno 10167 bound_to 10162
  157.3463  131.0944  151.1039 H   0  0  0  0  0  0  0  0  0  0  0  0  # atno 10718 bound_to 10713
  153.0702  135.6586  154.0265 H   0  0  0  0  0  0  0  0  0  0  0  0  # atno 10763 bound_to 10752
  153.9912  135.2946  155.3413 H   0  0  0  0  0  0  0  0  0  0  0  0  # atno 10764 bound_to 10752
  154.7074  135.5219  153.8685 H   0  0  0  0  0  0  0  0  0  0  0  0  # atno 10765 bound_to 10752
  140.8727  134.2031  157.4641 H   0  0  0  0  0  0  0  0  0  0  0  0  # atno 11005 bound_to 11000
  144.6752  140.1969  143.7391 LP  0  0  0  0  0  0  0  0  0  0  0  0  # atno 17320 bound_to 7965
  145.8555  139.2197  143.1747 LP  0  0  0  0  0  0  0  0  0  0  0  0  # atno 17321 bound_to 7965
  139.8799  143.7085  152.3158 LP  0  0  0  0  0  0  0  0  0  0  0  0  # atno 17342 bound_to 10162
  139.7364  144.7570  151.0721 LP  0  0  0  0  0  0  0  0  0  0  0  0  # atno 17343 bound_to 10162
  157.2232  130.6491  149.5819 LP  0  0  0  0  0  0  0  0  0  0  0  0  # atno 17370 bound_to 10713
  155.9715  130.4622  150.6139 LP  0  0  0  0  0  0  0  0  0  0  0  0  # atno 17371 bound_to 10713
  139.8713  134.9781  156.4986 LP  0  0  0  0  0  0  0  0  0  0  0  0  # atno 17394 bound_to 11000
  140.8554  133.8100  155.9211 LP  0  0  0  0  0  0  0  0  0  0  0  0  # atno 17395 bound_to 11000

$$$$
