AV-unprocessed.smi:692|AV-procd|sdf|3370|dock10
  -GOLD-   22720 0353D 1   1.00000     0.00000
 Structure written by MMmdl.
 36 37  0  0  0  0  0  0  0  0  2 V2000
  145.6483  142.4098  155.3213 C   0  0  0  0  0  0  0  0  0  0  0  0
  146.8839  142.3324  154.4178 C   0  0  0  0  0  0  0  0  0  0  0  0
  147.3987  140.9325  154.2759 C   0  0  0  0  0  0  0  0  0  0  0  0
  146.7007  139.8388  153.8339 C   0  0  0  0  0  0  0  0  0  0  0  0
  147.6897  138.4067  153.8211 S   0  0  0  0  0  0  0  0  0  0  0  0
  149.0474  139.3526  154.4352 C   0  0  0  0  0  0  0  0  0  0  0  0
  150.2724  138.8654  154.6906 N   0  5  0  0  0  0  0  0  0  0  0  0
  151.2081  139.6558  155.2642 C   0  0  0  0  0  0  0  0  0  0  0  0
  152.1660  140.1847  154.6956 O   0  0  0  0  0  0  0  0  0  0  0  0
  151.0198  139.8478  156.5777 N   0  0  0  0  0  0  0  0  0  0  0  0
  151.8630  140.6527  157.4572 C   0  0  2  0  0  0  0  0  0  0  0  0
  152.1068  139.9039  158.7684 C   0  0  0  0  0  0  0  0  0  0  0  0
  153.0261  140.7179  159.6866 C   0  0  0  0  0  0  0  0  0  0  0  0
  152.6183  142.1934  159.8164 C   0  0  0  0  0  0  0  0  0  0  0  0
  153.0576  142.8343  160.7719 O   0  0  0  0  0  0  0  0  0  0  0  0
  151.8229  142.7497  158.8707 N   0  0  0  0  0  0  0  0  0  0  0  0
  151.4516  144.1631  158.9559 C   0  0  0  0  0  0  0  0  0  0  0  0
  151.2087  142.0163  157.7531 C   0  0  0  0  0  0  0  0  0  0  0  0
  148.7247  140.6394  154.6056 N   0  0  0  0  0  0  0  0  0  0  0  0
  145.2955  143.4373  155.4103 H   0  0  0  0  0  0  0  0  0  0  0  0
  145.8720  142.0452  156.3243 H   0  0  0  0  0  0  0  0  0  0  0  0
  144.8300  141.8100  154.9215 H   0  0  0  0  0  0  0  0  0  0  0  0
  146.6380  142.7398  153.4365 H   0  0  0  0  0  0  0  0  0  0  0  0
  147.6641  142.9780  154.8219 H   0  0  0  0  0  0  0  0  0  0  0  0
  145.6709  139.7877  153.5146 H   0  0  0  0  0  0  0  0  0  0  0  0
  150.2229  139.3944  157.0000 H   0  0  0  0  0  0  0  0  0  0  0  0
  152.8290  140.8144  156.9742 H   0  0  0  0  0  0  0  0  0  0  0  0
  151.1589  139.7090  159.2724 H   0  0  0  0  0  0  0  0  0  0  0  0
  152.5587  138.9314  158.5689 H   0  0  0  0  0  0  0  0  0  0  0  0
  153.0588  140.2616  160.6766 H   0  0  0  0  0  0  0  0  0  0  0  0
  154.0447  140.6907  159.2980 H   0  0  0  0  0  0  0  0  0  0  0  0
  152.3338  144.7962  158.8521 H   0  0  0  0  0  0  0  0  0  0  0  0
  150.9832  144.3839  159.9164 H   0  0  0  0  0  0  0  0  0  0  0  0
  150.7441  144.4507  158.1769 H   0  0  0  0  0  0  0  0  0  0  0  0
  151.2350  142.6300  156.8513 H   0  0  0  0  0  0  0  0  0  0  0  0
  150.1554  141.8720  157.9991 H   0  0  0  0  0  0  0  0  0  0  0  0
  1  2  1  0  0  0  0
  1 20  1  0  0  0  0
  1 21  1  0  0  0  0
  1 22  1  0  0  0  0
  2  3  1  0  0  0  0
  2 23  1  0  0  0  0
  2 24  1  0  0  0  0
  3 19  1  0  0  0  0
  3  4  2  0  0  0  0
  4  5  1  0  0  0  0
  4 25  1  0  0  0  0
  5  6  1  0  0  0  0
  6  7  1  0  0  0  0
  6 19  2  0  0  0  0
  7  8  1  0  0  0  0
  8  9  2  0  0  0  0
  8 10  1  0  0  0  0
 10 11  1  0  0  0  0
 10 26  1  0  0  0  0
 11 18  1  0  0  0  0
 11 12  1  0  0  0  0
 11 27  1  0  0  0  0
 12 13  1  0  0  0  0
 12 28  1  0  0  0  0
 12 29  1  0  0  0  0
 13 14  1  0  0  0  0
 13 30  1  0  0  0  0
 13 31  1  0  0  0  0
 14 15  2  0  0  0  0
 14 16  1  0  0  0  0
 16 17  1  0  0  0  0
 16 18  1  0  0  0  0
 17 32  1  0  0  0  0
 17 33  1  0  0  0  0
 17 34  1  0  0  0  0
 18 35  1  0  0  0  0
 18 36  1  0  0  0  0
M  CHG  1   7  -1
M  END
> <s_m_source_file>
AV-unprocessed.smi

> <i_m_source_file_index>
692

> <i_lp_mmshare_version>
43012

> <i_f3d_flags>
0

> <s_epik_input>
W0NIM11bQ0gyXWMxW2NIXXNjKG4xKVtOSF1DKD1PKVtOSF1bQ0BASF0yW0NIMl1bQ0gyXUMoPU8pTihbQ0gzXSlbQ0gyXTI=

> <s_epik_cmdline>
J2VwaWtfcHl0aG9uJywgJy1waCcsICc3LjAnLCAnLXRuJywgJzgnLCAnLW1hJywgJzIwMCcsICctbWV0YWxfYmluZGluZycsICctaW1hZScsICc8aW5maWxlLm1hZT4nLCAnLW9tYWUnLCAnPG91dGZpbGUubWFlPic=

> <r_lp_tautomer_probability>
1

> <r_epik_Ionization_Penalty>
7.06728

> <r_epik_Ionization_Penalty_Charging>
5.78908

> <r_epik_Ionization_Penalty_Neutral>
1.2782

> <r_epik_State_Penalty>
5.78905

> <r_epik_Charging_Adjusted_Penalty>
11.5781

> <i_epik_Tot_Q>
-1

> <i_epik_Tot_abs_Q>
1

> <r_epik_Metal_State_Penalty>
1.76044

> <b_epik_Metal_Only>
1

> <s_lp_Force_Field>
OPLS_2005

> <r_lp_Energy>
4.23382

> <b_lp_Chiralities_Consistent>
1

> <s_lp_Variant>
AV-unprocessed.smi:692-3

> <Gold.Version>
5.8.1

> <Gold.Id.Protein>
6NUR|6NUR_protein|mol2

> <Gold.PLP.Fitness>
41.2473

> <Gold.PLP.PLP>
-37.9235

> <Gold.PLP.part.hbond>
-0.8460

> <Gold.PLP.part.metal>
0.0000

> <Gold.PLP.part.buried>
-5.4443

> <Gold.PLP.part.nonpolar>
-31.8413

> <Gold.PLP.part.repulsive>
0.3946

> <Gold.PLP.ligand.clash>
0.0000

> <Gold.PLP.ligand.torsion>
0.9503

> <Gold.PLP.Chemscore.Hbond>
0.7360

> <Gold.PLP.Chemscore.CHOScore>
1.0000

> <Gold.PLP.Chemscore.Metal>
0.0000

> <Gold.Chemscore.Hbonds>
donor molecule, donor type, donor heavy atom, donor atom, acceptor molecule, acceptor atom, score
      P1  H  7989  7998       L1     9  0.55
      L1  C     4    25       P1 10175  1.00

> <Gold.PLP.Chemscore.Internal.Correction>
0.0165

> <Gold.Rescore>
     Score         DG    S(hbond)    S(metal)    S(lipo)     H(rot)  DE(clash)    DE(int)     intcor
     11.56     -12.49       0.86        0.00      62.21       1.23       0.07       0.86       ----

> <Gold.Chemscore.Fitness>
11.5633

> <Gold.Chemscore.DG>
-12.4889

> <Gold.Chemscore.ZeroCoef>
-5.4800

> <Gold.Chemscore.Hbond>
0.8581

> <Gold.Chemscore.Metal>
0.0000

> <Gold.Chemscore.Lipo>
62.2144

> <Gold.Chemscore.Internal_Hbond>
0.0000

> <Gold.Chemscore.DEClash>
0.0683

> <Gold.Chemscore.DEInternal>
0.8572

> <Gold.Chemscore.Rot>
1.2251

> <Gold.Chemscore.Internal.Correction>
   9.000000E+99

> <Gold.Chemscore.Hbonds>
donor molecule, donor type, donor heavy atom, donor atom, acceptor molecule, acceptor atom, score
      P1  H  7989  7998       L1     9  0.38

> <Gold.Chemscore.Hbond.Weighted>
-2.8660

> <Gold.Chemscore.Metal.Weighted>
-0.0000

> <Gold.Chemscore.Lipo.Weighted>
-7.2791

> <Gold.Chemscore.Internal_Hbond.Weighted>
0.0000

> <Gold.Chemscore.DEClash.Weighted>
0.0683

> <Gold.Chemscore.DEInternal.Weighted>
0.8572

> <Gold.Chemscore.Rot.Weighted>
3.1362

> <Gold.Chemscore.Internal.Correction.Weighted>
   9.000000E+99

> <Gold.Protein.RotatedTorsions>
[ 6907 6896 6895 6894 ] final   44.66 input  -60.11 | X-H torsion
[ 7974 7965 7964 7962 ] final  -33.44 input  175.53 | X-H torsion
[ 8008 7997 7996 7995 ] final   -2.15 input   59.86 | X-H torsion
[ 10167 10162 10161 10158 ] final  -61.11 input  -65.29 | X-H torsion
[ 10718 10713 10712 10709 ] final   91.04 input   66.30 | X-H torsion
[ 10763 10752 10751 10750 ] final  -43.89 input  -60.55 | X-H torsion
[ 11005 11000 10999 10996 ] final -152.92 input  -57.11 | X-H torsion

> <Gold.Protein.ActiveResidues>
 VAL166  LYS551  ARG553  GLY616  TRP617  ASP618  TYR619  PRO620  LYS621  CYS622 
 ASP623  PHE694  ASN695  SER759  ASP760  ASP761  ALA762  ILE779  LEU786  VAL792 
 PHE793  MET794  SER795  GLU796  ALA797  LYS798  CYS799  TRP800  GLU811  SER814 

> <Gold.Protein.RotatedAtoms>
  152.2352  134.8283  160.0467 H   0  0  0  0  0  0  0  0  0  0  0  0  # atno 6907 bound_to 6896
  151.9018  133.3534  159.3841 H   0  0  0  0  0  0  0  0  0  0  0  0  # atno 6908 bound_to 6896
  150.7037  134.4747  159.5486 H   0  0  0  0  0  0  0  0  0  0  0  0  # atno 6909 bound_to 6896
  146.0910  140.5916  142.8864 H   0  0  0  0  0  0  0  0  0  0  0  0  # atno 7974 bound_to 7965
  154.6389  140.2541  155.7345 H   0  0  0  0  0  0  0  0  0  0  0  0  # atno 8008 bound_to 7997
  156.2518  140.2891  156.0694 H   0  0  0  0  0  0  0  0  0  0  0  0  # atno 8009 bound_to 7997
  155.1628  140.0384  157.2836 H   0  0  0  0  0  0  0  0  0  0  0  0  # atno 8010 bound_to 7997
  140.6027  143.2365  151.5891 H   0  0  0  0  0  0  0  0  0  0  0  0  # atno 10167 bound_to 10162
  157.6960  131.0393  150.3669 H   0  0  0  0  0  0  0  0  0  0  0  0  # atno 10718 bound_to 10713
  154.0030  135.6691  153.4760 H   0  0  0  0  0  0  0  0  0  0  0  0  # atno 10763 bound_to 10752
  153.0654  135.5004  154.8184 H   0  0  0  0  0  0  0  0  0  0  0  0  # atno 10764 bound_to 10752
  154.7041  135.3084  154.9260 H   0  0  0  0  0  0  0  0  0  0  0  0  # atno 10765 bound_to 10752
  140.7137  134.3804  157.5194 H   0  0  0  0  0  0  0  0  0  0  0  0  # atno 11005 bound_to 11000
  144.7360  140.4810  143.6903 LP  0  0  0  0  0  0  0  0  0  0  0  0  # atno 17320 bound_to 7965
  145.6038  139.1506  143.3114 LP  0  0  0  0  0  0  0  0  0  0  0  0  # atno 17321 bound_to 7965
  139.5303  144.2937  152.1131 LP  0  0  0  0  0  0  0  0  0  0  0  0  # atno 17342 bound_to 10162
  140.2121  144.4552  150.6381 LP  0  0  0  0  0  0  0  0  0  0  0  0  # atno 17343 bound_to 10162
  156.4099  130.3932  149.6899 LP  0  0  0  0  0  0  0  0  0  0  0  0  # atno 17370 bound_to 10713
  156.4187  130.7758  151.2774 LP  0  0  0  0  0  0  0  0  0  0  0  0  # atno 17371 bound_to 10713
  139.8865  134.8907  156.2581 LP  0  0  0  0  0  0  0  0  0  0  0  0  # atno 17394 bound_to 11000
  141.0063  133.7122  156.1039 LP  0  0  0  0  0  0  0  0  0  0  0  0  # atno 17395 bound_to 11000

$$$$
