#       Name:                AV-unprocessed.smi:1814
#       Creating user name   scv26
#       Creation time:       Fri Mar 27 09:01:11 2020


#       File generated by GOLD software.
#

@<TRIPOS>MOLECULE
AV-unprocessed.smi:1814
    36    37     1
SMALL
NO_CHARGES


@<TRIPOS>ATOM
      1 ****        -0.8570   1.8387  -0.5229 O.2            1 S1                 0.0000
      2 ****        -1.3036   0.8324   0.0287 C.2            1 S1                 0.0000
      3 ****        -2.6000   0.6099   0.3084 N.am           1 S1                 0.0000
      4 ****        -3.7101   1.4588   0.0579 C.2            1 S1                 0.0000
      5 ****        -3.6245   2.6636  -0.5184 N.2            1 S1                 0.0000
      6 ****        -4.8733   3.2789  -0.6361 C.2            1 S1                 0.0000
      7 ****        -5.9066   2.5221  -0.1424 C.2            1 S1                 0.0000
      8 ****        -5.3488   0.9984   0.4957 S.3            1 S1                 0.0000
      9 ****        -0.5378  -0.1936   0.4284 N.am           1 S1                 0.0000
     10 ****         0.9132  -0.2677   0.2833 C.3            1 S1                 0.0000
     11 ****         1.2965  -0.7464  -1.1328 C.3            1 S1                 0.0000
     12 ****         2.8191  -0.8983  -1.2809 C.3            1 S1                 0.0000
     13 ****         3.3904  -1.8393  -0.2063 C.3            1 S1                 0.0000
     14 ****         4.7957  -1.8972  -0.3287 O.3            1 S1                 0.0000
     15 ****         3.0165  -1.3585   1.2063 C.3            1 S1                 0.0000
     16 ****         1.4936  -1.2103   1.3547 C.3            1 S1                 0.0000
     17 ****        -2.8179  -0.2663   0.7593 H              1 S1                 0.0000
     18 ****        -4.9353   4.2595  -1.0849 H              1 S1                 0.0000
     19 ****        -6.9577   2.7684  -0.1148 H              1 S1                 0.0000
     20 ****        -0.9898  -0.9801   0.8710 H              1 S1                 0.0000
     21 ****         1.3356   0.7261   0.4453 H              1 S1                 0.0000
     22 ****         0.8158  -1.7030  -1.3428 H              1 S1                 0.0000
     23 ****         0.9272  -0.0449  -1.8818 H              1 S1                 0.0000
     24 ****         3.0568  -1.2763  -2.2758 H              1 S1                 0.0000
     25 ****         3.2875   0.0840  -1.2022 H              1 S1                 0.0000
     26 ****         2.9990  -2.8456  -0.3612 H              1 S1                 0.0000
     27 ****         5.1448  -1.0285  -0.1992 H              1 S1                 0.0000
     28 ****         3.3935  -2.0583   1.9533 H              1 S1                 0.0000
     29 ****         3.4938  -0.3991   1.4113 H              1 S1                 0.0000
     30 ****         1.2579  -0.8347   2.3512 H              1 S1                 0.0000
     31 ****         1.0267  -2.1934   1.2763 H              1 S1                 0.0000
     32 ****        -1.4763   2.5730  -0.8009 LP             1 S1                 0.0000
     33 ****         0.1249   1.9216  -0.6928 LP             1 S1                 0.0000
     34 ****        -2.7675   3.0751  -0.8284 LP             1 S1                 0.0000
     35 ****         5.0414  -2.2268  -1.2403 LP             1 S1                 0.0000
     36 ****         5.1689  -2.5169   0.3617 LP             1 S1                 0.0000
@<TRIPOS>BOND
    1    1    2 2     
    2    2    3 am    
    3    2    9 am    
    4    3    4 1     
    5    3   17 1     
    6    4    8 1     
    7    4    5 2     
    8    5    6 1     
    9    6    7 2     
   10    6   18 1     
   11    7    8 1     
   12    7   19 1     
   13    9   10 1     
   14    9   20 1     
   15   10   16 1     
   16   10   11 1     
   17   10   21 1     
   18   11   12 1     
   19   11   22 1     
   20   11   23 1     
   21   12   13 1     
   22   12   24 1     
   23   12   25 1     
   24   13   14 1     
   25   13   15 1     
   26   13   26 1     
   27   14   27 1     
   28   15   16 1     
   29   15   28 1     
   30   15   29 1     
   31   16   30 1     
   32   16   31 1     
   33    1   32 1     
   34    1   33 1     
   35    5   34 1     
   36   14   35 1     
   37   14   36 1     
@<TRIPOS>SUBSTRUCTURE
      1 S1             1
@<TRIPOS>SET
LONE_PAIRS      STATIC     ATOMS    <user>   **** ""
5 32 33 34 35 36
DONOR_HYDROGENS      STATIC     ATOMS    <user>   **** ""
3 17 20 27
ATOM$BLUE        STATIC     ATOMS    COLORGROUP SYSTEM
5 32 33 34 35 36
ATOM$RED        STATIC     ATOMS    COLORGROUP SYSTEM
3 17 20 27
