AV-unprocessed.smi:2538|AV-procd|sdf|9983|dock10
  -GOLD-   2272014 33D 1   1.00000     0.00000
 Structure written by MMmdl.
 49 50  0  0  0  0  0  0  0  0  2 V2000
  151.8589  144.4031  160.7009 C   0  0  0  0  0  0  0  0  0  0  0  0
  151.7262  143.3928  159.5740 C   0  0  0  0  0  0  0  0  0  0  0  0
  150.9016  143.7158  158.4725 C   0  0  0  0  0  0  0  0  0  0  0  0
  150.7998  142.7718  157.4576 C   0  0  0  0  0  0  0  0  0  0  0  0
  150.0820  142.7877  156.2595 N   0  3  0  0  0  0  0  0  0  0  0  0
  150.2990  141.6250  155.5839 C   0  0  0  0  0  0  0  0  0  0  0  0
  151.1458  140.8682  156.3334 N   0  0  0  0  0  0  0  0  0  0  0  0
  151.7103  139.5374  156.0731 C   0  0  0  0  0  0  0  0  0  0  0  0
  151.0253  138.4298  156.8985 C   0  0  2  0  0  0  0  0  0  0  0  0
  151.9272  137.3463  157.0105 O   0  0  0  0  0  0  0  0  0  0  0  0
  149.7260  137.9321  156.2290 C   0  0  0  0  0  0  0  0  0  0  0  0
  149.2247  136.6668  156.7989 N   0  0  0  0  0  0  0  0  0  0  0  0
  148.7917  136.7168  158.2018 C   0  0  0  0  0  0  0  0  0  0  0  0
  149.7369  135.1426  156.1403 S   0  0  0  0  0  0  0  0  0  0  0  0
  151.1589  135.2856  155.7910 O   0  0  0  0  0  0  0  0  0  0  0  0
  149.3202  134.0912  157.0814 O   0  0  0  0  0  0  0  0  0  0  0  0
  148.7532  134.9869  154.5698 C   0  0  0  0  0  0  0  0  0  0  0  0
  147.2478  135.0202  154.8696 C   0  0  0  0  0  0  0  0  0  0  0  0
  149.1456  133.7147  153.8052 C   0  0  0  0  0  0  0  0  0  0  0  0
  151.4835  141.5420  157.5114 C   0  0  0  0  0  0  0  0  0  0  0  0
  152.3000  141.2071  158.5886 C   0  0  0  0  0  0  0  0  0  0  0  0
  152.4176  142.1546  159.6304 C   0  0  0  0  0  0  0  0  0  0  0  0
  153.3030  141.8183  160.8180 C   0  0  0  0  0  0  0  0  0  0  0  0
  151.2352  145.2803  160.5256 H   0  0  0  0  0  0  0  0  0  0  0  0
  152.8915  144.7409  160.7916 H   0  0  0  0  0  0  0  0  0  0  0  0
  151.5531  143.9629  161.6503 H   0  0  0  0  0  0  0  0  0  0  0  0
  150.3735  144.6569  158.4218 H   0  0  0  0  0  0  0  0  0  0  0  0
  149.8804  141.3554  154.6250 H   0  0  0  0  0  0  0  0  0  0  0  0
  151.6268  139.3369  155.0040 H   0  0  0  0  0  0  0  0  0  0  0  0
  152.7771  139.5801  156.2984 H   0  0  0  0  0  0  0  0  0  0  0  0
  150.8251  138.8194  157.8955 H   0  0  0  0  0  0  0  0  0  0  0  0
  152.5975  137.5762  157.6359 H   0  0  0  0  0  0  0  0  0  0  0  0
  148.9413  138.6776  156.3637 H   0  0  0  0  0  0  0  0  0  0  0  0
  149.8418  137.8419  155.1485 H   0  0  0  0  0  0  0  0  0  0  0  0
  149.6423  136.5859  158.8704 H   0  0  0  0  0  0  0  0  0  0  0  0
  148.0741  135.9217  158.4039 H   0  0  0  0  0  0  0  0  0  0  0  0
  148.3107  137.6688  158.4283 H   0  0  0  0  0  0  0  0  0  0  0  0
  148.9895  135.8447  153.9452 H   0  0  0  0  0  0  0  0  0  0  0  0
  146.6639  134.9352  153.9529 H   0  0  0  0  0  0  0  0  0  0  0  0
  146.9597  135.9529  155.3547 H   0  0  0  0  0  0  0  0  0  0  0  0
  146.9593  134.1991  155.5263 H   0  0  0  0  0  0  0  0  0  0  0  0
  148.6075  133.6449  152.8597 H   0  0  0  0  0  0  0  0  0  0  0  0
  148.9196  132.8178  154.3827 H   0  0  0  0  0  0  0  0  0  0  0  0
  150.2119  133.7076  153.5775 H   0  0  0  0  0  0  0  0  0  0  0  0
  152.8253  140.2641  158.6302 H   0  0  0  0  0  0  0  0  0  0  0  0
  153.7929  140.8527  160.6896 H   0  0  0  0  0  0  0  0  0  0  0  0
  152.7131  141.7738  161.7338 H   0  0  0  0  0  0  0  0  0  0  0  0
  154.0813  142.5715  160.9428 H   0  0  0  0  0  0  0  0  0  0  0  0
  149.4888  143.5360  155.9244 H   0  0  0  0  0  0  0  0  0  0  0  0
  1  2  1  0  0  0  0
  1 24  1  0  0  0  0
  1 25  1  0  0  0  0
  1 26  1  0  0  0  0
  2 22  1  0  0  0  0
  2  3  2  0  0  0  0
  3  4  1  0  0  0  0
  3 27  1  0  0  0  0
  4 20  2  0  0  0  0
  4  5  1  0  0  0  0
  5  6  2  0  0  0  0
  5 49  1  0  0  0  0
  6  7  1  0  0  0  0
  6 28  1  0  0  0  0
  7  8  1  0  0  0  0
  7 20  1  0  0  0  0
  8  9  1  0  0  0  0
  8 29  1  0  0  0  0
  8 30  1  0  0  0  0
  9 10  1  0  0  0  0
  9 11  1  0  0  0  0
  9 31  1  0  0  0  0
 10 32  1  0  0  0  0
 11 12  1  0  0  0  0
 11 33  1  0  0  0  0
 11 34  1  0  0  0  0
 12 13  1  0  0  0  0
 12 14  1  0  0  0  0
 13 35  1  0  0  0  0
 13 36  1  0  0  0  0
 13 37  1  0  0  0  0
 14 15  2  0  0  0  0
 14 16  2  0  0  0  0
 14 17  1  0  0  0  0
 17 18  1  0  0  0  0
 17 19  1  0  0  0  0
 17 38  1  0  0  0  0
 18 39  1  0  0  0  0
 18 40  1  0  0  0  0
 18 41  1  0  0  0  0
 19 42  1  0  0  0  0
 19 43  1  0  0  0  0
 19 44  1  0  0  0  0
 20 21  1  0  0  0  0
 21 22  2  0  0  0  0
 21 45  1  0  0  0  0
 22 23  1  0  0  0  0
 23 46  1  0  0  0  0
 23 47  1  0  0  0  0
 23 48  1  0  0  0  0
M  CHG  1   5   1
M  END
> <s_m_source_file>
AV-unprocessed.smi

> <i_m_source_file_index>
2538

> <i_lp_mmshare_version>
43012

> <i_f3d_flags>
0

> <s_epik_input>
W0NIM11jKFtjSF0xKWMoW0NIM10pW2NIXWMoYzEyKW4oW2NIXW4yKVtDSDJdW0NASF0oW09IXSlbQ0gyXU4oW0NIM10pUyg9TykoPU8pW0NIXShbQ0gzXSlbQ0gzXQ==

> <s_epik_cmdline>
J2VwaWtfcHl0aG9uJywgJy1waCcsICc3LjAnLCAnLXRuJywgJzgnLCAnLW1hJywgJzIwMCcsICctbWV0YWxfYmluZGluZycsICctaW1hZScsICc8aW5maWxlLm1hZT4nLCAnLW9tYWUnLCAnPG91dGZpbGUubWFlPic=

> <r_epik_Ionization_Penalty>
1.07686

> <r_epik_Ionization_Penalty_Charging>
1.07685

> <r_epik_Ionization_Penalty_Neutral>
1.40866e-06

> <r_epik_State_Penalty>
1.13193

> <r_epik_Charging_Adjusted_Penalty>
2.20879

> <i_epik_Tot_Q>
1

> <i_epik_Tot_abs_Q>
1

> <r_epik_Metal_State_Penalty>
5.12988

> <b_epik_Metal_Only>
0

> <s_lp_Force_Field>
OPLS_2005

> <r_lp_Energy>
10.0565

> <b_lp_Chiralities_Consistent>
1

> <s_lp_Variant>
AV-unprocessed.smi:2538-3

> <Gold.Version>
5.8.1

> <Gold.Id.Protein>
6NUR|6NUR_protein|mol2

> <Gold.PLP.Fitness>
53.1249

> <Gold.PLP.PLP>
-42.3192

> <Gold.PLP.part.hbond>
-2.8829

> <Gold.PLP.part.metal>
0.0000

> <Gold.PLP.part.buried>
-5.5625

> <Gold.PLP.part.nonpolar>
-33.9279

> <Gold.PLP.part.repulsive>
0.1105

> <Gold.PLP.ligand.clash>
0.0000

> <Gold.PLP.ligand.torsion>
1.9069

> <Gold.PLP.Chemscore.Hbond>
4.0000

> <Gold.PLP.Chemscore.CHOScore>
0.0000

> <Gold.PLP.Chemscore.Metal>
0.0000

> <Gold.Chemscore.Hbonds>
donor molecule, donor type, donor heavy atom, donor atom, acceptor molecule, acceptor atom, score
      L1  H     5    49       P1  8028  1.11
      P1  H 10752 10765       L1    15  0.59

> <Gold.PLP.Chemscore.Internal.Correction>
2.6195

> <Gold.Rescore>
     Score         DG    S(hbond)    S(metal)    S(lipo)     H(rot)  DE(clash)    DE(int)     intcor
     18.48     -22.09       2.94        0.00     109.75       2.36       0.01       3.60       ----

> <Gold.Chemscore.Fitness>
18.4840

> <Gold.Chemscore.DG>
-22.0939

> <Gold.Chemscore.ZeroCoef>
-5.4800

> <Gold.Chemscore.Hbond>
2.9383

> <Gold.Chemscore.Metal>
0.0000

> <Gold.Chemscore.Lipo>
109.7468

> <Gold.Chemscore.Internal_Hbond>
0.0000

> <Gold.Chemscore.DEClash>
0.0119

> <Gold.Chemscore.DEInternal>
3.5979

> <Gold.Chemscore.Rot>
2.3595

> <Gold.Chemscore.Internal.Correction>
   9.000000E+99

> <Gold.Chemscore.Hbonds>
donor molecule, donor type, donor heavy atom, donor atom, acceptor molecule, acceptor atom, score
      L1  H     5    49       P1  8028  0.56
      P1  H 10752 10765       L1    15  0.59

> <Gold.Chemscore.Hbond.Weighted>
-9.8138

> <Gold.Chemscore.Metal.Weighted>
-0.0000

> <Gold.Chemscore.Lipo.Weighted>
-12.8404

> <Gold.Chemscore.Internal_Hbond.Weighted>
0.0000

> <Gold.Chemscore.DEClash.Weighted>
0.0119

> <Gold.Chemscore.DEInternal.Weighted>
3.5979

> <Gold.Chemscore.Rot.Weighted>
6.0403

> <Gold.Chemscore.Internal.Correction.Weighted>
   9.000000E+99

> <Gold.Protein.RotatedTorsions>
[ 6907 6896 6895 6894 ] final  128.35 input  -60.11 | X-H torsion
[ 7974 7965 7964 7962 ] final  127.98 input  175.53 | X-H torsion
[ 8008 7997 7996 7995 ] final  -95.15 input   59.86 | X-H torsion
[ 10167 10162 10161 10158 ] final  -30.18 input  -65.29 | X-H torsion
[ 10718 10713 10712 10709 ] final  -43.88 input   66.30 | X-H torsion
[ 10763 10752 10751 10750 ] final -143.76 input  -60.55 | X-H torsion
[ 11005 11000 10999 10996 ] final  161.18 input  -57.11 | X-H torsion

> <Gold.Protein.ActiveResidues>
 VAL166  LYS551  ARG553  GLY616  TRP617  ASP618  TYR619  PRO620  LYS621  CYS622 
 ASP623  PHE694  ASN695  SER759  ASP760  ASP761  ALA762  ILE779  LEU786  VAL792 
 PHE793  MET794  SER795  GLU796  ALA797  LYS798  CYS799  TRP800  GLU811  SER814 

> <Gold.Protein.RotatedAtoms>
  152.3727  133.6440  159.6099 H   0  0  0  0  0  0  0  0  0  0  0  0  # atno 6907 bound_to 6896
  150.7681  133.9244  159.3416 H   0  0  0  0  0  0  0  0  0  0  0  0  # atno 6908 bound_to 6896
  151.7063  135.0922  160.0311 H   0  0  0  0  0  0  0  0  0  0  0  0  # atno 6909 bound_to 6896
  145.0445  139.3934  143.5085 H   0  0  0  0  0  0  0  0  0  0  0  0  # atno 7974 bound_to 7965
  154.7576  140.0483  157.0946 H   0  0  0  0  0  0  0  0  0  0  0  0  # atno 8008 bound_to 7997
  154.9978  140.3121  155.4860 H   0  0  0  0  0  0  0  0  0  0  0  0  # atno 8009 bound_to 7997
  156.2898  140.2207  156.5087 H   0  0  0  0  0  0  0  0  0  0  0  0  # atno 8010 bound_to 7997
  140.7252  143.3869  151.1499 H   0  0  0  0  0  0  0  0  0  0  0  0  # atno 10167 bound_to 10162
  156.2444  130.4182  149.8722 H   0  0  0  0  0  0  0  0  0  0  0  0  # atno 10718 bound_to 10713
  154.8456  135.3459  154.6239 H   0  0  0  0  0  0  0  0  0  0  0  0  # atno 10763 bound_to 10752
  153.6848  135.6978  153.5112 H   0  0  0  0  0  0  0  0  0  0  0  0  # atno 10764 bound_to 10752
  153.2640  135.4314  155.0878 H   0  0  0  0  0  0  0  0  0  0  0  0  # atno 10765 bound_to 10752
  140.2132  134.8251  157.3143 H   0  0  0  0  0  0  0  0  0  0  0  0  # atno 11005 bound_to 11000
  146.3512  140.0064  142.8671 LP  0  0  0  0  0  0  0  0  0  0  0  0  # atno 17320 bound_to 7965
  145.1605  140.9670  143.4380 LP  0  0  0  0  0  0  0  0  0  0  0  0  # atno 17321 bound_to 7965
  139.7468  143.8840  152.3065 LP  0  0  0  0  0  0  0  0  0  0  0  0  # atno 17342 bound_to 10162
  139.8680  144.7083  150.9021 LP  0  0  0  0  0  0  0  0  0  0  0  0  # atno 17343 bound_to 10162
  156.6293  130.8659  151.3492 LP  0  0  0  0  0  0  0  0  0  0  0  0  # atno 17370 bound_to 10713
  157.7189  130.9532  150.1360 LP  0  0  0  0  0  0  0  0  0  0  0  0  # atno 17371 bound_to 10713
  140.1928  134.4351  155.7706 LP  0  0  0  0  0  0  0  0  0  0  0  0  # atno 17394 bound_to 11000
  141.2225  133.7035  156.8055 LP  0  0  0  0  0  0  0  0  0  0  0  0  # atno 17395 bound_to 11000

$$$$
