AV-unprocessed.smi:1330|AV-procd|sdf|5486|dock3
  -GOLD-   22720 5 63D 1   1.00000     0.00000
 Structure written by MMmdl.
 42 43  0  0  0  0  0  0  0  0  1 V2000
  144.9930  139.4866  157.5591 C   0  0  0  0  0  0  0  0  0  0  0  0
  145.1568  140.5789  156.5371 C   0  0  0  0  0  0  0  0  0  0  0  0
  146.1003  140.4240  155.6672 N   0  0  0  0  0  0  0  0  0  0  0  0
  146.3378  141.3679  154.6879 N   0  0  0  0  0  0  0  0  0  0  0  0
  147.4594  141.0361  153.8003 C   0  0  0  0  0  0  0  0  0  0  0  0
  148.7025  140.5694  154.5904 C   0  0  1  0  0  0  0  0  0  0  0  0
  149.8278  140.7079  153.7450 O   0  0  0  0  0  0  0  0  0  0  0  0
  148.9562  141.4395  155.8328 C   0  0  0  0  0  0  0  0  0  0  0  0
  150.3214  141.3272  156.1998 O   0  0  0  0  0  0  0  0  0  0  0  0
  150.9470  142.5836  156.3945 C   0  0  0  0  0  0  0  0  0  0  0  0
  151.3757  142.7620  157.8365 C   0  0  0  0  0  0  0  0  0  0  0  0
  152.1111  141.7510  158.4901 C   0  0  0  0  0  0  0  0  0  0  0  0
  152.5161  141.9240  159.8281 C   0  0  0  0  0  0  0  0  0  0  0  0
  152.1878  143.1085  160.5166 C   0  0  0  0  0  0  0  0  0  0  0  0
  152.6853  143.3204  162.1551 Cl  0  0  0  0  0  0  0  0  0  0  0  0
  151.4545  144.1201  159.8659 C   0  0  0  0  0  0  0  0  0  0  0  0
  151.0495  143.9473  158.5277 C   0  0  0  0  0  0  0  0  0  0  0  0
  145.6281  142.5224  154.5333 C   0  0  0  0  0  0  0  0  0  0  0  0
  145.8779  143.3397  153.6461 O   0  0  0  0  0  0  0  0  0  0  0  0
  144.5596  142.6912  155.5207 C   0  0  0  0  0  0  0  0  0  0  0  0
  143.7932  143.8889  155.3965 C   0  0  0  0  0  0  0  0  0  0  0  0
  143.1725  144.8628  155.3166 N   0  0  0  0  0  0  0  0  0  0  0  0
  144.3183  141.7725  156.4894 C   0  0  0  0  0  0  0  0  0  0  0  0
  143.2241  141.9016  157.5401 C   0  0  0  0  0  0  0  0  0  0  0  0
  144.0047  139.0328  157.4852 H   0  0  0  0  0  0  0  0  0  0  0  0
  145.1104  139.8802  158.5687 H   0  0  0  0  0  0  0  0  0  0  0  0
  145.7300  138.6928  157.4286 H   0  0  0  0  0  0  0  0  0  0  0  0
  147.1676  140.2834  153.0648 H   0  0  0  0  0  0  0  0  0  0  0  0
  147.7039  141.9200  153.2085 H   0  0  0  0  0  0  0  0  0  0  0  0
  148.5926  139.5280  154.8958 H   0  0  0  0  0  0  0  0  0  0  0  0
  149.6215  140.3213  152.9077 H   0  0  0  0  0  0  0  0  0  0  0  0
  148.6729  142.4788  155.6557 H   0  0  0  0  0  0  0  0  0  0  0  0
  148.3529  141.0780  156.6672 H   0  0  0  0  0  0  0  0  0  0  0  0
  151.8238  142.6682  155.7502 H   0  0  0  0  0  0  0  0  0  0  0  0
  150.2657  143.3892  156.1158 H   0  0  0  0  0  0  0  0  0  0  0  0
  152.3697  140.8422  157.9666 H   0  0  0  0  0  0  0  0  0  0  0  0
  153.0799  141.1476  160.3243 H   0  0  0  0  0  0  0  0  0  0  0  0
  151.2027  145.0296  160.3912 H   0  0  0  0  0  0  0  0  0  0  0  0
  150.4908  144.7279  158.0321 H   0  0  0  0  0  0  0  0  0  0  0  0
  142.6379  142.8117  157.4163 H   0  0  0  0  0  0  0  0  0  0  0  0
  143.6561  141.9233  158.5410 H   0  0  0  0  0  0  0  0  0  0  0  0
  142.5347  141.0588  157.4809 H   0  0  0  0  0  0  0  0  0  0  0  0
  1  2  1  0  0  0  0
  1 25  1  0  0  0  0
  1 26  1  0  0  0  0
  1 27  1  0  0  0  0
  2 23  1  0  0  0  0
  2  3  2  0  0  0  0
  3  4  1  0  0  0  0
  4  5  1  0  0  0  0
  4 18  1  0  0  0  0
  5  6  1  0  0  0  0
  5 28  1  0  0  0  0
  5 29  1  0  0  0  0
  6  7  1  0  0  0  0
  6  8  1  0  0  0  0
  6 30  1  0  0  0  0
  7 31  1  0  0  0  0
  8  9  1  0  0  0  0
  8 32  1  0  0  0  0
  8 33  1  0  0  0  0
  9 10  1  0  0  0  0
 10 11  1  0  0  0  0
 10 34  1  0  0  0  0
 10 35  1  0  0  0  0
 11 17  1  0  0  0  0
 11 12  2  0  0  0  0
 12 13  1  0  0  0  0
 12 36  1  0  0  0  0
 13 14  2  0  0  0  0
 13 37  1  0  0  0  0
 14 15  1  0  0  0  0
 14 16  1  0  0  0  0
 16 17  2  0  0  0  0
 16 38  1  0  0  0  0
 17 39  1  0  0  0  0
 18 19  2  0  0  0  0
 18 20  1  0  0  0  0
 20 21  1  0  0  0  0
 20 23  2  0  0  0  0
 21 22  3  0  0  0  0
 23 24  1  0  0  0  0
 24 40  1  0  0  0  0
 24 41  1  0  0  0  0
 24 42  1  0  0  0  0
M  END
> <s_m_source_file>
AV-unprocessed.smi

> <i_m_source_file_index>
1330

> <i_lp_mmshare_version>
43012

> <i_f3d_flags>
0

> <s_epik_input>
TiNDYyhjMVtDSDNdKWMoPU8pbihuYzFbQ0gzXSlbQ0gyXVtDQEhdKFtPSF0pW0NIMl1PW0NIMl1jMltjSF1bY0hdYyhDbClbY0hdW2NIXTI=

> <s_epik_cmdline>
J2VwaWtfcHl0aG9uJywgJy1waCcsICc3LjAnLCAnLXRuJywgJzgnLCAnLW1hJywgJzIwMCcsICctbWV0YWxfYmluZGluZycsICctaW1hZScsICc8aW5maWxlLm1hZT4nLCAnLW9tYWUnLCAnPG91dGZpbGUubWFlPic=

> <r_lp_tautomer_probability>
1

> <r_epik_Ionization_Penalty>
6.27695e-08

> <r_epik_Ionization_Penalty_Charging>
2.19172e-10

> <r_epik_Ionization_Penalty_Neutral>
6.25504e-08

> <r_epik_State_Penalty>
-0

> <r_epik_Charging_Adjusted_Penalty>
2.19172e-10

> <i_epik_Tot_Q>
0

> <i_epik_Tot_abs_Q>
0

> <r_epik_Metal_State_Penalty>
-0

> <b_epik_Metal_Only>
0

> <s_lp_Force_Field>
OPLS_2005

> <r_lp_Energy>
31.5646

> <b_lp_Chiralities_Consistent>
1

> <s_lp_Variant>
AV-unprocessed.smi:1330-2

> <Gold.Version>
5.8.1

> <Gold.Id.Protein>
6NUR|6NUR_protein|mol2

> <Gold.PLP.Fitness>
45.6488

> <Gold.PLP.PLP>
-43.3542

> <Gold.PLP.part.hbond>
-3.0000

> <Gold.PLP.part.metal>
0.0000

> <Gold.PLP.part.buried>
-7.0928

> <Gold.PLP.part.nonpolar>
-34.5757

> <Gold.PLP.part.repulsive>
0.3908

> <Gold.PLP.ligand.clash>
0.0000

> <Gold.PLP.ligand.torsion>
1.3548

> <Gold.PLP.Chemscore.Hbond>
1.5928

> <Gold.PLP.Chemscore.CHOScore>
0.0000

> <Gold.PLP.Chemscore.Metal>
0.0000

> <Gold.Chemscore.Hbonds>
donor molecule, donor type, donor heavy atom, donor atom, acceptor molecule, acceptor atom, score
      L1  H     7    31       P1  7957  1.00
      P1  H  7989  7998       L1     7  0.42

> <Gold.PLP.Chemscore.Internal.Correction>
0.2257

> <Gold.Rescore>
     Score         DG    S(hbond)    S(metal)    S(lipo)     H(rot)  DE(clash)    DE(int)     intcor
     14.52     -15.81       1.26        0.00     106.49       2.48       0.15       1.14       ----

> <Gold.Chemscore.Fitness>
14.5205

> <Gold.Chemscore.DG>
-15.8098

> <Gold.Chemscore.ZeroCoef>
-5.4800

> <Gold.Chemscore.Hbond>
1.2615

> <Gold.Chemscore.Metal>
0.0000

> <Gold.Chemscore.Lipo>
106.4886

> <Gold.Chemscore.Internal_Hbond>
0.0000

> <Gold.Chemscore.DEClash>
0.1467

> <Gold.Chemscore.DEInternal>
1.1426

> <Gold.Chemscore.Rot>
2.4777

> <Gold.Chemscore.Internal.Correction>
   9.000000E+99

> <Gold.Chemscore.Hbonds>
donor molecule, donor type, donor heavy atom, donor atom, acceptor molecule, acceptor atom, score
      L1  H     7    31       P1  7957  1.00
      P1  H  7989  7998       L1     7  0.07

> <Gold.Chemscore.Hbond.Weighted>
-4.2135

> <Gold.Chemscore.Metal.Weighted>
-0.0000

> <Gold.Chemscore.Lipo.Weighted>
-12.4592

> <Gold.Chemscore.Internal_Hbond.Weighted>
0.0000

> <Gold.Chemscore.DEClash.Weighted>
0.1467

> <Gold.Chemscore.DEInternal.Weighted>
1.1426

> <Gold.Chemscore.Rot.Weighted>
6.3428

> <Gold.Chemscore.Internal.Correction.Weighted>
   9.000000E+99

> <Gold.Protein.RotatedTorsions>
[ 6907 6896 6895 6894 ] final -146.71 input  -60.11 | X-H torsion
[ 7974 7965 7964 7962 ] final   -2.84 input  175.53 | X-H torsion
[ 8008 7997 7996 7995 ] final  -35.26 input   59.86 | X-H torsion
[ 10167 10162 10161 10158 ] final  -12.64 input  -65.29 | X-H torsion
[ 10718 10713 10712 10709 ] final  104.30 input   66.30 | X-H torsion
[ 10763 10752 10751 10750 ] final  -46.95 input  -60.55 | X-H torsion
[ 11005 11000 10999 10996 ] final -119.70 input  -57.11 | X-H torsion

> <Gold.Protein.ActiveResidues>
 VAL166  LYS551  ARG553  GLY616  TRP617  ASP618  TYR619  PRO620  LYS621  CYS622 
 ASP623  PHE694  ASN695  SER759  ASP760  ASP761  ALA762  ILE779  LEU786  VAL792 
 PHE793  MET794  SER795  GLU796  ALA797  LYS798  CYS799  TRP800  GLU811  SER814 

> <Gold.Protein.RotatedAtoms>
  151.1455  133.4942  159.2595 H   0  0  0  0  0  0  0  0  0  0  0  0  # atno 6907 bound_to 6896
  151.1609  135.0272  159.8720 H   0  0  0  0  0  0  0  0  0  0  0  0  # atno 6908 bound_to 6896
  152.5463  134.1329  159.8500 H   0  0  0  0  0  0  0  0  0  0  0  0  # atno 6909 bound_to 6896
  146.2398  140.1632  142.8332 H   0  0  0  0  0  0  0  0  0  0  0  0  # atno 7974 bound_to 7965
  154.4100  140.1662  156.2183 H   0  0  0  0  0  0  0  0  0  0  0  0  # atno 8008 bound_to 7997
  155.9385  140.3409  155.6285 H   0  0  0  0  0  0  0  0  0  0  0  0  # atno 8009 bound_to 7997
  155.7018  140.0746  157.2398 H   0  0  0  0  0  0  0  0  0  0  0  0  # atno 8010 bound_to 7997
  140.7165  143.5510  150.9301 H   0  0  0  0  0  0  0  0  0  0  0  0  # atno 10167 bound_to 10162
  157.6745  131.0800  150.5685 H   0  0  0  0  0  0  0  0  0  0  0  0  # atno 10718 bound_to 10713
  154.0535  135.6628  153.4803 H   0  0  0  0  0  0  0  0  0  0  0  0  # atno 10763 bound_to 10752
  153.0454  135.5118  154.7728 H   0  0  0  0  0  0  0  0  0  0  0  0  # atno 10764 bound_to 10752
  154.6742  135.3034  154.9667 H   0  0  0  0  0  0  0  0  0  0  0  0  # atno 10765 bound_to 10752
  141.0197  134.0143  157.3300 H   0  0  0  0  0  0  0  0  0  0  0  0  # atno 11005 bound_to 11000
  145.0072  140.8683  143.5246 LP  0  0  0  0  0  0  0  0  0  0  0  0  # atno 17320 bound_to 7965
  145.1660  139.2431  143.5367 LP  0  0  0  0  0  0  0  0  0  0  0  0  # atno 17321 bound_to 7965
  139.9235  143.6578  152.3092 LP  0  0  0  0  0  0  0  0  0  0  0  0  # atno 17342 bound_to 10162
  139.7003  144.7636  151.1284 LP  0  0  0  0  0  0  0  0  0  0  0  0  # atno 17343 bound_to 10162
  156.5987  130.4348  149.5906 LP  0  0  0  0  0  0  0  0  0  0  0  0  # atno 17370 bound_to 10713
  156.2524  130.6915  151.1657 LP  0  0  0  0  0  0  0  0  0  0  0  0  # atno 17371 bound_to 10713
  139.9138  135.0194  156.7801 LP  0  0  0  0  0  0  0  0  0  0  0  0  # atno 17394 bound_to 11000
  140.6594  133.9659  155.7797 LP  0  0  0  0  0  0  0  0  0  0  0  0  # atno 17395 bound_to 11000

$$$$
