AV-unprocessed.smi:1631|AV-procd|sdf|6526|dock2
  -GOLD-   22720 7203D 1   1.00000     0.00000
 Structure written by MMmdl.
 38 39  0  0  0  0  0  0  0  0  1 V2000
  146.7604  141.9362  154.0286 C   0  0  0  0  0  0  0  0  0  0  0  0
  146.7554  142.1118  155.5252 C   0  0  0  0  0  0  0  0  0  0  0  0
  147.7951  141.6497  156.1380 N   0  0  0  0  0  0  0  0  0  0  0  0
  147.9300  141.7462  157.5082 N   0  0  0  0  0  0  0  0  0  0  0  0
  149.1822  141.1764  158.0236 C   0  0  0  0  0  0  0  0  0  0  0  0
  150.4161  142.0279  157.6450 C   0  0  2  0  0  0  0  0  0  0  0  0
  150.8689  141.6163  156.3695 O   0  0  0  0  0  0  0  0  0  0  0  0
  151.5255  141.8867  158.6875 C   0  0  0  0  0  0  0  0  0  0  0  0
  152.1299  140.6175  158.8444 C   0  0  0  0  0  0  0  0  0  0  0  0
  153.1506  140.4124  159.7888 C   0  0  0  0  0  0  0  0  0  0  0  0
  153.5818  141.4805  160.5917 C   0  0  0  0  0  0  0  0  0  0  0  0
  152.9921  142.7489  160.4464 C   0  0  0  0  0  0  0  0  0  0  0  0
  151.9636  142.9722  159.4998 C   0  0  0  0  0  0  0  0  0  0  0  0
  151.3618  144.3728  159.3779 C   0  0  0  0  0  0  0  0  0  0  0  0
  151.9138  145.2278  160.2398 F   0  0  0  0  0  0  0  0  0  0  0  0
  151.5625  144.8532  158.1504 F   0  0  0  0  0  0  0  0  0  0  0  0
  150.0544  144.3361  159.6316 F   0  0  0  0  0  0  0  0  0  0  0  0
  147.0108  142.3137  158.3393 C   0  0  0  0  0  0  0  0  0  0  0  0
  147.1686  142.3761  159.5589 O   0  0  0  0  0  0  0  0  0  0  0  0
  145.8335  142.8364  157.6427 C   0  0  0  0  0  0  0  0  0  0  0  0
  144.8492  143.4437  158.4794 C   0  0  0  0  0  0  0  0  0  0  0  0
  144.0369  143.9234  159.1506 N   0  0  0  0  0  0  0  0  0  0  0  0
  145.6889  142.7500  156.2960 C   0  0  0  0  0  0  0  0  0  0  0  0
  144.4798  143.2816  155.5383 C   0  0  0  0  0  0  0  0  0  0  0  0
  145.8609  142.3203  153.5513 H   0  0  0  0  0  0  0  0  0  0  0  0
  146.8413  140.8810  153.7655 H   0  0  0  0  0  0  0  0  0  0  0  0
  147.6102  142.4555  153.5844 H   0  0  0  0  0  0  0  0  0  0  0  0
  149.1125  141.1027  159.1107 H   0  0  0  0  0  0  0  0  0  0  0  0
  149.3056  140.1470  157.6812 H   0  0  0  0  0  0  0  0  0  0  0  0
  150.1143  143.0665  157.5416 H   0  0  0  0  0  0  0  0  0  0  0  0
  150.7196  142.3213  155.7581 H   0  0  0  0  0  0  0  0  0  0  0  0
  151.8084  139.7864  158.2338 H   0  0  0  0  0  0  0  0  0  0  0  0
  153.6017  139.4369  159.8968 H   0  0  0  0  0  0  0  0  0  0  0  0
  154.3655  141.3281  161.3189 H   0  0  0  0  0  0  0  0  0  0  0  0
  153.3454  143.5512  161.0766 H   0  0  0  0  0  0  0  0  0  0  0  0
  143.7406  143.7317  156.2000 H   0  0  0  0  0  0  0  0  0  0  0  0
  143.9826  142.4758  154.9971 H   0  0  0  0  0  0  0  0  0  0  0  0
  144.7840  144.0456  154.8219 H   0  0  0  0  0  0  0  0  0  0  0  0
  1  2  1  0  0  0  0
  1 25  1  0  0  0  0
  1 26  1  0  0  0  0
  1 27  1  0  0  0  0
  2 23  1  0  0  0  0
  2  3  2  0  0  0  0
  3  4  1  0  0  0  0
  4  5  1  0  0  0  0
  4 18  1  0  0  0  0
  5  6  1  0  0  0  0
  5 28  1  0  0  0  0
  5 29  1  0  0  0  0
  6  7  1  0  0  0  0
  6  8  1  0  0  0  0
  6 30  1  0  0  0  0
  7 31  1  0  0  0  0
  8 13  1  0  0  0  0
  8  9  2  0  0  0  0
  9 10  1  0  0  0  0
  9 32  1  0  0  0  0
 10 11  2  0  0  0  0
 10 33  1  0  0  0  0
 11 12  1  0  0  0  0
 11 34  1  0  0  0  0
 12 13  2  0  0  0  0
 12 35  1  0  0  0  0
 13 14  1  0  0  0  0
 14 15  1  0  0  0  0
 14 16  1  0  0  0  0
 14 17  1  0  0  0  0
 18 19  2  0  0  0  0
 18 20  1  0  0  0  0
 20 21  1  0  0  0  0
 20 23  2  0  0  0  0
 21 22  3  0  0  0  0
 23 24  1  0  0  0  0
 24 36  1  0  0  0  0
 24 37  1  0  0  0  0
 24 38  1  0  0  0  0
M  END
> <s_m_source_file>
AV-unprocessed.smi

> <i_m_source_file_index>
1631

> <i_lp_mmshare_version>
43012

> <i_f3d_flags>
0

> <s_epik_input>
TiNDYyhjMVtDSDNdKWMoPU8pbihuYzFbQ0gzXSlbQ0gyXVtDQEhdKFtPSF0pYzJbY0hdW2NIXVtjSF1bY0hdYzJDKEYpKEYpRg==

> <s_epik_cmdline>
J2VwaWtfcHl0aG9uJywgJy1waCcsICc3LjAnLCAnLXRuJywgJzgnLCAnLW1hJywgJzIwMCcsICctbWV0YWxfYmluZGluZycsICctaW1hZScsICc8aW5maWxlLm1hZT4nLCAnLW9tYWUnLCAnPG91dGZpbGUubWFlPic=

> <r_lp_tautomer_probability>
1

> <r_epik_Ionization_Penalty>
7.1854e-08

> <r_epik_Ionization_Penalty_Charging>
1.40848e-10

> <r_epik_Ionization_Penalty_Neutral>
7.17131e-08

> <r_epik_State_Penalty>
-0

> <r_epik_Charging_Adjusted_Penalty>
1.40848e-10

> <i_epik_Tot_Q>
0

> <i_epik_Tot_abs_Q>
0

> <r_epik_Metal_State_Penalty>
-0

> <b_epik_Metal_Only>
0

> <s_lp_Force_Field>
OPLS_2005

> <r_lp_Energy>
30.0509

> <b_lp_Chiralities_Consistent>
1

> <s_lp_Variant>
AV-unprocessed.smi:1631-1

> <Gold.Version>
5.8.1

> <Gold.Id.Protein>
6NUR|6NUR_protein|mol2

> <Gold.PLP.Fitness>
50.4028

> <Gold.PLP.PLP>
-48.6399

> <Gold.PLP.part.hbond>
-1.8411

> <Gold.PLP.part.metal>
0.0000

> <Gold.PLP.part.buried>
-8.4934

> <Gold.PLP.part.nonpolar>
-39.3796

> <Gold.PLP.part.repulsive>
0.2130

> <Gold.PLP.ligand.clash>
1.4046

> <Gold.PLP.ligand.torsion>
0.4835

> <Gold.PLP.Chemscore.Hbond>
0.9027

> <Gold.PLP.Chemscore.CHOScore>
0.0000

> <Gold.PLP.Chemscore.Metal>
0.0000

> <Gold.Chemscore.Hbonds>
donor molecule, donor type, donor heavy atom, donor atom, acceptor molecule, acceptor atom, score
      P1  H  6933  6944       L1    19  0.19
      P1  H  6934  6946       L1    19  0.74

> <Gold.PLP.Chemscore.Internal.Correction>
1.4263

> <Gold.Rescore>
     Score         DG    S(hbond)    S(metal)    S(lipo)     H(rot)  DE(clash)    DE(int)     intcor
     13.86     -15.30       1.17        0.00      96.70       2.11       0.17       1.27       ----

> <Gold.Chemscore.Fitness>
13.8597

> <Gold.Chemscore.DG>
-15.3006

> <Gold.Chemscore.ZeroCoef>
-5.4800

> <Gold.Chemscore.Hbond>
1.1721

> <Gold.Chemscore.Metal>
0.0000

> <Gold.Chemscore.Lipo>
96.6973

> <Gold.Chemscore.Internal_Hbond>
0.0000

> <Gold.Chemscore.DEClash>
0.1671

> <Gold.Chemscore.DEInternal>
1.2739

> <Gold.Chemscore.Rot>
2.1124

> <Gold.Chemscore.Internal.Correction>
   9.000000E+99

> <Gold.Chemscore.Hbonds>
donor molecule, donor type, donor heavy atom, donor atom, acceptor molecule, acceptor atom, score
      P1  H  6933  6944       L1    19  0.19
      P1  H  6934  6946       L1    19  0.73

> <Gold.Chemscore.Hbond.Weighted>
-3.9148

> <Gold.Chemscore.Metal.Weighted>
-0.0000

> <Gold.Chemscore.Lipo.Weighted>
-11.3136

> <Gold.Chemscore.Internal_Hbond.Weighted>
0.0000

> <Gold.Chemscore.DEClash.Weighted>
0.1671

> <Gold.Chemscore.DEInternal.Weighted>
1.2739

> <Gold.Chemscore.Rot.Weighted>
5.4078

> <Gold.Chemscore.Internal.Correction.Weighted>
   9.000000E+99

> <Gold.Protein.RotatedTorsions>
[ 6907 6896 6895 6894 ] final   89.68 input  -60.11 | X-H torsion
[ 7974 7965 7964 7962 ] final   85.02 input  175.53 | X-H torsion
[ 8008 7997 7996 7995 ] final   97.82 input   59.86 | X-H torsion
[ 10167 10162 10161 10158 ] final   61.14 input  -65.29 | X-H torsion
[ 10718 10713 10712 10709 ] final -154.97 input   66.30 | X-H torsion
[ 10763 10752 10751 10750 ] final  -37.21 input  -60.55 | X-H torsion
[ 11005 11000 10999 10996 ] final -113.90 input  -57.11 | X-H torsion

> <Gold.Protein.ActiveResidues>
 VAL166  LYS551  ARG553  GLY616  TRP617  ASP618  TYR619  PRO620  LYS621  CYS622 
 ASP623  PHE694  ASN695  SER759  ASP760  ASP761  ALA762  ILE779  LEU786  VAL792 
 PHE793  MET794  SER795  GLU796  ALA797  LYS798  CYS799  TRP800  GLU811  SER814 

> <Gold.Protein.RotatedAtoms>
  152.5438  134.1930  159.8681 H   0  0  0  0  0  0  0  0  0  0  0  0  # atno 6907 bound_to 6896
  151.1924  133.4652  159.2602 H   0  0  0  0  0  0  0  0  0  0  0  0  # atno 6908 bound_to 6896
  151.1070  135.0017  159.8531 H   0  0  0  0  0  0  0  0  0  0  0  0  # atno 6909 bound_to 6896
  145.5911  139.2338  143.2299 H   0  0  0  0  0  0  0  0  0  0  0  0  # atno 7974 bound_to 7965
  156.0941  140.3253  155.7855 H   0  0  0  0  0  0  0  0  0  0  0  0  # atno 8008 bound_to 7997
  155.4947  140.0564  157.2965 H   0  0  0  0  0  0  0  0  0  0  0  0  # atno 8009 bound_to 7997
  154.4656  140.1987  156.0144 H   0  0  0  0  0  0  0  0  0  0  0  0  # atno 8010 bound_to 7997
  140.1580  144.4398  150.6724 H   0  0  0  0  0  0  0  0  0  0  0  0  # atno 10167 bound_to 10162
  156.5066  130.8415  151.2630 H   0  0  0  0  0  0  0  0  0  0  0  0  # atno 10718 bound_to 10713
  153.8925  135.6810  153.4760 H   0  0  0  0  0  0  0  0  0  0  0  0  # atno 10763 bound_to 10752
  153.1173  135.4756  154.9134 H   0  0  0  0  0  0  0  0  0  0  0  0  # atno 10764 bound_to 10752
  154.7615  135.3212  154.8322 H   0  0  0  0  0  0  0  0  0  0  0  0  # atno 10765 bound_to 10752
  141.0585  133.9573  157.2709 H   0  0  0  0  0  0  0  0  0  0  0  0  # atno 11005 bound_to 11000
  146.1646  140.6737  142.9261 LP  0  0  0  0  0  0  0  0  0  0  0  0  # atno 17320 bound_to 7965
  144.7351  140.4785  143.6909 LP  0  0  0  0  0  0  0  0  0  0  0  0  # atno 17321 bound_to 7965
  140.6661  143.2268  151.5739 LP  0  0  0  0  0  0  0  0  0  0  0  0  # atno 17342 bound_to 10162
  139.5394  144.2688  152.1320 LP  0  0  0  0  0  0  0  0  0  0  0  0  # atno 17343 bound_to 10162
  157.7456  130.9964  150.2778 LP  0  0  0  0  0  0  0  0  0  0  0  0  # atno 17370 bound_to 10713
  156.3281  130.3796  149.7515 LP  0  0  0  0  0  0  0  0  0  0  0  0  # atno 17371 bound_to 10713
  139.9412  135.0191  156.8713 LP  0  0  0  0  0  0  0  0  0  0  0  0  # atno 17394 bound_to 11000
  140.5915  134.0257  155.7501 LP  0  0  0  0  0  0  0  0  0  0  0  0  # atno 17395 bound_to 11000

$$$$
