#       Name:                AV-unprocessed.smi:1761
#       Creating user name   scv26
#       Creation time:       Fri Mar 27 08:31:43 2020


#       File generated by GOLD software.
#

@<TRIPOS>MOLECULE
AV-unprocessed.smi:1761
    39    40     1
SMALL
NO_CHARGES


@<TRIPOS>ATOM
      1 ****        -0.1786   1.8258  -0.2832 O.2            1 S1                 0.0000
      2 ****        -0.6485   0.7323   0.0327 C.2            1 S1                 0.0000
      3 ****        -1.9551   0.4702   0.2111 N.am           1 S1                 0.0000
      4 ****        -3.0532   1.3650   0.1049 C.ar           1 S1                 0.0000
      5 ****        -4.3218   0.7830   0.3275 C.ar           1 S1                 0.0000
      6 ****        -5.4760   1.5859   0.2482 C.ar           1 S1                 0.0000
      7 ****        -5.3317   2.9523  -0.0511 C.ar           1 S1                 0.0000
      8 ****        -4.0330   3.4524  -0.2586 C.ar           1 S1                 0.0000
      9 ****        -2.9255   2.6846  -0.1834 N.ar           1 S1                 0.0000
     10 ****         0.0961  -0.3636   0.2400 N.am           1 S1                 0.0000
     11 ****         1.5510  -0.4373   0.1204 C.3            1 S1                 0.0000
     12 ****         2.0921  -1.1735   1.3636 C.3            1 S1                 0.0000
     13 ****         3.6017  -1.4376   1.2705 C.3            1 S1                 0.0000
     14 ****         3.9434  -2.2193  -0.0048 C.3            1 S1                 0.0000
     15 ****         3.4516  -1.4677  -1.2490 C.3            1 S1                 0.0000
     16 ****         1.9394  -1.1789  -1.1819 C.3            1 S1                 0.0000
     17 ****         1.6105  -0.3852  -2.3046 O.3            1 S1                 0.0000
     18 ****        -2.1920  -0.4799   0.4553 H              1 S1                 0.0000
     19 ****        -4.4143  -0.2688   0.5570 H              1 S1                 0.0000
     20 ****        -6.4542   1.1593   0.4142 H              1 S1                 0.0000
     21 ****        -6.1931   3.6000  -0.1198 H              1 S1                 0.0000
     22 ****        -3.8785   4.4957  -0.4906 H              1 S1                 0.0000
     23 ****        -0.3789  -1.2179   0.4917 H              1 S1                 0.0000
     24 ****         1.9919   0.5616   0.1075 H              1 S1                 0.0000
     25 ****         1.8768  -0.5938   2.2620 H              1 S1                 0.0000
     26 ****         1.5739  -2.1264   1.4830 H              1 S1                 0.0000
     27 ****         4.1413  -0.4897   1.2784 H              1 S1                 0.0000
     28 ****         3.9368  -1.9920   2.1475 H              1 S1                 0.0000
     29 ****         5.0203  -2.3783  -0.0674 H              1 S1                 0.0000
     30 ****         3.4844  -3.2079   0.0337 H              1 S1                 0.0000
     31 ****         4.0037  -0.5307  -1.3384 H              1 S1                 0.0000
     32 ****         3.6820  -2.0474  -2.1436 H              1 S1                 0.0000
     33 ****         1.3925  -2.1206  -1.2501 H              1 S1                 0.0000
     34 ****         2.0462   0.4494  -2.2211 H              1 S1                 0.0000
     35 ****        -0.7851   2.6076  -0.4281 LP             1 S1                 0.0000
     36 ****         0.8094   1.9320  -0.3950 LP             1 S1                 0.0000
     37 ****        -2.0217   3.0835  -0.3384 LP             1 S1                 0.0000
     38 ****         0.6208  -0.2466  -2.3412 LP             1 S1                 0.0000
     39 ****         1.9142  -0.8418  -3.1409 LP             1 S1                 0.0000
@<TRIPOS>BOND
    1    1    2 2     
    2    2    3 am    
    3    2   10 am    
    4    3    4 1     
    5    3   18 1     
    6    4    9 ar    
    7    4    5 ar    
    8    5    6 ar    
    9    5   19 1     
   10    6    7 ar    
   11    6   20 1     
   12    7    8 ar    
   13    7   21 1     
   14    8    9 ar    
   15    8   22 1     
   16   10   11 1     
   17   10   23 1     
   18   11   16 1     
   19   11   12 1     
   20   11   24 1     
   21   12   13 1     
   22   12   25 1     
   23   12   26 1     
   24   13   14 1     
   25   13   27 1     
   26   13   28 1     
   27   14   15 1     
   28   14   29 1     
   29   14   30 1     
   30   15   16 1     
   31   15   31 1     
   32   15   32 1     
   33   16   17 1     
   34   16   33 1     
   35   17   34 1     
   36    1   35 1     
   37    1   36 1     
   38    9   37 1     
   39   17   38 1     
   40   17   39 1     
@<TRIPOS>SUBSTRUCTURE
      1 S1             1
@<TRIPOS>SET
LONE_PAIRS      STATIC     ATOMS    <user>   **** ""
5 35 36 37 38 39
DONOR_HYDROGENS      STATIC     ATOMS    <user>   **** ""
3 18 23 34
ATOM$BLUE        STATIC     ATOMS    COLORGROUP SYSTEM
5 35 36 37 38 39
ATOM$RED        STATIC     ATOMS    COLORGROUP SYSTEM
3 18 23 34
