AV-unprocessed.smi:2412|AV-procd|sdf|9532|dock10
  -GOLD-   2272013163D 1   1.00000     0.00000
 Structure written by MMmdl.
 37 38  0  0  0  0  0  0  0  0  1 V2000
  151.1611  137.7282  154.9350 C   0  0  0  0  0  0  0  0  0  0  0  0
  150.7542  139.1452  155.2998 C   0  0  0  0  0  0  0  0  0  0  0  0
  151.6019  139.9347  156.1066 C   0  0  0  0  0  0  0  0  0  0  0  0
  151.3172  141.2014  156.4722 N   0  0  0  0  0  0  0  0  0  0  0  0
  150.1596  141.7366  156.0338 C   0  0  0  0  0  0  0  0  0  0  0  0
  149.2408  141.0407  155.2246 C   0  0  0  0  0  0  0  0  0  0  0  0
  149.5323  139.7055  154.8538 C   0  0  0  0  0  0  0  0  0  0  0  0
  148.6824  138.9220  154.0222 N   0  0  0  0  0  0  0  0  0  0  0  0
  147.3763  139.0918  153.7526 C   0  0  0  0  0  0  0  0  0  0  0  0
  146.6570  139.9716  154.2257 O   0  0  0  0  0  0  0  0  0  0  0  0
  146.9327  138.1569  152.8988 N   0  0  0  0  0  0  0  0  0  0  0  0
  145.5679  138.0704  152.3818 C   0  0  0  0  0  0  0  0  0  0  0  0
  144.6391  137.2024  153.2514 C   0  0  0  0  0  0  0  0  0  0  0  0
  144.2283  137.6316  154.3313 O   0  0  0  0  0  0  0  0  0  0  0  0
  144.2889  135.9844  152.7884 N   0  0  0  0  0  0  0  0  0  0  0  0
  143.4206  135.0257  153.4718 C   0  0  0  0  0  0  0  0  0  0  0  0
  143.1703  133.9019  152.4651 C   0  0  0  0  0  0  0  0  0  0  0  0
  144.3710  133.9603  151.5315 C   0  0  0  0  0  0  0  0  0  0  0  0
  144.7620  135.4380  151.5180 C   0  0  0  0  0  0  0  0  0  0  0  0
  152.1130  137.4585  155.3932 H   0  0  0  0  0  0  0  0  0  0  0  0
  151.2670  137.6287  153.8545 H   0  0  0  0  0  0  0  0  0  0  0  0
  150.4098  137.0159  155.2771 H   0  0  0  0  0  0  0  0  0  0  0  0
  152.5401  139.5407  156.4693 H   0  0  0  0  0  0  0  0  0  0  0  0
  149.9614  142.7557  156.3310 H   0  0  0  0  0  0  0  0  0  0  0  0
  148.3464  141.5473  154.8970 H   0  0  0  0  0  0  0  0  0  0  0  0
  149.1120  138.1011  153.6222 H   0  0  0  0  0  0  0  0  0  0  0  0
  147.5903  137.4701  152.5598 H   0  0  0  0  0  0  0  0  0  0  0  0
  145.1611  139.0807  152.3330 H   0  0  0  0  0  0  0  0  0  0  0  0
  145.5890  137.6878  151.3604 H   0  0  0  0  0  0  0  0  0  0  0  0
  143.9371  134.6413  154.3525 H   0  0  0  0  0  0  0  0  0  0  0  0
  142.4788  135.4712  153.7947 H   0  0  0  0  0  0  0  0  0  0  0  0
  143.0503  132.9276  152.9398 H   0  0  0  0  0  0  0  0  0  0  0  0
  142.2607  134.1126  151.9011 H   0  0  0  0  0  0  0  0  0  0  0  0
  145.1869  133.3696  151.9503 H   0  0  0  0  0  0  0  0  0  0  0  0
  144.1533  133.5714  150.5364 H   0  0  0  0  0  0  0  0  0  0  0  0
  144.2616  135.9598  150.7010 H   0  0  0  0  0  0  0  0  0  0  0  0
  145.8388  135.5614  151.3902 H   0  0  0  0  0  0  0  0  0  0  0  0
  1  2  1  0  0  0  0
  1 20  1  0  0  0  0
  1 21  1  0  0  0  0
  1 22  1  0  0  0  0
  2  7  1  0  0  0  0
  2  3  2  0  0  0  0
  3  4  1  0  0  0  0
  3 23  1  0  0  0  0
  4  5  2  0  0  0  0
  5  6  1  0  0  0  0
  5 24  1  0  0  0  0
  6  7  2  0  0  0  0
  6 25  1  0  0  0  0
  7  8  1  0  0  0  0
  8  9  1  0  0  0  0
  8 26  1  0  0  0  0
  9 10  2  0  0  0  0
  9 11  1  0  0  0  0
 11 12  1  0  0  0  0
 11 27  1  0  0  0  0
 12 13  1  0  0  0  0
 12 28  1  0  0  0  0
 12 29  1  0  0  0  0
 13 14  2  0  0  0  0
 13 15  1  0  0  0  0
 15 19  1  0  0  0  0
 15 16  1  0  0  0  0
 16 17  1  0  0  0  0
 16 30  1  0  0  0  0
 16 31  1  0  0  0  0
 17 18  1  0  0  0  0
 17 32  1  0  0  0  0
 17 33  1  0  0  0  0
 18 19  1  0  0  0  0
 18 34  1  0  0  0  0
 18 35  1  0  0  0  0
 19 36  1  0  0  0  0
 19 37  1  0  0  0  0
M  END
> <s_m_source_file>
AV-unprocessed.smi

> <i_m_source_file_index>
2412

> <i_lp_mmshare_version>
43012

> <i_f3d_flags>
0

> <s_epik_input>
W0NIM11jMVtjSF1uW2NIXVtjSF1jMVtOSF1DKD1PKVtOSF1bQ0gyXUMoPU8pTjJbQ0gyXVtDSDJdW0NIMl1bQ0gyXTI=

> <s_epik_cmdline>
J2VwaWtfcHl0aG9uJywgJy1waCcsICc3LjAnLCAnLXRuJywgJzgnLCAnLW1hJywgJzIwMCcsICctbWV0YWxfYmluZGluZycsICctaW1hZScsICc8aW5maWxlLm1hZT4nLCAnLW9tYWUnLCAnPG91dGZpbGUubWFlPic=

> <r_epik_Ionization_Penalty>
0.157619

> <r_epik_Ionization_Penalty_Charging>
0

> <r_epik_Ionization_Penalty_Neutral>
0.157619

> <r_epik_State_Penalty>
0.146889

> <r_epik_Charging_Adjusted_Penalty>
0.146889

> <i_epik_Tot_Q>
0

> <i_epik_Tot_abs_Q>
0

> <r_epik_Metal_State_Penalty>
0.115729

> <b_epik_Metal_Only>
0

> <s_lp_Force_Field>
OPLS_2005

> <r_lp_Energy>
29.7149

> <b_lp_Chiralities_Consistent>
1

> <s_lp_Variant>
AV-unprocessed.smi:2412-1

> <Gold.Version>
5.8.1

> <Gold.Id.Protein>
6NUR|6NUR_protein|mol2

> <Gold.PLP.Fitness>
44.4558

> <Gold.PLP.PLP>
-36.6036

> <Gold.PLP.part.hbond>
-3.1606

> <Gold.PLP.part.metal>
0.0000

> <Gold.PLP.part.buried>
-1.8516

> <Gold.PLP.part.nonpolar>
-33.2021

> <Gold.PLP.part.repulsive>
0.4654

> <Gold.PLP.ligand.clash>
0.0000

> <Gold.PLP.ligand.torsion>
0.4306

> <Gold.PLP.Chemscore.Hbond>
1.9040

> <Gold.PLP.Chemscore.CHOScore>
1.0000

> <Gold.PLP.Chemscore.Metal>
0.0000

> <Gold.Chemscore.Hbonds>
donor molecule, donor type, donor heavy atom, donor atom, acceptor molecule, acceptor atom, score
      L1  H    11    27       P1  7948  1.00
      L1  C     5    24       P1  8028  1.00

> <Gold.PLP.Chemscore.Internal.Correction>
0.0014

> <Gold.Rescore>
     Score         DG    S(hbond)    S(metal)    S(lipo)     H(rot)  DE(clash)    DE(int)     intcor
     14.66     -17.40       1.95        0.00      73.95       1.26       1.32       1.42       ----

> <Gold.Chemscore.Fitness>
14.6596

> <Gold.Chemscore.DG>
-17.4024

> <Gold.Chemscore.ZeroCoef>
-5.4800

> <Gold.Chemscore.Hbond>
1.9475

> <Gold.Chemscore.Metal>
0.0000

> <Gold.Chemscore.Lipo>
73.9474

> <Gold.Chemscore.Internal_Hbond>
0.0000

> <Gold.Chemscore.DEClash>
1.3235

> <Gold.Chemscore.DEInternal>
1.4194

> <Gold.Chemscore.Rot>
1.2633

> <Gold.Chemscore.Internal.Correction>
   9.000000E+99

> <Gold.Chemscore.Hbonds>
donor molecule, donor type, donor heavy atom, donor atom, acceptor molecule, acceptor atom, score
      L1  H    11    27       P1  7948  0.99

> <Gold.Chemscore.Hbond.Weighted>
-6.5047

> <Gold.Chemscore.Metal.Weighted>
-0.0000

> <Gold.Chemscore.Lipo.Weighted>
-8.6519

> <Gold.Chemscore.Internal_Hbond.Weighted>
0.0000

> <Gold.Chemscore.DEClash.Weighted>
1.3235

> <Gold.Chemscore.DEInternal.Weighted>
1.4194

> <Gold.Chemscore.Rot.Weighted>
3.2341

> <Gold.Chemscore.Internal.Correction.Weighted>
   9.000000E+99

> <Gold.Protein.RotatedTorsions>
[ 6907 6896 6895 6894 ] final  123.43 input  -60.11 | X-H torsion
[ 7974 7965 7964 7962 ] final  -67.24 input  175.53 | X-H torsion
[ 8008 7997 7996 7995 ] final  115.87 input   59.86 | X-H torsion
[ 10167 10162 10161 10158 ] final   41.87 input  -65.29 | X-H torsion
[ 10718 10713 10712 10709 ] final    6.58 input   66.30 | X-H torsion
[ 10763 10752 10751 10750 ] final  156.92 input  -60.55 | X-H torsion
[ 11005 11000 10999 10996 ] final   75.79 input  -57.11 | X-H torsion

> <Gold.Protein.ActiveResidues>
 VAL166  LYS551  ARG553  GLY616  TRP617  ASP618  TYR619  PRO620  LYS621  CYS622 
 ASP623  PHE694  ASN695  SER759  ASP760  ASP761  ALA762  ILE779  LEU786  VAL792 
 PHE793  MET794  SER795  GLU796  ALA797  LYS798  CYS799  TRP800  GLU811  SER814 

> <Gold.Protein.RotatedAtoms>
  152.4162  133.7043  159.6441 H   0  0  0  0  0  0  0  0  0  0  0  0  # atno 6907 bound_to 6896
  150.8040  133.8535  159.3220 H   0  0  0  0  0  0  0  0  0  0  0  0  # atno 6908 bound_to 6896
  151.6264  135.1029  160.0164 H   0  0  0  0  0  0  0  0  0  0  0  0  # atno 6909 bound_to 6896
  145.7316  140.8994  143.0577 H   0  0  0  0  0  0  0  0  0  0  0  0  # atno 7974 bound_to 7965
  156.2406  140.2929  156.0435 H   0  0  0  0  0  0  0  0  0  0  0  0  # atno 8008 bound_to 7997
  155.1961  140.0408  157.2926 H   0  0  0  0  0  0  0  0  0  0  0  0  # atno 8009 bound_to 7997
  154.6162  140.2464  155.7614 H   0  0  0  0  0  0  0  0  0  0  0  0  # atno 8010 bound_to 7997
  140.3600  144.2240  150.6139 H   0  0  0  0  0  0  0  0  0  0  0  0  # atno 10167 bound_to 10162
  156.9243  130.5802  149.5648 H   0  0  0  0  0  0  0  0  0  0  0  0  # atno 10718 bound_to 10713
  154.1920  135.2794  155.3019 H   0  0  0  0  0  0  0  0  0  0  0  0  # atno 10763 bound_to 10752
  154.5922  135.5556  153.7293 H   0  0  0  0  0  0  0  0  0  0  0  0  # atno 10764 bound_to 10752
  153.0110  135.6371  154.2058 H   0  0  0  0  0  0  0  0  0  0  0  0  # atno 10765 bound_to 10752
  139.9327  134.7547  156.1315 H   0  0  0  0  0  0  0  0  0  0  0  0  # atno 11005 bound_to 11000
  144.6891  139.9339  143.7473 LP  0  0  0  0  0  0  0  0  0  0  0  0  # atno 17320 bound_to 7965
  146.0532  139.3531  143.0627 LP  0  0  0  0  0  0  0  0  0  0  0  0  # atno 17321 bound_to 7965
  140.5136  143.2284  151.8497 LP  0  0  0  0  0  0  0  0  0  0  0  0  # atno 17342 bound_to 10162
  139.4815  144.4921  151.9172 LP  0  0  0  0  0  0  0  0  0  0  0  0  # atno 17343 bound_to 10162
  156.0476  130.5550  150.8917 LP  0  0  0  0  0  0  0  0  0  0  0  0  # atno 17370 bound_to 10713
  157.5887  131.0945  150.9153 LP  0  0  0  0  0  0  0  0  0  0  0  0  # atno 17371 bound_to 10713
  141.0925  133.6708  156.2572 LP  0  0  0  0  0  0  0  0  0  0  0  0  # atno 17394 bound_to 11000
  140.6157  134.5413  157.5540 LP  0  0  0  0  0  0  0  0  0  0  0  0  # atno 17395 bound_to 11000

$$$$
