#       Name:                AV-unprocessed.smi:421
#       Creating user name   scv26
#       Creation time:       Thu Mar 26 22:49:27 2020


#       File generated by GOLD software.
#

@<TRIPOS>MOLECULE
AV-unprocessed.smi:421
    49    51     1
SMALL
NO_CHARGES


@<TRIPOS>ATOM
      1 ****        -4.5788   0.2002   3.4799 C.3            1 S1                 0.0000
      2 ****        -3.6509   0.1828   2.3555 N.am           1 S1                 0.0000
      3 ****        -2.3070   0.0342   2.4133 C.2            1 S1                 0.0000
      4 ****        -1.6377  -0.1176   3.4352 O.2            1 S1                 0.0000
      5 ****        -1.8252   0.0764   1.1485 N.am           1 S1                 0.0000
      6 ****        -0.4269  -0.0649   0.7460 C.3            1 S1                 0.0000
      7 ****        -0.0038  -1.5460   0.6703 C.3            1 S1                 0.0000
      8 ****        -0.4519  -2.1247  -0.5384 O.3            1 S1                 0.0000
      9 ****         1.5185  -1.7462   0.7488 C.3            1 S1                 0.0000
     10 ****         2.1765  -0.8454  -0.1287 O.3            1 S1                 0.0000
     11 ****         3.5864  -0.9859  -0.1027 C.3            1 S1                 0.0000
     12 ****         4.2538  -0.0081  -1.0480 C.ar           1 S1                 0.0000
     13 ****         4.6833  -0.4313  -2.3235 C.ar           1 S1                 0.0000
     14 ****         5.3022   0.4815  -3.1998 C.ar           1 S1                 0.0000
     15 ****         5.4928   1.8197  -2.8043 C.ar           1 S1                 0.0000
     16 ****         5.0630   2.2456  -1.5325 C.ar           1 S1                 0.0000
     17 ****         4.4439   1.3333  -0.6557 C.ar           1 S1                 0.0000
     18 ****        -2.8929   0.2540   0.2562 C.ar           1 S1                 0.0000
     19 ****        -2.9239   0.3512  -1.1462 C.ar           1 S1                 0.0000
     20 ****        -4.1890   0.5285  -1.7542 C.ar           1 S1                 0.0000
     21 ****        -5.3692   0.6033  -0.9697 C.ar           1 S1                 0.0000
     22 ****        -5.3098   0.5008   0.4399 C.ar           1 S1                 0.0000
     23 ****        -4.0408   0.3236   1.0175 C.ar           1 S1                 0.0000
     24 ****        -4.1244  -0.1996   4.3874 H              1 S1                 0.0000
     25 ****        -5.4605  -0.4016   3.2578 H              1 S1                 0.0000
     26 ****        -4.9028   1.2211   3.6824 H              1 S1                 0.0000
     27 ****        -0.2386   0.4485  -0.1974 H              1 S1                 0.0000
     28 ****         0.1874   0.4496   1.4869 H              1 S1                 0.0000
     29 ****        -0.4562  -2.1069   1.4892 H              1 S1                 0.0000
     30 ****        -0.0298  -1.6778  -1.2563 H              1 S1                 0.0000
     31 ****         1.8517  -1.5497   1.7691 H              1 S1                 0.0000
     32 ****         1.7842  -2.7796   0.5191 H              1 S1                 0.0000
     33 ****         3.9611  -0.8124   0.9075 H              1 S1                 0.0000
     34 ****         3.8657  -2.0045  -0.3773 H              1 S1                 0.0000
     35 ****         4.5386  -1.4558  -2.6340 H              1 S1                 0.0000
     36 ****         5.6306   0.1549  -4.1756 H              1 S1                 0.0000
     37 ****         5.9677   2.5192  -3.4764 H              1 S1                 0.0000
     38 ****         5.2083   3.2719  -1.2292 H              1 S1                 0.0000
     39 ****         4.1146   1.6648   0.3182 H              1 S1                 0.0000
     40 ****        -2.0239   0.2916  -1.7398 H              1 S1                 0.0000
     41 ****        -4.2572   0.6076  -2.8292 H              1 S1                 0.0000
     42 ****        -6.3247   0.7388  -1.4546 H              1 S1                 0.0000
     43 ****        -6.2037   0.5552   1.0435 H              1 S1                 0.0000
     44 ****        -2.0868  -0.1394   4.3284 LP             1 S1                 0.0000
     45 ****        -0.6449  -0.2191   3.3722 LP             1 S1                 0.0000
     46 ****        -1.4440  -2.0240  -0.6140 LP             1 S1                 0.0000
     47 ****        -0.2130  -3.0956  -0.5573 LP             1 S1                 0.0000
     48 ****         1.9434   0.0894   0.1392 LP             1 S1                 0.0000
     49 ****         1.8555  -1.0150  -1.0604 LP             1 S1                 0.0000
@<TRIPOS>BOND
    1    1    2 1     
    2    1   24 1     
    3    1   25 1     
    4    1   26 1     
    5    2   23 1     
    6    2    3 am    
    7    3    4 2     
    8    3    5 am    
    9    5    6 1     
   10    5   18 1     
   11    6    7 1     
   12    6   27 1     
   13    6   28 1     
   14    7    8 1     
   15    7    9 1     
   16    7   29 1     
   17    8   30 1     
   18    9   10 1     
   19    9   31 1     
   20    9   32 1     
   21   10   11 1     
   22   11   12 1     
   23   11   33 1     
   24   11   34 1     
   25   12   17 ar    
   26   12   13 ar    
   27   13   14 ar    
   28   13   35 1     
   29   14   15 ar    
   30   14   36 1     
   31   15   16 ar    
   32   15   37 1     
   33   16   17 ar    
   34   16   38 1     
   35   17   39 1     
   36   18   23 ar    
   37   18   19 ar    
   38   19   20 ar    
   39   19   40 1     
   40   20   21 ar    
   41   20   41 1     
   42   21   22 ar    
   43   21   42 1     
   44   22   23 ar    
   45   22   43 1     
   46    4   44 1     
   47    4   45 1     
   48    8   46 1     
   49    8   47 1     
   50   10   48 1     
   51   10   49 1     
@<TRIPOS>SUBSTRUCTURE
      1 S1             1
@<TRIPOS>SET
LONE_PAIRS      STATIC     ATOMS    <user>   **** ""
6 44 45 46 47 48 49
DONOR_HYDROGENS      STATIC     ATOMS    <user>   **** ""
1 30
ATOM$BLUE        STATIC     ATOMS    COLORGROUP SYSTEM
6 44 45 46 47 48 49
ATOM$RED        STATIC     ATOMS    COLORGROUP SYSTEM
1 30
