AV-unprocessed.smi:3335|AV-procd|sdf|12838|dock1
  -GOLD-   2272019223D 1   1.00000     0.00000
 Structure written by MMmdl.
 47 48  0  0  0  0  0  0  0  0  2 V2000
  151.7407  145.9189  159.6508 C   0  0  0  0  0  0  0  0  0  0  0  0
  151.5682  144.5632  159.0288 C   0  0  0  0  0  0  0  0  0  0  0  0
  151.9363  143.2989  159.5688 C   0  0  0  0  0  0  0  0  0  0  0  0
  151.6399  142.2920  158.7640 N   0  0  0  0  0  0  0  0  0  0  0  0
  151.0869  142.8728  157.6747 N   0  0  0  0  0  0  0  0  0  0  0  0
  150.5947  142.0717  156.5580 C   0  0  1  0  0  0  0  0  0  0  0  0
  151.6320  141.0287  156.0876 C   0  0  0  0  0  0  0  0  0  0  0  0
  149.1945  141.4755  156.8562 C   0  0  2  0  0  0  0  0  0  0  0  0
  149.2134  139.9834  157.2476 C   0  0  0  0  0  0  0  0  0  0  0  0
  148.2922  141.7193  155.7032 N   0  3  0  0  0  0  0  0  0  0  0  0
  146.8375  141.5610  155.9474 C   0  0  2  0  0  0  0  0  0  0  0  0
  146.4921  140.0635  155.9825 C   0  0  0  0  0  0  0  0  0  0  0  0
  145.9984  142.2644  154.8611 C   0  0  0  0  0  0  0  0  0  0  0  0
  146.1661  141.9447  153.6829 O   0  0  0  0  0  0  0  0  0  0  0  0
  145.0970  143.2022  155.2245 N   0  0  0  0  0  0  0  0  0  0  0  0
  144.2611  143.9218  154.2644 C   0  0  0  0  0  0  0  0  0  0  0  0
  143.5821  145.0391  155.0565 C   0  0  0  0  0  0  0  0  0  0  0  0
  143.5564  144.5172  156.4858 C   0  0  0  0  0  0  0  0  0  0  0  0
  144.8097  143.6479  156.5882 C   0  0  0  0  0  0  0  0  0  0  0  0
  151.0203  144.2434  157.8193 C   0  0  0  0  0  0  0  0  0  0  0  0
  152.4034  145.8874  160.5160 H   0  0  0  0  0  0  0  0  0  0  0  0
  150.7894  146.3292  159.9896 H   0  0  0  0  0  0  0  0  0  0  0  0
  152.1675  146.6333  158.9467 H   0  0  0  0  0  0  0  0  0  0  0  0
  152.4032  143.0848  160.5189 H   0  0  0  0  0  0  0  0  0  0  0  0
  150.4709  142.7725  155.7305 H   0  0  0  0  0  0  0  0  0  0  0  0
  151.2962  140.5097  155.1900 H   0  0  0  0  0  0  0  0  0  0  0  0
  151.8322  140.2737  156.8480 H   0  0  0  0  0  0  0  0  0  0  0  0
  152.5809  141.5083  155.8454 H   0  0  0  0  0  0  0  0  0  0  0  0
  148.8001  142.0293  157.7090 H   0  0  0  0  0  0  0  0  0  0  0  0
  149.8678  139.8004  158.0990 H   0  0  0  0  0  0  0  0  0  0  0  0
  149.5538  139.3554  156.4245 H   0  0  0  0  0  0  0  0  0  0  0  0
  148.2248  139.6305  157.5387 H   0  0  0  0  0  0  0  0  0  0  0  0
  148.4347  142.6693  155.3906 H   0  0  0  0  0  0  0  0  0  0  0  0
  146.6170  141.9797  156.9276 H   0  0  0  0  0  0  0  0  0  0  0  0
  145.4312  139.8993  156.1735 H   0  0  0  0  0  0  0  0  0  0  0  0
  147.0457  139.5537  156.7715 H   0  0  0  0  0  0  0  0  0  0  0  0
  146.7363  139.5738  155.0386 H   0  0  0  0  0  0  0  0  0  0  0  0
  144.8420  144.3246  153.4331 H   0  0  0  0  0  0  0  0  0  0  0  0
  143.5175  143.2349  153.8571 H   0  0  0  0  0  0  0  0  0  0  0  0
  144.1909  145.9433  155.0094 H   0  0  0  0  0  0  0  0  0  0  0  0
  142.5897  145.2841  154.6767 H   0  0  0  0  0  0  0  0  0  0  0  0
  143.5323  145.3154  157.2281 H   0  0  0  0  0  0  0  0  0  0  0  0
  142.6697  143.8989  156.6315 H   0  0  0  0  0  0  0  0  0  0  0  0
  144.6503  142.8173  157.2763 H   0  0  0  0  0  0  0  0  0  0  0  0
  145.6506  144.2390  156.9543 H   0  0  0  0  0  0  0  0  0  0  0  0
  150.5932  144.8742  157.0537 H   0  0  0  0  0  0  0  0  0  0  0  0
  148.5675  141.0954  154.9584 H   0  0  0  0  0  0  0  0  0  0  0  0
  1  2  1  0  0  0  0
  1 21  1  0  0  0  0
  1 22  1  0  0  0  0
  1 23  1  0  0  0  0
  2 20  2  0  0  0  0
  2  3  1  0  0  0  0
  3  4  2  0  0  0  0
  3 24  1  0  0  0  0
  4  5  1  0  0  0  0
  5  6  1  0  0  0  0
  5 20  1  0  0  0  0
  6  7  1  0  0  0  0
  6  8  1  0  0  0  0
  6 25  1  0  0  0  0
  7 26  1  0  0  0  0
  7 27  1  0  0  0  0
  7 28  1  0  0  0  0
  8  9  1  0  0  0  0
  8 10  1  0  0  0  0
  8 29  1  0  0  0  0
  9 30  1  0  0  0  0
  9 31  1  0  0  0  0
  9 32  1  0  0  0  0
 10 11  1  0  0  0  0
 10 33  1  0  0  0  0
 10 47  1  0  0  0  0
 11 12  1  0  0  0  0
 11 13  1  0  0  0  0
 11 34  1  0  0  0  0
 12 35  1  0  0  0  0
 12 36  1  0  0  0  0
 12 37  1  0  0  0  0
 13 14  2  0  0  0  0
 13 15  1  0  0  0  0
 15 19  1  0  0  0  0
 15 16  1  0  0  0  0
 16 17  1  0  0  0  0
 16 38  1  0  0  0  0
 16 39  1  0  0  0  0
 17 18  1  0  0  0  0
 17 40  1  0  0  0  0
 17 41  1  0  0  0  0
 18 19  1  0  0  0  0
 18 42  1  0  0  0  0
 18 43  1  0  0  0  0
 19 44  1  0  0  0  0
 19 45  1  0  0  0  0
 20 46  1  0  0  0  0
M  CHG  1  10   1
M  END
> <s_m_source_file>
AV-unprocessed.smi

> <i_m_source_file_index>
3335

> <i_lp_mmshare_version>
43012

> <i_f3d_flags>
0

> <s_epik_input>
W0NIM11jMVtjSF1ubihbY0hdMSlbQ0BIXShbQ0gzXSlbQ0BIXShbQ0gzXSlbTkhdW0NASF0oW0NIM10pQyg9TylOMltDSDJdW0NIMl1bQ0gyXVtDSDJdMg==

> <s_epik_cmdline>
J2VwaWtfcHl0aG9uJywgJy1waCcsICc3LjAnLCAnLXRuJywgJzgnLCAnLW1hJywgJzIwMCcsICctbWV0YWxfYmluZGluZycsICctaW1hZScsICc8aW5maWxlLm1hZT4nLCAnLW9tYWUnLCAnPG91dGZpbGUubWFlPic=

> <r_lp_tautomer_probability>
1

> <r_epik_Ionization_Penalty>
0.14175

> <r_epik_Ionization_Penalty_Charging>
0.141731

> <r_epik_Ionization_Penalty_Neutral>
1.91261e-05

> <r_epik_State_Penalty>
0.131043

> <r_epik_Charging_Adjusted_Penalty>
0.272773

> <i_epik_Tot_Q>
1

> <i_epik_Tot_abs_Q>
1

> <r_epik_Metal_State_Penalty>
0.131408

> <b_epik_Metal_Only>
0

> <s_lp_Force_Field>
OPLS_2005

> <r_lp_Energy>
39.0238

> <b_lp_Chiralities_Consistent>
1

> <s_lp_Variant>
AV-unprocessed.smi:3335-2

> <Gold.Version>
5.8.1

> <Gold.Id.Protein>
6NUR|6NUR_protein|mol2

> <Gold.PLP.Fitness>
43.3612

> <Gold.PLP.PLP>
-37.7536

> <Gold.PLP.part.hbond>
-1.0000

> <Gold.PLP.part.metal>
0.0000

> <Gold.PLP.part.buried>
-7.1205

> <Gold.PLP.part.nonpolar>
-31.5768

> <Gold.PLP.part.repulsive>
0.2706

> <Gold.PLP.ligand.clash>
0.0000

> <Gold.PLP.ligand.torsion>
1.8433

> <Gold.PLP.Chemscore.Hbond>
2.0000

> <Gold.PLP.Chemscore.CHOScore>
1.0000

> <Gold.PLP.Chemscore.Metal>
0.0000

> <Gold.Chemscore.Hbonds>
donor molecule, donor type, donor heavy atom, donor atom, acceptor molecule, acceptor atom, score
      L1  H    10    33       P1  8028  1.62
      L1  C    20    46       P1  8028  1.00

> <Gold.PLP.Chemscore.Internal.Correction>
0.2942

> <Gold.Rescore>
     Score         DG    S(hbond)    S(metal)    S(lipo)     H(rot)  DE(clash)    DE(int)     intcor
     11.83     -14.10       0.93        0.00      83.90       1.68       0.04       2.22       ----

> <Gold.Chemscore.Fitness>
11.8325

> <Gold.Chemscore.DG>
-14.0951

> <Gold.Chemscore.ZeroCoef>
-5.4800

> <Gold.Chemscore.Hbond>
0.9263

> <Gold.Chemscore.Metal>
0.0000

> <Gold.Chemscore.Lipo>
83.8997

> <Gold.Chemscore.Internal_Hbond>
0.0000

> <Gold.Chemscore.DEClash>
0.0389

> <Gold.Chemscore.DEInternal>
2.2237

> <Gold.Chemscore.Rot>
1.6778

> <Gold.Chemscore.Internal.Correction>
   9.000000E+99

> <Gold.Chemscore.Hbonds>
donor molecule, donor type, donor heavy atom, donor atom, acceptor molecule, acceptor atom, score
      L1  H    10    33       P1  8028  0.79

> <Gold.Chemscore.Hbond.Weighted>
-3.0940

> <Gold.Chemscore.Metal.Weighted>
-0.0000

> <Gold.Chemscore.Lipo.Weighted>
-9.8163

> <Gold.Chemscore.Internal_Hbond.Weighted>
0.0000

> <Gold.Chemscore.DEClash.Weighted>
0.0389

> <Gold.Chemscore.DEInternal.Weighted>
2.2237

> <Gold.Chemscore.Rot.Weighted>
4.2952

> <Gold.Chemscore.Internal.Correction.Weighted>
   9.000000E+99

> <Gold.Protein.RotatedTorsions>
[ 6907 6896 6895 6894 ] final -108.54 input  -60.11 | X-H torsion
[ 7974 7965 7964 7962 ] final  -91.88 input  175.53 | X-H torsion
[ 8008 7997 7996 7995 ] final  175.55 input   59.86 | X-H torsion
[ 10167 10162 10161 10158 ] final    6.93 input  -65.29 | X-H torsion
[ 10718 10713 10712 10709 ] final -124.71 input   66.30 | X-H torsion
[ 10763 10752 10751 10750 ] final   76.12 input  -60.55 | X-H torsion
[ 11005 11000 10999 10996 ] final    9.38 input  -57.11 | X-H torsion

> <Gold.Protein.ActiveResidues>
 VAL166  LYS551  ARG553  GLY616  TRP617  ASP618  TYR619  PRO620  LYS621  CYS622 
 ASP623  PHE694  ASN695  SER759  ASP760  ASP761  ALA762  ILE779  LEU786  VAL792 
 PHE793  MET794  SER795  GLU796  ALA797  LYS798  CYS799  TRP800  GLU811  SER814 

> <Gold.Protein.RotatedAtoms>
  150.7508  133.9662  159.3531 H   0  0  0  0  0  0  0  0  0  0  0  0  # atno 6907 bound_to 6896
  151.7592  135.0812  160.0352 H   0  0  0  0  0  0  0  0  0  0  0  0  # atno 6908 bound_to 6896
  152.3414  133.6035  159.5915 H   0  0  0  0  0  0  0  0  0  0  0  0  # atno 6909 bound_to 6896
  145.4073  140.9542  143.2254 H   0  0  0  0  0  0  0  0  0  0  0  0  # atno 7974 bound_to 7965
  156.0859  140.1406  156.9654 H   0  0  0  0  0  0  0  0  0  0  0  0  # atno 8008 bound_to 7997
  154.4612  140.0942  156.6946 H   0  0  0  0  0  0  0  0  0  0  0  0  # atno 8009 bound_to 7997
  155.5000  140.3450  155.4371 H   0  0  0  0  0  0  0  0  0  0  0  0  # atno 8010 bound_to 7997
  140.6400  143.7795  150.7415 H   0  0  0  0  0  0  0  0  0  0  0  0  # atno 10167 bound_to 10162
  156.1611  130.6603  151.0051 H   0  0  0  0  0  0  0  0  0  0  0  0  # atno 10718 bound_to 10713
  153.0703  135.4963  154.8290 H   0  0  0  0  0  0  0  0  0  0  0  0  # atno 10763 bound_to 10752
  154.7013  135.3002  154.9339 H   0  0  0  0  0  0  0  0  0  0  0  0  # atno 10764 bound_to 10752
  154.0062  135.6760  153.4815 H   0  0  0  0  0  0  0  0  0  0  0  0  # atno 10765 bound_to 10752
  140.5264  134.0509  155.7860 H   0  0  0  0  0  0  0  0  0  0  0  0  # atno 11005 bound_to 11000
  144.8333  139.5592  143.6934 LP  0  0  0  0  0  0  0  0  0  0  0  0  # atno 17320 bound_to 7965
  146.2722  139.6664  142.9288 LP  0  0  0  0  0  0  0  0  0  0  0  0  # atno 17321 bound_to 7965
  140.1425  143.4429  152.2184 LP  0  0  0  0  0  0  0  0  0  0  0  0  # atno 17342 bound_to 10162
  139.5610  144.7405  151.4156 LP  0  0  0  0  0  0  0  0  0  0  0  0  # atno 17343 bound_to 10162
  157.6733  131.0856  150.7557 LP  0  0  0  0  0  0  0  0  0  0  0  0  # atno 17370 bound_to 10713
  156.7620  130.4801  149.5435 LP  0  0  0  0  0  0  0  0  0  0  0  0  # atno 17371 bound_to 10713
  141.1306  133.9309  157.2544 LP  0  0  0  0  0  0  0  0  0  0  0  0  # atno 17394 bound_to 11000
  139.9578  135.0161  156.9176 LP  0  0  0  0  0  0  0  0  0  0  0  0  # atno 17395 bound_to 11000

$$$$
