AV-unprocessed.smi:225|AV-procd|sdf|1723|dock10
  -GOLD-   2262020203D 1   1.00000     0.00000
 Structure written by MMmdl.
 56 59  0  0  0  0  0  0  0  0  1 V2000
  149.2895  141.2682  153.8092 O   0  0  0  0  0  0  0  0  0  0  0  0
  149.1269  140.9421  155.1720 C   0  0  0  0  0  0  0  0  0  0  0  0
  150.1721  139.8884  155.5758 C   0  0  0  0  0  0  0  0  0  0  0  0
  150.6643  140.0706  156.9444 N   0  0  0  0  0  0  0  0  0  0  0  0
  151.7928  140.9823  157.1384 C   0  0  0  0  0  0  0  0  0  0  0  0
  151.5984  141.9530  158.3225 C   0  0  0  0  0  0  0  0  0  0  0  0
  151.3385  143.3847  157.8131 C   0  0  0  0  0  0  0  0  0  0  0  0
  151.1356  144.3739  158.9729 C   0  0  0  0  0  0  0  0  0  0  0  0
  152.3314  144.3555  159.9368 C   0  0  0  0  0  0  0  0  0  0  0  0
  152.6051  142.9333  160.4497 C   0  0  0  0  0  0  0  0  0  0  0  0
  152.8051  141.9502  159.2851 C   0  0  0  0  0  0  0  0  0  0  0  0
  150.7203  138.9751  157.7456 C   0  0  0  0  0  0  0  0  0  0  0  0
  151.9219  138.5040  158.1749 N   0  0  0  0  0  0  0  0  0  0  0  0
  151.9815  137.4331  158.9721 C   0  0  0  0  0  0  0  0  0  0  0  0
  150.9797  136.6973  159.4569 N   0  0  0  0  0  0  0  0  0  0  0  0
  149.7713  137.1675  159.0341 C   0  0  0  0  0  0  0  0  0  0  0  0
  149.5539  138.2879  158.1836 C   0  0  0  0  0  0  0  0  0  0  0  0
  148.1930  138.4549  157.9602 N   0  0  0  0  0  0  0  0  0  0  0  0
  147.6369  137.4937  158.6453 C   0  0  0  0  0  0  0  0  0  0  0  0
  148.5106  136.6782  159.3284 N   0  0  0  0  0  0  0  0  0  0  0  0
  148.1679  135.5419  160.1693 C   0  0  0  0  0  0  0  0  0  0  0  0
  147.4586  135.9429  161.4838 C   0  0  1  0  0  0  0  0  0  0  0  0
  148.3162  136.7838  162.2357 O   0  0  0  0  0  0  0  0  0  0  0  0
  146.1295  136.6667  161.2796 C   0  0  0  0  0  0  0  0  0  0  0  0
  145.3038  136.2085  162.4734 C   0  0  0  0  0  0  0  0  0  0  0  0
  145.6681  134.8442  162.5896 O   0  0  0  0  0  0  0  0  0  0  0  0
  147.0686  134.7342  162.3587 C   0  0  0  0  0  0  0  0  0  0  0  0
  148.9566  140.5538  153.2879 H   0  0  0  0  0  0  0  0  0  0  0  0
  149.2457  141.8463  155.7696 H   0  0  0  0  0  0  0  0  0  0  0  0
  148.1100  140.5808  155.3248 H   0  0  0  0  0  0  0  0  0  0  0  0
  149.7607  138.8844  155.4621 H   0  0  0  0  0  0  0  0  0  0  0  0
  151.0092  139.9427  154.8808 H   0  0  0  0  0  0  0  0  0  0  0  0
  152.7268  140.4344  157.2731 H   0  0  0  0  0  0  0  0  0  0  0  0
  151.9158  141.5554  156.2185 H   0  0  0  0  0  0  0  0  0  0  0  0
  150.7172  141.6482  158.8867 H   0  0  0  0  0  0  0  0  0  0  0  0
  152.1760  143.7153  157.1970 H   0  0  0  0  0  0  0  0  0  0  0  0
  150.4591  143.3969  157.1683 H   0  0  0  0  0  0  0  0  0  0  0  0
  150.9900  145.3809  158.5812 H   0  0  0  0  0  0  0  0  0  0  0  0
  150.2247  144.1189  159.5156 H   0  0  0  0  0  0  0  0  0  0  0  0
  153.2171  144.7376  159.4275 H   0  0  0  0  0  0  0  0  0  0  0  0
  152.1438  145.0251  160.7766 H   0  0  0  0  0  0  0  0  0  0  0  0
  153.4867  142.9333  161.0911 H   0  0  0  0  0  0  0  0  0  0  0  0
  151.7716  142.6006  161.0696 H   0  0  0  0  0  0  0  0  0  0  0  0
  152.9677  140.9486  159.6843 H   0  0  0  0  0  0  0  0  0  0  0  0
  153.7112  142.2171  158.7399 H   0  0  0  0  0  0  0  0  0  0  0  0
  152.9738  137.1226  159.2644 H   0  0  0  0  0  0  0  0  0  0  0  0
  146.5660  137.3554  158.6733 H   0  0  0  0  0  0  0  0  0  0  0  0
  147.5323  134.8717  159.5894 H   0  0  0  0  0  0  0  0  0  0  0  0
  149.0803  134.9845  160.3865 H   0  0  0  0  0  0  0  0  0  0  0  0
  148.6000  136.3130  163.0041 H   0  0  0  0  0  0  0  0  0  0  0  0
  146.2229  137.7515  161.2100 H   0  0  0  0  0  0  0  0  0  0  0  0
  145.6446  136.3165  160.3676 H   0  0  0  0  0  0  0  0  0  0  0  0
  145.5871  136.7465  163.3794 H   0  0  0  0  0  0  0  0  0  0  0  0
  144.2315  136.3285  162.3183 H   0  0  0  0  0  0  0  0  0  0  0  0
  147.2793  133.7813  161.8724 H   0  0  0  0  0  0  0  0  0  0  0  0
  147.5937  134.7344  163.3154 H   0  0  0  0  0  0  0  0  0  0  0  0
  1  2  1  0  0  0  0
  1 28  1  0  0  0  0
  2  3  1  0  0  0  0
  2 29  1  0  0  0  0
  2 30  1  0  0  0  0
  3  4  1  0  0  0  0
  3 31  1  0  0  0  0
  3 32  1  0  0  0  0
  4  5  1  0  0  0  0
  4 12  1  0  0  0  0
  5  6  1  0  0  0  0
  5 33  1  0  0  0  0
  5 34  1  0  0  0  0
  6 11  1  0  0  0  0
  6  7  1  0  0  0  0
  6 35  1  0  0  0  0
  7  8  1  0  0  0  0
  7 36  1  0  0  0  0
  7 37  1  0  0  0  0
  8  9  1  0  0  0  0
  8 38  1  0  0  0  0
  8 39  1  0  0  0  0
  9 10  1  0  0  0  0
  9 40  1  0  0  0  0
  9 41  1  0  0  0  0
 10 11  1  0  0  0  0
 10 42  1  0  0  0  0
 10 43  1  0  0  0  0
 11 44  1  0  0  0  0
 11 45  1  0  0  0  0
 12 17  1  0  0  0  0
 12 13  2  0  0  0  0
 13 14  1  0  0  0  0
 14 15  2  0  0  0  0
 14 46  1  0  0  0  0
 15 16  1  0  0  0  0
 16 20  1  0  0  0  0
 16 17  2  0  0  0  0
 17 18  1  0  0  0  0
 18 19  2  0  0  0  0
 19 20  1  0  0  0  0
 19 47  1  0  0  0  0
 20 21  1  0  0  0  0
 21 22  1  0  0  0  0
 21 48  1  0  0  0  0
 21 49  1  0  0  0  0
 22 27  1  0  0  0  0
 22 23  1  0  0  0  0
 22 24  1  0  0  0  0
 23 50  1  0  0  0  0
 24 25  1  0  0  0  0
 24 51  1  0  0  0  0
 24 52  1  0  0  0  0
 25 26  1  0  0  0  0
 25 53  1  0  0  0  0
 25 54  1  0  0  0  0
 26 27  1  0  0  0  0
 27 55  1  0  0  0  0
 27 56  1  0  0  0  0
M  END
> <s_m_source_file>
AV-unprocessed.smi

> <i_m_source_file_index>
225

> <i_lp_mmshare_version>
43012

> <i_f3d_flags>
0

> <s_epik_input>
W0NIMl0xW0NIMl1bQ0gyXVtDSDJdW0NIMl1bQ0hdMVtDSDJdTihbQ0gyXVtDSDJdW09IXSljKG5bY0hdbjIpYyhjMjMpbltjSF1uM1tDSDJdW0NAQF00KFtPSF0pW0NIMl1bQ0gyXU9bQ0gyXTQ=

> <s_epik_cmdline>
J2VwaWtfcHl0aG9uJywgJy1waCcsICc3LjAnLCAnLXRuJywgJzgnLCAnLW1hJywgJzIwMCcsICctbWV0YWxfYmluZGluZycsICctaW1hZScsICc8aW5maWxlLm1hZT4nLCAnLW9tYWUnLCAnPG91dGZpbGUubWFlPic=

> <r_lp_tautomer_probability>
1

> <r_epik_Ionization_Penalty>
0.00405109

> <r_epik_Ionization_Penalty_Charging>
0

> <r_epik_Ionization_Penalty_Neutral>
0.00405109

> <r_epik_State_Penalty>
0.00270467

> <r_epik_Charging_Adjusted_Penalty>
0.00270467

> <i_epik_Tot_Q>
0

> <i_epik_Tot_abs_Q>
0

> <r_epik_Metal_State_Penalty>
-0

> <b_epik_Metal_Only>
0

> <s_lp_Force_Field>
OPLS_2005

> <r_lp_Energy>
35.3167

> <b_lp_Chiralities_Consistent>
1

> <s_lp_Variant>
AV-unprocessed.smi:225-1

> <Gold.Version>
5.8.1

> <Gold.Id.Protein>
6NUR|6NUR_protein|mol2

> <Gold.PLP.Fitness>
59.0685

> <Gold.PLP.PLP>
-51.6188

> <Gold.PLP.part.hbond>
-4.9764

> <Gold.PLP.part.metal>
0.0000

> <Gold.PLP.part.buried>
-8.6604

> <Gold.PLP.part.nonpolar>
-38.2332

> <Gold.PLP.part.repulsive>
0.0000

> <Gold.PLP.ligand.clash>
0.0000

> <Gold.PLP.ligand.torsion>
2.3611

> <Gold.PLP.Chemscore.Hbond>
3.7405

> <Gold.PLP.Chemscore.CHOScore>
0.0000

> <Gold.PLP.Chemscore.Metal>
0.0000

> <Gold.Chemscore.Hbonds>
donor molecule, donor type, donor heavy atom, donor atom, acceptor molecule, acceptor atom, score
      L1  H     1    28       P1  7957  0.19
      P1  H  6896  6907       L1    15  1.00
      P1  H  6931  6943       L1    23  1.00
      P1  H  7989  7998       L1     1  0.05
      P1  H  8011  8017       L1     1  0.72

> <Gold.PLP.Chemscore.Internal.Correction>
0.9505

> <Gold.Rescore>
     Score         DG    S(hbond)    S(metal)    S(lipo)     H(rot)  DE(clash)    DE(int)     intcor
     18.03     -20.73       3.17        0.00     122.14       3.76       0.23       2.47       ----

> <Gold.Chemscore.Fitness>
18.0277

> <Gold.Chemscore.DG>
-20.7254

> <Gold.Chemscore.ZeroCoef>
-5.4800

> <Gold.Chemscore.Hbond>
3.1712

> <Gold.Chemscore.Metal>
0.0000

> <Gold.Chemscore.Lipo>
122.1412

> <Gold.Chemscore.Internal_Hbond>
0.0000

> <Gold.Chemscore.DEClash>
0.2292

> <Gold.Chemscore.DEInternal>
2.4685

> <Gold.Chemscore.Rot>
3.7644

> <Gold.Chemscore.Internal.Correction>
   9.000000E+99

> <Gold.Chemscore.Hbonds>
donor molecule, donor type, donor heavy atom, donor atom, acceptor molecule, acceptor atom, score
      L1  H     1    28       P1  7957  0.19
      P1  H  6896  6907       L1    15  0.96
      P1  H  6931  6943       L1    23  0.94
      P1  H  8011  8017       L1     1  0.12

> <Gold.Chemscore.Hbond.Weighted>
-10.5918

> <Gold.Chemscore.Metal.Weighted>
-0.0000

> <Gold.Chemscore.Lipo.Weighted>
-14.2905

> <Gold.Chemscore.Internal_Hbond.Weighted>
0.0000

> <Gold.Chemscore.DEClash.Weighted>
0.2292

> <Gold.Chemscore.DEInternal.Weighted>
2.4685

> <Gold.Chemscore.Rot.Weighted>
9.6369

> <Gold.Chemscore.Internal.Correction.Weighted>
   9.000000E+99

> <Gold.Protein.RotatedTorsions>
[ 6907 6896 6895 6894 ] final  -18.83 input  -60.11 | X-H torsion
[ 7974 7965 7964 7962 ] final  150.00 input  175.53 | X-H torsion
[ 8008 7997 7996 7995 ] final  -27.34 input   59.86 | X-H torsion
[ 10167 10162 10161 10158 ] final  -40.24 input  -65.29 | X-H torsion
[ 10718 10713 10712 10709 ] final   38.42 input   66.30 | X-H torsion
[ 10763 10752 10751 10750 ] final   62.78 input  -60.55 | X-H torsion
[ 11005 11000 10999 10996 ] final   29.51 input  -57.11 | X-H torsion

> <Gold.Protein.ActiveResidues>
 VAL166  LYS551  ARG553  GLY616  TRP617  ASP618  TYR619  PRO620  LYS621  CYS622 
 ASP623  PHE694  ASN695  SER759  ASP760  ASP761  ALA762  ILE779  LEU786  VAL792 
 PHE793  MET794  SER795  GLU796  ALA797  LYS798  CYS799  TRP800  GLU811  SER814 

> <Gold.Protein.RotatedAtoms>
  151.2723  135.0688  159.9138 H   0  0  0  0  0  0  0  0  0  0  0  0  # atno 6907 bound_to 6896
  152.5348  134.0118  159.7952 H   0  0  0  0  0  0  0  0  0  0  0  0  # atno 6908 bound_to 6896
  151.0358  133.5700  159.2687 H   0  0  0  0  0  0  0  0  0  0  0  0  # atno 6909 bound_to 6896
  144.8396  139.6352  143.6022 H   0  0  0  0  0  0  0  0  0  0  0  0  # atno 7974 bound_to 7965
  154.4382  140.1875  156.0916 H   0  0  0  0  0  0  0  0  0  0  0  0  # atno 8008 bound_to 7997
  156.0361  140.3325  155.7166 H   0  0  0  0  0  0  0  0  0  0  0  0  # atno 8009 bound_to 7997
  155.5768  140.0618  157.2784 H   0  0  0  0  0  0  0  0  0  0  0  0  # atno 8010 bound_to 7997
  140.7040  143.3165  151.2896 H   0  0  0  0  0  0  0  0  0  0  0  0  # atno 10167 bound_to 10162
  157.3586  130.7637  149.7031 H   0  0  0  0  0  0  0  0  0  0  0  0  # atno 10718 bound_to 10713
  152.9995  135.5452  154.6248 H   0  0  0  0  0  0  0  0  0  0  0  0  # atno 10763 bound_to 10752
  154.5539  135.2828  155.0985 H   0  0  0  0  0  0  0  0  0  0  0  0  # atno 10764 bound_to 10752
  154.2214  135.6450  153.5198 H   0  0  0  0  0  0  0  0  0  0  0  0  # atno 10765 bound_to 10752
  140.3042  134.2722  155.7747 H   0  0  0  0  0  0  0  0  0  0  0  0  # atno 11005 bound_to 11000
  146.2691  139.6590  142.9309 LP  0  0  0  0  0  0  0  0  0  0  0  0  # atno 17320 bound_to 7965
  145.4721  141.0436  143.2693 LP  0  0  0  0  0  0  0  0  0  0  0  0  # atno 17321 bound_to 7965
  139.6606  144.0197  152.2689 LP  0  0  0  0  0  0  0  0  0  0  0  0  # atno 17342 bound_to 10162
  139.9763  144.6459  150.7942 LP  0  0  0  0  0  0  0  0  0  0  0  0  # atno 17343 bound_to 10162
  155.9733  130.4120  150.4010 LP  0  0  0  0  0  0  0  0  0  0  0  0  # atno 17370 bound_to 10713
  157.2084  131.0454  151.2613 LP  0  0  0  0  0  0  0  0  0  0  0  0  # atno 17371 bound_to 10713
  141.2122  133.7666  156.9812 LP  0  0  0  0  0  0  0  0  0  0  0  0  # atno 17394 bound_to 11000
  140.1082  134.9493  157.2026 LP  0  0  0  0  0  0  0  0  0  0  0  0  # atno 17395 bound_to 11000

$$$$
