AV-unprocessed.smi:3336|AV-procd|sdf|12854|dock7
  -GOLD-   2272019243D 1   1.00000     0.00000
 Structure written by MMmdl.
 42 43  0  0  0  0  0  0  0  0  2 V2000
  146.2092  134.6399  155.2868 C   0  0  0  0  0  0  0  0  0  0  0  0
  147.1351  134.9005  154.0832 C   0  0  1  0  0  0  0  0  0  0  0  0
  146.3476  135.1194  152.7749 C   0  0  0  0  0  0  0  0  0  0  0  0
  146.0116  133.8794  152.0979 N   0  0  0  0  0  0  0  0  0  0  0  0
  144.7637  133.3509  151.8411 C   0  0  0  0  0  0  0  0  0  0  0  0
  144.9507  132.1755  151.1717 C   0  0  0  0  0  0  0  0  0  0  0  0
  146.3654  132.0727  151.0566 C   0  0  0  0  0  0  0  0  0  0  0  0
  146.9972  133.0958  151.6094 N   0  0  0  0  0  0  0  0  0  0  0  0
  148.0045  136.0752  154.3311 N   0  3  0  0  0  0  0  0  0  0  0  0
  149.0413  135.9134  155.3807 C   0  0  2  0  0  0  0  0  0  0  0  0
  148.6712  136.7891  156.5897 C   0  0  0  0  0  0  0  0  0  0  0  0
  150.4448  136.2895  154.8568 C   0  0  0  0  0  0  0  0  0  0  0  0
  151.3088  135.4105  154.8409 O   0  0  0  0  0  0  0  0  0  0  0  0
  150.6999  137.5510  154.4271 N   0  0  0  0  0  0  0  0  0  0  0  0
  149.6816  138.6071  154.4175 C   0  0  0  0  0  0  0  0  0  0  0  0
  150.1214  139.7238  155.3796 C   0  0  0  0  0  0  0  0  0  0  0  0
  151.3923  140.2255  154.9761 O   0  0  0  0  0  0  0  0  0  0  0  0
  152.4036  139.2222  154.9525 C   0  0  0  0  0  0  0  0  0  0  0  0
  151.9944  138.0898  153.9921 C   0  0  0  0  0  0  0  0  0  0  0  0
  145.6007  133.7482  155.1348 H   0  0  0  0  0  0  0  0  0  0  0  0
  145.5314  135.4781  155.4519 H   0  0  0  0  0  0  0  0  0  0  0  0
  146.7720  134.4834  156.2066 H   0  0  0  0  0  0  0  0  0  0  0  0
  147.7705  134.0250  153.9425 H   0  0  0  0  0  0  0  0  0  0  0  0
  145.4234  135.6631  152.9764 H   0  0  0  0  0  0  0  0  0  0  0  0
  146.9266  135.7347  152.0844 H   0  0  0  0  0  0  0  0  0  0  0  0
  143.8566  133.8474  152.1533 H   0  0  0  0  0  0  0  0  0  0  0  0
  144.1925  131.4942  150.8151 H   0  0  0  0  0  0  0  0  0  0  0  0
  146.9477  131.2917  150.5898 H   0  0  0  0  0  0  0  0  0  0  0  0
  148.4892  136.2960  153.4723 H   0  0  0  0  0  0  0  0  0  0  0  0
  149.0230  134.8685  155.6835 H   0  0  0  0  0  0  0  0  0  0  0  0
  149.3862  136.6801  157.4052 H   0  0  0  0  0  0  0  0  0  0  0  0
  147.6912  136.5157  156.9820 H   0  0  0  0  0  0  0  0  0  0  0  0
  148.6365  137.8460  156.3216 H   0  0  0  0  0  0  0  0  0  0  0  0
  149.5809  139.0015  153.4053 H   0  0  0  0  0  0  0  0  0  0  0  0
  148.6900  138.2514  154.7001 H   0  0  0  0  0  0  0  0  0  0  0  0
  149.3989  140.5398  155.3665 H   0  0  0  0  0  0  0  0  0  0  0  0
  150.1723  139.3564  156.4057 H   0  0  0  0  0  0  0  0  0  0  0  0
  153.3406  139.6741  154.6263 H   0  0  0  0  0  0  0  0  0  0  0  0
  152.5690  138.8384  155.9603 H   0  0  0  0  0  0  0  0  0  0  0  0
  152.7961  137.3566  153.9551 H   0  0  0  0  0  0  0  0  0  0  0  0
  151.8980  138.4778  152.9770 H   0  0  0  0  0  0  0  0  0  0  0  0
  147.4113  136.8558  154.5727 H   0  0  0  0  0  0  0  0  0  0  0  0
  1  2  1  0  0  0  0
  1 20  1  0  0  0  0
  1 21  1  0  0  0  0
  1 22  1  0  0  0  0
  2  3  1  0  0  0  0
  2  9  1  0  0  0  0
  2 23  1  0  0  0  0
  3  4  1  0  0  0  0
  3 24  1  0  0  0  0
  3 25  1  0  0  0  0
  4  8  1  0  0  0  0
  4  5  1  0  0  0  0
  5  6  2  0  0  0  0
  5 26  1  0  0  0  0
  6  7  1  0  0  0  0
  6 27  1  0  0  0  0
  7  8  2  0  0  0  0
  7 28  1  0  0  0  0
  9 10  1  0  0  0  0
  9 29  1  0  0  0  0
  9 42  1  0  0  0  0
 10 11  1  0  0  0  0
 10 12  1  0  0  0  0
 10 30  1  0  0  0  0
 11 31  1  0  0  0  0
 11 32  1  0  0  0  0
 11 33  1  0  0  0  0
 12 13  2  0  0  0  0
 12 14  1  0  0  0  0
 14 19  1  0  0  0  0
 14 15  1  0  0  0  0
 15 16  1  0  0  0  0
 15 34  1  0  0  0  0
 15 35  1  0  0  0  0
 16 17  1  0  0  0  0
 16 36  1  0  0  0  0
 16 37  1  0  0  0  0
 17 18  1  0  0  0  0
 18 19  1  0  0  0  0
 18 38  1  0  0  0  0
 18 39  1  0  0  0  0
 19 40  1  0  0  0  0
 19 41  1  0  0  0  0
M  CHG  1   9   1
M  END
> <s_m_source_file>
AV-unprocessed.smi

> <i_m_source_file_index>
3336

> <i_lp_mmshare_version>
43012

> <i_f3d_flags>
0

> <s_epik_input>
bjFbY0hdW2NIXVtjSF1uMVtDSDJdW0NAQEhdKFtDSDNdKVtOSF1bQ0BIXShbQ0gzXSlDKD1PKU4yW0NIMl1bQ0gyXU9bQ0gyXVtDSDJdMg==

> <s_epik_cmdline>
J2VwaWtfcHl0aG9uJywgJy1waCcsICc3LjAnLCAnLXRuJywgJzgnLCAnLW1hJywgJzIwMCcsICctbWV0YWxfYmluZGluZycsICctaW1hZScsICc8aW5maWxlLm1hZT4nLCAnLW9tYWUnLCAnPG91dGZpbGUubWFlPic=

> <r_lp_tautomer_probability>
1

> <r_epik_Ionization_Penalty>
0.200288

> <r_epik_Ionization_Penalty_Charging>
0.200285

> <r_epik_Ionization_Penalty_Neutral>
3.37705e-06

> <r_epik_State_Penalty>
0.190126

> <r_epik_Charging_Adjusted_Penalty>
0.39041

> <i_epik_Tot_Q>
1

> <i_epik_Tot_abs_Q>
1

> <r_epik_Metal_State_Penalty>
0.190133

> <b_epik_Metal_Only>
0

> <s_lp_Force_Field>
OPLS_2005

> <r_lp_Energy>
27.5118

> <b_lp_Chiralities_Consistent>
1

> <s_lp_Variant>
AV-unprocessed.smi:3336-2

> <Gold.Version>
5.8.1

> <Gold.Id.Protein>
6NUR|6NUR_protein|mol2

> <Gold.PLP.Fitness>
40.6408

> <Gold.PLP.PLP>
-27.7910

> <Gold.PLP.part.hbond>
-2.9961

> <Gold.PLP.part.metal>
0.0000

> <Gold.PLP.part.buried>
-3.2622

> <Gold.PLP.part.nonpolar>
-22.0513

> <Gold.PLP.part.repulsive>
0.3515

> <Gold.PLP.ligand.clash>
0.0000

> <Gold.PLP.ligand.torsion>
1.1163

> <Gold.PLP.Chemscore.Hbond>
4.0000

> <Gold.PLP.Chemscore.CHOScore>
1.0000

> <Gold.PLP.Chemscore.Metal>
0.0000

> <Gold.Chemscore.Hbonds>
donor molecule, donor type, donor heavy atom, donor atom, acceptor molecule, acceptor atom, score
      L1  H     9    29       P1  7948  2.00
      P1  H  7989  7998       L1    17  0.95
      P1  H 10752 10763       L1    13  1.00
      L1  C     7    28       P1 10747  1.00

> <Gold.PLP.Chemscore.Internal.Correction>
0.0824

> <Gold.Rescore>
     Score         DG    S(hbond)    S(metal)    S(lipo)     H(rot)  DE(clash)    DE(int)     intcor
     13.42     -16.66       2.68        0.00      59.60       1.85       0.21       3.03       ----

> <Gold.Chemscore.Fitness>
13.4180

> <Gold.Chemscore.DG>
-16.6618

> <Gold.Chemscore.ZeroCoef>
-5.4800

> <Gold.Chemscore.Hbond>
2.6810

> <Gold.Chemscore.Metal>
0.0000

> <Gold.Chemscore.Lipo>
59.6035

> <Gold.Chemscore.Internal_Hbond>
0.0000

> <Gold.Chemscore.DEClash>
0.2097

> <Gold.Chemscore.DEInternal>
3.0341

> <Gold.Chemscore.Rot>
1.8541

> <Gold.Chemscore.Internal.Correction>
   9.000000E+99

> <Gold.Chemscore.Hbonds>
donor molecule, donor type, donor heavy atom, donor atom, acceptor molecule, acceptor atom, score
      L1  H     9    29       P1  7948  0.99
      P1  H  7989  7998       L1    17  0.21
      P1  H 10752 10763       L1    13  0.95

> <Gold.Chemscore.Hbond.Weighted>
-8.9547

> <Gold.Chemscore.Metal.Weighted>
-0.0000

> <Gold.Chemscore.Lipo.Weighted>
-6.9736

> <Gold.Chemscore.Internal_Hbond.Weighted>
0.0000

> <Gold.Chemscore.DEClash.Weighted>
0.2097

> <Gold.Chemscore.DEInternal.Weighted>
3.0341

> <Gold.Chemscore.Rot.Weighted>
4.7465

> <Gold.Chemscore.Internal.Correction.Weighted>
   9.000000E+99

> <Gold.Protein.RotatedTorsions>
[ 6907 6896 6895 6894 ] final -151.71 input  -60.11 | X-H torsion
[ 7974 7965 7964 7962 ] final  172.93 input  175.53 | X-H torsion
[ 8008 7997 7996 7995 ] final  141.17 input   59.86 | X-H torsion
[ 10167 10162 10161 10158 ] final  -43.20 input  -65.29 | X-H torsion
[ 10718 10713 10712 10709 ] final  -27.23 input   66.30 | X-H torsion
[ 10763 10752 10751 10750 ] final   65.87 input  -60.55 | X-H torsion
[ 11005 11000 10999 10996 ] final -173.37 input  -57.11 | X-H torsion

> <Gold.Protein.ActiveResidues>
 VAL166  LYS551  ARG553  GLY616  TRP617  ASP618  TYR619  PRO620  LYS621  CYS622 
 ASP623  PHE694  ASN695  SER759  ASP760  ASP761  ALA762  ILE779  LEU786  VAL792 
 PHE793  MET794  SER795  GLU796  ALA797  LYS798  CYS799  TRP800  GLU811  SER814 

> <Gold.Protein.RotatedAtoms>
  151.2171  133.4523  159.2599 H   0  0  0  0  0  0  0  0  0  0  0  0  # atno 6907 bound_to 6896
  151.0921  134.9922  159.8418 H   0  0  0  0  0  0  0  0  0  0  0  0  # atno 6908 bound_to 6896
  152.5435  134.2103  159.8800 H   0  0  0  0  0  0  0  0  0  0  0  0  # atno 6909 bound_to 6896
  144.7256  139.9572  143.6434 H   0  0  0  0  0  0  0  0  0  0  0  0  # atno 7974 bound_to 7965
  156.2969  140.2322  156.4522 H   0  0  0  0  0  0  0  0  0  0  0  0  # atno 8008 bound_to 7997
  154.8092  140.0444  157.1351 H   0  0  0  0  0  0  0  0  0  0  0  0  # atno 8009 bound_to 7997
  154.9443  140.3033  155.5109 H   0  0  0  0  0  0  0  0  0  0  0  0  # atno 8010 bound_to 7997
  140.6942  143.2996  151.3318 H   0  0  0  0  0  0  0  0  0  0  0  0  # atno 10167 bound_to 10162
  156.4409  130.4464  149.7053 H   0  0  0  0  0  0  0  0  0  0  0  0  # atno 10718 bound_to 10713
  153.0115  135.5341  154.6735 H   0  0  0  0  0  0  0  0  0  0  0  0  # atno 10763 bound_to 10752
  154.5913  135.2859  155.0634 H   0  0  0  0  0  0  0  0  0  0  0  0  # atno 10764 bound_to 10752
  154.1726  135.6529  153.5066 H   0  0  0  0  0  0  0  0  0  0  0  0  # atno 10765 bound_to 10752
  140.4865  134.6026  157.4939 H   0  0  0  0  0  0  0  0  0  0  0  0  # atno 11005 bound_to 11000
  146.0665  139.3656  143.0549 LP  0  0  0  0  0  0  0  0  0  0  0  0  # atno 17320 bound_to 7965
  145.8024  140.9765  143.0992 LP  0  0  0  0  0  0  0  0  0  0  0  0  # atno 17321 bound_to 7965
  139.6378  144.0597  152.2530 LP  0  0  0  0  0  0  0  0  0  0  0  0  # atno 17342 bound_to 10162
  140.0092  144.6236  150.7662 LP  0  0  0  0  0  0  0  0  0  0  0  0  # atno 17343 bound_to 10162
  156.3919  130.7631  151.2633 LP  0  0  0  0  0  0  0  0  0  0  0  0  # atno 17370 bound_to 10713
  157.7506  131.0265  150.3966 LP  0  0  0  0  0  0  0  0  0  0  0  0  # atno 17371 bound_to 10713
  139.9795  134.7161  155.9886 LP  0  0  0  0  0  0  0  0  0  0  0  0  # atno 17394 bound_to 11000
  141.1505  133.6549  156.4000 LP  0  0  0  0  0  0  0  0  0  0  0  0  # atno 17395 bound_to 11000

$$$$
