#       Name:                AV-unprocessed.smi:2918
#       Creating user name   scv26
#       Creation time:       Fri Mar 27 16:08:25 2020


#       File generated by GOLD software.
#

@<TRIPOS>MOLECULE
AV-unprocessed.smi:2918
    46    47     1
SMALL
NO_CHARGES


@<TRIPOS>ATOM
      1 ****        -1.6515  -4.2560   0.1653 C.3            1 S1                 0.0000
      2 ****        -1.3330  -3.1944  -0.8989 C.3            1 S1                 0.0000
      3 ****        -2.0273  -3.4975  -2.2372 C.3            1 S1                 0.0000
      4 ****         0.1093  -3.0430  -1.0674 N.pl3          1 S1                 0.0000
      5 ****         0.8368  -4.0435  -1.6176 N.2            1 S1                 0.0000
      6 ****         2.0895  -3.6087  -1.6124 C.2            1 S1                 0.0000
      7 ****         2.2246  -2.3092  -1.0481 C.2            1 S1                 0.0000
      8 ****         0.9356  -1.9943  -0.7132 C.2            1 S1                 0.0000
      9 ****         0.4651  -0.8643  -0.1202 N.am           1 S1                 0.0000
     10 ****         1.1340   0.2507   0.2219 C.2            1 S1                 0.0000
     11 ****         2.3355   0.4430   0.0371 O.2            1 S1                 0.0000
     12 ****         0.3092   1.1439   0.7945 N.am           1 S1                 0.0000
     13 ****         0.6229   2.4902   1.2978 C.3            1 S1                 0.0000
     14 ****         1.6421   2.3959   2.4534 C.3            1 S1                 0.0000
     15 ****         1.1512   3.4152   0.1742 C.3            1 S1                 0.0000
     16 ****         0.0742   3.7087  -0.8856 C.3            1 S1                 0.0000
     17 ****        -1.0678   4.2899  -0.2671 O.3            1 S1                 0.0000
     18 ****        -1.6781   3.4315   0.6895 C.3            1 S1                 0.0000
     19 ****        -0.6871   3.1144   1.8257 C.3            1 S1                 0.0000
     20 ****        -2.7256  -4.3242   0.3399 H              1 S1                 0.0000
     21 ****        -1.1781  -4.0113   1.1166 H              1 S1                 0.0000
     22 ****        -1.3016  -5.2437  -0.1372 H              1 S1                 0.0000
     23 ****        -1.7284  -2.2436  -0.5410 H              1 S1                 0.0000
     24 ****        -3.1104  -3.5284  -2.1161 H              1 S1                 0.0000
     25 ****        -1.7144  -4.4592  -2.6457 H              1 S1                 0.0000
     26 ****        -1.8012  -2.7300  -2.9782 H              1 S1                 0.0000
     27 ****         2.8616  -4.2488  -2.0133 H              1 S1                 0.0000
     28 ****         3.1250  -1.7285  -0.9167 H              1 S1                 0.0000
     29 ****        -0.5238  -0.8666   0.0811 H              1 S1                 0.0000
     30 ****        -0.6562   0.8653   0.8909 H              1 S1                 0.0000
     31 ****         1.8217   3.3735   2.9017 H              1 S1                 0.0000
     32 ****         2.6084   2.0191   2.1180 H              1 S1                 0.0000
     33 ****         1.2855   1.7347   3.2440 H              1 S1                 0.0000
     34 ****         1.4704   4.3632   0.6096 H              1 S1                 0.0000
     35 ****         2.0386   2.9989  -0.3017 H              1 S1                 0.0000
     36 ****         0.4624   4.4078  -1.6264 H              1 S1                 0.0000
     37 ****        -0.2083   2.8033  -1.4247 H              1 S1                 0.0000
     38 ****        -2.5592   3.9307   1.0932 H              1 S1                 0.0000
     39 ****        -2.0288   2.5196   0.2039 H              1 S1                 0.0000
     40 ****        -1.1582   2.4553   2.5564 H              1 S1                 0.0000
     41 ****        -0.4633   4.0416   2.3554 H              1 S1                 0.0000
     42 ****         0.5011  -4.9227  -1.9558 LP             1 S1                 0.0000
     43 ****         2.8934  -0.2627  -0.3997 LP             1 S1                 0.0000
     44 ****         2.7538   1.3049   0.3237 LP             1 S1                 0.0000
     45 ****        -1.7393   4.5056  -0.9761 LP             1 S1                 0.0000
     46 ****        -0.7871   5.1320   0.1934 LP             1 S1                 0.0000
@<TRIPOS>BOND
    1    1    2 1     
    2    1   20 1     
    3    1   21 1     
    4    1   22 1     
    5    2    3 1     
    6    2    4 1     
    7    2   23 1     
    8    3   24 1     
    9    3   25 1     
   10    3   26 1     
   11    4    8 1     
   12    4    5 1     
   13    5    6 2     
   14    6    7 1     
   15    6   27 1     
   16    7    8 2     
   17    7   28 1     
   18    8    9 1     
   19    9   10 am    
   20    9   29 1     
   21   10   11 2     
   22   10   12 am    
   23   12   13 1     
   24   12   30 1     
   25   13   19 1     
   26   13   14 1     
   27   13   15 1     
   28   14   31 1     
   29   14   32 1     
   30   14   33 1     
   31   15   16 1     
   32   15   34 1     
   33   15   35 1     
   34   16   17 1     
   35   16   36 1     
   36   16   37 1     
   37   17   18 1     
   38   18   19 1     
   39   18   38 1     
   40   18   39 1     
   41   19   40 1     
   42   19   41 1     
   43    5   42 1     
   44   11   43 1     
   45   11   44 1     
   46   17   45 1     
   47   17   46 1     
@<TRIPOS>SUBSTRUCTURE
      1 S1             1
@<TRIPOS>SET
LONE_PAIRS      STATIC     ATOMS    <user>   **** ""
5 42 43 44 45 46
DONOR_HYDROGENS      STATIC     ATOMS    <user>   **** ""
2 29 30
ATOM$BLUE        STATIC     ATOMS    COLORGROUP SYSTEM
5 42 43 44 45 46
ATOM$RED        STATIC     ATOMS    COLORGROUP SYSTEM
2 29 30
