AV-unprocessed.smi:3185|AV-procd|sdf|12167|dock5
  -GOLD-   2272018 03D 1   1.00000     0.00000
 Structure written by MMmdl.
 38 39  0  0  0  0  0  0  0  0  2 V2000
  150.1057  132.0341  157.6442 N   0  0  0  0  0  0  0  0  0  0  0  0
  149.9562  132.4127  156.5616 C   0  0  0  0  0  0  0  0  0  0  0  0
  149.7676  132.8940  155.1850 C   0  0  0  0  0  0  0  0  0  0  0  0
  148.7617  132.0470  154.3974 C   0  0  0  0  0  0  0  0  0  0  0  0
  148.5710  132.5554  152.9639 C   0  0  0  0  0  0  0  0  0  0  0  0
  147.4064  133.4608  152.8771 N   0  3  0  0  0  0  0  0  0  0  0  0
  146.2510  132.9490  152.1029 C   0  0  2  0  0  0  0  0  0  0  0  0
  146.6672  132.7151  150.6331 C   0  0  0  0  0  0  0  0  0  0  0  0
  145.4922  132.2317  149.7702 C   0  0  0  0  0  0  0  0  0  0  0  0
  144.3002  133.1946  149.8591 C   0  0  0  0  0  0  0  0  0  0  0  0
  143.8473  133.3694  151.3172 C   0  0  0  0  0  0  0  0  0  0  0  0
  144.9835  133.8469  152.2473 C   0  0  2  0  0  0  0  0  0  0  0  0
  145.2273  135.2843  152.1141 N   0  0  0  0  0  0  0  0  0  0  0  0
  145.7359  135.9447  151.0132 C   0  0  0  0  0  0  0  0  0  0  0  0
  145.8190  137.2709  151.3261 C   0  0  0  0  0  0  0  0  0  0  0  0
  145.3514  137.3297  152.6671 C   0  0  0  0  0  0  0  0  0  0  0  0
  145.0049  136.1424  153.1352 N   0  0  0  0  0  0  0  0  0  0  0  0
  149.4372  133.9318  155.2360 H   0  0  0  0  0  0  0  0  0  0  0  0
  150.7410  132.8865  154.6938 H   0  0  0  0  0  0  0  0  0  0  0  0
  149.1041  131.0116  154.3757 H   0  0  0  0  0  0  0  0  0  0  0  0
  147.8032  132.0465  154.9181 H   0  0  0  0  0  0  0  0  0  0  0  0
  149.4665  133.0827  152.6328 H   0  0  0  0  0  0  0  0  0  0  0  0
  148.4297  131.7048  152.2972 H   0  0  0  0  0  0  0  0  0  0  0  0
  147.0893  133.6766  153.8119 H   0  0  0  0  0  0  0  0  0  0  0  0
  146.0035  131.9678  152.5116 H   0  0  0  0  0  0  0  0  0  0  0  0
  147.0844  133.6220  150.1970 H   0  0  0  0  0  0  0  0  0  0  0  0
  147.4680  131.9758  150.5933 H   0  0  0  0  0  0  0  0  0  0  0  0
  145.8115  132.1307  148.7323 H   0  0  0  0  0  0  0  0  0  0  0  0
  145.1838  131.2374  150.0959 H   0  0  0  0  0  0  0  0  0  0  0  0
  144.5676  134.1596  149.4282 H   0  0  0  0  0  0  0  0  0  0  0  0
  143.4731  132.8120  149.2604 H   0  0  0  0  0  0  0  0  0  0  0  0
  143.0039  134.0592  151.3658 H   0  0  0  0  0  0  0  0  0  0  0  0
  143.4719  132.4122  151.6811 H   0  0  0  0  0  0  0  0  0  0  0  0
  144.6106  133.7103  153.2631 H   0  0  0  0  0  0  0  0  0  0  0  0
  145.9919  135.4213  150.1035 H   0  0  0  0  0  0  0  0  0  0  0  0
  146.1685  138.0752  150.6958 H   0  0  0  0  0  0  0  0  0  0  0  0
  145.2563  138.1920  153.3103 H   0  0  0  0  0  0  0  0  0  0  0  0
  147.7151  134.3171  152.4394 H   0  0  0  0  0  0  0  0  0  0  0  0
  1  2  3  0  0  0  0
  2  3  1  0  0  0  0
  3  4  1  0  0  0  0
  3 18  1  0  0  0  0
  3 19  1  0  0  0  0
  4  5  1  0  0  0  0
  4 20  1  0  0  0  0
  4 21  1  0  0  0  0
  5  6  1  0  0  0  0
  5 22  1  0  0  0  0
  5 23  1  0  0  0  0
  6  7  1  0  0  0  0
  6 24  1  0  0  0  0
  6 38  1  0  0  0  0
  7 12  1  0  0  0  0
  7  8  1  0  0  0  0
  7 25  1  0  0  0  0
  8  9  1  0  0  0  0
  8 26  1  0  0  0  0
  8 27  1  0  0  0  0
  9 10  1  0  0  0  0
  9 28  1  0  0  0  0
  9 29  1  0  0  0  0
 10 11  1  0  0  0  0
 10 30  1  0  0  0  0
 10 31  1  0  0  0  0
 11 12  1  0  0  0  0
 11 32  1  0  0  0  0
 11 33  1  0  0  0  0
 12 13  1  0  0  0  0
 12 34  1  0  0  0  0
 13 17  1  0  0  0  0
 13 14  1  0  0  0  0
 14 15  2  0  0  0  0
 14 35  1  0  0  0  0
 15 16  1  0  0  0  0
 15 36  1  0  0  0  0
 16 17  2  0  0  0  0
 16 37  1  0  0  0  0
M  CHG  1   6   1
M  END
> <s_m_source_file>
AV-unprocessed.smi

> <i_m_source_file_index>
3185

> <i_lp_mmshare_version>
43012

> <i_f3d_flags>
0

> <s_epik_input>
TiNDW0NIMl1bQ0gyXVtDSDJdW05IXVtDQEBIXTFbQ0gyXVtDSDJdW0NIMl1bQ0gyXVtDQEhdMW4yW2NIXVtjSF1bY0hdbjI=

> <s_epik_cmdline>
J2VwaWtfcHl0aG9uJywgJy1waCcsICc3LjAnLCAnLXRuJywgJzgnLCAnLW1hJywgJzIwMCcsICctbWV0YWxfYmluZGluZycsICctaW1hZScsICc8aW5maWxlLm1hZT4nLCAnLW9tYWUnLCAnPG91dGZpbGUubWFlPic=

> <r_lp_tautomer_probability>
1

> <r_epik_Ionization_Penalty>
0.0143465

> <r_epik_Ionization_Penalty_Charging>
0.0143338

> <r_epik_Ionization_Penalty_Neutral>
1.27047e-05

> <r_epik_State_Penalty>
0.0112058

> <r_epik_Charging_Adjusted_Penalty>
0.0255397

> <i_epik_Tot_Q>
1

> <i_epik_Tot_abs_Q>
1

> <r_epik_Metal_State_Penalty>
0.0112253

> <b_epik_Metal_Only>
0

> <s_lp_Force_Field>
OPLS_2005

> <r_lp_Energy>
17.7884

> <b_lp_Chiralities_Consistent>
1

> <s_lp_Variant>
AV-unprocessed.smi:3185-3

> <Gold.Version>
5.8.1

> <Gold.Id.Protein>
6NUR|6NUR_protein|mol2

> <Gold.PLP.Fitness>
45.0161

> <Gold.PLP.PLP>
-31.2517

> <Gold.PLP.part.hbond>
-2.0000

> <Gold.PLP.part.metal>
0.0000

> <Gold.PLP.part.buried>
2.8628

> <Gold.PLP.part.nonpolar>
-32.4152

> <Gold.PLP.part.repulsive>
0.1281

> <Gold.PLP.ligand.clash>
0.0000

> <Gold.PLP.ligand.torsion>
0.6609

> <Gold.PLP.Chemscore.Hbond>
3.0000

> <Gold.PLP.Chemscore.CHOScore>
1.9948

> <Gold.PLP.Chemscore.Metal>
0.0000

> <Gold.Chemscore.Hbonds>
donor molecule, donor type, donor heavy atom, donor atom, acceptor molecule, acceptor atom, score
      L1  H     6    38       P1  7948  0.62
      P1  H  6896  6907       L1     1  0.18
      L1  C    14    35       P1  7921  0.99
      L1  C    16    37       P1 10175  0.08

> <Gold.PLP.Chemscore.Internal.Correction>
0.1018

> <Gold.Rescore>
     Score         DG    S(hbond)    S(metal)    S(lipo)     H(rot)  DE(clash)    DE(int)     intcor
     13.36     -15.70       1.83        0.00      76.11       1.88       1.63       0.71       ----

> <Gold.Chemscore.Fitness>
13.3633

> <Gold.Chemscore.DG>
-15.7039

> <Gold.Chemscore.ZeroCoef>
-5.4800

> <Gold.Chemscore.Hbond>
1.8336

> <Gold.Chemscore.Metal>
0.0000

> <Gold.Chemscore.Lipo>
76.1087

> <Gold.Chemscore.Internal_Hbond>
0.0000

> <Gold.Chemscore.DEClash>
1.6283

> <Gold.Chemscore.DEInternal>
0.7122

> <Gold.Chemscore.Rot>
1.8769

> <Gold.Chemscore.Internal.Correction>
   9.000000E+99

> <Gold.Chemscore.Hbonds>
donor molecule, donor type, donor heavy atom, donor atom, acceptor molecule, acceptor atom, score
      L1  H     6    38       P1  7948  0.15
      P1  H  6896  6907       L1     1  0.19

> <Gold.Chemscore.Hbond.Weighted>
-6.1241

> <Gold.Chemscore.Metal.Weighted>
-0.0000

> <Gold.Chemscore.Lipo.Weighted>
-8.9047

> <Gold.Chemscore.Internal_Hbond.Weighted>
0.0000

> <Gold.Chemscore.DEClash.Weighted>
1.6283

> <Gold.Chemscore.DEInternal.Weighted>
0.7122

> <Gold.Chemscore.Rot.Weighted>
4.8049

> <Gold.Chemscore.Internal.Correction.Weighted>
   9.000000E+99

> <Gold.Protein.RotatedTorsions>
[ 6907 6896 6895 6894 ] final -154.33 input  -60.11 | X-H torsion
[ 7974 7965 7964 7962 ] final -167.66 input  175.53 | X-H torsion
[ 8008 7997 7996 7995 ] final  158.48 input   59.86 | X-H torsion
[ 10167 10162 10161 10158 ] final   69.36 input  -65.29 | X-H torsion
[ 10718 10713 10712 10709 ] final  -92.05 input   66.30 | X-H torsion
[ 10763 10752 10751 10750 ] final   70.72 input  -60.55 | X-H torsion
[ 11005 11000 10999 10996 ] final  -98.76 input  -57.11 | X-H torsion

> <Gold.Protein.ActiveResidues>
 VAL166  LYS551  ARG553  GLY616  TRP617  ASP618  TYR619  PRO620  LYS621  CYS622 
 ASP623  PHE694  ASN695  SER759  ASP760  ASP761  ALA762  ILE779  LEU786  VAL792 
 PHE793  MET794  SER795  GLU796  ALA797  LYS798  CYS799  TRP800  GLU811  SER814 

> <Gold.Protein.RotatedAtoms>
  151.2558  133.4327  159.2613 H   0  0  0  0  0  0  0  0  0  0  0  0  # atno 6907 bound_to 6896
  151.0575  134.9715  159.8253 H   0  0  0  0  0  0  0  0  0  0  0  0  # atno 6908 bound_to 6896
  152.5393  134.2510  159.8951 H   0  0  0  0  0  0  0  0  0  0  0  0  # atno 6909 bound_to 6896
  144.7218  140.2485  143.6282 H   0  0  0  0  0  0  0  0  0  0  0  0  # atno 7974 bound_to 7965
  156.2300  140.1857  156.7267 H   0  0  0  0  0  0  0  0  0  0  0  0  # atno 8008 bound_to 7997
  154.6006  140.0636  156.9390 H   0  0  0  0  0  0  0  0  0  0  0  0  # atno 8009 bound_to 7997
  155.2181  140.3305  155.4322 H   0  0  0  0  0  0  0  0  0  0  0  0  # atno 8010 bound_to 7997
  140.0686  144.5172  150.7243 H   0  0  0  0  0  0  0  0  0  0  0  0  # atno 10167 bound_to 10162
  155.9999  130.4972  150.5567 H   0  0  0  0  0  0  0  0  0  0  0  0  # atno 10718 bound_to 10713
  153.0358  135.5163  154.7484 H   0  0  0  0  0  0  0  0  0  0  0  0  # atno 10763 bound_to 10752
  154.6462  135.2919  155.0045 H   0  0  0  0  0  0  0  0  0  0  0  0  # atno 10764 bound_to 10752
  154.0945  135.6645  153.4910 H   0  0  0  0  0  0  0  0  0  0  0  0  # atno 10765 bound_to 10752
  141.1333  133.8269  157.0882 H   0  0  0  0  0  0  0  0  0  0  0  0  # atno 11005 bound_to 11000
  145.8251  139.2061  143.1915 LP  0  0  0  0  0  0  0  0  0  0  0  0  # atno 17320 bound_to 7965
  146.0480  140.8098  142.9796 LP  0  0  0  0  0  0  0  0  0  0  0  0  # atno 17321 bound_to 7965
  140.7137  143.2526  151.4503 LP  0  0  0  0  0  0  0  0  0  0  0  0  # atno 17342 bound_to 10162
  139.5850  144.1626  152.2017 LP  0  0  0  0  0  0  0  0  0  0  0  0  # atno 17343 bound_to 10162
  157.3482  131.0729  151.1734 LP  0  0  0  0  0  0  0  0  0  0  0  0  # atno 17370 bound_to 10713
  157.2560  130.6636  149.5953 LP  0  0  0  0  0  0  0  0  0  0  0  0  # atno 17371 bound_to 10713
  140.0409  134.9855  157.0959 LP  0  0  0  0  0  0  0  0  0  0  0  0  # atno 17394 bound_to 11000
  140.4137  134.1954  155.7163 LP  0  0  0  0  0  0  0  0  0  0  0  0  # atno 17395 bound_to 11000

$$$$
