#       Name:                AV-unprocessed.smi:218
#       Creating user name   scv26
#       Creation time:       Thu Mar 26 20:07:34 2020


#       File generated by GOLD software.
#

@<TRIPOS>MOLECULE
AV-unprocessed.smi:218
    68    71     1
SMALL
NO_CHARGES


@<TRIPOS>ATOM
      1 ****        -2.5804   4.5037  -3.6398 C.3            1 S1                 0.0000
      2 ****        -3.3148   3.7182  -2.5466 C.3            1 S1                 0.0000
      3 ****        -3.0184   4.2966  -1.1521 C.3            1 S1                 0.0000
      4 ****        -2.8602   2.3661  -2.6312 O.3            1 S1                 0.0000
      5 ****        -3.6087   1.3459  -2.0761 C.ar           1 S1                 0.0000
      6 ****        -3.0913   0.0355  -2.1268 C.ar           1 S1                 0.0000
      7 ****        -3.8402  -1.0179  -1.5601 C.ar           1 S1                 0.0000
      8 ****        -3.3322  -2.4511  -1.5848 C.3            1 S1                 0.0000
      9 ****        -1.9005  -2.6123  -1.3506 N.pl3          1 S1                 0.0000
     10 ****        -1.3543  -2.2795  -0.1604 C.ar           1 S1                 0.0000
     11 ****        -2.1331  -1.9947   0.9164 N.ar           1 S1                 0.0000
     12 ****        -1.5682  -1.6697   2.0834 C.ar           1 S1                 0.0000
     13 ****        -0.2710  -1.5785   2.3864 N.ar           1 S1                 0.0000
     14 ****         0.5128  -1.8695   1.3083 C.ar           1 S1                 0.0000
     15 ****         0.0528  -2.2261   0.0111 C.ar           1 S1                 0.0000
     16 ****         1.1376  -2.4503  -0.8266 N.2            1 S1                 0.0000
     17 ****         2.1763  -2.2384  -0.0631 C.2            1 S1                 0.0000
     18 ****         1.8884  -1.8774   1.2371 N.pl3          1 S1                 0.0000
     19 ****         2.8187  -1.5642   2.3705 C.3            1 S1                 0.0000
     20 ****         4.0767  -2.0883   2.0642 O.3            1 S1                 0.0000
     21 ****         4.9465  -1.0400   1.6572 C.3            1 S1                 0.0000
     22 ****         6.4198  -1.4725   1.7537 C.3            1 S1                 0.0000
     23 ****         7.2605  -0.4527   1.2582 O.3            1 S1                 0.0000
     24 ****         4.5049   0.1391   2.5336 C.3            1 S1                 0.0000
     25 ****         5.0690   0.0550   3.8293 O.3            1 S1                 0.0000
     26 ****         2.9924  -0.0404   2.5963 C.3            1 S1                 0.0000
     27 ****         2.3713   0.7662   1.6092 O.3            1 S1                 0.0000
     28 ****        -5.0859  -0.7169  -0.9748 C.ar           1 S1                 0.0000
     29 ****        -5.5218   0.6220  -0.9752 C.ar           1 S1                 0.0000
     30 ****        -4.8080   1.6339  -1.5118 N.ar           1 S1                 0.0000
     31 ****         2.3949  -2.0885   3.2279 H              1 S1                 0.0000
     32 ****         4.7149  -0.8051   0.6169 H              1 S1                 0.0000
     33 ****         4.7979   1.0980   2.1029 H              1 S1                 0.0000
     34 ****         2.5843   0.2352   3.5697 H              1 S1                 0.0000
     35 ****        -2.8905   5.5491  -3.6485 H              1 S1                 0.0000
     36 ****        -2.7898   4.0880  -4.6258 H              1 S1                 0.0000
     37 ****        -1.5006   4.4761  -3.4894 H              1 S1                 0.0000
     38 ****        -4.3822   3.7881  -2.7613 H              1 S1                 0.0000
     39 ****        -3.3198   5.3425  -1.0915 H              1 S1                 0.0000
     40 ****        -1.9539   4.2431  -0.9229 H              1 S1                 0.0000
     41 ****        -3.5514   3.7591  -0.3687 H              1 S1                 0.0000
     42 ****        -2.1335  -0.1516  -2.5898 H              1 S1                 0.0000
     43 ****        -3.8833  -3.0495  -0.8579 H              1 S1                 0.0000
     44 ****        -3.5621  -2.8728  -2.5632 H              1 S1                 0.0000
     45 ****        -1.3458  -2.8375  -2.1637 H              1 S1                 0.0000
     46 ****        -2.2536  -1.4526   2.8894 H              1 S1                 0.0000
     47 ****         3.1840  -2.3440  -0.4366 H              1 S1                 0.0000
     48 ****         6.7027  -1.7193   2.7773 H              1 S1                 0.0000
     49 ****         6.5813  -2.3700   1.1562 H              1 S1                 0.0000
     50 ****         8.1552  -0.7547   1.2989 H              1 S1                 0.0000
     51 ****         6.0067   0.1471   3.7535 H              1 S1                 0.0000
     52 ****         2.6704   0.4826   0.7590 H              1 S1                 0.0000
     53 ****        -5.6946  -1.4913  -0.5318 H              1 S1                 0.0000
     54 ****        -6.4711   0.8874  -0.5336 H              1 S1                 0.0000
     55 ****        -1.9622   2.3362  -2.1922 LP             1 S1                 0.0000
     56 ****        -2.7628   2.1554  -3.6039 LP             1 S1                 0.0000
     57 ****        -3.1292  -2.0283   0.8355 LP             1 S1                 0.0000
     58 ****         0.0811  -1.3288   3.2884 LP             1 S1                 0.0000
     59 ****         1.1263  -2.7132  -1.7914 LP             1 S1                 0.0000
     60 ****         3.9882  -2.7535   1.3227 LP             1 S1                 0.0000
     61 ****         4.4549  -2.5390   2.8728 LP             1 S1                 0.0000
     62 ****         7.1568   0.3706   1.8162 LP             1 S1                 0.0000
     63 ****         7.0172  -0.2459   0.3105 LP             1 S1                 0.0000
     64 ****         4.8487  -0.8313   4.2366 LP             1 S1                 0.0000
     65 ****         4.7034   0.7864   4.4048 LP             1 S1                 0.0000
     66 ****         2.6191   1.7245   1.7516 LP             1 S1                 0.0000
     67 ****         1.3780   0.6664   1.6680 LP             1 S1                 0.0000
     68 ****        -5.1544   2.5718  -1.4939 LP             1 S1                 0.0000
@<TRIPOS>BOND
    1    1    2 1     
    2    1   35 1     
    3    1   36 1     
    4    1   37 1     
    5    2    3 1     
    6    2    4 1     
    7    2   38 1     
    8    3   39 1     
    9    3   40 1     
   10    3   41 1     
   11    4    5 1     
   12    5   30 ar    
   13    5    6 ar    
   14    6    7 ar    
   15    6   42 1     
   16    7    8 1     
   17    7   28 ar    
   18    8    9 1     
   19    8   43 1     
   20    8   44 1     
   21    9   10 1     
   22    9   45 1     
   23   10   15 ar    
   24   10   11 ar    
   25   11   12 ar    
   26   12   13 ar    
   27   12   46 1     
   28   13   14 ar    
   29   14   18 1     
   30   14   15 ar    
   31   15   16 1     
   32   16   17 2     
   33   17   18 1     
   34   17   47 1     
   35   18   19 1     
   36   19   31 1     
   37   19   26 1     
   38   19   20 1     
   39   20   21 1     
   40   21   32 1     
   41   21   22 1     
   42   21   24 1     
   43   22   23 1     
   44   22   48 1     
   45   22   49 1     
   46   23   50 1     
   47   24   33 1     
   48   24   25 1     
   49   24   26 1     
   50   25   51 1     
   51   26   34 1     
   52   26   27 1     
   53   27   52 1     
   54   28   29 ar    
   55   28   53 1     
   56   29   30 ar    
   57   29   54 1     
   58    4   55 1     
   59    4   56 1     
   60   11   57 1     
   61   13   58 1     
   62   16   59 1     
   63   20   60 1     
   64   20   61 1     
   65   23   62 1     
   66   23   63 1     
   67   25   64 1     
   68   25   65 1     
   69   27   66 1     
   70   27   67 1     
   71   30   68 1     
@<TRIPOS>SUBSTRUCTURE
      1 S1             1
@<TRIPOS>SET
LONE_PAIRS      STATIC     ATOMS    <user>   **** ""
14 55 56 57 58 59 60 61 62 63 64 65 66 67 68
DONOR_HYDROGENS      STATIC     ATOMS    <user>   **** ""
4 45 50 51 52
ATOM$BLUE        STATIC     ATOMS    COLORGROUP SYSTEM
14 55 56 57 58 59 60 61 62 63 64 65 66 67 68
ATOM$RED        STATIC     ATOMS    COLORGROUP SYSTEM
4 45 50 51 52
