AV-unprocessed.smi:1235|AV-procd|sdf|5177|dock10
  -GOLD-   22720 4253D 1   1.00000     0.00000
 Structure written by MMmdl.
 50 51  0  0  0  0  0  0  0  0  2 V2000
  152.2993  142.1856  159.9279 C   0  0  0  0  0  0  0  0  0  0  0  0
  151.6058  142.4571  158.7224 O   0  0  0  0  0  0  0  0  0  0  0  0
  151.3932  141.2923  157.9435 C   0  0  0  0  0  0  0  0  0  0  0  0
  150.9745  141.7130  156.5265 C   0  0  0  0  0  0  0  0  0  0  0  0
  150.7441  140.5484  155.6659 N   0  0  0  0  0  0  0  0  0  0  0  0
  149.4934  140.5254  155.0715 N   0  0  0  0  0  0  0  0  0  0  0  0
  149.1584  139.5421  154.3000 C   0  0  0  0  0  0  0  0  0  0  0  0
  147.8217  139.4777  153.6458 C   0  0  0  0  0  0  0  0  0  0  0  0
  146.8732  140.1623  154.0326 O   0  0  0  0  0  0  0  0  0  0  0  0
  147.7264  138.6252  152.6092 N   0  0  0  0  0  0  0  0  0  0  0  0
  146.5296  138.4106  151.8046 C   0  0  0  0  0  0  0  0  0  0  0  0
  145.4439  137.6460  152.5887 C   0  0  0  0  0  0  0  0  0  0  0  0
  145.0578  136.3558  151.9556 N   0  3  2  0  0  0  0  0  0  0  0  0
  143.7388  135.8686  152.4433 C   0  0  0  0  0  0  0  0  0  0  0  0
  143.2491  134.6609  151.6283 C   0  0  0  0  0  0  0  0  0  0  0  0
  144.2854  133.5321  151.6376 C   0  0  0  0  0  0  0  0  0  0  0  0
  145.6391  134.0643  151.1488 C   0  0  0  0  0  0  0  0  0  0  0  0
  146.1113  135.2916  151.9574 C   0  0  2  0  0  0  0  0  0  0  0  0
  146.5993  134.9054  153.3703 C   0  0  0  0  0  0  0  0  0  0  0  0
  150.0825  138.4512  154.0405 C   0  0  0  0  0  0  0  0  0  0  0  0
  151.2985  138.4872  154.6284 C   0  0  0  0  0  0  0  0  0  0  0  0
  151.7008  139.5842  155.5102 C   0  0  0  0  0  0  0  0  0  0  0  0
  152.7977  139.6339  156.0656 O   0  0  0  0  0  0  0  0  0  0  0  0
  152.4307  143.1100  160.4903 H   0  0  0  0  0  0  0  0  0  0  0  0
  153.2878  141.7697  159.7288 H   0  0  0  0  0  0  0  0  0  0  0  0
  151.7444  141.4861  160.5544 H   0  0  0  0  0  0  0  0  0  0  0  0
  152.3059  140.6956  157.9088 H   0  0  0  0  0  0  0  0  0  0  0  0
  150.6145  140.6783  158.3989 H   0  0  0  0  0  0  0  0  0  0  0  0
  150.0677  142.3180  156.5817 H   0  0  0  0  0  0  0  0  0  0  0  0
  151.7321  142.3668  156.0909 H   0  0  0  0  0  0  0  0  0  0  0  0
  148.5511  138.1006  152.3536 H   0  0  0  0  0  0  0  0  0  0  0  0
  146.1459  139.3675  151.4467 H   0  0  0  0  0  0  0  0  0  0  0  0
  146.8423  137.8476  150.9260 H   0  0  0  0  0  0  0  0  0  0  0  0
  145.7522  137.4878  153.6223 H   0  0  0  0  0  0  0  0  0  0  0  0
  144.5530  138.2734  152.6391 H   0  0  0  0  0  0  0  0  0  0  0  0
  143.8006  135.6143  153.5019 H   0  0  0  0  0  0  0  0  0  0  0  0
  143.0001  136.6668  152.3604 H   0  0  0  0  0  0  0  0  0  0  0  0
  142.3014  134.3002  152.0292 H   0  0  0  0  0  0  0  0  0  0  0  0
  143.0525  134.9690  150.6005 H   0  0  0  0  0  0  0  0  0  0  0  0
  144.3816  133.1227  152.6435 H   0  0  0  0  0  0  0  0  0  0  0  0
  143.9526  132.7121  151.0004 H   0  0  0  0  0  0  0  0  0  0  0  0
  146.3879  133.2723  151.1884 H   0  0  0  0  0  0  0  0  0  0  0  0
  145.5508  134.3415  150.0972 H   0  0  0  0  0  0  0  0  0  0  0  0
  146.9763  135.6784  151.4199 H   0  0  0  0  0  0  0  0  0  0  0  0
  147.3421  134.1091  153.3156 H   0  0  0  0  0  0  0  0  0  0  0  0
  145.7903  134.5488  154.0072 H   0  0  0  0  0  0  0  0  0  0  0  0
  147.0779  135.7430  153.8769 H   0  0  0  0  0  0  0  0  0  0  0  0
  149.8123  137.6285  153.3947 H   0  0  0  0  0  0  0  0  0  0  0  0
  151.9955  137.6829  154.4439 H   0  0  0  0  0  0  0  0  0  0  0  0
  144.9066  136.5768  150.9816 H   0  0  0  0  0  0  0  0  0  0  0  0
  1  2  1  0  0  0  0
  1 24  1  0  0  0  0
  1 25  1  0  0  0  0
  1 26  1  0  0  0  0
  2  3  1  0  0  0  0
  3  4  1  0  0  0  0
  3 27  1  0  0  0  0
  3 28  1  0  0  0  0
  4  5  1  0  0  0  0
  4 29  1  0  0  0  0
  4 30  1  0  0  0  0
  5 22  1  0  0  0  0
  5  6  1  0  0  0  0
  6  7  2  0  0  0  0
  7  8  1  0  0  0  0
  7 20  1  0  0  0  0
  8  9  2  0  0  0  0
  8 10  1  0  0  0  0
 10 11  1  0  0  0  0
 10 31  1  0  0  0  0
 11 12  1  0  0  0  0
 11 32  1  0  0  0  0
 11 33  1  0  0  0  0
 12 13  1  0  0  0  0
 12 34  1  0  0  0  0
 12 35  1  0  0  0  0
 13 18  1  0  0  0  0
 13 14  1  0  0  0  0
 13 50  1  0  0  0  0
 14 15  1  0  0  0  0
 14 36  1  0  0  0  0
 14 37  1  0  0  0  0
 15 16  1  0  0  0  0
 15 38  1  0  0  0  0
 15 39  1  0  0  0  0
 16 17  1  0  0  0  0
 16 40  1  0  0  0  0
 16 41  1  0  0  0  0
 17 18  1  0  0  0  0
 17 42  1  0  0  0  0
 17 43  1  0  0  0  0
 18 19  1  0  0  0  0
 18 44  1  0  0  0  0
 19 45  1  0  0  0  0
 19 46  1  0  0  0  0
 19 47  1  0  0  0  0
 20 21  2  0  0  0  0
 20 48  1  0  0  0  0
 21 22  1  0  0  0  0
 21 49  1  0  0  0  0
 22 23  2  0  0  0  0
M  CHG  1  13   1
M  END
> <s_m_source_file>
AV-unprocessed.smi

> <i_m_source_file_index>
1235

> <i_lp_mmshare_version>
43012

> <i_f3d_flags>
0

> <s_epik_input>
W0NIM11PW0NIMl1bQ0gyXW4xbmMoW2NIXVtjSF1jMT1PKUMoPU8pW05IXVtDSDJdW0NIMl1OMltDSDJdW0NIMl1bQ0gyXVtDSDJdW0NASF0yW0NIM10=

> <s_epik_cmdline>
J2VwaWtfcHl0aG9uJywgJy1waCcsICc3LjAnLCAnLXRuJywgJzgnLCAnLW1hJywgJzIwMCcsICctbWV0YWxfYmluZGluZycsICctaW1hZScsICc8aW5maWxlLm1hZT4nLCAnLW9tYWUnLCAnPG91dGZpbGUubWFlPic=

> <r_lp_tautomer_probability>
1

> <r_epik_Ionization_Penalty>
0.00271975

> <r_epik_Ionization_Penalty_Charging>
0.00271407

> <r_epik_Ionization_Penalty_Neutral>
5.6803e-06

> <r_epik_State_Penalty>
0.00189271

> <r_epik_Charging_Adjusted_Penalty>
0.00460678

> <i_epik_Tot_Q>
1

> <i_epik_Tot_abs_Q>
1

> <r_epik_Metal_State_Penalty>
-0

> <b_epik_Metal_Only>
0

> <s_lp_Force_Field>
OPLS_2005

> <r_lp_Energy>
40.192

> <b_lp_Chiralities_Consistent>
1

> <s_lp_Variant>
AV-unprocessed.smi:1235-3

> <Gold.Version>
5.8.1

> <Gold.Id.Protein>
6NUR|6NUR_protein|mol2

> <Gold.PLP.Fitness>
45.4333

> <Gold.PLP.PLP>
-41.3507

> <Gold.PLP.part.hbond>
-3.0000

> <Gold.PLP.part.metal>
0.0000

> <Gold.PLP.part.buried>
-2.6744

> <Gold.PLP.part.nonpolar>
-35.7188

> <Gold.PLP.part.repulsive>
0.2751

> <Gold.PLP.ligand.clash>
0.0000

> <Gold.PLP.ligand.torsion>
0.7503

> <Gold.PLP.Chemscore.Hbond>
1.8000

> <Gold.PLP.Chemscore.CHOScore>
0.0000

> <Gold.PLP.Chemscore.Metal>
0.0000

> <Gold.Chemscore.Hbonds>
donor molecule, donor type, donor heavy atom, donor atom, acceptor molecule, acceptor atom, score
      L1  H    10    31       P1  7948  0.75
      P1  H  7997  8008       L1    23  1.00

> <Gold.PLP.Chemscore.Internal.Correction>
0.1832

> <Gold.Rescore>
     Score         DG    S(hbond)    S(metal)    S(lipo)     H(rot)  DE(clash)    DE(int)     intcor
     15.61     -16.71       1.90        0.00      85.65       2.00       0.12       0.98       ----

> <Gold.Chemscore.Fitness>
15.6105

> <Gold.Chemscore.DG>
-16.7060

> <Gold.Chemscore.ZeroCoef>
-5.4800

> <Gold.Chemscore.Hbond>
1.8952

> <Gold.Chemscore.Metal>
0.0000

> <Gold.Chemscore.Lipo>
85.6518

> <Gold.Chemscore.Internal_Hbond>
0.0000

> <Gold.Chemscore.DEClash>
0.1156

> <Gold.Chemscore.DEInternal>
0.9799

> <Gold.Chemscore.Rot>
2.0020

> <Gold.Chemscore.Internal.Correction>
   9.000000E+99

> <Gold.Chemscore.Hbonds>
donor molecule, donor type, donor heavy atom, donor atom, acceptor molecule, acceptor atom, score
      L1  H    10    31       P1  7948  0.73
      P1  H  7997  8008       L1    23  1.00

> <Gold.Chemscore.Hbond.Weighted>
-6.3299

> <Gold.Chemscore.Metal.Weighted>
-0.0000

> <Gold.Chemscore.Lipo.Weighted>
-10.0213

> <Gold.Chemscore.Internal_Hbond.Weighted>
0.0000

> <Gold.Chemscore.DEClash.Weighted>
0.1156

> <Gold.Chemscore.DEInternal.Weighted>
0.9799

> <Gold.Chemscore.Rot.Weighted>
5.1252

> <Gold.Chemscore.Internal.Correction.Weighted>
   9.000000E+99

> <Gold.Protein.RotatedTorsions>
[ 6907 6896 6895 6894 ] final  -54.56 input  -60.11 | X-H torsion
[ 7974 7965 7964 7962 ] final    2.39 input  175.53 | X-H torsion
[ 8008 7997 7996 7995 ] final  -42.34 input   59.86 | X-H torsion
[ 10167 10162 10161 10158 ] final -166.29 input  -65.29 | X-H torsion
[ 10718 10713 10712 10709 ] final   60.46 input   66.30 | X-H torsion
[ 10763 10752 10751 10750 ] final -108.35 input  -60.55 | X-H torsion
[ 11005 11000 10999 10996 ] final -155.25 input  -57.11 | X-H torsion

> <Gold.Protein.ActiveResidues>
 VAL166  LYS551  ARG553  GLY616  TRP617  ASP618  TYR619  PRO620  LYS621  CYS622 
 ASP623  PHE694  ASN695  SER759  ASP760  ASP761  ALA762  ILE779  LEU786  VAL792 
 PHE793  MET794  SER795  GLU796  ALA797  LYS798  CYS799  TRP800  GLU811  SER814 

> <Gold.Protein.RotatedAtoms>
  150.8328  134.7588  159.6867 H   0  0  0  0  0  0  0  0  0  0  0  0  # atno 6907 bound_to 6896
  152.4429  134.5550  159.9887 H   0  0  0  0  0  0  0  0  0  0  0  0  # atno 6908 bound_to 6896
  151.5707  133.3352  159.3025 H   0  0  0  0  0  0  0  0  0  0  0  0  # atno 6909 bound_to 6896
  146.2443  140.0844  142.8355 H   0  0  0  0  0  0  0  0  0  0  0  0  # atno 7974 bound_to 7965
  154.3999  140.1476  156.3339 H   0  0  0  0  0  0  0  0  0  0  0  0  # atno 8008 bound_to 7997
  155.8418  140.3461  155.5616 H   0  0  0  0  0  0  0  0  0  0  0  0  # atno 8009 bound_to 7997
  155.8078  140.0879  157.1911 H   0  0  0  0  0  0  0  0  0  0  0  0  # atno 8010 bound_to 7997
  139.6125  144.0786  152.1856 H   0  0  0  0  0  0  0  0  0  0  0  0  # atno 10167 bound_to 10162
  157.5755  130.8940  149.9339 H   0  0  0  0  0  0  0  0  0  0  0  0  # atno 10718 bound_to 10713
  154.8130  135.4641  154.0567 H   0  0  0  0  0  0  0  0  0  0  0  0  # atno 10763 bound_to 10752
  153.1983  135.6865  153.8271 H   0  0  0  0  0  0  0  0  0  0  0  0  # atno 10764 bound_to 10752
  153.7765  135.3263  155.3337 H   0  0  0  0  0  0  0  0  0  0  0  0  # atno 10765 bound_to 10752
  140.6886  134.4067  157.5221 H   0  0  0  0  0  0  0  0  0  0  0  0  # atno 11005 bound_to 11000
  145.0705  140.9152  143.4885 LP  0  0  0  0  0  0  0  0  0  0  0  0  # atno 17320 bound_to 7965
  145.0977  139.2845  143.5702 LP  0  0  0  0  0  0  0  0  0  0  0  0  # atno 17321 bound_to 7965
  140.0408  144.6009  150.7412 LP  0  0  0  0  0  0  0  0  0  0  0  0  # atno 17342 bound_to 10162
  140.7329  143.2710  151.3887 LP  0  0  0  0  0  0  0  0  0  0  0  0  # atno 17343 bound_to 10162
  156.0799  130.3674  150.0601 LP  0  0  0  0  0  0  0  0  0  0  0  0  # atno 17370 bound_to 10713
  156.8748  130.9536  151.3605 LP  0  0  0  0  0  0  0  0  0  0  0  0  # atno 17371 bound_to 10713
  139.8930  134.8741  156.2243 LP  0  0  0  0  0  0  0  0  0  0  0  0  # atno 17394 bound_to 11000
  141.0260  133.7015  156.1348 LP  0  0  0  0  0  0  0  0  0  0  0  0  # atno 17395 bound_to 11000

$$$$
