AV-unprocessed.smi:54|AV-procd|sdf|552|dock3
  -GOLD-   2262016453D 1   1.00000     0.00000
 Structure written by MMmdl.
 43 45  0  0  0  0  0  0  0  0  2 V2000
  151.9371  144.3906  160.0028 C   0  0  0  0  0  0  0  0  0  0  0  0
  151.9056  142.8631  160.1757 C   0  0  0  0  0  0  0  0  0  0  0  0
  153.1725  142.3539  160.8835 C   0  0  0  0  0  0  0  0  0  0  0  0
  151.7237  142.1662  158.8201 C   0  0  0  0  0  0  0  0  0  0  0  0
  151.3438  142.8277  157.8508 O   0  0  0  0  0  0  0  0  0  0  0  0
  152.0033  140.8436  158.8075 N   0  0  0  0  0  0  0  0  0  0  0  0
  151.9414  139.9390  157.7414 C   0  0  0  0  0  0  0  0  0  0  0  0
  151.0316  140.0791  156.8030 N   0  0  0  0  0  0  0  0  0  0  0  0
  151.1263  139.1042  155.8300 C   0  0  0  0  0  0  0  0  0  0  0  0
  152.0216  138.0730  155.7582 C   0  0  0  0  0  0  0  0  0  0  0  0
  151.8038  137.2888  154.6312 N   0  0  0  0  0  0  0  0  0  0  0  0
  150.7636  137.8993  154.0643 C   0  0  0  0  0  0  0  0  0  0  0  0
  150.3055  138.9872  154.7168 N   0  0  0  0  0  0  0  0  0  0  0  0
  149.1667  139.8785  154.3413 C   0  0  1  0  0  0  0  0  0  0  0  0
  148.6320  139.4567  153.1299 O   0  0  0  0  0  0  0  0  0  0  0  0
  147.2726  139.8766  153.0417 C   0  0  1  0  0  0  0  0  0  0  0  0
  146.4630  138.7213  152.4335 C   0  0  0  0  0  0  0  0  0  0  0  0
  146.7927  138.5529  151.0709 O   0  0  0  0  0  0  0  0  0  0  0  0
  146.8420  140.2522  154.4767 C   0  0  2  0  0  0  0  0  0  0  0  0
  146.6601  141.6529  154.5585 O   0  0  0  0  0  0  0  0  0  0  0  0
  148.0172  139.8314  155.3490 C   0  0  1  0  0  0  0  0  0  0  0  0
  147.8067  138.5392  155.8897 O   0  0  0  0  0  0  0  0  0  0  0  0
  153.0209  137.9799  156.8493 C   0  0  0  0  0  0  0  0  0  0  0  0
  153.8474  137.0699  156.8285 O   0  0  0  0  0  0  0  0  0  0  0  0
  152.9322  138.9469  157.8122 N   0  5  0  0  0  0  0  0  0  0  0  0
  149.5994  140.8743  154.2314 H   0  0  0  0  0  0  0  0  0  0  0  0
  147.2323  140.7424  152.3779 H   0  0  0  0  0  0  0  0  0  0  0  0
  145.9104  139.7727  154.7809 H   0  0  0  0  0  0  0  0  0  0  0  0
  148.2128  140.5221  156.1709 H   0  0  0  0  0  0  0  0  0  0  0  0
  151.0400  144.7508  159.4972 H   0  0  0  0  0  0  0  0  0  0  0  0
  152.8007  144.7118  159.4189 H   0  0  0  0  0  0  0  0  0  0  0  0
  151.9888  144.8905  160.9702 H   0  0  0  0  0  0  0  0  0  0  0  0
  151.0502  142.6162  160.8069 H   0  0  0  0  0  0  0  0  0  0  0  0
  153.1591  141.2680  160.9871 H   0  0  0  0  0  0  0  0  0  0  0  0
  153.2551  142.7765  161.8851 H   0  0  0  0  0  0  0  0  0  0  0  0
  154.0758  142.6250  160.3355 H   0  0  0  0  0  0  0  0  0  0  0  0
  152.2734  140.4558  159.6992 H   0  0  0  0  0  0  0  0  0  0  0  0
  150.3210  137.5418  153.1463 H   0  0  0  0  0  0  0  0  0  0  0  0
  146.6882  137.7909  152.9554 H   0  0  0  0  0  0  0  0  0  0  0  0
  145.3917  138.8978  152.5359 H   0  0  0  0  0  0  0  0  0  0  0  0
  145.9962  138.5826  150.5630 H   0  0  0  0  0  0  0  0  0  0  0  0
  145.8266  141.8225  154.9701 H   0  0  0  0  0  0  0  0  0  0  0  0
  147.9137  138.5864  156.8271 H   0  0  0  0  0  0  0  0  0  0  0  0
  1  2  1  0  0  0  0
  1 30  1  0  0  0  0
  1 31  1  0  0  0  0
  1 32  1  0  0  0  0
  2  3  1  0  0  0  0
  2  4  1  0  0  0  0
  2 33  1  0  0  0  0
  3 34  1  0  0  0  0
  3 35  1  0  0  0  0
  3 36  1  0  0  0  0
  4  5  2  0  0  0  0
  4  6  1  0  0  0  0
  6 37  1  0  0  0  0
  6  7  1  0  0  0  0
  7 25  1  0  0  0  0
  7  8  2  0  0  0  0
  8  9  1  0  0  0  0
  9 13  1  0  0  0  0
  9 10  2  0  0  0  0
 10 11  1  0  0  0  0
 10 23  1  0  0  0  0
 11 12  2  0  0  0  0
 12 13  1  0  0  0  0
 12 38  1  0  0  0  0
 13 14  1  0  0  0  0
 14 26  1  0  0  0  0
 14 21  1  0  0  0  0
 14 15  1  0  0  0  0
 15 16  1  0  0  0  0
 16 27  1  0  0  0  0
 16 17  1  0  0  0  0
 16 19  1  0  0  0  0
 17 18  1  0  0  0  0
 17 39  1  0  0  0  0
 17 40  1  0  0  0  0
 18 41  1  0  0  0  0
 19 28  1  0  0  0  0
 19 20  1  0  0  0  0
 19 21  1  0  0  0  0
 20 42  1  0  0  0  0
 21 29  1  0  0  0  0
 21 22  1  0  0  0  0
 22 43  1  0  0  0  0
 23 24  2  0  0  0  0
 23 25  1  0  0  0  0
M  CHG  1  25  -1
M  END
> <s_m_source_file>
AV-unprocessed.smi

> <i_m_source_file_index>
54

> <i_lp_mmshare_version>
43012

> <i_f3d_flags>
0

> <s_epik_input>
W0NIM11bQ0hdKFtDSDNdKUMoPU8pW05IXWMobjEpW25IXWMoPU8pYyhjMTIpbltjSF1uMltDQEBIXTNPW0NASF0oW0NIMl1bT0hdKVtDQEBIXShbT0hdKVtDQEhdM1tPSF0=

> <s_epik_cmdline>
J2VwaWtfcHl0aG9uJywgJy1waCcsICc3LjAnLCAnLXRuJywgJzgnLCAnLW1hJywgJzIwMCcsICctbWV0YWxfYmluZGluZycsICctaW1hZScsICc8aW5maWxlLm1hZT4nLCAnLW9tYWUnLCAnPG91dGZpbGUubWFlPic=

> <r_lp_tautomer_probability>
0.85571

> <r_epik_Ionization_Penalty>
1.75936

> <r_epik_Ionization_Penalty_Charging>
4.55893e-11

> <r_epik_Ionization_Penalty_Neutral>
1.75936

> <r_epik_State_Penalty>
1.72072

> <r_epik_Charging_Adjusted_Penalty>
1.72072

> <i_epik_Tot_Q>
-1

> <i_epik_Tot_abs_Q>
1

> <r_epik_Metal_State_Penalty>
0.400338

> <b_epik_Metal_Only>
1

> <s_epik_Chemistry_Notes>
This compound contains an acetal/aminal-like group ( X-CH(R)-Y where X, Y are N, S, or O) that may be acid/base labile, releasing an aldehyde.

> <s_lp_Force_Field>
OPLS_2005

> <r_lp_Energy>
59.2625

> <b_lp_Chiralities_Consistent>
1

> <s_lp_Variant>
AV-unprocessed.smi:54-24

> <Gold.Version>
5.8.1

> <Gold.Id.Protein>
6NUR|6NUR_protein|mol2

> <Gold.PLP.Fitness>
51.6713

> <Gold.PLP.PLP>
-35.4403

> <Gold.PLP.part.hbond>
-5.3166

> <Gold.PLP.part.metal>
0.0000

> <Gold.PLP.part.buried>
-3.3407

> <Gold.PLP.part.nonpolar>
-32.7754

> <Gold.PLP.part.repulsive>
6.1412

> <Gold.PLP.ligand.clash>
0.0000

> <Gold.PLP.ligand.torsion>
0.7641

> <Gold.PLP.Chemscore.Hbond>
5.0606

> <Gold.PLP.Chemscore.CHOScore>
0.8435

> <Gold.PLP.Chemscore.Metal>
0.0000

> <Gold.Chemscore.Hbonds>
donor molecule, donor type, donor heavy atom, donor atom, acceptor molecule, acceptor atom, score
      L1  H    18    41       P1 10171  0.49
      P1  H  7954  7966       L1    18  1.00
      P1  H  7997  8010       L1    25  0.89
      P1  H 10752 10763       L1    11  0.81
      P1  H 10752 10764       L1    24  0.28
      L1  C    12    38       P1  7948  0.69
      L1  C    12    38       P1  7949  0.27

> <Gold.PLP.Chemscore.Internal.Correction>
0.0470

> <Gold.Rescore>
     Score         DG    S(hbond)    S(metal)    S(lipo)     H(rot)  DE(clash)    DE(int)     intcor
      8.74     -12.89       3.08        0.00      63.32       4.02       2.69       1.46       ----

> <Gold.Chemscore.Fitness>
8.7424

> <Gold.Chemscore.DG>
-12.8906

> <Gold.Chemscore.ZeroCoef>
-5.4800

> <Gold.Chemscore.Hbond>
3.0813

> <Gold.Chemscore.Metal>
0.0000

> <Gold.Chemscore.Lipo>
63.3180

> <Gold.Chemscore.Internal_Hbond>
0.0000

> <Gold.Chemscore.DEClash>
2.6883

> <Gold.Chemscore.DEInternal>
1.4598

> <Gold.Chemscore.Rot>
4.0192

> <Gold.Chemscore.Internal.Correction>
   9.000000E+99

> <Gold.Chemscore.Hbonds>
donor molecule, donor type, donor heavy atom, donor atom, acceptor molecule, acceptor atom, score
      L1  H    18    41       P1 10171  0.50
      P1  H  7954  7966       L1    18  0.53
      P1  H  7997  8010       L1    25  0.01
      P1  H 10752 10763       L1    11  0.76
      P1  H 10752 10764       L1    24  0.29

> <Gold.Chemscore.Hbond.Weighted>
-10.2916

> <Gold.Chemscore.Metal.Weighted>
-0.0000

> <Gold.Chemscore.Lipo.Weighted>
-7.4082

> <Gold.Chemscore.Internal_Hbond.Weighted>
0.0000

> <Gold.Chemscore.DEClash.Weighted>
2.6883

> <Gold.Chemscore.DEInternal.Weighted>
1.4598

> <Gold.Chemscore.Rot.Weighted>
10.2893

> <Gold.Chemscore.Internal.Correction.Weighted>
   9.000000E+99

> <Gold.Protein.RotatedTorsions>
[ 6907 6896 6895 6894 ] final   50.83 input  -60.11 | X-H torsion
[ 7974 7965 7964 7962 ] final    8.69 input  175.53 | X-H torsion
[ 8008 7997 7996 7995 ] final   29.12 input   59.86 | X-H torsion
[ 10167 10162 10161 10158 ] final   45.88 input  -65.29 | X-H torsion
[ 10718 10713 10712 10709 ] final -151.96 input   66.30 | X-H torsion
[ 10763 10752 10751 10750 ] final   29.85 input  -60.55 | X-H torsion
[ 11005 11000 10999 10996 ] final   19.70 input  -57.11 | X-H torsion

> <Gold.Protein.ActiveResidues>
 VAL166  LYS551  ARG553  GLY616  TRP617  ASP618  TYR619  PRO620  LYS621  CYS622 
 ASP623  PHE694  ASN695  SER759  ASP760  ASP761  ALA762  ILE779  LEU786  VAL792 
 PHE793  MET794  SER795  GLU796  ALA797  LYS798  CYS799  TRP800  GLU811  SER814 

> <Gold.Protein.RotatedAtoms>
  152.3060  134.7554  160.0346 H   0  0  0  0  0  0  0  0  0  0  0  0  # atno 6907 bound_to 6896
  151.8051  133.3369  159.3546 H   0  0  0  0  0  0  0  0  0  0  0  0  # atno 6908 bound_to 6896
  150.7297  134.5647  159.5904 H   0  0  0  0  0  0  0  0  0  0  0  0  # atno 6909 bound_to 6896
  146.2413  139.9895  142.8427 H   0  0  0  0  0  0  0  0  0  0  0  0  # atno 7974 bound_to 7965
  155.0695  140.3198  155.4635 H   0  0  0  0  0  0  0  0  0  0  0  0  # atno 8008 bound_to 7997
  156.2794  140.2114  156.5767 H   0  0  0  0  0  0  0  0  0  0  0  0  # atno 8009 bound_to 7997
  154.7066  140.0502  157.0498 H   0  0  0  0  0  0  0  0  0  0  0  0  # atno 8010 bound_to 7997
  140.3197  144.2721  150.6185 H   0  0  0  0  0  0  0  0  0  0  0  0  # atno 10167 bound_to 10162
  156.4662  130.8237  151.2467 H   0  0  0  0  0  0  0  0  0  0  0  0  # atno 10718 bound_to 10713
  153.0406  135.6479  154.0954 H   0  0  0  0  0  0  0  0  0  0  0  0  # atno 10763 bound_to 10752
  154.0661  135.2884  155.3318 H   0  0  0  0  0  0  0  0  0  0  0  0  # atno 10764 bound_to 10752
  154.6625  135.5386  153.8101 H   0  0  0  0  0  0  0  0  0  0  0  0  # atno 10765 bound_to 10752
  140.4108  134.1621  155.7667 H   0  0  0  0  0  0  0  0  0  0  0  0  # atno 11005 bound_to 11000
  145.1516  140.9626  143.4429 LP  0  0  0  0  0  0  0  0  0  0  0  0  # atno 17320 bound_to 7965
  145.0200  139.3433  143.6077 LP  0  0  0  0  0  0  0  0  0  0  0  0  # atno 17321 bound_to 7965
  140.5495  143.2209  151.7951 LP  0  0  0  0  0  0  0  0  0  0  0  0  # atno 17342 bound_to 10162
  139.4877  144.4495  151.9670 LP  0  0  0  0  0  0  0  0  0  0  0  0  # atno 17343 bound_to 10162
  157.7494  131.0091  150.3254 LP  0  0  0  0  0  0  0  0  0  0  0  0  # atno 17370 bound_to 10713
  156.3665  130.3856  149.7209 LP  0  0  0  0  0  0  0  0  0  0  0  0  # atno 17371 bound_to 10713
  141.1822  133.8390  157.1217 LP  0  0  0  0  0  0  0  0  0  0  0  0  # atno 17394 bound_to 11000
  140.0269  134.9919  157.0704 LP  0  0  0  0  0  0  0  0  0  0  0  0  # atno 17395 bound_to 11000

$$$$
