AV-unprocessed.smi:49|AV-procd|sdf|486|dock6
  -GOLD-   2262016343D 1   1.00000     0.00000
 Structure written by MMmdl.
 27 28  0  0  0  0  0  0  0  0  3 V2000
  152.5645  141.5547  159.3822 C   0  0  0  0  0  0  0  0  0  0  0  0
  152.3271  140.2044  158.6990 C   0  0  0  0  0  0  0  0  0  0  0  0
  151.7705  140.3637  157.3010 C   0  0  0  0  0  0  0  0  0  0  0  0
  150.6607  141.0184  156.9740 N   0  0  0  0  0  0  0  0  0  0  0  0
  150.5652  140.9336  155.6406 C   0  0  0  0  0  0  0  0  0  0  0  0
  149.4550  141.5666  154.8240 C   0  0  1  0  0  0  0  0  0  0  0  0
  148.6867  140.5336  153.9867 C   0  0  0  0  0  0  0  0  0  0  0  0
  147.4510  140.2299  154.8293 C   0  0  2  0  0  0  0  0  0  0  0  0
  146.3759  139.7553  154.0464 O   0  0  0  0  0  0  0  0  0  0  0  0
  147.1457  141.5807  155.4743 C   0  0  0  0  0  0  0  0  0  0  0  0
  148.4598  142.2059  155.7112 N   0  3  0  0  0  0  0  0  0  0  0  0
  151.6106  140.2612  155.1322 N   0  0  0  0  0  0  0  0  0  0  0  0
  152.3428  139.9153  156.1698 N   0  5  0  0  0  0  0  0  0  0  0  0
  149.8956  142.3240  154.1745 H   0  0  0  0  0  0  0  0  0  0  0  0
  147.6981  139.4965  155.5984 H   0  0  0  0  0  0  0  0  0  0  0  0
  152.9666  141.4171  160.3860 H   0  0  0  0  0  0  0  0  0  0  0  0
  151.6358  142.1192  159.4682 H   0  0  0  0  0  0  0  0  0  0  0  0
  153.2745  142.1600  158.8177 H   0  0  0  0  0  0  0  0  0  0  0  0
  153.2610  139.6442  158.6451 H   0  0  0  0  0  0  0  0  0  0  0  0
  151.6339  139.6043  159.2892 H   0  0  0  0  0  0  0  0  0  0  0  0
  148.3788  140.9989  153.0486 H   0  0  0  0  0  0  0  0  0  0  0  0
  149.2735  139.6487  153.7363 H   0  0  0  0  0  0  0  0  0  0  0  0
  145.9801  139.0213  154.4917 H   0  0  0  0  0  0  0  0  0  0  0  0
  146.5886  142.2170  154.7851 H   0  0  0  0  0  0  0  0  0  0  0  0
  146.5683  141.4903  156.3948 H   0  0  0  0  0  0  0  0  0  0  0  0
  148.7428  142.0264  156.6646 H   0  0  0  0  0  0  0  0  0  0  0  0
  148.4186  143.2016  155.5499 H   0  0  0  0  0  0  0  0  0  0  0  0
  1  2  1  0  0  0  0
  1 16  1  0  0  0  0
  1 17  1  0  0  0  0
  1 18  1  0  0  0  0
  2  3  1  0  0  0  0
  2 19  1  0  0  0  0
  2 20  1  0  0  0  0
  3 13  1  0  0  0  0
  3  4  2  0  0  0  0
  4  5  1  0  0  0  0
  5  6  1  0  0  0  0
  5 12  2  0  0  0  0
  6 14  1  0  0  0  0
  6 11  1  0  0  0  0
  6  7  1  0  0  0  0
  7  8  1  0  0  0  0
  7 21  1  0  0  0  0
  7 22  1  0  0  0  0
  8 15  1  0  0  0  0
  8  9  1  0  0  0  0
  8 10  1  0  0  0  0
  9 23  1  0  0  0  0
 10 11  1  0  0  0  0
 10 24  1  0  0  0  0
 10 25  1  0  0  0  0
 11 26  1  0  0  0  0
 11 27  1  0  0  0  0
 12 13  1  0  0  0  0
M  CHG  1  11   1
M  CHG  1  13  -1
M  END
> <s_m_source_file>
AV-unprocessed.smi

> <i_m_source_file_index>
49

> <i_lp_mmshare_version>
43012

> <i_f3d_flags>
0

> <s_epik_input>
W0NIM11bQ0gyXWMxbmMobltuSF0xKVtDQEBIXTJbQ0gyXVtDQEBIXShbT0hdKVtDSDJdW05IXTI=

> <s_epik_cmdline>
J2VwaWtfcHl0aG9uJywgJy1waCcsICc3LjAnLCAnLXRuJywgJzgnLCAnLW1hJywgJzIwMCcsICctbWV0YWxfYmluZGluZycsICctaW1hZScsICc8aW5maWxlLm1hZT4nLCAnLW9tYWUnLCAnPG91dGZpbGUubWFlPic=

> <r_lp_tautomer_probability>
0.948284

> <r_epik_Ionization_Penalty>
3.22013

> <r_epik_Ionization_Penalty_Charging>
3.22013

> <r_epik_Ionization_Penalty_Neutral>
3.9133e-08

> <r_epik_State_Penalty>
2.79459

> <r_epik_Charging_Adjusted_Penalty>
6.01472

> <i_epik_Tot_Q>
0

> <i_epik_Tot_abs_Q>
2

> <r_epik_Metal_State_Penalty>
0.589377

> <b_epik_Metal_Only>
1

> <s_lp_Force_Field>
OPLS_2005

> <r_lp_Energy>
10.3781

> <b_lp_Chiralities_Consistent>
1

> <s_lp_Variant>
AV-unprocessed.smi:49-24

> <Gold.Version>
5.8.1

> <Gold.Id.Protein>
6NUR|6NUR_protein|mol2

> <Gold.PLP.Fitness>
35.9413

> <Gold.PLP.PLP>
-20.9835

> <Gold.PLP.part.hbond>
-3.0634

> <Gold.PLP.part.metal>
0.0000

> <Gold.PLP.part.buried>
-1.4770

> <Gold.PLP.part.nonpolar>
-15.3414

> <Gold.PLP.part.repulsive>
0.1793

> <Gold.PLP.ligand.clash>
0.0000

> <Gold.PLP.ligand.torsion>
0.0165

> <Gold.PLP.Chemscore.Hbond>
4.9920

> <Gold.PLP.Chemscore.CHOScore>
0.0000

> <Gold.PLP.Chemscore.Metal>
0.0000

> <Gold.Chemscore.Hbonds>
donor molecule, donor type, donor heavy atom, donor atom, acceptor molecule, acceptor atom, score
      L1  H    11    27       P1  8028  2.00
      P1  H  7989  7998       L1    12  0.94
      P1  H  7997  8010       L1    13  1.85

> <Gold.PLP.Chemscore.Internal.Correction>
0.0148

> <Gold.Rescore>
     Score         DG    S(hbond)    S(metal)    S(lipo)     H(rot)  DE(clash)    DE(int)     intcor
     12.91     -13.05       2.43        0.00      36.02       1.86       0.05       0.08       ----

> <Gold.Chemscore.Fitness>
12.9107

> <Gold.Chemscore.DG>
-13.0472

> <Gold.Chemscore.ZeroCoef>
-5.4800

> <Gold.Chemscore.Hbond>
2.4268

> <Gold.Chemscore.Metal>
0.0000

> <Gold.Chemscore.Lipo>
36.0234

> <Gold.Chemscore.Internal_Hbond>
0.0000

> <Gold.Chemscore.DEClash>
0.0537

> <Gold.Chemscore.DEInternal>
0.0827

> <Gold.Chemscore.Rot>
1.8567

> <Gold.Chemscore.Internal.Correction>
   9.000000E+99

> <Gold.Chemscore.Hbonds>
donor molecule, donor type, donor heavy atom, donor atom, acceptor molecule, acceptor atom, score
      L1  H    11    27       P1  8028  0.95
      P1  H  7989  7998       L1    12  0.27
      P1  H  7997  8010       L1    13  0.75

> <Gold.Chemscore.Hbond.Weighted>
-8.1055

> <Gold.Chemscore.Metal.Weighted>
-0.0000

> <Gold.Chemscore.Lipo.Weighted>
-4.2147

> <Gold.Chemscore.Internal_Hbond.Weighted>
0.0000

> <Gold.Chemscore.DEClash.Weighted>
0.0537

> <Gold.Chemscore.DEInternal.Weighted>
0.0827

> <Gold.Chemscore.Rot.Weighted>
4.7531

> <Gold.Chemscore.Internal.Correction.Weighted>
   9.000000E+99

> <Gold.Protein.RotatedTorsions>
[ 6907 6896 6895 6894 ] final  172.04 input  -60.11 | X-H torsion
[ 7974 7965 7964 7962 ] final   62.03 input  175.53 | X-H torsion
[ 8008 7997 7996 7995 ] final   95.31 input   59.86 | X-H torsion
[ 10167 10162 10161 10158 ] final    1.10 input  -65.29 | X-H torsion
[ 10718 10713 10712 10709 ] final -116.60 input   66.30 | X-H torsion
[ 10763 10752 10751 10750 ] final  145.11 input  -60.55 | X-H torsion
[ 11005 11000 10999 10996 ] final  113.68 input  -57.11 | X-H torsion

> <Gold.Protein.ActiveResidues>
 VAL166  LYS551  ARG553  GLY616  TRP617  ASP618  TYR619  PRO620  LYS621  CYS622 
 ASP623  PHE694  ASN695  SER759  ASP760  ASP761  ALA762  ILE779  LEU786  VAL792 
 PHE793  MET794  SER795  GLU796  ALA797  LYS798  CYS799  TRP800  GLU811  SER814 

> <Gold.Protein.RotatedAtoms>
  151.7906  133.3359  159.3497 H   0  0  0  0  0  0  0  0  0  0  0  0  # atno 6907 bound_to 6896
  150.7393  134.5846  159.5965 H   0  0  0  0  0  0  0  0  0  0  0  0  # atno 6908 bound_to 6896
  152.3213  134.7378  160.0364 H   0  0  0  0  0  0  0  0  0  0  0  0  # atno 6909 bound_to 6896
  145.8780  139.3423  143.0723 H   0  0  0  0  0  0  0  0  0  0  0  0  # atno 7974 bound_to 7965
  156.0674  140.3288  155.7535 H   0  0  0  0  0  0  0  0  0  0  0  0  # atno 8008 bound_to 7997
  155.5359  140.0597  157.2897 H   0  0  0  0  0  0  0  0  0  0  0  0  # atno 8009 bound_to 7997
  154.4512  140.1919  156.0531 H   0  0  0  0  0  0  0  0  0  0  0  0  # atno 8010 bound_to 7997
  140.6698  143.7079  150.7900 H   0  0  0  0  0  0  0  0  0  0  0  0  # atno 10167 bound_to 10162
  156.0975  130.6144  150.9056 H   0  0  0  0  0  0  0  0  0  0  0  0  # atno 10718 bound_to 10713
  153.9999  135.2924  155.3403 H   0  0  0  0  0  0  0  0  0  0  0  0  # atno 10763 bound_to 10752
  154.7165  135.5127  153.8749 H   0  0  0  0  0  0  0  0  0  0  0  0  # atno 10764 bound_to 10752
  153.0770  135.6667  154.0242 H   0  0  0  0  0  0  0  0  0  0  0  0  # atno 10765 bound_to 10752
  139.8959  134.9554  156.6776 H   0  0  0  0  0  0  0  0  0  0  0  0  # atno 11005 bound_to 11000
  145.9057  140.9213  143.0480 LP  0  0  0  0  0  0  0  0  0  0  0  0  # atno 17320 bound_to 7965
  144.6726  140.1093  143.7456 LP  0  0  0  0  0  0  0  0  0  0  0  0  # atno 17321 bound_to 7965
  140.0763  143.5012  152.2554 LP  0  0  0  0  0  0  0  0  0  0  0  0  # atno 17342 bound_to 10162
  139.5962  144.7567  151.3281 LP  0  0  0  0  0  0  0  0  0  0  0  0  # atno 17343 bound_to 10162
  157.6139  131.0934  150.8746 LP  0  0  0  0  0  0  0  0  0  0  0  0  # atno 17370 bound_to 10713
  156.8881  130.5203  149.5287 LP  0  0  0  0  0  0  0  0  0  0  0  0  # atno 17371 bound_to 10713
  140.7324  133.9047  155.8221 LP  0  0  0  0  0  0  0  0  0  0  0  0  # atno 17394 bound_to 11000
  141.0142  134.0978  157.4189 LP  0  0  0  0  0  0  0  0  0  0  0  0  # atno 17395 bound_to 11000

$$$$
