AV-unprocessed.smi:39|AV-procd|sdf|360|dock2
  -GOLD-   2262016203D 1   1.00000     0.00000
 Structure written by MMmdl.
 31 32  0  0  0  0  0  0  0  0  4 V2000
  150.8750  142.9000  159.1149 C   0  0  0  0  0  0  0  0  0  0  0  0
  151.1050  141.9844  157.9250 C   0  0  0  0  0  0  0  0  0  0  0  0
  150.2929  141.9880  156.8444 C   0  0  0  0  0  0  0  0  0  0  0  0
  150.5078  141.1524  155.7606 N   0  0  0  0  0  0  0  0  0  0  0  0
  149.5970  141.1619  154.5485 C   0  0  2  0  0  0  0  0  0  0  0  0
  148.2844  141.8972  154.8654 C   0  0  0  0  0  0  0  0  0  0  0  0
  147.2292  140.9096  154.3941 C   0  0  2  0  0  0  0  0  0  0  0  0
  145.9673  141.0276  155.1286 N   0  0  0  0  0  0  0  0  0  0  0  0
  145.3680  142.1058  155.0243 N   0  3  0  0  0  0  0  0  0  0  0  0
  144.8754  143.1317  155.0345 N   0  5  0  0  0  0  0  0  0  0  0  0
  147.9278  139.5726  154.6427 C   0  0  1  0  0  0  0  0  0  0  0  0
  147.3441  138.4082  153.8290 C   0  0  0  0  0  0  0  0  0  0  0  0
  147.4522  138.6853  152.4494 O   0  0  0  0  0  0  0  0  0  0  0  0
  149.2511  139.8524  154.1985 O   0  0  0  0  0  0  0  0  0  0  0  0
  151.6047  140.2514  155.7795 C   0  0  0  0  0  0  0  0  0  0  0  0
  151.7644  139.5156  154.8051 O   0  0  0  0  0  0  0  0  0  0  0  0
  152.4292  140.2408  156.8650 N   0  5  0  0  0  0  0  0  0  0  0  0
  152.2445  141.0594  157.9399 C   0  0  0  0  0  0  0  0  0  0  0  0
  152.9994  141.0428  158.9115 O   0  0  0  0  0  0  0  0  0  0  0  0
  150.1803  141.6093  153.7420 H   0  0  0  0  0  0  0  0  0  0  0  0
  147.0736  141.0353  153.3205 H   0  0  0  0  0  0  0  0  0  0  0  0
  147.9259  139.3482  155.7113 H   0  0  0  0  0  0  0  0  0  0  0  0
  150.0006  143.5336  158.9650 H   0  0  0  0  0  0  0  0  0  0  0  0
  151.7387  143.5473  159.2696 H   0  0  0  0  0  0  0  0  0  0  0  0
  150.7166  142.3146  160.0210 H   0  0  0  0  0  0  0  0  0  0  0  0
  149.4558  142.6687  156.8422 H   0  0  0  0  0  0  0  0  0  0  0  0
  148.2047  142.0727  155.9399 H   0  0  0  0  0  0  0  0  0  0  0  0
  148.2391  142.8555  154.3471 H   0  0  0  0  0  0  0  0  0  0  0  0
  147.9040  137.4932  154.0245 H   0  0  0  0  0  0  0  0  0  0  0  0
  146.3051  138.2168  154.0984 H   0  0  0  0  0  0  0  0  0  0  0  0
  148.0062  138.0276  152.0568 H   0  0  0  0  0  0  0  0  0  0  0  0
  1  2  1  0  0  0  0
  1 23  1  0  0  0  0
  1 24  1  0  0  0  0
  1 25  1  0  0  0  0
  2 18  1  0  0  0  0
  2  3  2  0  0  0  0
  3  4  1  0  0  0  0
  3 26  1  0  0  0  0
  4  5  1  0  0  0  0
  4 15  1  0  0  0  0
  5 20  1  0  0  0  0
  5 14  1  0  0  0  0
  5  6  1  0  0  0  0
  6  7  1  0  0  0  0
  6 27  1  0  0  0  0
  6 28  1  0  0  0  0
  7 21  1  0  0  0  0
  7  8  1  0  0  0  0
  7 11  1  0  0  0  0
  8  9  2  0  0  0  0
  9 10  2  0  0  0  0
 11 22  1  0  0  0  0
 11 12  1  0  0  0  0
 11 14  1  0  0  0  0
 12 13  1  0  0  0  0
 12 29  1  0  0  0  0
 12 30  1  0  0  0  0
 13 31  1  0  0  0  0
 15 16  2  0  0  0  0
 15 17  1  0  0  0  0
 17 18  1  0  0  0  0
 18 19  2  0  0  0  0
M  CHG  1   9   1
M  CHG  1  10  -1
M  CHG  1  17  -1
M  END
> <s_m_source_file>
AV-unprocessed.smi

> <i_m_source_file_index>
39

> <i_lp_mmshare_version>
43012

> <i_f3d_flags>
0

> <s_epik_input>
Tz1jMVtuSF1jKD1PKW4oW2NIXWMxW0NIM10pW0NASF0yW0NIMl1bQ0BIXShOPVtOK109W04tXSlbQ0BIXShPMilbQ0gyXVtPSF0=

> <s_epik_cmdline>
J2VwaWtfcHl0aG9uJywgJy1waCcsICc3LjAnLCAnLXRuJywgJzgnLCAnLW1hJywgJzIwMCcsICctbWV0YWxfYmluZGluZycsICctaW1hZScsICc8aW5maWxlLm1hZT4nLCAnLW9tYWUnLCAnPG91dGZpbGUubWFlPic=

> <r_lp_tautomer_probability>
0.999537

> <r_epik_Ionization_Penalty>
3.6393

> <r_epik_Ionization_Penalty_Charging>
9.76484e-08

> <r_epik_Ionization_Penalty_Neutral>
3.6393

> <r_epik_State_Penalty>
3.63887

> <r_epik_Charging_Adjusted_Penalty>
3.63887

> <i_epik_Tot_Q>
-1

> <i_epik_Tot_abs_Q>
3

> <r_epik_Metal_State_Penalty>
0.225911

> <b_epik_Metal_Only>
1

> <s_epik_Chemistry_Notes>
This compound contains an acetal/aminal-like group ( X-CH(R)-Y where X, Y are N, S, or O) that may be acid/base labile, releasing an aldehyde.

> <s_lp_Force_Field>
OPLS_2005

> <r_lp_Energy>
32.3737

> <b_lp_Chiralities_Consistent>
1

> <s_lp_Variant>
AV-unprocessed.smi:39-10

> <Gold.Version>
5.8.1

> <Gold.Id.Protein>
6NUR|6NUR_protein|mol2

> <Gold.PLP.Fitness>
39.4654

> <Gold.PLP.PLP>
-25.4435

> <Gold.PLP.part.hbond>
-4.0000

> <Gold.PLP.part.metal>
0.0000

> <Gold.PLP.part.buried>
-2.4813

> <Gold.PLP.part.nonpolar>
-20.0457

> <Gold.PLP.part.repulsive>
0.9904

> <Gold.PLP.ligand.clash>
0.0000

> <Gold.PLP.ligand.torsion>
0.3575

> <Gold.PLP.Chemscore.Hbond>
3.9000

> <Gold.PLP.Chemscore.CHOScore>
1.0000

> <Gold.PLP.Chemscore.Metal>
0.0000

> <Gold.Chemscore.Hbonds>
donor molecule, donor type, donor heavy atom, donor atom, acceptor molecule, acceptor atom, score
      L1  H    13    31       P1  7948  1.00
      P1  H  7989  7998       L1    16  0.85
      P1  H  7997  8009       L1    17  2.00
      L1  C     3    26       P1  8028  1.00

> <Gold.PLP.Chemscore.Internal.Correction>
0.0369

> <Gold.Rescore>
     Score         DG    S(hbond)    S(metal)    S(lipo)     H(rot)  DE(clash)    DE(int)     intcor
      7.51      -9.96       2.11        0.00      37.47       2.72       0.70       1.75       ----

> <Gold.Chemscore.Fitness>
7.5107

> <Gold.Chemscore.DG>
-9.9634

> <Gold.Chemscore.ZeroCoef>
-5.4800

> <Gold.Chemscore.Hbond>
2.1110

> <Gold.Chemscore.Metal>
0.0000

> <Gold.Chemscore.Lipo>
37.4706

> <Gold.Chemscore.Internal_Hbond>
0.0000

> <Gold.Chemscore.DEClash>
0.7043

> <Gold.Chemscore.DEInternal>
1.7485

> <Gold.Chemscore.Rot>
2.7153

> <Gold.Chemscore.Internal.Correction>
   9.000000E+99

> <Gold.Chemscore.Hbonds>
donor molecule, donor type, donor heavy atom, donor atom, acceptor molecule, acceptor atom, score
      L1  H    13    31       P1  7948  0.95
      P1  H  7989  7998       L1    16  0.14
      P1  H  7997  8009       L1    17  0.56

> <Gold.Chemscore.Hbond.Weighted>
-7.0506

> <Gold.Chemscore.Metal.Weighted>
-0.0000

> <Gold.Chemscore.Lipo.Weighted>
-4.3841

> <Gold.Chemscore.Internal_Hbond.Weighted>
0.0000

> <Gold.Chemscore.DEClash.Weighted>
0.7043

> <Gold.Chemscore.DEInternal.Weighted>
1.7485

> <Gold.Chemscore.Rot.Weighted>
6.9512

> <Gold.Chemscore.Internal.Correction.Weighted>
   9.000000E+99

> <Gold.Protein.RotatedTorsions>
[ 6907 6896 6895 6894 ] final  -53.44 input  -60.11 | X-H torsion
[ 7974 7965 7964 7962 ] final  -93.33 input  175.53 | X-H torsion
[ 8008 7997 7996 7995 ] final -176.76 input   59.86 | X-H torsion
[ 10167 10162 10161 10158 ] final   39.91 input  -65.29 | X-H torsion
[ 10718 10713 10712 10709 ] final   70.88 input   66.30 | X-H torsion
[ 10763 10752 10751 10750 ] final  117.56 input  -60.55 | X-H torsion
[ 11005 11000 10999 10996 ] final  110.31 input  -57.11 | X-H torsion

> <Gold.Protein.ActiveResidues>
 VAL166  LYS551  ARG553  GLY616  TRP617  ASP618  TYR619  PRO620  LYS621  CYS622 
 ASP623  PHE694  ASN695  SER759  ASP760  ASP761  ALA762  ILE779  LEU786  VAL792 
 PHE793  MET794  SER795  GLU796  ALA797  LYS798  CYS799  TRP800  GLU811  SER814 

> <Gold.Protein.RotatedAtoms>
  150.8426  134.7724  159.6944 H   0  0  0  0  0  0  0  0  0  0  0  0  # atno 6907 bound_to 6896
  152.4510  134.5390  159.9843 H   0  0  0  0  0  0  0  0  0  0  0  0  # atno 6908 bound_to 6896
  151.5527  133.3377  159.2992 H   0  0  0  0  0  0  0  0  0  0  0  0  # atno 6909 bound_to 6896
  145.3880  140.9525  143.2356 H   0  0  0  0  0  0  0  0  0  0  0  0  # atno 7974 bound_to 7965
  155.9988  140.1216  157.0567 H   0  0  0  0  0  0  0  0  0  0  0  0  # atno 8008 bound_to 7997
  154.4235  140.1111  156.5737 H   0  0  0  0  0  0  0  0  0  0  0  0  # atno 8009 bound_to 7997
  155.6241  140.3472  155.4664 H   0  0  0  0  0  0  0  0  0  0  0  0  # atno 8010 bound_to 7997
  140.3793  144.2001  150.6131 H   0  0  0  0  0  0  0  0  0  0  0  0  # atno 10167 bound_to 10162
  157.6423  130.9500  150.0712 H   0  0  0  0  0  0  0  0  0  0  0  0  # atno 10718 bound_to 10713
  153.5543  135.3533  155.2772 H   0  0  0  0  0  0  0  0  0  0  0  0  # atno 10763 bound_to 10752
  154.8703  135.4121  154.2902 H   0  0  0  0  0  0  0  0  0  0  0  0  # atno 10764 bound_to 10752
  153.3635  135.7061  153.6762 H   0  0  0  0  0  0  0  0  0  0  0  0  # atno 10765 bound_to 10752
  139.8879  134.9481  156.6259 H   0  0  0  0  0  0  0  0  0  0  0  0  # atno 11005 bound_to 11000
  144.8460  139.5396  143.6878 LP  0  0  0  0  0  0  0  0  0  0  0  0  # atno 17320 bound_to 7965
  146.2811  139.6879  142.9228 LP  0  0  0  0  0  0  0  0  0  0  0  0  # atno 17321 bound_to 7965
  140.4954  143.2334  151.8757 LP  0  0  0  0  0  0  0  0  0  0  0  0  # atno 17342 bound_to 10162
  139.4797  144.5120  151.8920 LP  0  0  0  0  0  0  0  0  0  0  0  0  # atno 17343 bound_to 10162
  156.1716  130.3646  149.9158 LP  0  0  0  0  0  0  0  0  0  0  0  0  # atno 17370 bound_to 10713
  156.7132  130.8978  151.3611 LP  0  0  0  0  0  0  0  0  0  0  0  0  # atno 17371 bound_to 10713
  140.7703  133.8744  155.8487 LP  0  0  0  0  0  0  0  0  0  0  0  0  # atno 17394 bound_to 11000
  140.9847  134.1358  157.4463 LP  0  0  0  0  0  0  0  0  0  0  0  0  # atno 17395 bound_to 11000

$$$$
