AV-unprocessed.smi:2990|AV-procd|sdf|11396|dock9
  -GOLD-   2272016323D 1   1.00000     0.00000
 Structure written by MMmdl.
 40 42  0  0  0  0  0  0  0  0  2 V2000
  146.8180  139.4392  152.1283 C   0  0  0  0  0  0  0  0  0  0  0  0
  147.9435  139.5853  153.0968 C   0  0  0  0  0  0  0  0  0  0  0  0
  148.8432  138.6177  153.4319 N   0  3  0  0  0  0  0  0  0  0  0  0
  149.7468  139.1174  154.3712 C   0  0  0  0  0  0  0  0  0  0  0  0
  150.8291  138.5157  155.0058 C   0  0  0  0  0  0  0  0  0  0  0  0
  151.5503  139.3129  155.9190 C   0  0  0  0  0  0  0  0  0  0  0  0
  151.1863  140.6516  156.1726 C   0  0  0  0  0  0  0  0  0  0  0  0
  150.0856  141.2503  155.5244 C   0  0  0  0  0  0  0  0  0  0  0  0
  149.3801  140.4554  154.6216 C   0  0  0  0  0  0  0  0  0  0  0  0
  148.2665  140.7012  153.8114 N   0  0  0  0  0  0  0  0  0  0  0  0
  147.6348  142.0288  153.8444 C   0  0  0  0  0  0  0  0  0  0  0  0
  146.3190  142.0517  154.6484 C   0  0  1  0  0  0  0  0  0  0  0  0
  146.5974  141.8985  156.0258 O   0  0  0  0  0  0  0  0  0  0  0  0
  145.5362  143.3569  154.4486 C   0  0  0  0  0  0  0  0  0  0  0  0
  144.2950  143.2570  155.1347 O   0  0  0  0  0  0  0  0  0  0  0  0
  143.4949  144.3773  155.2022 C   0  0  0  0  0  0  0  0  0  0  0  0
  142.2528  144.2378  155.8556 C   0  0  0  0  0  0  0  0  0  0  0  0
  141.3715  145.3302  155.9703 C   0  0  0  0  0  0  0  0  0  0  0  0
  141.7268  146.5801  155.4306 C   0  0  0  0  0  0  0  0  0  0  0  0
  142.9637  146.7343  154.7775 C   0  0  0  0  0  0  0  0  0  0  0  0
  143.8449  145.6412  154.6625 C   0  0  0  0  0  0  0  0  0  0  0  0
  146.8771  138.4800  151.6136 H   0  0  0  0  0  0  0  0  0  0  0  0
  146.8537  140.2344  151.3834 H   0  0  0  0  0  0  0  0  0  0  0  0
  145.8634  139.4943  152.6519 H   0  0  0  0  0  0  0  0  0  0  0  0
  151.1092  137.4902  154.8140 H   0  0  0  0  0  0  0  0  0  0  0  0
  152.3996  138.8892  156.4354 H   0  0  0  0  0  0  0  0  0  0  0  0
  151.7627  141.2312  156.8790 H   0  0  0  0  0  0  0  0  0  0  0  0
  149.8136  142.2760  155.7252 H   0  0  0  0  0  0  0  0  0  0  0  0
  148.3533  142.7280  154.2741 H   0  0  0  0  0  0  0  0  0  0  0  0
  147.4707  142.3542  152.8164 H   0  0  0  0  0  0  0  0  0  0  0  0
  145.6878  141.2145  154.3498 H   0  0  0  0  0  0  0  0  0  0  0  0
  147.4168  141.4368  156.1155 H   0  0  0  0  0  0  0  0  0  0  0  0
  146.1084  144.1938  154.8532 H   0  0  0  0  0  0  0  0  0  0  0  0
  145.3765  143.5377  153.3842 H   0  0  0  0  0  0  0  0  0  0  0  0
  141.9715  143.2818  156.2723 H   0  0  0  0  0  0  0  0  0  0  0  0
  140.4231  145.2085  156.4725 H   0  0  0  0  0  0  0  0  0  0  0  0
  141.0522  147.4191  155.5176 H   0  0  0  0  0  0  0  0  0  0  0  0
  143.2386  147.6933  154.3636 H   0  0  0  0  0  0  0  0  0  0  0  0
  144.7847  145.7995  154.1562 H   0  0  0  0  0  0  0  0  0  0  0  0
  148.8362  137.6824  153.0455 H   0  0  0  0  0  0  0  0  0  0  0  0
  1  2  1  0  0  0  0
  1 22  1  0  0  0  0
  1 23  1  0  0  0  0
  1 24  1  0  0  0  0
  2 10  1  0  0  0  0
  2  3  2  0  0  0  0
  3  4  1  0  0  0  0
  3 40  1  0  0  0  0
  4  9  2  0  0  0  0
  4  5  1  0  0  0  0
  5  6  2  0  0  0  0
  5 25  1  0  0  0  0
  6  7  1  0  0  0  0
  6 26  1  0  0  0  0
  7  8  2  0  0  0  0
  7 27  1  0  0  0  0
  8  9  1  0  0  0  0
  8 28  1  0  0  0  0
  9 10  1  0  0  0  0
 10 11  1  0  0  0  0
 11 12  1  0  0  0  0
 11 29  1  0  0  0  0
 11 30  1  0  0  0  0
 12 13  1  0  0  0  0
 12 14  1  0  0  0  0
 12 31  1  0  0  0  0
 13 32  1  0  0  0  0
 14 15  1  0  0  0  0
 14 33  1  0  0  0  0
 14 34  1  0  0  0  0
 15 16  1  0  0  0  0
 16 21  1  0  0  0  0
 16 17  2  0  0  0  0
 17 18  1  0  0  0  0
 17 35  1  0  0  0  0
 18 19  2  0  0  0  0
 18 36  1  0  0  0  0
 19 20  1  0  0  0  0
 19 37  1  0  0  0  0
 20 21  2  0  0  0  0
 20 38  1  0  0  0  0
 21 39  1  0  0  0  0
M  CHG  1   3   1
M  END
> <s_m_source_file>
AV-unprocessed.smi

> <i_m_source_file_index>
2990

> <i_lp_mmshare_version>
43012

> <i_f3d_flags>
0

> <s_epik_input>
W2NIXTFbY0hdW2NIXVtjSF1jKGMxMiluKGMobjIpW0NIM10pW0NIMl1bQ0BIXShbT0hdKVtDSDJdT2MzW2NIXVtjSF1bY0hdW2NIXVtjSF0z

> <s_epik_cmdline>
J2VwaWtfcHl0aG9uJywgJy1waCcsICc3LjAnLCAnLXRuJywgJzgnLCAnLW1hJywgJzIwMCcsICctbWV0YWxfYmluZGluZycsICctaW1hZScsICc8aW5maWxlLm1hZT4nLCAnLW9tYWUnLCAnPG91dGZpbGUubWFlPic=

> <r_lp_tautomer_probability>
1

> <r_epik_Ionization_Penalty>
1.00673

> <r_epik_Ionization_Penalty_Charging>
1.00673

> <r_epik_Ionization_Penalty_Neutral>
2.3993e-06

> <r_epik_State_Penalty>
1.05579

> <r_epik_Charging_Adjusted_Penalty>
2.06252

> <i_epik_Tot_Q>
1

> <i_epik_Tot_abs_Q>
1

> <r_epik_Metal_State_Penalty>
5.03947

> <b_epik_Metal_Only>
0

> <s_lp_Force_Field>
OPLS_2005

> <r_lp_Energy>
17.9265

> <b_lp_Chiralities_Consistent>
1

> <s_lp_Variant>
AV-unprocessed.smi:2990-4

> <Gold.Version>
5.8.1

> <Gold.Id.Protein>
6NUR|6NUR_protein|mol2

> <Gold.PLP.Fitness>
47.5477

> <Gold.PLP.PLP>
-42.0889

> <Gold.PLP.part.hbond>
-2.0000

> <Gold.PLP.part.metal>
0.0000

> <Gold.PLP.part.buried>
1.9346

> <Gold.PLP.part.nonpolar>
-40.9185

> <Gold.PLP.part.repulsive>
0.2109

> <Gold.PLP.ligand.clash>
0.0000

> <Gold.PLP.ligand.torsion>
0.2900

> <Gold.PLP.Chemscore.Hbond>
2.0000

> <Gold.PLP.Chemscore.CHOScore>
0.0000

> <Gold.PLP.Chemscore.Metal>
0.0000

> <Gold.Chemscore.Hbonds>
donor molecule, donor type, donor heavy atom, donor atom, acceptor molecule, acceptor atom, score
      L1  H     3    40       P1  7948  2.00

> <Gold.PLP.Chemscore.Internal.Correction>
0.0388

> <Gold.Rescore>
     Score         DG    S(hbond)    S(metal)    S(lipo)     H(rot)  DE(clash)    DE(int)     intcor
     13.69     -15.18       0.88        0.00     104.01       2.12       1.15       0.34       ----

> <Gold.Chemscore.Fitness>
13.6926

> <Gold.Chemscore.DG>
-15.1763

> <Gold.Chemscore.ZeroCoef>
-5.4800

> <Gold.Chemscore.Hbond>
0.8832

> <Gold.Chemscore.Metal>
0.0000

> <Gold.Chemscore.Lipo>
104.0124

> <Gold.Chemscore.Internal_Hbond>
0.0000

> <Gold.Chemscore.DEClash>
1.1485

> <Gold.Chemscore.DEInternal>
0.3353

> <Gold.Chemscore.Rot>
2.1184

> <Gold.Chemscore.Internal.Correction>
   9.000000E+99

> <Gold.Chemscore.Hbonds>
donor molecule, donor type, donor heavy atom, donor atom, acceptor molecule, acceptor atom, score
      L1  H     3    40       P1  7948  1.00

> <Gold.Chemscore.Hbond.Weighted>
-2.9500

> <Gold.Chemscore.Metal.Weighted>
-0.0000

> <Gold.Chemscore.Lipo.Weighted>
-12.1694

> <Gold.Chemscore.Internal_Hbond.Weighted>
0.0000

> <Gold.Chemscore.DEClash.Weighted>
1.1485

> <Gold.Chemscore.DEInternal.Weighted>
0.3353

> <Gold.Chemscore.Rot.Weighted>
5.4231

> <Gold.Chemscore.Internal.Correction.Weighted>
   9.000000E+99

> <Gold.Protein.RotatedTorsions>
[ 6907 6896 6895 6894 ] final   95.66 input  -60.11 | X-H torsion
[ 7974 7965 7964 7962 ] final  124.79 input  175.53 | X-H torsion
[ 8008 7997 7996 7995 ] final  109.65 input   59.86 | X-H torsion
[ 10167 10162 10161 10158 ] final -134.12 input  -65.29 | X-H torsion
[ 10718 10713 10712 10709 ] final   57.60 input   66.30 | X-H torsion
[ 10763 10752 10751 10750 ] final   14.04 input  -60.55 | X-H torsion
[ 11005 11000 10999 10996 ] final  -61.31 input  -57.11 | X-H torsion

> <Gold.Protein.ActiveResidues>
 VAL166  LYS551  ARG553  GLY616  TRP617  ASP618  TYR619  PRO620  LYS621  CYS622 
 ASP623  PHE694  ASN695  SER759  ASP760  ASP761  ALA762  ILE779  LEU786  VAL792 
 PHE793  MET794  SER795  GLU796  ALA797  LYS798  CYS799  TRP800  GLU811  SER814 

> <Gold.Protein.RotatedAtoms>
  152.5442  134.1006  159.8315 H   0  0  0  0  0  0  0  0  0  0  0  0  # atno 6907 bound_to 6896
  151.1084  133.5183  159.2614 H   0  0  0  0  0  0  0  0  0  0  0  0  # atno 6908 bound_to 6896
  151.1911  135.0412  159.8887 H   0  0  0  0  0  0  0  0  0  0  0  0  # atno 6909 bound_to 6896
  145.0804  139.3661  143.4912 H   0  0  0  0  0  0  0  0  0  0  0  0  # atno 7974 bound_to 7965
  156.1995  140.3053  155.9497 H   0  0  0  0  0  0  0  0  0  0  0  0  # atno 8008 bound_to 7997
  155.2987  140.0445  157.3045 H   0  0  0  0  0  0  0  0  0  0  0  0  # atno 8009 bound_to 7997
  154.5553  140.2304  155.8429 H   0  0  0  0  0  0  0  0  0  0  0  0  # atno 8010 bound_to 7997
  139.8913  143.6719  152.2611 H   0  0  0  0  0  0  0  0  0  0  0  0  # atno 10167 bound_to 10162
  157.5528  130.8778  149.8989 H   0  0  0  0  0  0  0  0  0  0  0  0  # atno 10718 bound_to 10713
  153.1661  135.6804  153.8673 H   0  0  0  0  0  0  0  0  0  0  0  0  # atno 10763 bound_to 10752
  153.8052  135.3150  155.3396 H   0  0  0  0  0  0  0  0  0  0  0  0  # atno 10764 bound_to 10752
  154.7966  135.4803  154.0267 H   0  0  0  0  0  0  0  0  0  0  0  0  # atno 10765 bound_to 10752
  141.1320  133.6629  156.5356 H   0  0  0  0  0  0  0  0  0  0  0  0  # atno 11005 bound_to 11000
  146.3531  140.0592  142.8630 LP  0  0  0  0  0  0  0  0  0  0  0  0  # atno 17320 bound_to 7965
  145.1185  140.9448  143.4614 LP  0  0  0  0  0  0  0  0  0  0  0  0  # atno 17321 bound_to 7965
  139.7107  144.7620  151.1117 LP  0  0  0  0  0  0  0  0  0  0  0  0  # atno 17342 bound_to 10162
  140.7726  143.5335  150.9396 LP  0  0  0  0  0  0  0  0  0  0  0  0  # atno 17343 bound_to 10162
  156.0592  130.3703  150.1022 LP  0  0  0  0  0  0  0  0  0  0  0  0  # atno 17370 bound_to 10713
  156.9193  130.9677  151.3551 LP  0  0  0  0  0  0  0  0  0  0  0  0  # atno 17371 bound_to 10713
  140.4180  134.7212  157.4874 LP  0  0  0  0  0  0  0  0  0  0  0  0  # atno 17394 bound_to 11000
  140.0380  134.6309  155.9018 LP  0  0  0  0  0  0  0  0  0  0  0  0  # atno 17395 bound_to 11000

$$$$
