AV-unprocessed.smi:450|AV-procd|sdf|2608|dock9
  -GOLD-   2262023 03D 1   1.00000     0.00000
 Structure written by MMmdl.
 32 32  0  0  0  0  0  0  0  0  1 V2000
  145.2043  135.2846  151.6564 C   0  0  0  0  0  0  0  0  0  0  0  0
  145.2847  134.1537  150.6200 C   0  0  0  0  0  0  0  0  0  0  0  0
  145.6548  132.7849  151.2222 C   0  0  1  0  0  0  0  0  0  0  0  0
  145.3076  131.6328  150.2659 C   0  0  0  0  0  0  0  0  0  0  0  0
  147.0761  132.7545  151.5547 N   0  0  0  0  0  0  0  0  0  0  0  0
  147.6561  133.4105  152.5715 C   0  0  0  0  0  0  0  0  0  0  0  0
  147.0336  134.0877  153.3888 O   0  0  0  0  0  0  0  0  0  0  0  0
  149.1775  133.2956  152.6740 C   0  0  0  0  0  0  0  0  0  0  0  0
  149.5637  132.5423  153.8647 N   0  0  0  0  0  0  0  0  0  0  0  0
  149.3544  131.2370  154.1333 C   0  0  0  0  0  0  0  0  0  0  0  0
  148.6826  130.4186  153.2369 N   0  0  0  0  0  0  0  0  0  0  0  0
  149.8435  130.8307  155.3014 N   0  0  0  0  0  0  0  0  0  0  0  0
  150.4307  131.9629  155.8626 C   0  0  0  0  0  0  0  0  0  0  0  0
  151.0727  131.9274  157.1330 C   0  0  0  0  0  0  0  0  0  0  0  0
  151.5961  131.9008  158.1644 N   0  0  0  0  0  0  0  0  0  0  0  0
  150.2573  133.0073  154.9801 C   0  0  0  0  0  0  0  0  0  0  0  0
  150.7054  134.3340  155.1551 C   0  0  0  0  0  0  0  0  0  0  0  0
  151.0734  135.4211  155.2984 N   0  0  0  0  0  0  0  0  0  0  0  0
  144.8924  136.2175  151.1862 H   0  0  0  0  0  0  0  0  0  0  0  0
  146.1683  135.4647  152.1330 H   0  0  0  0  0  0  0  0  0  0  0  0
  144.4820  135.0498  152.4387 H   0  0  0  0  0  0  0  0  0  0  0  0
  144.3201  134.0739  150.1175 H   0  0  0  0  0  0  0  0  0  0  0  0
  146.0059  134.4251  149.8480 H   0  0  0  0  0  0  0  0  0  0  0  0
  145.0747  132.6558  152.1379 H   0  0  0  0  0  0  0  0  0  0  0  0
  144.2479  131.6428  150.0099 H   0  0  0  0  0  0  0  0  0  0  0  0
  145.5244  130.6640  150.7169 H   0  0  0  0  0  0  0  0  0  0  0  0
  145.8750  131.7022  149.3373 H   0  0  0  0  0  0  0  0  0  0  0  0
  147.6723  132.2276  150.9332 H   0  0  0  0  0  0  0  0  0  0  0  0
  149.5769  132.8006  151.7881 H   0  0  0  0  0  0  0  0  0  0  0  0
  149.6275  134.2886  152.7001 H   0  0  0  0  0  0  0  0  0  0  0  0
  148.3330  130.7789  152.3603 H   0  0  0  0  0  0  0  0  0  0  0  0
  148.5675  129.4296  153.4041 H   0  0  0  0  0  0  0  0  0  0  0  0
  1  2  1  0  0  0  0
  1 19  1  0  0  0  0
  1 20  1  0  0  0  0
  1 21  1  0  0  0  0
  2  3  1  0  0  0  0
  2 22  1  0  0  0  0
  2 23  1  0  0  0  0
  3  4  1  0  0  0  0
  3  5  1  0  0  0  0
  3 24  1  0  0  0  0
  4 25  1  0  0  0  0
  4 26  1  0  0  0  0
  4 27  1  0  0  0  0
  5  6  1  0  0  0  0
  5 28  1  0  0  0  0
  6  7  2  0  0  0  0
  6  8  1  0  0  0  0
  8  9  1  0  0  0  0
  8 29  1  0  0  0  0
  8 30  1  0  0  0  0
  9 16  1  0  0  0  0
  9 10  1  0  0  0  0
 10 11  1  0  0  0  0
 10 12  2  0  0  0  0
 11 31  1  0  0  0  0
 11 32  1  0  0  0  0
 12 13  1  0  0  0  0
 13 14  1  0  0  0  0
 13 16  2  0  0  0  0
 14 15  3  0  0  0  0
 16 17  1  0  0  0  0
 17 18  3  0  0  0  0
M  END
> <s_m_source_file>
AV-unprocessed.smi

> <i_m_source_file_index>
450

> <i_lp_mmshare_version>
43012

> <i_f3d_flags>
0

> <s_epik_input>
W0NIM11bQ0gyXVtDQEhdKFtDSDNdKVtOSF1DKD1PKVtDSDJdbjFjKFtOSDJdKW5jKEMjTiljMUMjTg==

> <s_epik_cmdline>
J2VwaWtfcHl0aG9uJywgJy1waCcsICc3LjAnLCAnLXRuJywgJzgnLCAnLW1hJywgJzIwMCcsICctbWV0YWxfYmluZGluZycsICctaW1hZScsICc8aW5maWxlLm1hZT4nLCAnLW9tYWUnLCAnPG91dGZpbGUubWFlPic=

> <r_epik_Ionization_Penalty>
0.000482749

> <r_epik_Ionization_Penalty_Charging>
7.71074e-10

> <r_epik_Ionization_Penalty_Neutral>
0.000482748

> <r_epik_State_Penalty>
0.000433536

> <r_epik_Charging_Adjusted_Penalty>
0.000433537

> <i_epik_Tot_Q>
0

> <i_epik_Tot_abs_Q>
0

> <r_epik_Metal_State_Penalty>
-0

> <b_epik_Metal_Only>
0

> <s_lp_Force_Field>
OPLS_2005

> <r_lp_Energy>
5.27204

> <b_lp_Chiralities_Consistent>
1

> <s_lp_Variant>
AV-unprocessed.smi:450-2

> <Gold.Version>
5.8.1

> <Gold.Id.Protein>
6NUR|6NUR_protein|mol2

> <Gold.PLP.Fitness>
35.9720

> <Gold.PLP.PLP>
-26.6465

> <Gold.PLP.part.hbond>
-4.0000

> <Gold.PLP.part.metal>
0.0000

> <Gold.PLP.part.buried>
-2.4205

> <Gold.PLP.part.nonpolar>
-17.7479

> <Gold.PLP.part.repulsive>
0.2591

> <Gold.PLP.ligand.clash>
0.0000

> <Gold.PLP.ligand.torsion>
0.3900

> <Gold.PLP.Chemscore.Hbond>
3.3644

> <Gold.PLP.Chemscore.CHOScore>
0.0000

> <Gold.PLP.Chemscore.Metal>
0.0000

> <Gold.Chemscore.Hbonds>
donor molecule, donor type, donor heavy atom, donor atom, acceptor molecule, acceptor atom, score
      L1  H     5    28       P1 10747  1.00
      L1  H    11    31       P1 10747  0.48
      P1  H  6896  6907       L1    15  1.00
      P1  H 10752 10765       L1    18  1.00

> <Gold.PLP.Chemscore.Internal.Correction>
0.0124

> <Gold.Rescore>
     Score         DG    S(hbond)    S(metal)    S(lipo)     H(rot)  DE(clash)    DE(int)     intcor
     13.19     -16.22       3.26        0.00      47.27       2.21       1.22       1.82       ----

> <Gold.Chemscore.Fitness>
13.1851

> <Gold.Chemscore.DG>
-16.2235

> <Gold.Chemscore.ZeroCoef>
-5.4800

> <Gold.Chemscore.Hbond>
3.2560

> <Gold.Chemscore.Metal>
0.0000

> <Gold.Chemscore.Lipo>
47.2746

> <Gold.Chemscore.Internal_Hbond>
0.0000

> <Gold.Chemscore.DEClash>
1.2206

> <Gold.Chemscore.DEInternal>
1.8177

> <Gold.Chemscore.Rot>
2.2121

> <Gold.Chemscore.Internal.Correction>
   9.000000E+99

> <Gold.Chemscore.Hbonds>
donor molecule, donor type, donor heavy atom, donor atom, acceptor molecule, acceptor atom, score
      L1  H     5    28       P1 10747  0.96
      L1  H    11    31       P1 10747  0.46
      P1  H  6896  6907       L1    15  1.00
      P1  H 10752 10765       L1    18  0.67

> <Gold.Chemscore.Hbond.Weighted>
-10.8752

> <Gold.Chemscore.Metal.Weighted>
-0.0000

> <Gold.Chemscore.Lipo.Weighted>
-5.5311

> <Gold.Chemscore.Internal_Hbond.Weighted>
0.0000

> <Gold.Chemscore.DEClash.Weighted>
1.2206

> <Gold.Chemscore.DEInternal.Weighted>
1.8177

> <Gold.Chemscore.Rot.Weighted>
5.6629

> <Gold.Chemscore.Internal.Correction.Weighted>
   9.000000E+99

> <Gold.Protein.RotatedTorsions>
[ 6907 6896 6895 6894 ] final -179.62 input  -60.11 | X-H torsion
[ 7974 7965 7964 7962 ] final  -40.88 input  175.53 | X-H torsion
[ 8008 7997 7996 7995 ] final  -14.94 input   59.86 | X-H torsion
[ 10167 10162 10161 10158 ] final  -89.00 input  -65.29 | X-H torsion
[ 10718 10713 10712 10709 ] final  -69.59 input   66.30 | X-H torsion
[ 10763 10752 10751 10750 ] final -174.65 input  -60.55 | X-H torsion
[ 11005 11000 10999 10996 ] final   76.91 input  -57.11 | X-H torsion

> <Gold.Protein.ActiveResidues>
 VAL166  LYS551  ARG553  GLY616  TRP617  ASP618  TYR619  PRO620  LYS621  CYS622 
 ASP623  PHE694  ASN695  SER759  ASP760  ASP761  ALA762  ILE779  LEU786  VAL792 
 PHE793  MET794  SER795  GLU796  ALA797  LYS798  CYS799  TRP800  GLU811  SER814 

> <Gold.Protein.RotatedAtoms>
  151.6564  133.3318  159.3163 H   0  0  0  0  0  0  0  0  0  0  0  0  # atno 6907 bound_to 6896
  150.7935  134.6980  159.6544 H   0  0  0  0  0  0  0  0  0  0  0  0  # atno 6908 bound_to 6896
  152.4018  134.6277  160.0119 H   0  0  0  0  0  0  0  0  0  0  0  0  # atno 6909 bound_to 6896
  146.0263  140.6788  142.9154 H   0  0  0  0  0  0  0  0  0  0  0  0  # atno 7974 bound_to 7965
  154.5170  140.2209  155.9048 H   0  0  0  0  0  0  0  0  0  0  0  0  # atno 8008 bound_to 7997
  156.1618  140.3140  155.8786 H   0  0  0  0  0  0  0  0  0  0  0  0  # atno 8009 bound_to 7997
  155.3735  140.0468  157.3036 H   0  0  0  0  0  0  0  0  0  0  0  0  # atno 8010 bound_to 7997
  140.3692  143.2803  151.9521 H   0  0  0  0  0  0  0  0  0  0  0  0  # atno 10167 bound_to 10162
  156.0448  130.4315  150.2170 H   0  0  0  0  0  0  0  0  0  0  0  0  # atno 10718 bound_to 10713
  154.5937  135.2847  155.0608 H   0  0  0  0  0  0  0  0  0  0  0  0  # atno 10763 bound_to 10752
  154.1899  135.6442  153.5061 H   0  0  0  0  0  0  0  0  0  0  0  0  # atno 10764 bound_to 10752
  153.0131  135.5443  154.6632 H   0  0  0  0  0  0  0  0  0  0  0  0  # atno 10765 bound_to 10752
  139.9277  134.7639  156.1455 H   0  0  0  0  0  0  0  0  0  0  0  0  # atno 11005 bound_to 11000
  144.7011  140.3655  143.7155 LP  0  0  0  0  0  0  0  0  0  0  0  0  # atno 17320 bound_to 7965
  145.7113  139.1685  143.2537 LP  0  0  0  0  0  0  0  0  0  0  0  0  # atno 17321 bound_to 7965
  139.4805  144.5923  151.7751 LP  0  0  0  0  0  0  0  0  0  0  0  0  # atno 17342 bound_to 10162
  140.5050  144.1111  150.5980 LP  0  0  0  0  0  0  0  0  0  0  0  0  # atno 17343 bound_to 10162
  157.0261  130.9993  151.3326 LP  0  0  0  0  0  0  0  0  0  0  0  0  # atno 17370 bound_to 10713
  157.5310  130.8059  149.7917 LP  0  0  0  0  0  0  0  0  0  0  0  0  # atno 17371 bound_to 10713
  141.0846  133.6739  156.2409 LP  0  0  0  0  0  0  0  0  0  0  0  0  # atno 17394 bound_to 11000
  140.6288  134.5285  157.5557 LP  0  0  0  0  0  0  0  0  0  0  0  0  # atno 17395 bound_to 11000

$$$$
