#       Name:                AV-unprocessed.smi:1813
#       Creating user name   scv26
#       Creation time:       Fri Mar 27 09:01:01 2020


#       File generated by GOLD software.
#

@<TRIPOS>MOLECULE
AV-unprocessed.smi:1813
    45    46     1
SMALL
NO_CHARGES


@<TRIPOS>ATOM
      1 ****        -5.1635   2.7564   1.9506 C.3            1 S1                 0.0000
      2 ****        -4.3379   1.5857   1.6964 N.am           1 S1                 0.0000
      3 ****        -3.0832   1.4359   2.1433 C.2            1 S1                 0.0000
      4 ****        -2.5040   2.2808   2.8270 O.2            1 S1                 0.0000
      5 ****        -2.3856   0.1223   1.7762 C.3            1 S1                 0.0000
      6 ****        -0.9042   0.2323   1.7630 N.4            1 S1                 1.0000
      7 ****        -0.3849   0.9387   0.5608 C.3            1 S1                 0.0000
      8 ****         1.1390   1.1325   0.6448 C.3            1 S1                 0.0000
      9 ****         1.8739  -0.2087   0.8384 C.3            1 S1                 0.0000
     10 ****         1.7695  -1.0587  -0.3473 N.am           1 S1                 0.0000
     11 ****         2.4344  -0.9025  -1.5003 C.2            1 S1                 0.0000
     12 ****         3.2467   0.0166  -1.6246 O.2            1 S1                 0.0000
     13 ****         2.1052  -1.8181  -2.4387 N.pl3          1 S1                -1.0000
     14 ****         2.6761  -1.7711  -3.6534 C.2            1 S1                 0.0000
     15 ****         3.6752  -2.5810  -4.0210 N.2            1 S1                 0.0000
     16 ****         4.1106  -2.3663  -5.3300 C.2            1 S1                 0.0000
     17 ****         3.4211  -1.3751  -5.9768 C.2            1 S1                 0.0000
     18 ****         2.1970  -0.6777  -4.9550 S.3            1 S1                 0.0000
     19 ****         1.2876  -0.9346   2.0607 C.3            1 S1                 0.0000
     20 ****        -0.2422  -1.0833   1.9590 C.3            1 S1                 0.0000
     21 ****        -6.1146   2.6614   1.4268 H              1 S1                 0.0000
     22 ****        -4.6719   3.6652   1.6006 H              1 S1                 0.0000
     23 ****        -5.3698   2.8599   3.0167 H              1 S1                 0.0000
     24 ****        -4.7472   0.8438   1.1464 H              1 S1                 0.0000
     25 ****        -2.6924  -0.6106   2.5235 H              1 S1                 0.0000
     26 ****        -2.7405  -0.2462   0.8120 H              1 S1                 0.0000
     27 ****        -0.6447   0.3750  -0.3367 H              1 S1                 0.0000
     28 ****        -0.8605   1.9149   0.4640 H              1 S1                 0.0000
     29 ****         1.4993   1.6450  -0.2476 H              1 S1                 0.0000
     30 ****         1.3698   1.7921   1.4823 H              1 S1                 0.0000
     31 ****         2.9315  -0.0150   1.0261 H              1 S1                 0.0000
     32 ****         1.1284  -1.8366  -0.2953 H              1 S1                 0.0000
     33 ****         4.9183  -2.9668  -5.7210 H              1 S1                 0.0000
     34 ****         3.5564  -1.0147  -6.9852 H              1 S1                 0.0000
     35 ****         1.7518  -1.9148   2.1765 H              1 S1                 0.0000
     36 ****         1.5336  -0.3742   2.9637 H              1 S1                 0.0000
     37 ****        -0.6147  -1.5480   2.8724 H              1 S1                 0.0000
     38 ****        -0.5065  -1.7501   1.1366 H              1 S1                 0.0000
     39 ****        -0.6566   0.7965   2.5636 H              1 S1                 0.0000
     40 ****        -2.9713   3.1295   3.0747 LP             1 S1                 0.0000
     41 ****        -1.5665   2.1181   3.1345 LP             1 S1                 0.0000
     42 ****         3.4097   0.6460  -0.8648 LP             1 S1                 0.0000
     43 ****         3.7426   0.1327  -2.4852 LP             1 S1                 0.0000
     44 ****         1.4361  -2.5309  -2.2283 LP             1 S1                 0.0000
     45 ****         4.0715  -3.2727  -3.4172 LP             1 S1                 0.0000
@<TRIPOS>BOND
    1    1    2 1     
    2    1   21 1     
    3    1   22 1     
    4    1   23 1     
    5    2    3 am    
    6    2   24 1     
    7    3    4 2     
    8    3    5 1     
    9    5    6 1     
   10    5   25 1     
   11    5   26 1     
   12    6   20 1     
   13    6    7 1     
   14    6   39 1     
   15    7    8 1     
   16    7   27 1     
   17    7   28 1     
   18    8    9 1     
   19    8   29 1     
   20    8   30 1     
   21    9   10 1     
   22    9   19 1     
   23    9   31 1     
   24   10   11 am    
   25   10   32 1     
   26   11   12 2     
   27   11   13 1     
   28   13   14 1     
   29   14   18 1     
   30   14   15 2     
   31   15   16 1     
   32   16   17 2     
   33   16   33 1     
   34   17   18 1     
   35   17   34 1     
   36   19   20 1     
   37   19   35 1     
   38   19   36 1     
   39   20   37 1     
   40   20   38 1     
   41    4   40 1     
   42    4   41 1     
   43   12   42 1     
   44   12   43 1     
   45   13   44 1     
   46   15   45 1     
@<TRIPOS>SUBSTRUCTURE
      1 S1             1
@<TRIPOS>SET
LONE_PAIRS      STATIC     ATOMS    <user>   **** ""
6 40 41 42 43 44 45
DONOR_HYDROGENS      STATIC     ATOMS    <user>   **** ""
3 24 39 32
ATOM$BLUE        STATIC     ATOMS    COLORGROUP SYSTEM
6 40 41 42 43 44 45
ATOM$RED        STATIC     ATOMS    COLORGROUP SYSTEM
3 24 39 32
