AV-unprocessed.smi:1605|AV-procd|sdf|6451|dock5
  -GOLD-   22720 7103D 1   1.00000     0.00000
 Structure written by MMmdl.
 51 53  0  0  0  0  0  0  0  0  2 V2000
  143.4178  136.9126  152.8665 C   0  0  0  0  0  0  0  0  0  0  0  0
  144.5888  136.3892  153.4749 O   0  0  0  0  0  0  0  0  0  0  0  0
  145.5393  137.3736  153.8587 C   0  0  2  0  0  0  0  0  0  0  0  0
  144.9275  138.3913  154.8387 C   0  0  0  0  0  0  0  0  0  0  0  0
  145.9111  139.5365  155.1298 C   0  0  0  0  0  0  0  0  0  0  0  0
  146.3361  140.2153  153.8762 N   0  3  1  0  0  0  0  0  0  0  0  0
  147.1944  141.4024  154.1198 C   0  0  0  0  0  0  0  0  0  0  0  0
  148.2341  141.1583  155.2363 C   0  0  2  0  0  0  0  0  0  0  0  0
  147.9234  141.9885  156.3370 O   0  0  0  0  0  0  0  0  0  0  0  0
  149.6819  141.4639  154.8067 C   0  0  0  0  0  0  0  0  0  0  0  0
  150.6483  141.1094  155.8302 N   0  0  0  0  0  0  0  0  0  0  0  0
  151.4334  140.0152  155.8549 C   0  0  0  0  0  0  0  0  0  0  0  0
  152.2626  139.8844  156.8859 N   0  0  0  0  0  0  0  0  0  0  0  0
  151.9772  141.0223  157.6207 C   0  0  0  0  0  0  0  0  0  0  0  0
  152.5175  141.4860  158.8399 C   0  0  0  0  0  0  0  0  0  0  0  0
  152.0729  142.6975  159.4156 C   0  0  0  0  0  0  0  0  0  0  0  0
  152.6790  143.1560  160.7304 C   0  0  0  0  0  0  0  0  0  0  0  0
  151.0738  143.4677  158.7677 C   0  0  0  0  0  0  0  0  0  0  0  0
  150.5828  144.7737  159.3666 C   0  0  0  0  0  0  0  0  0  0  0  0
  150.5223  143.0185  157.5494 C   0  0  0  0  0  0  0  0  0  0  0  0
  150.9711  141.8098  156.9879 C   0  0  0  0  0  0  0  0  0  0  0  0
  146.9544  139.2587  152.9224 C   0  0  0  0  0  0  0  0  0  0  0  0
  145.9919  138.1071  152.5878 C   0  0  0  0  0  0  0  0  0  0  0  0
  142.7311  136.0965  152.6423 H   0  0  0  0  0  0  0  0  0  0  0  0
  143.6390  137.4230  151.9294 H   0  0  0  0  0  0  0  0  0  0  0  0
  142.9033  137.6070  153.5316 H   0  0  0  0  0  0  0  0  0  0  0  0
  146.4098  136.8949  154.3115 H   0  0  0  0  0  0  0  0  0  0  0  0
  144.0060  138.7987  154.4203 H   0  0  0  0  0  0  0  0  0  0  0  0
  144.6548  137.9077  155.7763 H   0  0  0  0  0  0  0  0  0  0  0  0
  145.4355  140.2462  155.8057 H   0  0  0  0  0  0  0  0  0  0  0  0
  146.7887  139.1494  155.6501 H   0  0  0  0  0  0  0  0  0  0  0  0
  147.6762  141.6753  153.1805 H   0  0  0  0  0  0  0  0  0  0  0  0
  146.5810  142.2599  154.4010 H   0  0  0  0  0  0  0  0  0  0  0  0
  148.1914  140.1246  155.5786 H   0  0  0  0  0  0  0  0  0  0  0  0
  148.1383  142.8820  156.1149 H   0  0  0  0  0  0  0  0  0  0  0  0
  149.9321  140.9307  153.8887 H   0  0  0  0  0  0  0  0  0  0  0  0
  149.7955  142.5272  154.5893 H   0  0  0  0  0  0  0  0  0  0  0  0
  151.3981  139.2754  155.0684 H   0  0  0  0  0  0  0  0  0  0  0  0
  153.2796  140.9000  159.3326 H   0  0  0  0  0  0  0  0  0  0  0  0
  151.9020  143.3001  161.4814 H   0  0  0  0  0  0  0  0  0  0  0  0
  153.2126  144.0975  160.5974 H   0  0  0  0  0  0  0  0  0  0  0  0
  153.3854  142.4224  161.1198 H   0  0  0  0  0  0  0  0  0  0  0  0
  149.8509  145.2580  158.7201 H   0  0  0  0  0  0  0  0  0  0  0  0
  151.4124  145.4666  159.5087 H   0  0  0  0  0  0  0  0  0  0  0  0
  150.1106  144.5961  160.3329 H   0  0  0  0  0  0  0  0  0  0  0  0
  149.7601  143.5956  157.0474 H   0  0  0  0  0  0  0  0  0  0  0  0
  147.2212  139.7778  152.0010 H   0  0  0  0  0  0  0  0  0  0  0  0
  147.8805  138.8667  153.3464 H   0  0  0  0  0  0  0  0  0  0  0  0
  146.4758  137.4066  151.9064 H   0  0  0  0  0  0  0  0  0  0  0  0
  145.1224  138.5013  152.0596 H   0  0  0  0  0  0  0  0  0  0  0  0
  145.4995  140.5603  153.4262 H   0  0  0  0  0  0  0  0  0  0  0  0
  1  2  1  0  0  0  0
  1 24  1  0  0  0  0
  1 25  1  0  0  0  0
  1 26  1  0  0  0  0
  2  3  1  0  0  0  0
  3 23  1  0  0  0  0
  3  4  1  0  0  0  0
  3 27  1  0  0  0  0
  4  5  1  0  0  0  0
  4 28  1  0  0  0  0
  4 29  1  0  0  0  0
  5  6  1  0  0  0  0
  5 30  1  0  0  0  0
  5 31  1  0  0  0  0
  6  7  1  0  0  0  0
  6 22  1  0  0  0  0
  6 51  1  0  0  0  0
  7  8  1  0  0  0  0
  7 32  1  0  0  0  0
  7 33  1  0  0  0  0
  8  9  1  0  0  0  0
  8 10  1  0  0  0  0
  8 34  1  0  0  0  0
  9 35  1  0  0  0  0
 10 11  1  0  0  0  0
 10 36  1  0  0  0  0
 10 37  1  0  0  0  0
 11 21  1  0  0  0  0
 11 12  1  0  0  0  0
 12 13  2  0  0  0  0
 12 38  1  0  0  0  0
 13 14  1  0  0  0  0
 14 21  2  0  0  0  0
 14 15  1  0  0  0  0
 15 16  2  0  0  0  0
 15 39  1  0  0  0  0
 16 17  1  0  0  0  0
 16 18  1  0  0  0  0
 17 40  1  0  0  0  0
 17 41  1  0  0  0  0
 17 42  1  0  0  0  0
 18 19  1  0  0  0  0
 18 20  2  0  0  0  0
 19 43  1  0  0  0  0
 19 44  1  0  0  0  0
 19 45  1  0  0  0  0
 20 21  1  0  0  0  0
 20 46  1  0  0  0  0
 22 23  1  0  0  0  0
 22 47  1  0  0  0  0
 22 48  1  0  0  0  0
 23 49  1  0  0  0  0
 23 50  1  0  0  0  0
M  CHG  1   6   1
M  END
> <s_m_source_file>
AV-unprocessed.smi

> <i_m_source_file_index>
1605

> <i_lp_mmshare_version>
43012

> <i_f3d_flags>
0

> <s_epik_input>
W0NIM11PW0NIXTFbQ0gyXVtDSDJdTihbQ0gyXVtDSDJdMSlbQ0gyXVtDQEhdKFtPSF0pW0NIMl1uKFtjSF1uMiljKGMyMylbY0hdYyhbQ0gzXSljKFtjSF0zKVtDSDNd

> <s_epik_cmdline>
J2VwaWtfcHl0aG9uJywgJy1waCcsICc3LjAnLCAnLXRuJywgJzgnLCAnLW1hJywgJzIwMCcsICctbWV0YWxfYmluZGluZycsICctaW1hZScsICc8aW5maWxlLm1hZT4nLCAnLW9tYWUnLCAnPG91dGZpbGUubWFlPic=

> <r_epik_Ionization_Penalty>
0.110943

> <r_epik_Ionization_Penalty_Charging>
0.0229283

> <r_epik_Ionization_Penalty_Neutral>
0.0880146

> <r_epik_State_Penalty>
0.0947554

> <r_epik_Charging_Adjusted_Penalty>
0.117684

> <i_epik_Tot_Q>
1

> <i_epik_Tot_abs_Q>
1

> <r_epik_Metal_State_Penalty>
0.0192456

> <b_epik_Metal_Only>
0

> <s_lp_Force_Field>
OPLS_2005

> <r_lp_Energy>
22.9289

> <b_lp_Chiralities_Consistent>
1

> <s_lp_Variant>
AV-unprocessed.smi:1605-1

> <Gold.Version>
5.8.1

> <Gold.Id.Protein>
6NUR|6NUR_protein|mol2

> <Gold.PLP.Fitness>
50.2051

> <Gold.PLP.PLP>
-41.2549

> <Gold.PLP.part.hbond>
-2.9218

> <Gold.PLP.part.metal>
0.0000

> <Gold.PLP.part.buried>
-0.2731

> <Gold.PLP.part.nonpolar>
-37.8953

> <Gold.PLP.part.repulsive>
0.1127

> <Gold.PLP.ligand.clash>
0.0000

> <Gold.PLP.ligand.torsion>
1.2191

> <Gold.PLP.Chemscore.Hbond>
3.7463

> <Gold.PLP.Chemscore.CHOScore>
0.0000

> <Gold.PLP.Chemscore.Metal>
0.0000

> <Gold.Chemscore.Hbonds>
donor molecule, donor type, donor heavy atom, donor atom, acceptor molecule, acceptor atom, score
      L1  H     6    51       P1 10175  1.92
      L1  H     9    35       P1  8028  1.00
      P1  H  7997  8009       L1    13  0.76

> <Gold.PLP.Chemscore.Internal.Correction>
0.1497

> <Gold.Rescore>
     Score         DG    S(hbond)    S(metal)    S(lipo)     H(rot)  DE(clash)    DE(int)     intcor
     17.89     -19.61       1.76        0.00     119.07       2.22       0.46       1.27       ----

> <Gold.Chemscore.Fitness>
17.8869

> <Gold.Chemscore.DG>
-19.6096

> <Gold.Chemscore.ZeroCoef>
-5.4800

> <Gold.Chemscore.Hbond>
1.7585

> <Gold.Chemscore.Metal>
0.0000

> <Gold.Chemscore.Lipo>
119.0734

> <Gold.Chemscore.Internal_Hbond>
0.0000

> <Gold.Chemscore.DEClash>
0.4563

> <Gold.Chemscore.DEInternal>
1.2664

> <Gold.Chemscore.Rot>
2.2169

> <Gold.Chemscore.Internal.Correction>
   9.000000E+99

> <Gold.Chemscore.Hbonds>
donor molecule, donor type, donor heavy atom, donor atom, acceptor molecule, acceptor atom, score
      L1  H     6    51       P1 10175  0.84
      L1  H     9    35       P1  8028  0.70
      P1  H  7997  8009       L1    13  0.22

> <Gold.Chemscore.Hbond.Weighted>
-5.8733

> <Gold.Chemscore.Metal.Weighted>
-0.0000

> <Gold.Chemscore.Lipo.Weighted>
-13.9316

> <Gold.Chemscore.Internal_Hbond.Weighted>
0.0000

> <Gold.Chemscore.DEClash.Weighted>
0.4563

> <Gold.Chemscore.DEInternal.Weighted>
1.2664

> <Gold.Chemscore.Rot.Weighted>
5.6753

> <Gold.Chemscore.Internal.Correction.Weighted>
   9.000000E+99

> <Gold.Protein.RotatedTorsions>
[ 6907 6896 6895 6894 ] final -136.11 input  -60.11 | X-H torsion
[ 7974 7965 7964 7962 ] final   32.68 input  175.53 | X-H torsion
[ 8008 7997 7996 7995 ] final -176.76 input   59.86 | X-H torsion
[ 10167 10162 10161 10158 ] final   87.66 input  -65.29 | X-H torsion
[ 10718 10713 10712 10709 ] final  -79.78 input   66.30 | X-H torsion
[ 10763 10752 10751 10750 ] final  -42.19 input  -60.55 | X-H torsion
[ 11005 11000 10999 10996 ] final  -75.30 input  -57.11 | X-H torsion

> <Gold.Protein.ActiveResidues>
 VAL166  LYS551  ARG553  GLY616  TRP617  ASP618  TYR619  PRO620  LYS621  CYS622 
 ASP623  PHE694  ASN695  SER759  ASP760  ASP761  ALA762  ILE779  LEU786  VAL792 
 PHE793  MET794  SER795  GLU796  ALA797  LYS798  CYS799  TRP800  GLU811  SER814 

> <Gold.Protein.RotatedAtoms>
  151.0060  133.6010  159.2688 H   0  0  0  0  0  0  0  0  0  0  0  0  # atno 6907 bound_to 6896
  151.3179  135.0810  159.9305 H   0  0  0  0  0  0  0  0  0  0  0  0  # atno 6908 bound_to 6896
  152.5287  133.9713  159.7817 H   0  0  0  0  0  0  0  0  0  0  0  0  # atno 6909 bound_to 6896
  146.1471  139.6495  142.9124 H   0  0  0  0  0  0  0  0  0  0  0  0  # atno 7974 bound_to 7965
  155.9987  140.1216  157.0568 H   0  0  0  0  0  0  0  0  0  0  0  0  # atno 8008 bound_to 7997
  154.4235  140.1111  156.5736 H   0  0  0  0  0  0  0  0  0  0  0  0  # atno 8009 bound_to 7997
  155.6242  140.3472  155.4664 H   0  0  0  0  0  0  0  0  0  0  0  0  # atno 8010 bound_to 7997
  139.8751  144.6471  150.8905 H   0  0  0  0  0  0  0  0  0  0  0  0  # atno 10167 bound_to 10162
  156.0084  130.4555  150.3701 H   0  0  0  0  0  0  0  0  0  0  0  0  # atno 10718 bound_to 10713
  153.9749  135.6724  153.4748 H   0  0  0  0  0  0  0  0  0  0  0  0  # atno 10763 bound_to 10752
  153.0775  135.4941  154.8432 H   0  0  0  0  0  0  0  0  0  0  0  0  # atno 10764 bound_to 10752
  154.7198  135.3114  154.9027 H   0  0  0  0  0  0  0  0  0  0  0  0  # atno 10765 bound_to 10752
  141.1644  133.6942  156.7496 H   0  0  0  0  0  0  0  0  0  0  0  0  # atno 11005 bound_to 11000
  145.4912  141.0438  143.2592 LP  0  0  0  0  0  0  0  0  0  0  0  0  # atno 17320 bound_to 7965
  144.7859  139.6428  143.7134 LP  0  0  0  0  0  0  0  0  0  0  0  0  # atno 17321 bound_to 7965
  140.7754  143.3631  151.1790 LP  0  0  0  0  0  0  0  0  0  0  0  0  # atno 17342 bound_to 10162
  139.7247  143.9167  152.2998 LP  0  0  0  0  0  0  0  0  0  0  0  0  # atno 17343 bound_to 10162
  157.1786  131.0386  151.2760 LP  0  0  0  0  0  0  0  0  0  0  0  0  # atno 17370 bound_to 10713
  157.4166  130.7414  149.6880 LP  0  0  0  0  0  0  0  0  0  0  0  0  # atno 17371 bound_to 10713
  140.2614  134.8464  157.3762 LP  0  0  0  0  0  0  0  0  0  0  0  0  # atno 17394 bound_to 11000
  140.1608  134.4731  155.7896 LP  0  0  0  0  0  0  0  0  0  0  0  0  # atno 17395 bound_to 11000

$$$$
