#       Name:                AV-unprocessed.smi:2767
#       Creating user name   scv26
#       Creation time:       Fri Mar 27 15:09:51 2020


#       File generated by GOLD software.
#

@<TRIPOS>MOLECULE
AV-unprocessed.smi:2767
    37    39     1
SMALL
NO_CHARGES


@<TRIPOS>ATOM
      1 ****         0.3220   1.6534   0.1985 O.2            1 S1                 0.0000
      2 ****         0.0420   0.9003  -0.7345 C.2            1 S1                 0.0000
      3 ****         0.9296   0.0795  -1.3138 N.am           1 S1                 0.0000
      4 ****         2.3214  -0.0677  -0.9036 C.3            1 S1                 0.0000
      5 ****         2.5518  -0.8506   0.3834 C.3            1 S1                 0.0000
      6 ****         1.8296  -2.1937   0.4564 C.3            1 S1                 0.0000
      7 ****         0.4488  -2.2781   1.0645 C.3            1 S1                 0.0000
      8 ****         1.6081  -2.9758   1.7350 C.3            1 S1                 0.0000
      9 ****         3.9439  -0.7977   0.9814 C.3            1 S1                 0.0000
     10 ****         2.8232  -0.0436   1.6438 C.3            1 S1                 0.0000
     11 ****        -1.1721   0.7801  -1.3000 N.am           1 S1                 0.0000
     12 ****        -2.3759   1.4452  -0.9452 C.ar           1 S1                 0.0000
     13 ****        -3.5035   1.0959  -1.7227 C.ar           1 S1                 0.0000
     14 ****        -4.7475   1.6972  -1.4492 C.ar           1 S1                 0.0000
     15 ****        -4.8299   2.6337  -0.4035 C.ar           1 S1                 0.0000
     16 ****        -6.0041   3.2380  -0.1038 F              1 S1                 0.0000
     17 ****        -3.6607   2.9261   0.3228 C.ar           1 S1                 0.0000
     18 ****        -2.4679   2.3502   0.0617 N.ar           1 S1                 0.0000
     19 ****         0.6155  -0.5040  -2.0752 H              1 S1                 0.0000
     20 ****         2.8429  -0.5849  -1.7093 H              1 S1                 0.0000
     21 ****         2.7865   0.9171  -0.8310 H              1 S1                 0.0000
     22 ****         1.9861  -2.8182  -0.4212 H              1 S1                 0.0000
     23 ****         0.0534  -1.3864   1.5473 H              1 S1                 0.0000
     24 ****        -0.2863  -2.8946   0.5515 H              1 S1                 0.0000
     25 ****         1.6402  -4.0610   1.6672 H              1 S1                 0.0000
     26 ****         1.9636  -2.5672   2.6772 H              1 S1                 0.0000
     27 ****         4.3144  -1.6864   1.4883 H              1 S1                 0.0000
     28 ****         4.6998  -0.2140   0.4596 H              1 S1                 0.0000
     29 ****         2.8370   1.0412   1.5582 H              1 S1                 0.0000
     30 ****         2.4586  -0.4146   2.5977 H              1 S1                 0.0000
     31 ****        -1.2474   0.1234  -2.0628 H              1 S1                 0.0000
     32 ****        -3.4209   0.3740  -2.5223 H              1 S1                 0.0000
     33 ****        -5.6212   1.4436  -2.0311 H              1 S1                 0.0000
     34 ****        -3.6821   3.6396   1.1332 H              1 S1                 0.0000
     35 ****         1.2532   1.6737   0.5625 LP             1 S1                 0.0000
     36 ****        -0.3817   2.2447   0.5923 LP             1 S1                 0.0000
     37 ****        -1.6618   2.5877   0.6039 LP             1 S1                 0.0000
@<TRIPOS>BOND
    1    1    2 2     
    2    2    3 am    
    3    2   11 am    
    4    3    4 1     
    5    3   19 1     
    6    4    5 1     
    7    4   20 1     
    8    4   21 1     
    9    5   10 1     
   10    5    6 1     
   11    5    9 1     
   12    6    8 1     
   13    6    7 1     
   14    6   22 1     
   15    7    8 1     
   16    7   23 1     
   17    7   24 1     
   18    8   25 1     
   19    8   26 1     
   20    9   10 1     
   21    9   27 1     
   22    9   28 1     
   23   10   29 1     
   24   10   30 1     
   25   11   12 1     
   26   11   31 1     
   27   12   18 ar    
   28   12   13 ar    
   29   13   14 ar    
   30   13   32 1     
   31   14   15 ar    
   32   14   33 1     
   33   15   16 1     
   34   15   17 ar    
   35   17   18 ar    
   36   17   34 1     
   37    1   35 1     
   38    1   36 1     
   39   18   37 1     
@<TRIPOS>SUBSTRUCTURE
      1 S1             1
@<TRIPOS>SET
LONE_PAIRS      STATIC     ATOMS    <user>   **** ""
3 35 36 37
DONOR_HYDROGENS      STATIC     ATOMS    <user>   **** ""
2 19 31
ATOM$BLUE        STATIC     ATOMS    COLORGROUP SYSTEM
3 35 36 37
ATOM$RED        STATIC     ATOMS    COLORGROUP SYSTEM
2 19 31
