#       Name:                AV-unprocessed.smi:151
#       Creating user name   scv26
#       Creation time:       Thu Mar 26 18:46:47 2020


#       File generated by GOLD software.
#

@<TRIPOS>MOLECULE
AV-unprocessed.smi:151
    66    69     1
SMALL
NO_CHARGES


@<TRIPOS>ATOM
      1 ****        -2.9617  -2.5251  -3.0741 C.3            1 S1                 0.0000
      2 ****        -2.4518  -1.6869  -1.8938 C.3            1 S1                 0.0000
      3 ****        -2.9820  -0.2287  -1.8715 C.3            1 S1                 0.0000
      4 ****        -4.5212  -0.2002  -1.7359 C.3            1 S1                 0.0000
      5 ****        -5.0105   1.1355  -1.6461 O.3            1 S1                 0.0000
      6 ****        -4.4696   1.9138  -0.5772 C.3            1 S1                 0.0000
      7 ****        -5.0226   3.3327  -0.7819 C.3            1 S1                 0.0000
      8 ****        -4.9286   1.3818   0.7974 C.3            1 S1                 0.0000
      9 ****        -2.9338   1.9236  -0.7134 C.3            1 S1                 0.0000
     10 ****        -2.3983   0.5675  -0.7857 N.3            1 S1                 0.0000
     11 ****        -1.0478   0.5605  -0.7173 C.ar           1 S1                 0.0000
     12 ****        -0.3113   1.1307  -1.7071 N.ar           1 S1                 0.0000
     13 ****         1.0231   1.1006  -1.6436 C.ar           1 S1                 0.0000
     14 ****         1.8024   0.5596  -0.7045 N.ar           1 S1                 0.0000
     15 ****         1.0632  -0.0163   0.2881 C.ar           1 S1                 0.0000
     16 ****        -0.3572  -0.0558   0.3583 C.ar           1 S1                 0.0000
     17 ****        -0.7627  -0.7237   1.5055 N.2            1 S1                 0.0000
     18 ****         0.3574  -1.0631   2.0838 C.2            1 S1                 0.0000
     19 ****         1.5039  -0.6823   1.4210 N.pl3          1 S1                 0.0000
     20 ****         2.8553  -0.9340   1.8379 C.3            1 S1                 0.0000
     21 ****         3.8592   0.2100   1.9947 C.3            1 S1                 0.0000
     22 ****         4.9856  -0.6800   1.4224 C.3            1 S1                 0.0000
     23 ****         5.8303  -0.0259   0.3183 C.3            1 S1                 0.0000
     24 ****         6.5408   1.0932   0.8082 O.3            1 S1                 0.0000
     25 ****         5.9659  -1.3099   2.4357 C.3            1 S1                 0.0000
     26 ****         5.3120  -1.9841   3.4921 O.3            1 S1                 0.0000
     27 ****         3.8627  -1.6054   0.9006 C.3            1 S1                 0.0000
     28 ****        -2.4758  -3.5009  -3.0893 H              1 S1                 0.0000
     29 ****        -2.7496  -2.0356  -4.0248 H              1 S1                 0.0000
     30 ****        -4.0353  -2.7009  -3.0143 H              1 S1                 0.0000
     31 ****        -2.7036  -2.1860  -0.9572 H              1 S1                 0.0000
     32 ****        -1.3634  -1.6915  -1.9532 H              1 S1                 0.0000
     33 ****        -2.7140   0.2519  -2.8138 H              1 S1                 0.0000
     34 ****        -4.9882  -0.6527  -2.6099 H              1 S1                 0.0000
     35 ****        -4.8504  -0.7848  -0.8767 H              1 S1                 0.0000
     36 ****        -4.6462   4.0190  -0.0227 H              1 S1                 0.0000
     37 ****        -6.1118   3.3430  -0.7278 H              1 S1                 0.0000
     38 ****        -4.7397   3.7308  -1.7570 H              1 S1                 0.0000
     39 ****        -4.6075   2.0477   1.5989 H              1 S1                 0.0000
     40 ****        -4.5188   0.3974   1.0220 H              1 S1                 0.0000
     41 ****        -6.0152   1.3071   0.8465 H              1 S1                 0.0000
     42 ****        -2.6519   2.4648  -1.6181 H              1 S1                 0.0000
     43 ****        -2.4873   2.4583   0.1267 H              1 S1                 0.0000
     44 ****         1.5412   1.5742  -2.4643 H              1 S1                 0.0000
     45 ****         0.3758  -1.6074   3.0170 H              1 S1                 0.0000
     46 ****         2.7898  -1.4955   2.7710 H              1 S1                 0.0000
     47 ****         3.6298   1.0642   1.3564 H              1 S1                 0.0000
     48 ****         4.0125   0.5297   3.0258 H              1 S1                 0.0000
     49 ****         6.5394  -0.7348  -0.1106 H              1 S1                 0.0000
     50 ****         5.1998   0.3156  -0.5036 H              1 S1                 0.0000
     51 ****         5.9169   1.7276   1.1271 H              1 S1                 0.0000
     52 ****         6.6239  -2.0259   1.9419 H              1 S1                 0.0000
     53 ****         6.6095  -0.5517   2.8826 H              1 S1                 0.0000
     54 ****         5.9680  -2.3417   4.0709 H              1 S1                 0.0000
     55 ****         4.0153  -2.6667   1.0998 H              1 S1                 0.0000
     56 ****         3.6334  -1.4452  -0.1534 H              1 S1                 0.0000
     57 ****        -6.0024   1.0937  -1.5265 LP             1 S1                 0.0000
     58 ****        -4.7977   1.6008  -2.5053 LP             1 S1                 0.0000
     59 ****        -2.6982   0.0792   0.0338 LP             1 S1                 0.0000
     60 ****        -0.7667   1.5715  -2.4807 LP             1 S1                 0.0000
     61 ****         2.8021   0.5744  -0.7255 LP             1 S1                 0.0000
     62 ****        -1.6959  -0.9032   1.8167 LP             1 S1                 0.0000
     63 ****         7.0854   1.4958   0.0724 LP             1 S1                 0.0000
     64 ****         7.1448   0.8099   1.5531 LP             1 S1                 0.0000
     65 ****         4.7486  -2.7232   3.1230 LP             1 S1                 0.0000
     66 ****         4.7326  -1.3423   3.9944 LP             1 S1                 0.0000
@<TRIPOS>BOND
    1    1    2 1     
    2    1   28 1     
    3    1   29 1     
    4    1   30 1     
    5    2    3 1     
    6    2   31 1     
    7    2   32 1     
    8    3   10 1     
    9    3    4 1     
   10    3   33 1     
   11    4    5 1     
   12    4   34 1     
   13    4   35 1     
   14    5    6 1     
   15    6    7 1     
   16    6    8 1     
   17    6    9 1     
   18    7   36 1     
   19    7   37 1     
   20    7   38 1     
   21    8   39 1     
   22    8   40 1     
   23    8   41 1     
   24    9   10 1     
   25    9   42 1     
   26    9   43 1     
   27   10   11 1     
   28   11   16 ar    
   29   11   12 ar    
   30   12   13 ar    
   31   13   14 ar    
   32   13   44 1     
   33   14   15 ar    
   34   15   19 1     
   35   15   16 ar    
   36   16   17 1     
   37   17   18 2     
   38   18   19 1     
   39   18   45 1     
   40   19   20 1     
   41   20   27 1     
   42   20   21 1     
   43   20   46 1     
   44   21   22 1     
   45   21   47 1     
   46   21   48 1     
   47   22   23 1     
   48   22   25 1     
   49   22   27 1     
   50   23   24 1     
   51   23   49 1     
   52   23   50 1     
   53   24   51 1     
   54   25   26 1     
   55   25   52 1     
   56   25   53 1     
   57   26   54 1     
   58   27   55 1     
   59   27   56 1     
   60    5   57 1     
   61    5   58 1     
   62   10   59 1     
   63   12   60 1     
   64   14   61 1     
   65   17   62 1     
   66   24   63 1     
   67   24   64 1     
   68   26   65 1     
   69   26   66 1     
@<TRIPOS>SUBSTRUCTURE
      1 S1             1
@<TRIPOS>SET
LONE_PAIRS      STATIC     ATOMS    <user>   **** ""
10 57 58 59 60 61 62 63 64 65 66
DONOR_HYDROGENS      STATIC     ATOMS    <user>   **** ""
2 51 54
ATOM$BLUE        STATIC     ATOMS    COLORGROUP SYSTEM
10 57 58 59 60 61 62 63 64 65 66
ATOM$RED        STATIC     ATOMS    COLORGROUP SYSTEM
2 51 54
