AV-unprocessed.smi:3025|AV-procd|sdf|11511|dock3
  -GOLD-   2272016443D 1   1.00000     0.00000
 Structure written by MMmdl.
 41 42  0  0  0  0  0  0  0  0  3 V2000
  153.5084  142.8745  163.4778 C   0  0  0  0  0  0  0  0  0  0  0  0
  153.0514  142.7879  162.0173 C   0  0  0  0  0  0  0  0  0  0  0  0
  152.3075  144.0536  161.5581 C   0  0  0  0  0  0  0  0  0  0  0  0
  151.5919  143.9085  160.1991 C   0  0  2  0  0  0  0  0  0  0  0  0
  151.2639  142.4399  159.8540 C   0  0  0  0  0  0  0  0  0  0  0  0
  150.5760  142.3113  158.4851 C   0  0  0  0  0  0  0  0  0  0  0  0
  151.4230  142.9427  157.3614 C   0  0  1  0  0  0  0  0  0  0  0  0
  150.7346  142.8707  156.0534 N   0  3  0  0  0  0  0  0  0  0  0  0
  150.0300  141.6014  155.7815 C   0  0  0  0  0  0  0  0  0  0  0  0
  151.0255  140.4515  155.5965 C   0  0  0  0  0  0  0  0  0  0  0  0
  151.5033  139.9106  156.9243 C   0  0  0  0  0  0  0  0  0  0  0  0
  152.7810  139.9038  157.3539 N   0  5  0  0  0  0  0  0  0  0  0  0
  152.8461  139.4001  158.5710 N   0  0  0  0  0  0  0  0  0  0  0  0
  151.5751  139.1119  158.8751 C   0  0  0  0  0  0  0  0  0  0  0  0
  150.7275  139.4217  157.8877 N   0  0  0  0  0  0  0  0  0  0  0  0
  151.7409  144.4091  157.7037 C   0  0  0  0  0  0  0  0  0  0  0  0
  152.4349  144.5333  159.0693 C   0  0  0  0  0  0  0  0  0  0  0  0
  154.0268  141.9632  163.7769 H   0  0  0  0  0  0  0  0  0  0  0  0
  152.6598  143.0096  164.1493 H   0  0  0  0  0  0  0  0  0  0  0  0
  154.1923  143.7105  163.6277 H   0  0  0  0  0  0  0  0  0  0  0  0
  153.9243  142.6140  161.3887 H   0  0  0  0  0  0  0  0  0  0  0  0
  152.4044  141.9182  161.8971 H   0  0  0  0  0  0  0  0  0  0  0  0
  151.5674  144.3066  162.3186 H   0  0  0  0  0  0  0  0  0  0  0  0
  153.0005  144.8952  161.5222 H   0  0  0  0  0  0  0  0  0  0  0  0
  150.6537  144.4631  160.2545 H   0  0  0  0  0  0  0  0  0  0  0  0
  152.1797  141.8470  159.8568 H   0  0  0  0  0  0  0  0  0  0  0  0
  150.6142  142.0054  160.6133 H   0  0  0  0  0  0  0  0  0  0  0  0
  150.3932  141.2562  158.2823 H   0  0  0  0  0  0  0  0  0  0  0  0
  149.5972  142.7918  158.5250 H   0  0  0  0  0  0  0  0  0  0  0  0
  152.3680  142.4032  157.2795 H   0  0  0  0  0  0  0  0  0  0  0  0
  150.0785  143.6353  155.9843 H   0  0  0  0  0  0  0  0  0  0  0  0
  149.3565  141.3770  156.6097 H   0  0  0  0  0  0  0  0  0  0  0  0
  149.4184  141.6993  154.8845 H   0  0  0  0  0  0  0  0  0  0  0  0
  150.5665  139.6392  155.0317 H   0  0  0  0  0  0  0  0  0  0  0  0
  151.8913  140.7864  155.0239 H   0  0  0  0  0  0  0  0  0  0  0  0
  151.2670  138.6795  159.8191 H   0  0  0  0  0  0  0  0  0  0  0  0
  152.3778  144.8432  156.9319 H   0  0  0  0  0  0  0  0  0  0  0  0
  150.8218  144.9969  157.7113 H   0  0  0  0  0  0  0  0  0  0  0  0
  152.6235  145.5861  159.2832 H   0  0  0  0  0  0  0  0  0  0  0  0
  153.4116  144.0491  159.0266 H   0  0  0  0  0  0  0  0  0  0  0  0
  151.4333  142.9820  155.3327 H   0  0  0  0  0  0  0  0  0  0  0  0
  1  2  1  0  0  0  0
  1 18  1  0  0  0  0
  1 19  1  0  0  0  0
  1 20  1  0  0  0  0
  2  3  1  0  0  0  0
  2 21  1  0  0  0  0
  2 22  1  0  0  0  0
  3  4  1  0  0  0  0
  3 23  1  0  0  0  0
  3 24  1  0  0  0  0
  4 17  1  0  0  0  0
  4  5  1  0  0  0  0
  4 25  1  0  0  0  0
  5  6  1  0  0  0  0
  5 26  1  0  0  0  0
  5 27  1  0  0  0  0
  6  7  1  0  0  0  0
  6 28  1  0  0  0  0
  6 29  1  0  0  0  0
  7  8  1  0  0  0  0
  7 16  1  0  0  0  0
  7 30  1  0  0  0  0
  8  9  1  0  0  0  0
  8 31  1  0  0  0  0
  8 41  1  0  0  0  0
  9 10  1  0  0  0  0
  9 32  1  0  0  0  0
  9 33  1  0  0  0  0
 10 34  1  0  0  0  0
 10 35  1  0  0  0  0
 10 11  1  0  0  0  0
 11 15  2  0  0  0  0
 11 12  1  0  0  0  0
 12 13  1  0  0  0  0
 13 14  2  0  0  0  0
 14 15  1  0  0  0  0
 14 36  1  0  0  0  0
 16 17  1  0  0  0  0
 16 37  1  0  0  0  0
 16 38  1  0  0  0  0
 17 39  1  0  0  0  0
 17 40  1  0  0  0  0
M  CHG  1   8   1
M  CHG  1  12  -1
M  END
> <s_m_source_file>
AV-unprocessed.smi

> <i_m_source_file_index>
3025

> <i_lp_mmshare_version>
43012

> <i_f3d_flags>
0

> <s_epik_input>
W0NIM11bQ0gyXVtDSDJdW0NAQEhdMVtDSDJdW0NIMl1bQ0BIXShbQ0gyXVtDSDJdMSlbTkhdW0NIMl1bQ0gyXWMybm5bY0hdW25IXTI=

> <s_epik_cmdline>
J2VwaWtfcHl0aG9uJywgJy1waCcsICc3LjAnLCAnLXRuJywgJzgnLCAnLW1hJywgJzIwMCcsICctbWV0YWxfYmluZGluZycsICctaW1hZScsICc8aW5maWxlLm1hZT4nLCAnLW9tYWUnLCAnPG91dGZpbGUubWFlPic=

> <r_lp_tautomer_probability>
0.948284

> <r_epik_Ionization_Penalty>
6.65342

> <r_epik_Ionization_Penalty_Charging>
6.65342

> <r_epik_Ionization_Penalty_Neutral>
1.40767e-13

> <r_epik_State_Penalty>
2.88894

> <r_epik_Charging_Adjusted_Penalty>
9.54236

> <i_epik_Tot_Q>
0

> <i_epik_Tot_abs_Q>
2

> <r_epik_Metal_State_Penalty>
0.664188

> <b_epik_Metal_Only>
1

> <s_lp_Force_Field>
OPLS_2005

> <r_lp_Energy>
6.5819

> <b_lp_Chiralities_Consistent>
1

> <s_lp_Variant>
AV-unprocessed.smi:3025-7

> <Gold.Version>
5.8.1

> <Gold.Id.Protein>
6NUR|6NUR_protein|mol2

> <Gold.PLP.Fitness>
48.5148

> <Gold.PLP.PLP>
-38.1159

> <Gold.PLP.part.hbond>
-2.0000

> <Gold.PLP.part.metal>
0.0000

> <Gold.PLP.part.buried>
-0.9814

> <Gold.PLP.part.nonpolar>
-33.4187

> <Gold.PLP.part.repulsive>
0.1328

> <Gold.PLP.ligand.clash>
0.0000

> <Gold.PLP.ligand.torsion>
0.8376

> <Gold.PLP.Chemscore.Hbond>
4.0000

> <Gold.PLP.Chemscore.CHOScore>
0.0000

> <Gold.PLP.Chemscore.Metal>
0.0000

> <Gold.Chemscore.Hbonds>
donor molecule, donor type, donor heavy atom, donor atom, acceptor molecule, acceptor atom, score
      L1  H     8    31       P1  8028  2.00
      P1  H  7997  8008       L1    12  2.00

> <Gold.PLP.Chemscore.Internal.Correction>
0.0741

> <Gold.Rescore>
     Score         DG    S(hbond)    S(metal)    S(lipo)     H(rot)  DE(clash)    DE(int)     intcor
     17.00     -19.37       1.97        0.00     117.18       2.50       1.37       1.01       ----

> <Gold.Chemscore.Fitness>
16.9989

> <Gold.Chemscore.DG>
-19.3747

> <Gold.Chemscore.ZeroCoef>
-5.4800

> <Gold.Chemscore.Hbond>
1.9728

> <Gold.Chemscore.Metal>
0.0000

> <Gold.Chemscore.Lipo>
117.1819

> <Gold.Chemscore.Internal_Hbond>
0.0000

> <Gold.Chemscore.DEClash>
1.3651

> <Gold.Chemscore.DEInternal>
1.0107

> <Gold.Chemscore.Rot>
2.5019

> <Gold.Chemscore.Internal.Correction>
   9.000000E+99

> <Gold.Chemscore.Hbonds>
donor molecule, donor type, donor heavy atom, donor atom, acceptor molecule, acceptor atom, score
      L1  H     8    31       P1  8028  1.00
      P1  H  7997  8008       L1    12  0.60

> <Gold.Chemscore.Hbond.Weighted>
-6.5893

> <Gold.Chemscore.Metal.Weighted>
-0.0000

> <Gold.Chemscore.Lipo.Weighted>
-13.7103

> <Gold.Chemscore.Internal_Hbond.Weighted>
0.0000

> <Gold.Chemscore.DEClash.Weighted>
1.3651

> <Gold.Chemscore.DEInternal.Weighted>
1.0107

> <Gold.Chemscore.Rot.Weighted>
6.4049

> <Gold.Chemscore.Internal.Correction.Weighted>
   9.000000E+99

> <Gold.Protein.RotatedTorsions>
[ 6907 6896 6895 6894 ] final -142.84 input  -60.11 | X-H torsion
[ 7974 7965 7964 7962 ] final  -61.04 input  175.53 | X-H torsion
[ 8008 7997 7996 7995 ] final  -68.98 input   59.86 | X-H torsion
[ 10167 10162 10161 10158 ] final  -17.23 input  -65.29 | X-H torsion
[ 10718 10713 10712 10709 ] final   84.29 input   66.30 | X-H torsion
[ 10763 10752 10751 10750 ] final  178.19 input  -60.55 | X-H torsion
[ 11005 11000 10999 10996 ] final  107.28 input  -57.11 | X-H torsion

> <Gold.Protein.ActiveResidues>
 VAL166  LYS551  ARG553  GLY616  TRP617  ASP618  TYR619  PRO620  LYS621  CYS622 
 ASP623  PHE694  ASN695  SER759  ASP760  ASP761  ALA762  ILE779  LEU786  VAL792 
 PHE793  MET794  SER795  GLU796  ALA797  LYS798  CYS799  TRP800  GLU811  SER814 

> <Gold.Protein.RotatedAtoms>
  151.0924  133.5306  159.2614 H   0  0  0  0  0  0  0  0  0  0  0  0  # atno 6907 bound_to 6896
  151.2168  135.0502  159.8943 H   0  0  0  0  0  0  0  0  0  0  0  0  # atno 6908 bound_to 6896
  152.5435  134.0732  159.8256 H   0  0  0  0  0  0  0  0  0  0  0  0  # atno 6909 bound_to 6896
  145.8083  140.8614  143.0195 H   0  0  0  0  0  0  0  0  0  0  0  0  # atno 7974 bound_to 7965
  154.4906  140.0862  156.7585 H   0  0  0  0  0  0  0  0  0  0  0  0  # atno 8008 bound_to 7997
  155.4241  140.3447  155.4256 H   0  0  0  0  0  0  0  0  0  0  0  0  # atno 8009 bound_to 7997
  156.1324  140.1505  156.9034 H   0  0  0  0  0  0  0  0  0  0  0  0  # atno 8010 bound_to 7997
  140.7244  143.5036  150.9837 H   0  0  0  0  0  0  0  0  0  0  0  0  # atno 10167 bound_to 10162
  157.6895  131.0127  150.2651 H   0  0  0  0  0  0  0  0  0  0  0  0  # atno 10718 bound_to 10713
  154.5045  135.2785  155.1394 H   0  0  0  0  0  0  0  0  0  0  0  0  # atno 10763 bound_to 10752
  154.3014  135.6247  153.5430 H   0  0  0  0  0  0  0  0  0  0  0  0  # atno 10764 bound_to 10752
  152.9908  135.5698  154.5495 H   0  0  0  0  0  0  0  0  0  0  0  0  # atno 10765 bound_to 10752
  139.8826  134.9396  156.5796 H   0  0  0  0  0  0  0  0  0  0  0  0  # atno 11005 bound_to 11000
  144.6760  140.0358  143.7482 LP  0  0  0  0  0  0  0  0  0  0  0  0  # atno 17320 bound_to 7965
  145.9805  139.2937  143.1045 LP  0  0  0  0  0  0  0  0  0  0  0  0  # atno 17321 bound_to 7965
  139.8747  143.7148  152.3163 LP  0  0  0  0  0  0  0  0  0  0  0  0  # atno 17342 bound_to 10162
  139.7409  144.7559  151.0654 LP  0  0  0  0  0  0  0  0  0  0  0  0  # atno 17343 bound_to 10162
  156.3224  130.3788  149.7563 LP  0  0  0  0  0  0  0  0  0  0  0  0  # atno 17370 bound_to 10713
  156.5129  130.8180  151.3175 LP  0  0  0  0  0  0  0  0  0  0  0  0  # atno 17371 bound_to 10713
  140.8037  133.8485  155.8749 LP  0  0  0  0  0  0  0  0  0  0  0  0  # atno 17394 bound_to 11000
  140.9569  134.1706  157.4684 LP  0  0  0  0  0  0  0  0  0  0  0  0  # atno 17395 bound_to 11000

$$$$
