AV-unprocessed.smi:2146|AV-procd|sdf|8741|dock10
  -GOLD-   2272011513D 1   1.00000     0.00000
 Structure written by MMmdl.
 45 46  0  0  0  0  0  0  0  0  2 V2000
  146.4704  142.7009  153.7499 C   0  0  0  0  0  0  0  0  0  0  0  0
  146.1991  141.7768  154.9600 C   0  0  1  0  0  0  0  0  0  0  0  0
  146.9163  142.3251  156.2280 C   0  0  0  0  0  0  0  0  0  0  0  0
  148.3729  142.3030  156.1208 N   0  0  0  0  0  0  0  0  0  0  0  0
  149.1234  141.1928  156.0548 C   0  0  0  0  0  0  0  0  0  0  0  0
  148.6466  140.0579  156.0990 O   0  0  0  0  0  0  0  0  0  0  0  0
  150.6373  141.4117  155.9229 C   0  0  0  0  0  0  0  0  0  0  0  0
  151.3070  141.6296  157.2158 N   0  0  0  0  0  0  0  0  0  0  0  0
  151.0044  142.8280  157.8911 C   0  0  0  0  0  0  0  0  0  0  0  0
  151.5377  143.1532  159.0839 C   0  0  0  0  0  0  0  0  0  0  0  0
  151.2341  144.4844  159.7532 C   0  0  0  0  0  0  0  0  0  0  0  0
  151.5558  145.5084  158.9626 F   0  0  0  0  0  0  0  0  0  0  0  0
  149.9391  144.5804  160.0572 F   0  0  0  0  0  0  0  0  0  0  0  0
  151.9327  144.5938  160.8823 F   0  0  0  0  0  0  0  0  0  0  0  0
  152.4807  142.2072  159.6479 C   0  0  0  0  0  0  0  0  0  0  0  0
  152.7941  141.0639  159.0072 C   0  0  0  0  0  0  0  0  0  0  0  0
  152.1979  140.7206  157.7140 C   0  0  0  0  0  0  0  0  0  0  0  0
  152.4830  139.6830  157.1157 O   0  0  0  0  0  0  0  0  0  0  0  0
  144.7232  141.5759  155.1416 N   0  3  0  0  0  0  0  0  0  0  0  0
  144.4083  140.5227  156.1467 C   0  0  0  0  0  0  0  0  0  0  0  0
  142.8929  140.2887  156.2542 C   0  0  0  0  0  0  0  0  0  0  0  0
  142.2501  141.5058  156.5997 O   0  0  0  0  0  0  0  0  0  0  0  0
  142.4435  142.4950  155.6004 C   0  0  0  0  0  0  0  0  0  0  0  0
  143.9431  142.8063  155.4515 C   0  0  0  0  0  0  0  0  0  0  0  0
  147.5369  142.8518  153.5839 H   0  0  0  0  0  0  0  0  0  0  0  0
  146.0200  143.6826  153.8975 H   0  0  0  0  0  0  0  0  0  0  0  0
  146.0840  142.2955  152.8167 H   0  0  0  0  0  0  0  0  0  0  0  0
  146.6308  140.7982  154.7434 H   0  0  0  0  0  0  0  0  0  0  0  0
  146.6099  143.3548  156.4160 H   0  0  0  0  0  0  0  0  0  0  0  0
  146.6543  141.7502  157.1170 H   0  0  0  0  0  0  0  0  0  0  0  0
  148.8431  143.1964  156.0867 H   0  0  0  0  0  0  0  0  0  0  0  0
  151.0802  140.5475  155.4244 H   0  0  0  0  0  0  0  0  0  0  0  0
  150.8094  142.2484  155.2441 H   0  0  0  0  0  0  0  0  0  0  0  0
  150.3148  143.4752  157.3682 H   0  0  0  0  0  0  0  0  0  0  0  0
  152.9426  142.4154  160.6018 H   0  0  0  0  0  0  0  0  0  0  0  0
  153.5004  140.3817  159.4572 H   0  0  0  0  0  0  0  0  0  0  0  0
  144.8800  139.5768  155.8880 H   0  0  0  0  0  0  0  0  0  0  0  0
  144.8041  140.8176  157.1199 H   0  0  0  0  0  0  0  0  0  0  0  0
  142.4893  139.8966  155.3191 H   0  0  0  0  0  0  0  0  0  0  0  0
  142.6820  139.5492  157.0268 H   0  0  0  0  0  0  0  0  0  0  0  0
  142.0194  142.1595  154.6524 H   0  0  0  0  0  0  0  0  0  0  0  0
  141.9011  143.3959  155.8882 H   0  0  0  0  0  0  0  0  0  0  0  0
  144.3251  143.2619  156.3667 H   0  0  0  0  0  0  0  0  0  0  0  0
  144.0406  143.5399  154.6522 H   0  0  0  0  0  0  0  0  0  0  0  0
  144.3723  141.2466  154.2536 H   0  0  0  0  0  0  0  0  0  0  0  0
  1  2  1  0  0  0  0
  1 25  1  0  0  0  0
  1 26  1  0  0  0  0
  1 27  1  0  0  0  0
  2  3  1  0  0  0  0
  2 19  1  0  0  0  0
  2 28  1  0  0  0  0
  3  4  1  0  0  0  0
  3 29  1  0  0  0  0
  3 30  1  0  0  0  0
  4  5  1  0  0  0  0
  4 31  1  0  0  0  0
  5  6  2  0  0  0  0
  5  7  1  0  0  0  0
  7  8  1  0  0  0  0
  7 32  1  0  0  0  0
  7 33  1  0  0  0  0
  8 17  1  0  0  0  0
  8  9  1  0  0  0  0
  9 10  2  0  0  0  0
  9 34  1  0  0  0  0
 10 11  1  0  0  0  0
 10 15  1  0  0  0  0
 11 12  1  0  0  0  0
 11 13  1  0  0  0  0
 11 14  1  0  0  0  0
 15 16  2  0  0  0  0
 15 35  1  0  0  0  0
 16 17  1  0  0  0  0
 16 36  1  0  0  0  0
 17 18  2  0  0  0  0
 19 24  1  0  0  0  0
 19 20  1  0  0  0  0
 19 45  1  0  0  0  0
 20 21  1  0  0  0  0
 20 37  1  0  0  0  0
 20 38  1  0  0  0  0
 21 22  1  0  0  0  0
 21 39  1  0  0  0  0
 21 40  1  0  0  0  0
 22 23  1  0  0  0  0
 23 24  1  0  0  0  0
 23 41  1  0  0  0  0
 23 42  1  0  0  0  0
 24 43  1  0  0  0  0
 24 44  1  0  0  0  0
M  CHG  1  19   1
M  END
> <s_m_source_file>
AV-unprocessed.smi

> <i_m_source_file_index>
2146

> <i_lp_mmshare_version>
43012

> <i_f3d_flags>
0

> <s_epik_input>
W0NIMl0xW0NIMl1PW0NIMl1bQ0gyXU4xW0NASF0oW0NIM10pW0NIMl1bTkhdQyg9TylbQ0gyXW4yW2NIXWMoQyhGKShGKUYpW2NIXVtjSF1jMj1P

> <s_epik_cmdline>
J2VwaWtfcHl0aG9uJywgJy1waCcsICc3LjAnLCAnLXRuJywgJzgnLCAnLW1hJywgJzIwMCcsICctbWV0YWxfYmluZGluZycsICctaW1hZScsICc8aW5maWxlLm1hZT4nLCAnLW9tYWUnLCAnPG91dGZpbGUubWFlPic=

> <r_lp_tautomer_probability>
1

> <r_epik_Ionization_Penalty>
0.656654

> <r_epik_Ionization_Penalty_Charging>
0.656653

> <r_epik_Ionization_Penalty_Neutral>
9.12373e-08

> <r_epik_State_Penalty>
0.675641

> <r_epik_Charging_Adjusted_Penalty>
1.33229

> <i_epik_Tot_Q>
1

> <i_epik_Tot_abs_Q>
1

> <r_epik_Metal_State_Penalty>
0.675692

> <b_epik_Metal_Only>
0

> <s_lp_Force_Field>
OPLS_2005

> <r_lp_Energy>
32.7302

> <b_lp_Chiralities_Consistent>
1

> <s_lp_Variant>
AV-unprocessed.smi:2146-4

> <Gold.Version>
5.8.1

> <Gold.Id.Protein>
6NUR|6NUR_protein|mol2

> <Gold.PLP.Fitness>
55.2030

> <Gold.PLP.PLP>
-41.3503

> <Gold.PLP.part.hbond>
-2.9788

> <Gold.PLP.part.metal>
0.0000

> <Gold.PLP.part.buried>
-5.0190

> <Gold.PLP.part.nonpolar>
-32.8371

> <Gold.PLP.part.repulsive>
0.1087

> <Gold.PLP.ligand.clash>
0.2814

> <Gold.PLP.ligand.torsion>
0.4962

> <Gold.PLP.Chemscore.Hbond>
4.0000

> <Gold.PLP.Chemscore.CHOScore>
1.0000

> <Gold.PLP.Chemscore.Metal>
0.0000

> <Gold.Chemscore.Hbonds>
donor molecule, donor type, donor heavy atom, donor atom, acceptor molecule, acceptor atom, score
      L1  H     4    31       P1  8028  1.00
      L1  H    19    45       P1 10175  2.00
      P1  H  7997  8010       L1    18  0.95
      L1  C     9    34       P1  8028  0.98

> <Gold.PLP.Chemscore.Internal.Correction>
0.1265

> <Gold.Rescore>
     Score         DG    S(hbond)    S(metal)    S(lipo)     H(rot)  DE(clash)    DE(int)     intcor
     16.97     -17.85       2.70        0.00      76.24       2.18       0.39       0.49       ----

> <Gold.Chemscore.Fitness>
16.9708

> <Gold.Chemscore.DG>
-17.8469

> <Gold.Chemscore.ZeroCoef>
-5.4800

> <Gold.Chemscore.Hbond>
2.7034

> <Gold.Chemscore.Metal>
0.0000

> <Gold.Chemscore.Lipo>
76.2375

> <Gold.Chemscore.Internal_Hbond>
0.0000

> <Gold.Chemscore.DEClash>
0.3902

> <Gold.Chemscore.DEInternal>
0.4859

> <Gold.Chemscore.Rot>
2.1805

> <Gold.Chemscore.Internal.Correction>
   9.000000E+99

> <Gold.Chemscore.Hbonds>
donor molecule, donor type, donor heavy atom, donor atom, acceptor molecule, acceptor atom, score
      L1  H     4    31       P1  8028  0.92
      L1  H    19    45       P1 10175  0.61
      P1  H  7997  8010       L1    18  0.21

> <Gold.Chemscore.Hbond.Weighted>
-9.0294

> <Gold.Chemscore.Metal.Weighted>
-0.0000

> <Gold.Chemscore.Lipo.Weighted>
-8.9198

> <Gold.Chemscore.Internal_Hbond.Weighted>
0.0000

> <Gold.Chemscore.DEClash.Weighted>
0.3902

> <Gold.Chemscore.DEInternal.Weighted>
0.4859

> <Gold.Chemscore.Rot.Weighted>
5.5822

> <Gold.Chemscore.Internal.Correction.Weighted>
   9.000000E+99

> <Gold.Protein.RotatedTorsions>
[ 6907 6896 6895 6894 ] final -129.23 input  -60.11 | X-H torsion
[ 7974 7965 7964 7962 ] final  124.58 input  175.53 | X-H torsion
[ 8008 7997 7996 7995 ] final   56.32 input   59.86 | X-H torsion
[ 10167 10162 10161 10158 ] final   24.11 input  -65.29 | X-H torsion
[ 10718 10713 10712 10709 ] final  153.99 input   66.30 | X-H torsion
[ 10763 10752 10751 10750 ] final  134.09 input  -60.55 | X-H torsion
[ 11005 11000 10999 10996 ] final  122.61 input  -57.11 | X-H torsion

> <Gold.Protein.ActiveResidues>
 VAL166  LYS551  ARG553  GLY616  TRP617  ASP618  TYR619  PRO620  LYS621  CYS622 
 ASP623  PHE694  ASN695  SER759  ASP760  ASP761  ALA762  ILE779  LEU786  VAL792 
 PHE793  MET794  SER795  GLU796  ALA797  LYS798  CYS799  TRP800  GLU811  SER814 

> <Gold.Protein.RotatedAtoms>
  150.9264  133.6819  159.2820 H   0  0  0  0  0  0  0  0  0  0  0  0  # atno 6907 bound_to 6896
  151.4255  135.1002  159.9636 H   0  0  0  0  0  0  0  0  0  0  0  0  # atno 6908 bound_to 6896
  152.5005  133.8706  159.7351 H   0  0  0  0  0  0  0  0  0  0  0  0  # atno 6909 bound_to 6896
  145.0828  139.3644  143.4900 H   0  0  0  0  0  0  0  0  0  0  0  0  # atno 7974 bound_to 7965
  155.5155  140.3478  155.4396 H   0  0  0  0  0  0  0  0  0  0  0  0  # atno 8008 bound_to 7997
  156.0820  140.1389  156.9727 H   0  0  0  0  0  0  0  0  0  0  0  0  # atno 8009 bound_to 7997
  154.4585  140.0944  156.6803 H   0  0  0  0  0  0  0  0  0  0  0  0  # atno 8010 bound_to 7997
  140.5215  143.9995  150.6419 H   0  0  0  0  0  0  0  0  0  0  0  0  # atno 10167 bound_to 10162
  157.2375  131.0752  151.1814 H   0  0  0  0  0  0  0  0  0  0  0  0  # atno 10718 bound_to 10713
  153.8179  135.3120  155.3407 H   0  0  0  0  0  0  0  0  0  0  0  0  # atno 10763 bound_to 10752
  154.8025  135.4718  154.0313 H   0  0  0  0  0  0  0  0  0  0  0  0  # atno 10764 bound_to 10752
  153.1712  135.6878  153.8694 H   0  0  0  0  0  0  0  0  0  0  0  0  # atno 10765 bound_to 10752
  139.9276  134.9641  156.8135 H   0  0  0  0  0  0  0  0  0  0  0  0  # atno 11005 bound_to 11000
  146.3531  140.0626  142.8628 LP  0  0  0  0  0  0  0  0  0  0  0  0  # atno 17320 bound_to 7965
  145.1158  140.9433  143.4629 LP  0  0  0  0  0  0  0  0  0  0  0  0  # atno 17321 bound_to 7965
  140.3345  143.3057  152.0653 LP  0  0  0  0  0  0  0  0  0  0  0  0  # atno 17342 bound_to 10162
  139.4925  144.6486  151.6725 LP  0  0  0  0  0  0  0  0  0  0  0  0  # atno 17343 bound_to 10162
  157.3414  130.7035  149.6384 LP  0  0  0  0  0  0  0  0  0  0  0  0  # atno 17370 bound_to 10713
  155.9672  130.4279  150.4763 LP  0  0  0  0  0  0  0  0  0  0  0  0  # atno 17371 bound_to 10713
  140.6293  133.9921  155.7654 LP  0  0  0  0  0  0  0  0  0  0  0  0  # atno 17394 bound_to 11000
  141.0844  134.0013  157.3337 LP  0  0  0  0  0  0  0  0  0  0  0  0  # atno 17395 bound_to 11000

$$$$
