#       Name:                AV-unprocessed.smi:521
#       Creating user name   scv26
#       Creation time:       Thu Mar 26 23:27:18 2020


#       File generated by GOLD software.
#

@<TRIPOS>MOLECULE
AV-unprocessed.smi:521
    47    49     1
SMALL
NO_CHARGES


@<TRIPOS>ATOM
      1 ****        -3.7877   0.6764  -0.7224 C.3            1 S1                 0.0000
      2 ****        -2.3723   0.7172  -0.8197 O.3            1 S1                 0.0000
      3 ****        -1.7541   1.9487  -0.8940 C.ar           1 S1                 0.0000
      4 ****        -2.4537   3.1819  -0.9031 C.ar           1 S1                 0.0000
      5 ****        -1.7526   4.3992  -0.9801 C.ar           1 S1                 0.0000
      6 ****        -0.3489   4.3989  -1.0474 C.ar           1 S1                 0.0000
      7 ****         0.3553   3.1813  -1.0391 C.ar           1 S1                 0.0000
      8 ****        -0.3421   1.9497  -0.9635 C.ar           1 S1                 0.0000
      9 ****         0.2772   0.7190  -0.9536 O.3            1 S1                 0.0000
     10 ****         1.6962   0.6621  -0.9797 C.3            1 S1                 0.0000
     11 ****         2.1324  -0.8088  -0.9227 C.3            1 S1                 0.0000
     12 ****         1.6518  -1.4754   0.2799 N.pl3          1 S1                 0.0000
     13 ****         2.2887  -1.6219   1.4688 C.2            1 S1                 0.0000
     14 ****         3.6655  -1.0830   1.7086 C.3            1 S1                 0.0000
     15 ****         4.6741  -1.9008   1.1556 O.3            1 S1                 0.0000
     16 ****         1.6123  -2.2766   2.4134 N.2            1 S1                 0.0000
     17 ****         0.4223  -2.5787   1.7805 C.ar           1 S1                 0.0000
     18 ****        -0.7214  -3.2616   2.2529 C.ar           1 S1                 0.0000
     19 ****        -1.8395  -3.4474   1.4136 C.ar           1 S1                 0.0000
     20 ****        -1.8296  -2.9560   0.0922 C.ar           1 S1                 0.0000
     21 ****        -0.6981  -2.2780  -0.3999 C.ar           1 S1                 0.0000
     22 ****         0.4146  -2.0921   0.4426 C.ar           1 S1                 0.0000
     23 ****        -4.1116  -0.3623  -0.6584 H              1 S1                 0.0000
     24 ****        -4.2607   1.1166  -1.6011 H              1 S1                 0.0000
     25 ****        -4.1409   1.1877   0.1740 H              1 S1                 0.0000
     26 ****        -3.5310   3.2208  -0.8525 H              1 S1                 0.0000
     27 ****        -2.2931   5.3343  -0.9877 H              1 S1                 0.0000
     28 ****         0.1894   5.3334  -1.1064 H              1 S1                 0.0000
     29 ****         1.4325   3.2182  -1.0934 H              1 S1                 0.0000
     30 ****         2.0750   1.1198  -1.8945 H              1 S1                 0.0000
     31 ****         2.1139   1.2045  -0.1302 H              1 S1                 0.0000
     32 ****         1.7481  -1.3447  -1.7912 H              1 S1                 0.0000
     33 ****         3.2182  -0.8857  -0.9746 H              1 S1                 0.0000
     34 ****         3.7463  -0.0771   1.2967 H              1 S1                 0.0000
     35 ****         3.8368  -0.9968   2.7822 H              1 S1                 0.0000
     36 ****         5.5143  -1.5196   1.3586 H              1 S1                 0.0000
     37 ****        -0.7393  -3.6409   3.2640 H              1 S1                 0.0000
     38 ****        -2.7095  -3.9682   1.7859 H              1 S1                 0.0000
     39 ****        -2.6911  -3.0991  -0.5435 H              1 S1                 0.0000
     40 ****        -0.6891  -1.8969  -1.4104 H              1 S1                 0.0000
     41 ****        -2.1178   0.2088  -1.6423 LP             1 S1                 0.0000
     42 ****        -2.0071   0.2514  -0.0137 LP             1 S1                 0.0000
     43 ****        -0.0509   0.2194  -1.7553 LP             1 S1                 0.0000
     44 ****        -0.0197   0.2482  -0.1229 LP             1 S1                 0.0000
     45 ****         4.5589  -1.9542   0.1637 LP             1 S1                 0.0000
     46 ****         4.6167  -2.8188   1.5478 LP             1 S1                 0.0000
     47 ****         1.8960  -2.4945   3.3472 LP             1 S1                 0.0000
@<TRIPOS>BOND
    1    1    2 1     
    2    1   23 1     
    3    1   24 1     
    4    1   25 1     
    5    2    3 1     
    6    3    8 ar    
    7    3    4 ar    
    8    4    5 ar    
    9    4   26 1     
   10    5    6 ar    
   11    5   27 1     
   12    6    7 ar    
   13    6   28 1     
   14    7    8 ar    
   15    7   29 1     
   16    8    9 1     
   17    9   10 1     
   18   10   11 1     
   19   10   30 1     
   20   10   31 1     
   21   11   12 1     
   22   11   32 1     
   23   11   33 1     
   24   12   22 1     
   25   12   13 1     
   26   13   14 1     
   27   13   16 2     
   28   14   15 1     
   29   14   34 1     
   30   14   35 1     
   31   15   36 1     
   32   16   17 1     
   33   17   22 ar    
   34   17   18 ar    
   35   18   19 ar    
   36   18   37 1     
   37   19   20 ar    
   38   19   38 1     
   39   20   21 ar    
   40   20   39 1     
   41   21   22 ar    
   42   21   40 1     
   43    2   41 1     
   44    2   42 1     
   45    9   43 1     
   46    9   44 1     
   47   15   45 1     
   48   15   46 1     
   49   16   47 1     
@<TRIPOS>SUBSTRUCTURE
      1 S1             1
@<TRIPOS>SET
LONE_PAIRS      STATIC     ATOMS    <user>   **** ""
7 41 42 43 44 45 46 47
DONOR_HYDROGENS      STATIC     ATOMS    <user>   **** ""
1 36
ATOM$BLUE        STATIC     ATOMS    COLORGROUP SYSTEM
7 41 42 43 44 45 46 47
ATOM$RED        STATIC     ATOMS    COLORGROUP SYSTEM
1 36
