AV-unprocessed.smi:2975|AV-procd|sdf|11356|dock4
  -GOLD-   2272016273D 1   1.00000     0.00000
 Structure written by MMmdl.
 39 41  0  0  0  0  0  0  0  0  1 V2000
  151.8929  138.1098  156.9280 C   0  0  0  0  0  0  0  0  0  0  0  0
  151.8281  138.0725  155.3945 C   0  0  1  0  0  0  0  0  0  0  0  0
  151.8699  136.7244  154.9755 O   0  0  0  0  0  0  0  0  0  0  0  0
  150.6126  138.7836  154.8664 C   0  0  0  0  0  0  0  0  0  0  0  0
  149.7379  138.1557  154.0765 N   0  0  0  0  0  0  0  0  0  0  0  0
  148.7906  139.1275  153.8294 C   0  0  0  0  0  0  0  0  0  0  0  0
  147.6016  139.0775  153.0673 C   0  0  0  0  0  0  0  0  0  0  0  0
  146.7763  140.2156  152.9572 C   0  0  0  0  0  0  0  0  0  0  0  0
  147.1278  141.4169  153.6060 C   0  0  0  0  0  0  0  0  0  0  0  0
  148.3094  141.4876  154.3688 C   0  0  0  0  0  0  0  0  0  0  0  0
  149.1302  140.3483  154.4758 C   0  0  0  0  0  0  0  0  0  0  0  0
  150.3321  140.0887  155.1290 N   0  0  0  0  0  0  0  0  0  0  0  0
  151.0860  141.0604  155.9113 C   0  0  0  0  0  0  0  0  0  0  0  0
  150.2156  141.7806  156.9507 C   0  0  0  0  0  0  0  0  0  0  0  0
  151.0019  142.7105  157.6834 O   0  0  0  0  0  0  0  0  0  0  0  0
  151.8962  142.2181  158.6108 C   0  0  0  0  0  0  0  0  0  0  0  0
  152.2031  140.8415  158.7636 C   0  0  0  0  0  0  0  0  0  0  0  0
  153.1362  140.4203  159.7309 C   0  0  0  0  0  0  0  0  0  0  0  0
  153.7713  141.3640  160.5583 C   0  0  0  0  0  0  0  0  0  0  0  0
  153.4719  142.7313  160.4167 C   0  0  0  0  0  0  0  0  0  0  0  0
  152.5399  143.1540  159.4492 C   0  0  0  0  0  0  0  0  0  0  0  0
  152.2557  144.4729  159.3331 F   0  0  0  0  0  0  0  0  0  0  0  0
  151.8748  139.1360  157.2949 H   0  0  0  0  0  0  0  0  0  0  0  0
  152.8074  137.6425  157.2946 H   0  0  0  0  0  0  0  0  0  0  0  0
  151.0489  137.5859  157.3780 H   0  0  0  0  0  0  0  0  0  0  0  0
  152.7330  138.5415  155.0154 H   0  0  0  0  0  0  0  0  0  0  0  0
  151.0637  136.5316  154.5215 H   0  0  0  0  0  0  0  0  0  0  0  0
  147.3240  138.1615  152.5674 H   0  0  0  0  0  0  0  0  0  0  0  0
  145.8694  140.1663  152.3725 H   0  0  0  0  0  0  0  0  0  0  0  0
  146.4901  142.2841  153.5173 H   0  0  0  0  0  0  0  0  0  0  0  0
  148.5803  142.4069  154.8663 H   0  0  0  0  0  0  0  0  0  0  0  0
  151.9477  140.5835  156.3766 H   0  0  0  0  0  0  0  0  0  0  0  0
  151.5008  141.7965  155.2223 H   0  0  0  0  0  0  0  0  0  0  0  0
  149.4089  142.3075  156.4388 H   0  0  0  0  0  0  0  0  0  0  0  0
  149.7651  141.0450  157.6191 H   0  0  0  0  0  0  0  0  0  0  0  0
  151.7394  140.0865  158.1477 H   0  0  0  0  0  0  0  0  0  0  0  0
  153.3656  139.3701  159.8370 H   0  0  0  0  0  0  0  0  0  0  0  0
  154.4865  141.0400  161.3000 H   0  0  0  0  0  0  0  0  0  0  0  0
  153.9565  143.4580  161.0520 H   0  0  0  0  0  0  0  0  0  0  0  0
  1  2  1  0  0  0  0
  1 23  1  0  0  0  0
  1 24  1  0  0  0  0
  1 25  1  0  0  0  0
  2  3  1  0  0  0  0
  2  4  1  0  0  0  0
  2 26  1  0  0  0  0
  3 27  1  0  0  0  0
  4 12  1  0  0  0  0
  4  5  2  0  0  0  0
  5  6  1  0  0  0  0
  6 11  2  0  0  0  0
  6  7  1  0  0  0  0
  7  8  2  0  0  0  0
  7 28  1  0  0  0  0
  8  9  1  0  0  0  0
  8 29  1  0  0  0  0
  9 10  2  0  0  0  0
  9 30  1  0  0  0  0
 10 11  1  0  0  0  0
 10 31  1  0  0  0  0
 11 12  1  0  0  0  0
 12 13  1  0  0  0  0
 13 14  1  0  0  0  0
 13 32  1  0  0  0  0
 13 33  1  0  0  0  0
 14 15  1  0  0  0  0
 14 34  1  0  0  0  0
 14 35  1  0  0  0  0
 15 16  1  0  0  0  0
 16 21  1  0  0  0  0
 16 17  2  0  0  0  0
 17 18  1  0  0  0  0
 17 36  1  0  0  0  0
 18 19  2  0  0  0  0
 18 37  1  0  0  0  0
 19 20  1  0  0  0  0
 19 38  1  0  0  0  0
 20 21  2  0  0  0  0
 20 39  1  0  0  0  0
 21 22  1  0  0  0  0
M  END
> <s_m_source_file>
AV-unprocessed.smi

> <i_m_source_file_index>
2975

> <i_lp_mmshare_version>
43012

> <i_f3d_flags>
0

> <s_epik_input>
W2NIXTFbY0hdW2NIXVtjSF1jKGMxMiluKGMobjIpW0NASF0oW0NIM10pW09IXSlbQ0gyXVtDSDJdT2MzW2NIXVtjSF1bY0hdW2NIXWMzRg==

> <s_epik_cmdline>
J2VwaWtfcHl0aG9uJywgJy1waCcsICc3LjAnLCAnLXRuJywgJzgnLCAnLW1hJywgJzIwMCcsICctbWV0YWxfYmluZGluZycsICctaW1hZScsICc8aW5maWxlLm1hZT4nLCAnLW9tYWUnLCAnPG91dGZpbGUubWFlPic=

> <r_lp_tautomer_probability>
1

> <r_epik_Ionization_Penalty>
0.0404035

> <r_epik_Ionization_Penalty_Charging>
0

> <r_epik_Ionization_Penalty_Neutral>
0.0404035

> <r_epik_State_Penalty>
0.0340039

> <r_epik_Charging_Adjusted_Penalty>
0.0340039

> <i_epik_Tot_Q>
0

> <i_epik_Tot_abs_Q>
0

> <r_epik_Metal_State_Penalty>
3.49976e-05

> <b_epik_Metal_Only>
0

> <s_lp_Force_Field>
OPLS_2005

> <r_lp_Energy>
14.7518

> <b_lp_Chiralities_Consistent>
1

> <s_lp_Variant>
AV-unprocessed.smi:2975-2

> <Gold.Version>
5.8.1

> <Gold.Id.Protein>
6NUR|6NUR_protein|mol2

> <Gold.PLP.Fitness>
49.9978

> <Gold.PLP.PLP>
-47.3306

> <Gold.PLP.part.hbond>
-1.0000

> <Gold.PLP.part.metal>
0.0000

> <Gold.PLP.part.buried>
-1.3055

> <Gold.PLP.part.nonpolar>
-45.4165

> <Gold.PLP.part.repulsive>
0.8167

> <Gold.PLP.ligand.clash>
0.0000

> <Gold.PLP.ligand.torsion>
0.2004

> <Gold.PLP.Chemscore.Hbond>
1.0000

> <Gold.PLP.Chemscore.CHOScore>
0.0000

> <Gold.PLP.Chemscore.Metal>
0.0000

> <Gold.Chemscore.Hbonds>
donor molecule, donor type, donor heavy atom, donor atom, acceptor molecule, acceptor atom, score
      P1  H 10752 10765       L1     3  1.00

> <Gold.PLP.Chemscore.Internal.Correction>
0.0679

> <Gold.Rescore>
     Score         DG    S(hbond)    S(metal)    S(lipo)     H(rot)  DE(clash)    DE(int)     intcor
     16.95     -17.62       0.96        0.00     124.74       2.21       0.53       0.14       ----

> <Gold.Chemscore.Fitness>
16.9500

> <Gold.Chemscore.DG>
-17.6210

> <Gold.Chemscore.ZeroCoef>
-5.4800

> <Gold.Chemscore.Hbond>
0.9564

> <Gold.Chemscore.Metal>
0.0000

> <Gold.Chemscore.Lipo>
124.7355

> <Gold.Chemscore.Internal_Hbond>
0.0000

> <Gold.Chemscore.DEClash>
0.5306

> <Gold.Chemscore.DEInternal>
0.1404

> <Gold.Chemscore.Rot>
2.2060

> <Gold.Chemscore.Internal.Correction>
   9.000000E+99

> <Gold.Chemscore.Hbonds>
donor molecule, donor type, donor heavy atom, donor atom, acceptor molecule, acceptor atom, score
      P1  H 10752 10765       L1     3  0.79

> <Gold.Chemscore.Hbond.Weighted>
-3.1943

> <Gold.Chemscore.Metal.Weighted>
-0.0000

> <Gold.Chemscore.Lipo.Weighted>
-14.5941

> <Gold.Chemscore.Internal_Hbond.Weighted>
0.0000

> <Gold.Chemscore.DEClash.Weighted>
0.5306

> <Gold.Chemscore.DEInternal.Weighted>
0.1404

> <Gold.Chemscore.Rot.Weighted>
5.6473

> <Gold.Chemscore.Internal.Correction.Weighted>
   9.000000E+99

> <Gold.Protein.RotatedTorsions>
[ 6907 6896 6895 6894 ] final -120.43 input  -60.11 | X-H torsion
[ 7974 7965 7964 7962 ] final   94.22 input  175.53 | X-H torsion
[ 8008 7997 7996 7995 ] final  -87.30 input   59.86 | X-H torsion
[ 10167 10162 10161 10158 ] final -177.45 input  -65.29 | X-H torsion
[ 10718 10713 10712 10709 ] final   72.96 input   66.30 | X-H torsion
[ 10763 10752 10751 10750 ] final -169.14 input  -60.55 | X-H torsion
[ 11005 11000 10999 10996 ] final -131.60 input  -57.11 | X-H torsion

> <Gold.Protein.ActiveResidues>
 VAL166  LYS551  ARG553  GLY616  TRP617  ASP618  TYR619  PRO620  LYS621  CYS622 
 ASP623  PHE694  ASN695  SER759  ASP760  ASP761  ALA762  ILE779  LEU786  VAL792 
 PHE793  MET794  SER795  GLU796  ALA797  LYS798  CYS799  TRP800  GLU811  SER814 

> <Gold.Protein.RotatedAtoms>
  150.8393  133.7963  159.3067 H   0  0  0  0  0  0  0  0  0  0  0  0  # atno 6907 bound_to 6896
  151.5669  135.1062  159.9995 H   0  0  0  0  0  0  0  0  0  0  0  0  # atno 6908 bound_to 6896
  152.4459  133.7494  159.6741 H   0  0  0  0  0  0  0  0  0  0  0  0  # atno 6909 bound_to 6896
  145.4684  139.2283  143.2948 H   0  0  0  0  0  0  0  0  0  0  0  0  # atno 7974 bound_to 7965
  154.6617  140.0567  157.0069 H   0  0  0  0  0  0  0  0  0  0  0  0  # atno 8008 bound_to 7997
  155.1219  140.3248  155.4476 H   0  0  0  0  0  0  0  0  0  0  0  0  # atno 8009 bound_to 7997
  156.2621  140.1996  156.6341 H   0  0  0  0  0  0  0  0  0  0  0  0  # atno 8010 bound_to 7997
  139.5479  144.2185  152.1023 H   0  0  0  0  0  0  0  0  0  0  0  0  # atno 10167 bound_to 10162
  157.6525  130.9605  150.1002 H   0  0  0  0  0  0  0  0  0  0  0  0  # atno 10718 bound_to 10713
  154.6555  135.2917  154.9933 H   0  0  0  0  0  0  0  0  0  0  0  0  # atno 10763 bound_to 10752
  154.1011  135.6576  153.4872 H   0  0  0  0  0  0  0  0  0  0  0  0  # atno 10764 bound_to 10752
  153.0400  135.5243  154.7482 H   0  0  0  0  0  0  0  0  0  0  0  0  # atno 10765 bound_to 10752
  140.9244  134.1402  157.4287 H   0  0  0  0  0  0  0  0  0  0  0  0  # atno 11005 bound_to 11000
  146.2411  140.5460  142.8934 LP  0  0  0  0  0  0  0  0  0  0  0  0  # atno 17320 bound_to 7965
  144.7960  140.6123  143.6510 LP  0  0  0  0  0  0  0  0  0  0  0  0  # atno 17321 bound_to 7965
  140.1675  144.4967  150.6598 LP  0  0  0  0  0  0  0  0  0  0  0  0  # atno 17342 bound_to 10162
  140.6734  143.2295  151.5569 LP  0  0  0  0  0  0  0  0  0  0  0  0  # atno 17343 bound_to 10162
  156.1926  130.3655  149.8890 LP  0  0  0  0  0  0  0  0  0  0  0  0  # atno 17370 bound_to 10713
  156.6814  130.8859  151.3576 LP  0  0  0  0  0  0  0  0  0  0  0  0  # atno 17371 bound_to 10713
  139.8782  134.9983  156.5892 LP  0  0  0  0  0  0  0  0  0  0  0  0  # atno 17394 bound_to 11000
  140.7945  133.8555  155.8674 LP  0  0  0  0  0  0  0  0  0  0  0  0  # atno 17395 bound_to 11000

$$$$
