AV-unprocessed.smi:72|AV-procd|sdf|727|dock4
  -GOLD-   2262017 53D 1   1.00000     0.00000
 Structure written by MMmdl.
 28 29  0  0  0  0  0  0  0  0  2 V2000
  150.3971  134.3463  155.6657 N   0  0  0  0  0  0  0  0  0  0  0  0
  150.3605  135.5690  155.3596 C   0  0  0  0  0  0  0  0  0  0  0  0
  149.1010  136.2806  155.3745 N   0  0  0  0  0  0  0  0  0  0  0  0
  149.1159  137.5426  155.0727 C   0  0  0  0  0  0  0  0  0  0  0  0
  150.3516  138.2388  154.7410 N   0  0  0  0  0  0  0  0  0  0  0  0
  150.3568  139.7084  154.3769 C   0  0  2  0  0  0  0  0  0  0  0  0
  151.0793  140.4252  155.3389 O   0  0  0  0  0  0  0  0  0  0  0  0
  150.2990  141.5190  155.8049 C   0  0  2  0  0  0  0  0  0  0  0  0
  150.7432  141.9535  157.2137 C   0  0  0  0  0  0  0  0  0  0  0  0
  149.9404  142.9941  157.7327 O   0  0  0  0  0  0  0  0  0  0  0  0
  148.8495  141.0596  155.6382 C   0  0  1  0  0  0  0  0  0  0  0  0
  147.9267  142.1315  155.5849 O   0  0  0  0  0  0  0  0  0  0  0  0
  148.9167  140.2545  154.3445 C   0  0  1  0  0  0  0  0  0  0  0  0
  148.7051  141.0448  153.1889 O   0  0  0  0  0  0  0  0  0  0  0  0
  151.5678  137.5072  154.6983 C   0  0  0  0  0  0  0  0  0  0  0  0
  152.5930  138.1022  154.3649 O   0  0  0  0  0  0  0  0  0  0  0  0
  151.5451  136.1823  155.0153 N   0  5  0  0  0  0  0  0  0  0  0  0
  150.8831  139.7819  153.4239 H   0  0  0  0  0  0  0  0  0  0  0  0
  150.4910  142.3415  155.1133 H   0  0  0  0  0  0  0  0  0  0  0  0
  148.5648  140.3871  156.4479 H   0  0  0  0  0  0  0  0  0  0  0  0
  148.1865  139.4440  154.3386 H   0  0  0  0  0  0  0  0  0  0  0  0
  151.3281  133.9593  155.6168 H   0  0  0  0  0  0  0  0  0  0  0  0
  148.2131  138.1526  155.0449 H   0  0  0  0  0  0  0  0  0  0  0  0
  150.7284  141.1053  157.8983 H   0  0  0  0  0  0  0  0  0  0  0  0
  151.7709  142.3151  157.1770 H   0  0  0  0  0  0  0  0  0  0  0  0
  149.7983  143.6324  157.0507 H   0  0  0  0  0  0  0  0  0  0  0  0
  148.4131  142.9413  155.5657 H   0  0  0  0  0  0  0  0  0  0  0  0
  148.6797  140.4707  152.4385 H   0  0  0  0  0  0  0  0  0  0  0  0
  1  2  2  0  0  0  0
  1 22  1  0  0  0  0
  2 17  1  0  0  0  0
  2  3  1  0  0  0  0
  3  4  2  0  0  0  0
  4  5  1  0  0  0  0
  4 23  1  0  0  0  0
  5  6  1  0  0  0  0
  5 15  1  0  0  0  0
  6 18  1  0  0  0  0
  6 13  1  0  0  0  0
  6  7  1  0  0  0  0
  7  8  1  0  0  0  0
  8 19  1  0  0  0  0
  8  9  1  0  0  0  0
  8 11  1  0  0  0  0
  9 10  1  0  0  0  0
  9 24  1  0  0  0  0
  9 25  1  0  0  0  0
 10 26  1  0  0  0  0
 11 20  1  0  0  0  0
 11 12  1  0  0  0  0
 11 13  1  0  0  0  0
 12 27  1  0  0  0  0
 13 21  1  0  0  0  0
 13 14  1  0  0  0  0
 14 28  1  0  0  0  0
 15 16  2  0  0  0  0
 15 17  1  0  0  0  0
M  CHG  1  17  -1
M  END
> <s_m_source_file>
AV-unprocessed.smi

> <i_m_source_file_index>
72

> <i_lp_mmshare_version>
43012

> <i_f3d_flags>
0

> <s_epik_input>
W05IMl1jMW5bY0hdbihjKD1PKW4xKVtDQEBIXTJPW0NASF0oW0NIMl1bT0hdKVtDQEBIXShbT0hdKVtDQEhdMltPSF0=

> <s_epik_cmdline>
J2VwaWtfcHl0aG9uJywgJy1waCcsICc3LjAnLCAnLXRuJywgJzgnLCAnLW1hJywgJzIwMCcsICctbWV0YWxfYmluZGluZycsICctaW1hZScsICc8aW5maWxlLm1hZT4nLCAnLW9tYWUnLCAnPG91dGZpbGUubWFlPic=

> <r_lp_tautomer_probability>
7.17554e-07

> <r_epik_Ionization_Penalty>
12.8705

> <r_epik_Ionization_Penalty_Charging>
5.64144

> <r_epik_Ionization_Penalty_Neutral>
7.22905

> <r_epik_State_Penalty>
3.30104

> <r_epik_Charging_Adjusted_Penalty>
8.94249

> <i_epik_Tot_Q>
-1

> <i_epik_Tot_abs_Q>
1

> <r_epik_Metal_State_Penalty>
0.529074

> <b_epik_Metal_Only>
1

> <s_epik_Chemistry_Notes>
This compound contains an acetal/aminal-like group ( X-CH(R)-Y where X, Y are N, S, or O) that may be acid/base labile, releasing an aldehyde.

> <s_lp_Force_Field>
OPLS_2005

> <r_lp_Energy>
37.824

> <b_lp_Chiralities_Consistent>
1

> <s_lp_Variant>
AV-unprocessed.smi:72-65

> <Gold.Version>
5.8.1

> <Gold.Id.Protein>
6NUR|6NUR_protein|mol2

> <Gold.PLP.Fitness>
44.4555

> <Gold.PLP.PLP>
-27.5015

> <Gold.PLP.part.hbond>
-6.6024

> <Gold.PLP.part.metal>
0.0000

> <Gold.PLP.part.buried>
-4.2398

> <Gold.PLP.part.nonpolar>
-17.4701

> <Gold.PLP.part.repulsive>
0.3254

> <Gold.PLP.ligand.clash>
0.0000

> <Gold.PLP.ligand.torsion>
0.0600

> <Gold.PLP.Chemscore.Hbond>
5.6880

> <Gold.PLP.Chemscore.CHOScore>
0.0000

> <Gold.PLP.Chemscore.Metal>
0.0000

> <Gold.Chemscore.Hbonds>
donor molecule, donor type, donor heavy atom, donor atom, acceptor molecule, acceptor atom, score
      L1  H    10    26       P1  8028  1.00
      L1  H    12    27       P1  8028  1.00
      L1  H    14    28       P1  7957  0.80
      P1  H  8011  8017       L1    14  0.75
      P1  H 10752 10765       L1    17  2.00

> <Gold.PLP.Chemscore.Internal.Correction>
0.0099

> <Gold.Rescore>
     Score         DG    S(hbond)    S(metal)    S(lipo)     H(rot)  DE(clash)    DE(int)     intcor
      9.81     -10.65       3.68        0.00      27.65       4.04       0.41       0.44       ----

> <Gold.Chemscore.Fitness>
9.8116

> <Gold.Chemscore.DG>
-10.6537

> <Gold.Chemscore.ZeroCoef>
-5.4800

> <Gold.Chemscore.Hbond>
3.6773

> <Gold.Chemscore.Metal>
0.0000

> <Gold.Chemscore.Lipo>
27.6466

> <Gold.Chemscore.Internal_Hbond>
0.0000

> <Gold.Chemscore.DEClash>
0.4060

> <Gold.Chemscore.DEInternal>
0.4361

> <Gold.Chemscore.Rot>
4.0403

> <Gold.Chemscore.Internal.Correction>
   9.000000E+99

> <Gold.Chemscore.Hbonds>
donor molecule, donor type, donor heavy atom, donor atom, acceptor molecule, acceptor atom, score
      L1  H    10    26       P1  8028  0.93
      L1  H    12    27       P1  8028  0.99
      L1  H    14    28       P1  7957  0.79
      P1  H  8011  8017       L1    14  0.09
      P1  H 10752 10765       L1    17  0.75

> <Gold.Chemscore.Hbond.Weighted>
-12.2822

> <Gold.Chemscore.Metal.Weighted>
-0.0000

> <Gold.Chemscore.Lipo.Weighted>
-3.2347

> <Gold.Chemscore.Internal_Hbond.Weighted>
0.0000

> <Gold.Chemscore.DEClash.Weighted>
0.4060

> <Gold.Chemscore.DEInternal.Weighted>
0.4361

> <Gold.Chemscore.Rot.Weighted>
10.3431

> <Gold.Chemscore.Internal.Correction.Weighted>
   9.000000E+99

> <Gold.Protein.RotatedTorsions>
[ 6907 6896 6895 6894 ] final  -50.68 input  -60.11 | X-H torsion
[ 7974 7965 7964 7962 ] final   88.78 input  175.53 | X-H torsion
[ 8008 7997 7996 7995 ] final  -70.05 input   59.86 | X-H torsion
[ 10167 10162 10161 10158 ] final  -76.22 input  -65.29 | X-H torsion
[ 10718 10713 10712 10709 ] final   72.27 input   66.30 | X-H torsion
[ 10763 10752 10751 10750 ] final -159.53 input  -60.55 | X-H torsion
[ 11005 11000 10999 10996 ] final  -71.22 input  -57.11 | X-H torsion

> <Gold.Protein.ActiveResidues>
 VAL166  LYS551  ARG553  GLY616  TRP617  ASP618  TYR619  PRO620  LYS621  CYS622 
 ASP623  PHE694  ASN695  SER759  ASP760  ASP761  ALA762  ILE779  LEU786  VAL792 
 PHE793  MET794  SER795  GLU796  ALA797  LYS798  CYS799  TRP800  GLU811  SER814 

> <Gold.Protein.RotatedAtoms>
  150.8684  134.8053  159.7135 H   0  0  0  0  0  0  0  0  0  0  0  0  # atno 6907 bound_to 6896
  152.4697  134.4986  159.9727 H   0  0  0  0  0  0  0  0  0  0  0  0  # atno 6908 bound_to 6896
  151.5079  133.3452  159.2915 H   0  0  0  0  0  0  0  0  0  0  0  0  # atno 6909 bound_to 6896
  145.5411  139.2289  143.2565 H   0  0  0  0  0  0  0  0  0  0  0  0  # atno 7974 bound_to 7965
  154.4984  140.0841  156.7745 H   0  0  0  0  0  0  0  0  0  0  0  0  # atno 8008 bound_to 7997
  155.4062  140.3439  155.4242 H   0  0  0  0  0  0  0  0  0  0  0  0  # atno 8009 bound_to 7997
  156.1424  140.1533  156.8888 H   0  0  0  0  0  0  0  0  0  0  0  0  # atno 8010 bound_to 7997
  140.4875  143.2387  151.7959 H   0  0  0  0  0  0  0  0  0  0  0  0  # atno 10167 bound_to 10162
  157.6493  130.9570  150.0906 H   0  0  0  0  0  0  0  0  0  0  0  0  # atno 10718 bound_to 10713
  154.7467  135.3082  154.8631 H   0  0  0  0  0  0  0  0  0  0  0  0  # atno 10763 bound_to 10752
  153.9430  135.6772  153.4748 H   0  0  0  0  0  0  0  0  0  0  0  0  # atno 10764 bound_to 10752
  153.1064  135.4887  154.8884 H   0  0  0  0  0  0  0  0  0  0  0  0  # atno 10765 bound_to 10752
  141.1588  133.6811  156.6872 H   0  0  0  0  0  0  0  0  0  0  0  0  # atno 11005 bound_to 11000
  146.1980  140.6232  142.9115 LP  0  0  0  0  0  0  0  0  0  0  0  0  # atno 17320 bound_to 7965
  144.7576  140.5345  143.6758 LP  0  0  0  0  0  0  0  0  0  0  0  0  # atno 17321 bound_to 7965
  139.4845  144.4692  151.9446 LP  0  0  0  0  0  0  0  0  0  0  0  0  # atno 17342 bound_to 10162
  140.3778  144.2774  150.5912 LP  0  0  0  0  0  0  0  0  0  0  0  0  # atno 17343 bound_to 10162
  156.1856  130.3652  149.8977 LP  0  0  0  0  0  0  0  0  0  0  0  0  # atno 17370 bound_to 10713
  156.6919  130.8899  151.3589 LP  0  0  0  0  0  0  0  0  0  0  0  0  # atno 17371 bound_to 10713
  140.3058  134.8127  157.4135 LP  0  0  0  0  0  0  0  0  0  0  0  0  # atno 17394 bound_to 11000
  140.1222  134.5205  155.8174 LP  0  0  0  0  0  0  0  0  0  0  0  0  # atno 17395 bound_to 11000

$$$$
