AV-unprocessed.smi:1915|AV-procd|sdf|7760|dock8
  -GOLD-   22720 9503D 1   1.00000     0.00000
 Structure written by MMmdl.
 44 45  0  0  0  0  0  0  0  0  1 V2000
  151.3982  141.7390  159.0061 C   0  0  0  0  0  0  0  0  0  0  0  0
  151.5220  142.4640  157.6549 C   0  0  0  0  0  0  0  0  0  0  0  0
  151.4469  143.9852  157.8535 C   0  0  0  0  0  0  0  0  0  0  0  0
  150.4765  142.0031  156.6146 C   0  0  0  0  0  0  0  0  0  0  0  0
  150.7863  140.6968  156.0352 N   0  0  0  0  0  0  0  0  0  0  0  0
  151.9478  139.9501  156.4885 C   0  0  0  0  0  0  0  0  0  0  0  0
  151.8594  138.5798  155.7850 C   0  0  1  0  0  0  0  0  0  0  0  0
  151.4696  137.4542  156.7560 C   0  0  0  0  0  0  0  0  0  0  0  0
  152.2014  136.4736  156.8975 O   0  0  0  0  0  0  0  0  0  0  0  0
  150.3117  137.6066  157.4132 N   0  0  0  0  0  0  0  0  0  0  0  0
  149.7637  136.6434  158.3606 C   0  0  0  0  0  0  0  0  0  0  0  0
  148.3749  137.0661  158.8703 C   0  0  0  0  0  0  0  0  0  0  0  0
  147.9220  136.3008  160.1029 C   0  0  0  0  0  0  0  0  0  0  0  0
  147.8742  134.8905  160.0907 C   0  0  0  0  0  0  0  0  0  0  0  0
  147.4357  134.2232  161.2508 C   0  0  0  0  0  0  0  0  0  0  0  0
  147.0625  134.9879  162.3729 C   0  0  0  0  0  0  0  0  0  0  0  0
  147.1447  136.3917  162.2845 C   0  0  0  0  0  0  0  0  0  0  0  0
  147.5628  137.0414  161.1767 N   0  0  0  0  0  0  0  0  0  0  0  0
  150.8026  138.7681  154.6784 C   0  0  0  0  0  0  0  0  0  0  0  0
  150.1688  140.1108  155.0025 C   0  0  0  0  0  0  0  0  0  0  0  0
  149.2079  140.5606  154.3801 O   0  0  0  0  0  0  0  0  0  0  0  0
  150.4015  141.8609  159.4309 H   0  0  0  0  0  0  0  0  0  0  0  0
  152.1168  142.1290  159.7276 H   0  0  0  0  0  0  0  0  0  0  0  0
  151.5937  140.6712  158.9081 H   0  0  0  0  0  0  0  0  0  0  0  0
  152.5121  142.2409  157.2547 H   0  0  0  0  0  0  0  0  0  0  0  0
  150.4768  144.2847  158.2519 H   0  0  0  0  0  0  0  0  0  0  0  0
  151.5978  144.5131  156.9113 H   0  0  0  0  0  0  0  0  0  0  0  0
  152.2132  144.3309  158.5479 H   0  0  0  0  0  0  0  0  0  0  0  0
  149.4836  141.9829  157.0674 H   0  0  0  0  0  0  0  0  0  0  0  0
  150.4184  142.7313  155.8043 H   0  0  0  0  0  0  0  0  0  0  0  0
  152.8553  140.4779  156.1923 H   0  0  0  0  0  0  0  0  0  0  0  0
  151.9539  139.8720  157.5771 H   0  0  0  0  0  0  0  0  0  0  0  0
  152.8242  138.3403  155.3341 H   0  0  0  0  0  0  0  0  0  0  0  0
  149.7633  138.4357  157.2336 H   0  0  0  0  0  0  0  0  0  0  0  0
  149.6921  135.6635  157.8853 H   0  0  0  0  0  0  0  0  0  0  0  0
  150.4516  136.5405  159.2006 H   0  0  0  0  0  0  0  0  0  0  0  0
  148.3810  138.1323  159.0995 H   0  0  0  0  0  0  0  0  0  0  0  0
  147.6360  136.9340  158.0784 H   0  0  0  0  0  0  0  0  0  0  0  0
  148.1641  134.3318  159.2130 H   0  0  0  0  0  0  0  0  0  0  0  0
  147.3858  133.1448  161.2787 H   0  0  0  0  0  0  0  0  0  0  0  0
  146.7217  134.5101  163.2795 H   0  0  0  0  0  0  0  0  0  0  0  0
  146.8672  137.0095  163.1257 H   0  0  0  0  0  0  0  0  0  0  0  0
  151.2689  138.8151  153.6939 H   0  0  0  0  0  0  0  0  0  0  0  0
  150.0454  137.9826  154.6543 H   0  0  0  0  0  0  0  0  0  0  0  0
  1  2  1  0  0  0  0
  1 22  1  0  0  0  0
  1 23  1  0  0  0  0
  1 24  1  0  0  0  0
  2  3  1  0  0  0  0
  2  4  1  0  0  0  0
  2 25  1  0  0  0  0
  3 26  1  0  0  0  0
  3 27  1  0  0  0  0
  3 28  1  0  0  0  0
  4  5  1  0  0  0  0
  4 29  1  0  0  0  0
  4 30  1  0  0  0  0
  5 20  1  0  0  0  0
  5  6  1  0  0  0  0
  6  7  1  0  0  0  0
  6 31  1  0  0  0  0
  6 32  1  0  0  0  0
  7  8  1  0  0  0  0
  7 19  1  0  0  0  0
  7 33  1  0  0  0  0
  8  9  2  0  0  0  0
  8 10  1  0  0  0  0
 10 11  1  0  0  0  0
 10 34  1  0  0  0  0
 11 12  1  0  0  0  0
 11 35  1  0  0  0  0
 11 36  1  0  0  0  0
 12 13  1  0  0  0  0
 12 37  1  0  0  0  0
 12 38  1  0  0  0  0
 13 18  1  0  0  0  0
 13 14  2  0  0  0  0
 14 15  1  0  0  0  0
 14 39  1  0  0  0  0
 15 16  2  0  0  0  0
 15 40  1  0  0  0  0
 16 17  1  0  0  0  0
 16 41  1  0  0  0  0
 17 18  2  0  0  0  0
 17 42  1  0  0  0  0
 19 20  1  0  0  0  0
 19 43  1  0  0  0  0
 19 44  1  0  0  0  0
 20 21  2  0  0  0  0
M  END
> <s_m_source_file>
AV-unprocessed.smi

> <i_m_source_file_index>
1915

> <i_lp_mmshare_version>
43012

> <i_f3d_flags>
0

> <s_epik_input>
W0NIM11bQ0hdKFtDSDNdKVtDSDJdTjFbQ0gyXVtDQEhdKFtDSDJdQzE9TylDKD1PKVtOSF1bQ0gyXVtDSDJdYzJbY0hdW2NIXVtjSF1bY0hdbjI=

> <s_epik_cmdline>
J2VwaWtfcHl0aG9uJywgJy1waCcsICc3LjAnLCAnLXRuJywgJzgnLCAnLW1hJywgJzIwMCcsICctbWV0YWxfYmluZGluZycsICctaW1hZScsICc8aW5maWxlLm1hZT4nLCAnLW9tYWUnLCAnPG91dGZpbGUubWFlPic=

> <r_epik_Ionization_Penalty>
0.0252359

> <r_epik_Ionization_Penalty_Charging>
0

> <r_epik_Ionization_Penalty_Neutral>
0.0252359

> <r_epik_State_Penalty>
0.020532

> <r_epik_Charging_Adjusted_Penalty>
0.020532

> <i_epik_Tot_Q>
0

> <i_epik_Tot_abs_Q>
0

> <r_epik_Metal_State_Penalty>
0.0196901

> <b_epik_Metal_Only>
0

> <s_lp_Force_Field>
OPLS_2005

> <r_lp_Energy>
14.3845

> <b_lp_Chiralities_Consistent>
1

> <s_lp_Variant>
AV-unprocessed.smi:1915-1

> <Gold.Version>
5.8.1

> <Gold.Id.Protein>
6NUR|6NUR_protein|mol2

> <Gold.PLP.Fitness>
47.4553

> <Gold.PLP.PLP>
-42.6380

> <Gold.PLP.part.hbond>
-2.0931

> <Gold.PLP.part.metal>
0.0000

> <Gold.PLP.part.buried>
-5.0229

> <Gold.PLP.part.nonpolar>
-36.3584

> <Gold.PLP.part.repulsive>
0.1559

> <Gold.PLP.ligand.clash>
0.0000

> <Gold.PLP.ligand.torsion>
0.2843

> <Gold.PLP.Chemscore.Hbond>
1.7680

> <Gold.PLP.Chemscore.CHOScore>
0.0000

> <Gold.PLP.Chemscore.Metal>
0.0000

> <Gold.Chemscore.Hbonds>
donor molecule, donor type, donor heavy atom, donor atom, acceptor molecule, acceptor atom, score
      P1  H  6931  6943       L1    18  0.97
      P1  H  6934  6947       L1    18  0.94

> <Gold.PLP.Chemscore.Internal.Correction>
0.0819

> <Gold.Rescore>
     Score         DG    S(hbond)    S(metal)    S(lipo)     H(rot)  DE(clash)    DE(int)     intcor
     16.57     -16.97       1.24        0.00     101.01       1.75       0.01       0.39       ----

> <Gold.Chemscore.Fitness>
16.5731

> <Gold.Chemscore.DG>
-16.9715

> <Gold.Chemscore.ZeroCoef>
-5.4800

> <Gold.Chemscore.Hbond>
1.2403

> <Gold.Chemscore.Metal>
0.0000

> <Gold.Chemscore.Lipo>
101.0053

> <Gold.Chemscore.Internal_Hbond>
0.0000

> <Gold.Chemscore.DEClash>
0.0121

> <Gold.Chemscore.DEInternal>
0.3863

> <Gold.Chemscore.Rot>
1.7456

> <Gold.Chemscore.Internal.Correction>
   9.000000E+99

> <Gold.Chemscore.Hbonds>
donor molecule, donor type, donor heavy atom, donor atom, acceptor molecule, acceptor atom, score
      P1  H  6931  6943       L1    18  0.31
      P1  H  6934  6947       L1    18  0.81
      P1  H 10752 10763       L1     9  0.01

> <Gold.Chemscore.Hbond.Weighted>
-4.1426

> <Gold.Chemscore.Metal.Weighted>
-0.0000

> <Gold.Chemscore.Lipo.Weighted>
-11.8176

> <Gold.Chemscore.Internal_Hbond.Weighted>
0.0000

> <Gold.Chemscore.DEClash.Weighted>
0.0121

> <Gold.Chemscore.DEInternal.Weighted>
0.3863

> <Gold.Chemscore.Rot.Weighted>
4.4688

> <Gold.Chemscore.Internal.Correction.Weighted>
   9.000000E+99

> <Gold.Protein.RotatedTorsions>
[ 6907 6896 6895 6894 ] final -148.65 input  -60.11 | X-H torsion
[ 7974 7965 7964 7962 ] final  174.37 input  175.53 | X-H torsion
[ 8008 7997 7996 7995 ] final  112.26 input   59.86 | X-H torsion
[ 10167 10162 10161 10158 ] final -169.99 input  -65.29 | X-H torsion
[ 10718 10713 10712 10709 ] final -168.46 input   66.30 | X-H torsion
[ 10763 10752 10751 10750 ] final  136.42 input  -60.55 | X-H torsion
[ 11005 11000 10999 10996 ] final  -23.92 input  -57.11 | X-H torsion

> <Gold.Protein.ActiveResidues>
 VAL166  LYS551  ARG553  GLY616  TRP617  ASP618  TYR619  PRO620  LYS621  CYS622 
 ASP623  PHE694  ASN695  SER759  ASP760  ASP761  ALA762  ILE779  LEU786  VAL792 
 PHE793  MET794  SER795  GLU796  ALA797  LYS798  CYS799  TRP800  GLU811  SER814 

> <Gold.Protein.RotatedAtoms>
  151.1728  133.4773  159.2593 H   0  0  0  0  0  0  0  0  0  0  0  0  # atno 6907 bound_to 6896
  151.1338  135.0144  159.8605 H   0  0  0  0  0  0  0  0  0  0  0  0  # atno 6908 bound_to 6896
  152.5461  134.1628  159.8618 H   0  0  0  0  0  0  0  0  0  0  0  0  # atno 6909 bound_to 6896
  144.7223  139.9786  143.6438 H   0  0  0  0  0  0  0  0  0  0  0  0  # atno 7974 bound_to 7965
  156.2180  140.3003  155.9885 H   0  0  0  0  0  0  0  0  0  0  0  0  # atno 8008 bound_to 7997
  155.2555  140.0427  157.3008 H   0  0  0  0  0  0  0  0  0  0  0  0  # atno 8009 bound_to 7997
  154.5797  140.2371  155.8080 H   0  0  0  0  0  0  0  0  0  0  0  0  # atno 8010 bound_to 7997
  139.5889  144.1257  152.1610 H   0  0  0  0  0  0  0  0  0  0  0  0  # atno 10167 bound_to 10162
  156.6972  130.9182  151.3076 H   0  0  0  0  0  0  0  0  0  0  0  0  # atno 10718 bound_to 10713
  153.8563  135.3073  155.3435 H   0  0  0  0  0  0  0  0  0  0  0  0  # atno 10763 bound_to 10752
  154.7869  135.4804  153.9969 H   0  0  0  0  0  0  0  0  0  0  0  0  # atno 10764 bound_to 10752
  153.1488  135.6839  153.9007 H   0  0  0  0  0  0  0  0  0  0  0  0  # atno 10765 bound_to 10752
  140.8797  133.7662  156.0287 H   0  0  0  0  0  0  0  0  0  0  0  0  # atno 11005 bound_to 11000
  146.0505  139.3507  143.0642 LP  0  0  0  0  0  0  0  0  0  0  0  0  # atno 17320 bound_to 7965
  145.8220  140.9674  143.0894 LP  0  0  0  0  0  0  0  0  0  0  0  0  # atno 17321 bound_to 7965
  140.0827  144.5687  150.7111 LP  0  0  0  0  0  0  0  0  0  0  0  0  # atno 17342 bound_to 10162
  140.7156  143.2541  151.4445 LP  0  0  0  0  0  0  0  0  0  0  0  0  # atno 17343 bound_to 10162
  157.6987  130.9309  150.0719 LP  0  0  0  0  0  0  0  0  0  0  0  0  # atno 17370 bound_to 10713
  156.1755  130.3648  149.9107 LP  0  0  0  0  0  0  0  0  0  0  0  0  # atno 17371 bound_to 10713
  140.8476  134.2993  157.5288 LP  0  0  0  0  0  0  0  0  0  0  0  0  # atno 17394 bound_to 11000
  139.8718  134.9450  156.3897 LP  0  0  0  0  0  0  0  0  0  0  0  0  # atno 17395 bound_to 11000

$$$$
