AV-unprocessed.smi:2706|AV-procd|sdf|10444|dock2
  -GOLD-   2272014483D 1   1.00000     0.00000
 Structure written by MMmdl.
 43 46  0  0  0  0  0  0  0  0  1 V2000
  150.8823  138.6964  154.5626 C   0  0  0  0  0  0  0  0  0  0  0  0
  150.2963  139.9602  154.9915 N   0  0  0  0  0  0  0  0  0  0  0  0
  151.0207  140.8220  155.9205 C   0  0  0  0  0  0  0  0  0  0  0  0
  149.0512  140.3802  154.4705 C   0  0  0  0  0  0  0  0  0  0  0  0
  148.5913  141.7098  154.6285 C   0  0  0  0  0  0  0  0  0  0  0  0
  147.3425  142.0664  154.0890 C   0  0  0  0  0  0  0  0  0  0  0  0
  146.5893  141.0922  153.4099 C   0  0  0  0  0  0  0  0  0  0  0  0
  147.1059  139.7855  153.2864 C   0  0  0  0  0  0  0  0  0  0  0  0
  146.2757  138.8701  152.5864 N   0  0  0  0  0  0  0  0  0  0  0  0
  146.1693  137.5412  152.7642 C   0  0  0  0  0  0  0  0  0  0  0  0
  146.8069  136.8791  153.5841 O   0  0  0  0  0  0  0  0  0  0  0  0
  145.2691  137.0131  151.9232 N   0  0  0  0  0  0  0  0  0  0  0  0
  144.9209  135.6317  151.8402 C   0  0  2  0  0  0  0  0  0  0  0  0
  146.0144  134.6738  151.4135 C   0  0  1  0  0  0  0  0  0  0  0  0
  145.9744  133.1484  151.4683 C   0  0  1  0  0  0  0  0  0  0  0  0
  144.7327  132.6474  152.2344 C   0  0  0  0  0  0  0  0  0  0  0  0
  143.5810  132.9925  151.2642 C   0  0  0  0  0  0  0  0  0  0  0  0
  144.3267  133.6423  150.0799 C   0  0  2  0  0  0  0  0  0  0  0  0
  145.5914  132.7905  150.0356 C   0  0  0  0  0  0  0  0  0  0  0  0
  144.8826  135.0131  150.4583 C   0  0  1  0  0  0  0  0  0  0  0  0
  148.3110  139.4561  153.8114 N   0  0  0  0  0  0  0  0  0  0  0  0
  150.2323  137.8628  154.8295 H   0  0  0  0  0  0  0  0  0  0  0  0
  151.8499  138.5272  155.0352 H   0  0  0  0  0  0  0  0  0  0  0  0
  151.0343  138.6911  153.4827 H   0  0  0  0  0  0  0  0  0  0  0  0
  150.4207  141.0172  156.8098 H   0  0  0  0  0  0  0  0  0  0  0  0
  151.2610  141.7759  155.4498 H   0  0  0  0  0  0  0  0  0  0  0  0
  151.9556  140.3639  156.2435 H   0  0  0  0  0  0  0  0  0  0  0  0
  149.1678  142.4594  155.1491 H   0  0  0  0  0  0  0  0  0  0  0  0
  146.9673  143.0734  154.1951 H   0  0  0  0  0  0  0  0  0  0  0  0
  145.6278  141.3503  152.9904 H   0  0  0  0  0  0  0  0  0  0  0  0
  145.6944  139.2746  151.8677 H   0  0  0  0  0  0  0  0  0  0  0  0
  144.7947  137.6360  151.2862 H   0  0  0  0  0  0  0  0  0  0  0  0
  144.1996  135.2767  152.5722 H   0  0  0  0  0  0  0  0  0  0  0  0
  146.9859  135.0944  151.1588 H   0  0  0  0  0  0  0  0  0  0  0  0
  146.9167  132.7222  151.8134 H   0  0  0  0  0  0  0  0  0  0  0  0
  144.7866  131.5694  152.3925 H   0  0  0  0  0  0  0  0  0  0  0  0
  144.6255  133.1170  153.2125 H   0  0  0  0  0  0  0  0  0  0  0  0
  143.0680  132.0844  150.9452 H   0  0  0  0  0  0  0  0  0  0  0  0
  142.8337  133.6539  151.7035 H   0  0  0  0  0  0  0  0  0  0  0  0
  143.7568  133.6696  149.1509 H   0  0  0  0  0  0  0  0  0  0  0  0
  146.3172  133.1351  149.2967 H   0  0  0  0  0  0  0  0  0  0  0  0
  145.4010  131.7265  149.8831 H   0  0  0  0  0  0  0  0  0  0  0  0
  145.1526  135.6444  149.6133 H   0  0  0  0  0  0  0  0  0  0  0  0
  1  2  1  0  0  0  0
  1 22  1  0  0  0  0
  1 23  1  0  0  0  0
  1 24  1  0  0  0  0
  2  3  1  0  0  0  0
  2  4  1  0  0  0  0
  3 25  1  0  0  0  0
  3 26  1  0  0  0  0
  3 27  1  0  0  0  0
  4 21  1  0  0  0  0
  4  5  2  0  0  0  0
  5  6  1  0  0  0  0
  5 28  1  0  0  0  0
  6  7  2  0  0  0  0
  6 29  1  0  0  0  0
  7  8  1  0  0  0  0
  7 30  1  0  0  0  0
  8  9  1  0  0  0  0
  8 21  2  0  0  0  0
  9 10  1  0  0  0  0
  9 31  1  0  0  0  0
 10 11  2  0  0  0  0
 10 12  1  0  0  0  0
 12 13  1  0  0  0  0
 12 32  1  0  0  0  0
 13 20  1  0  0  0  0
 13 14  1  0  0  0  0
 13 33  1  0  0  0  0
 14 20  1  0  0  0  0
 14 15  1  0  0  0  0
 14 34  1  0  0  0  0
 15 19  1  0  0  0  0
 15 16  1  0  0  0  0
 15 35  1  0  0  0  0
 16 17  1  0  0  0  0
 16 36  1  0  0  0  0
 16 37  1  0  0  0  0
 17 18  1  0  0  0  0
 17 38  1  0  0  0  0
 17 39  1  0  0  0  0
 18 19  1  0  0  0  0
 18 20  1  0  0  0  0
 18 40  1  0  0  0  0
 19 41  1  0  0  0  0
 19 42  1  0  0  0  0
 20 43  1  0  0  0  0
M  END
> <s_m_source_file>
AV-unprocessed.smi

> <i_m_source_file_index>
2706

> <i_lp_mmshare_version>
43012

> <i_f3d_flags>
0

> <s_epik_input>
W0NIM11OKFtDSDNdKWMxW2NIXVtjSF1bY0hdYyhuMSlbTkhdQyg9TylbTkhdW0NASF0yW0NAQEhdM1tDQEBIXShbQ0gyXTQpW0NIMl1bQ0gyXVtDQEBIXTRbQ0BIXTIz

> <s_epik_cmdline>
J2VwaWtfcHl0aG9uJywgJy1waCcsICc3LjAnLCAnLXRuJywgJzgnLCAnLW1hJywgJzIwMCcsICctbWV0YWxfYmluZGluZycsICctaW1hZScsICc8aW5maWxlLm1hZT4nLCAnLW9tYWUnLCAnPG91dGZpbGUubWFlPic=

> <r_lp_tautomer_probability>
1

> <r_epik_Ionization_Penalty>
0.0296788

> <r_epik_Ionization_Penalty_Charging>
0

> <r_epik_Ionization_Penalty_Neutral>
0.0296788

> <r_epik_State_Penalty>
0.0248512

> <r_epik_Charging_Adjusted_Penalty>
0.0248512

> <i_epik_Tot_Q>
0

> <i_epik_Tot_abs_Q>
0

> <r_epik_Metal_State_Penalty>
0.0237882

> <b_epik_Metal_Only>
0

> <s_lp_Force_Field>
OPLS_2005

> <r_lp_Energy>
79.5337

> <b_lp_Chiralities_Consistent>
1

> <s_lp_Variant>
AV-unprocessed.smi:2706-1

> <Gold.Version>
5.8.1

> <Gold.Id.Protein>
6NUR|6NUR_protein|mol2

> <Gold.PLP.Fitness>
42.8337

> <Gold.PLP.PLP>
-40.3131

> <Gold.PLP.part.hbond>
-2.0000

> <Gold.PLP.part.metal>
0.0000

> <Gold.PLP.part.buried>
-2.0235

> <Gold.PLP.part.nonpolar>
-39.3223

> <Gold.PLP.part.repulsive>
3.0455

> <Gold.PLP.ligand.clash>
0.0000

> <Gold.PLP.ligand.torsion>
0.3442

> <Gold.PLP.Chemscore.Hbond>
1.0562

> <Gold.PLP.Chemscore.CHOScore>
0.0000

> <Gold.PLP.Chemscore.Metal>
0.0000

> <Gold.Chemscore.Hbonds>
donor molecule, donor type, donor heavy atom, donor atom, acceptor molecule, acceptor atom, score
      L1  H     9    31       P1 10175  0.03
      L1  H    12    32       P1 10171  1.00

> <Gold.PLP.Chemscore.Internal.Correction>
0.0406

> <Gold.Rescore>
     Score         DG    S(hbond)    S(metal)    S(lipo)     H(rot)  DE(clash)    DE(int)     intcor
     15.13     -17.65       1.41        0.00      85.60       1.00       1.19       1.33       ----

> <Gold.Chemscore.Fitness>
15.1329

> <Gold.Chemscore.DG>
-17.6450

> <Gold.Chemscore.ZeroCoef>
-5.4800

> <Gold.Chemscore.Hbond>
1.4100

> <Gold.Chemscore.Metal>
0.0000

> <Gold.Chemscore.Lipo>
85.6033

> <Gold.Chemscore.Internal_Hbond>
0.0000

> <Gold.Chemscore.DEClash>
1.1856

> <Gold.Chemscore.DEInternal>
1.3265

> <Gold.Chemscore.Rot>
1.0000

> <Gold.Chemscore.Internal.Correction>
   9.000000E+99

> <Gold.Chemscore.Hbonds>
donor molecule, donor type, donor heavy atom, donor atom, acceptor molecule, acceptor atom, score
      L1  H     9    31       P1 10175  0.04
      L1  H    12    32       P1 10171  0.97

> <Gold.Chemscore.Hbond.Weighted>
-4.7095

> <Gold.Chemscore.Metal.Weighted>
-0.0000

> <Gold.Chemscore.Lipo.Weighted>
-10.0156

> <Gold.Chemscore.Internal_Hbond.Weighted>
0.0000

> <Gold.Chemscore.DEClash.Weighted>
1.1856

> <Gold.Chemscore.DEInternal.Weighted>
1.3265

> <Gold.Chemscore.Rot.Weighted>
2.5600

> <Gold.Chemscore.Internal.Correction.Weighted>
   9.000000E+99

> <Gold.Protein.RotatedTorsions>
[ 6907 6896 6895 6894 ] final   41.26 input  -60.11 | X-H torsion
[ 7974 7965 7964 7962 ] final  107.40 input  175.53 | X-H torsion
[ 8008 7997 7996 7995 ] final  147.94 input   59.86 | X-H torsion
[ 10167 10162 10161 10158 ] final -140.29 input  -65.29 | X-H torsion
[ 10718 10713 10712 10709 ] final   61.87 input   66.30 | X-H torsion
[ 10763 10752 10751 10750 ] final   37.00 input  -60.55 | X-H torsion
[ 11005 11000 10999 10996 ] final  128.79 input  -57.11 | X-H torsion

> <Gold.Protein.ActiveResidues>
 VAL166  LYS551  ARG553  GLY616  TRP617  ASP618  TYR619  PRO620  LYS621  CYS622 
 ASP623  PHE694  ASN695  SER759  ASP760  ASP761  ALA762  ILE779  LEU786  VAL792 
 PHE793  MET794  SER795  GLU796  ALA797  LYS798  CYS799  TRP800  GLU811  SER814 

> <Gold.Protein.RotatedAtoms>
  152.1931  134.8655  160.0515 H   0  0  0  0  0  0  0  0  0  0  0  0  # atno 6907 bound_to 6896
  151.9536  133.3668  159.4017 H   0  0  0  0  0  0  0  0  0  0  0  0  # atno 6908 bound_to 6896
  150.6939  134.4238  159.5261 H   0  0  0  0  0  0  0  0  0  0  0  0  # atno 6909 bound_to 6896
  145.2941  139.2590  143.3849 H   0  0  0  0  0  0  0  0  0  0  0  0  # atno 7974 bound_to 7965
  156.2808  140.2142  156.5619 H   0  0  0  0  0  0  0  0  0  0  0  0  # atno 8008 bound_to 7997
  154.7206  140.0504  157.0658 H   0  0  0  0  0  0  0  0  0  0  0  0  # atno 8009 bound_to 7997
  155.0484  140.3153  155.4703 H   0  0  0  0  0  0  0  0  0  0  0  0  # atno 8010 bound_to 7997
  139.8296  143.7464  152.2666 H   0  0  0  0  0  0  0  0  0  0  0  0  # atno 10167 bound_to 10162
  157.5859  130.9018  149.9515 H   0  0  0  0  0  0  0  0  0  0  0  0  # atno 10718 bound_to 10713
  153.0054  135.6290  154.2075 H   0  0  0  0  0  0  0  0  0  0  0  0  # atno 10763 bound_to 10752
  154.1819  135.2813  155.3051 H   0  0  0  0  0  0  0  0  0  0  0  0  # atno 10764 bound_to 10752
  154.5828  135.5642  153.7262 H   0  0  0  0  0  0  0  0  0  0  0  0  # atno 10765 bound_to 10752
  139.9580  134.9609  156.9053 H   0  0  0  0  0  0  0  0  0  0  0  0  # atno 11005 bound_to 11000
  146.3175  140.3439  142.8650 LP  0  0  0  0  0  0  0  0  0  0  0  0  # atno 17320 bound_to 7965
  144.9148  140.7800  143.5785 LP  0  0  0  0  0  0  0  0  0  0  0  0  # atno 17321 bound_to 7965
  139.7668  144.7489  151.0283 LP  0  0  0  0  0  0  0  0  0  0  0  0  # atno 17342 bound_to 10162
  140.7807  143.4690  151.0173 LP  0  0  0  0  0  0  0  0  0  0  0  0  # atno 17343 bound_to 10162
  156.0908  130.3663  150.0398 LP  0  0  0  0  0  0  0  0  0  0  0  0  # atno 17370 bound_to 10713
  156.8529  130.9465  151.3624 LP  0  0  0  0  0  0  0  0  0  0  0  0  # atno 17371 bound_to 10713
  140.5566  134.0576  155.7385 LP  0  0  0  0  0  0  0  0  0  0  0  0  # atno 17394 bound_to 11000
  141.1253  133.9393  157.2647 LP  0  0  0  0  0  0  0  0  0  0  0  0  # atno 17395 bound_to 11000

$$$$
