AV-unprocessed.smi:212|AV-procd|sdf|1620|dock10
  -GOLD-   2262019553D 1   1.00000     0.00000
 Structure written by MMmdl.
 65 68  0  0  0  0  0  0  0  0  2 V2000
  144.5843  135.5825  156.7836 C   0  0  0  0  0  0  0  0  0  0  0  0
  144.7922  134.2051  156.1248 C   0  0  1  0  0  0  0  0  0  0  0  0
  145.1806  134.3164  154.6362 C   0  0  0  0  0  0  0  0  0  0  0  0
  145.3080  132.9704  154.0186 N   0  3  1  0  0  0  0  0  0  0  0  0
  145.5679  133.0176  152.5549 C   0  0  0  0  0  0  0  0  0  0  0  0
  144.4101  133.6691  151.7621 C   0  0  0  0  0  0  0  0  0  0  0  0
  144.5889  135.1960  151.7248 C   0  0  0  0  0  0  0  0  0  0  0  0
  144.2951  133.1118  150.3310 C   0  0  0  0  0  0  0  0  0  0  0  0
  143.1903  133.4246  152.4341 O   0  0  0  0  0  0  0  0  0  0  0  0
  146.2640  132.1024  154.7526 C   0  0  0  0  0  0  0  0  0  0  0  0
  145.9140  132.0170  156.2525 C   0  0  0  0  0  0  0  0  0  0  0  0
  145.7248  133.3361  156.8503 N   0  0  0  0  0  0  0  0  0  0  0  0
  146.8461  133.8957  157.3631 C   0  0  0  0  0  0  0  0  0  0  0  0
  147.1197  133.7924  158.6894 N   0  0  0  0  0  0  0  0  0  0  0  0
  148.2329  134.3411  159.1851 C   0  0  0  0  0  0  0  0  0  0  0  0
  149.1863  135.0181  158.5419 N   0  0  0  0  0  0  0  0  0  0  0  0
  148.9165  135.1177  157.2089 C   0  0  0  0  0  0  0  0  0  0  0  0
  147.7725  134.5936  156.5454 C   0  0  0  0  0  0  0  0  0  0  0  0
  147.8239  134.8951  155.1919 N   0  0  0  0  0  0  0  0  0  0  0  0
  148.9379  135.5624  155.0612 C   0  0  0  0  0  0  0  0  0  0  0  0
  149.6685  135.7275  156.2183 N   0  0  0  0  0  0  0  0  0  0  0  0
  150.9434  136.4211  156.3501 C   0  0  0  0  0  0  0  0  0  0  0  0
  150.8677  137.9502  156.0948 C   0  0  2  0  0  0  0  0  0  0  0  0
  151.4718  138.3026  154.7140 C   0  0  0  0  0  0  0  0  0  0  0  0
  150.8769  139.4551  154.1551 O   0  0  0  0  0  0  0  0  0  0  0  0
  151.5035  138.7646  157.2556 C   0  0  2  0  0  0  0  0  0  0  0  0
  151.5872  140.2612  156.9997 C   0  0  0  0  0  0  0  0  0  0  0  0
  152.5993  140.7191  158.0449 C   0  0  0  0  0  0  0  0  0  0  0  0
  153.4644  139.6094  158.2585 O   0  0  0  0  0  0  0  0  0  0  0  0
  152.9792  138.4761  157.5474 C   0  0  0  0  0  0  0  0  0  0  0  0
  143.7973  136.1397  156.2751 H   0  0  0  0  0  0  0  0  0  0  0  0
  145.4880  136.1919  156.7493 H   0  0  0  0  0  0  0  0  0  0  0  0
  144.2880  135.4788  157.8280 H   0  0  0  0  0  0  0  0  0  0  0  0
  143.8279  133.6967  156.1684 H   0  0  0  0  0  0  0  0  0  0  0  0
  144.4217  134.8915  154.1056 H   0  0  0  0  0  0  0  0  0  0  0  0
  146.1187  134.8615  154.5234 H   0  0  0  0  0  0  0  0  0  0  0  0
  146.5090  133.5336  152.3560 H   0  0  0  0  0  0  0  0  0  0  0  0
  145.7108  132.0043  152.1755 H   0  0  0  0  0  0  0  0  0  0  0  0
  145.5105  135.4725  151.2117 H   0  0  0  0  0  0  0  0  0  0  0  0
  144.6341  135.6178  152.7298 H   0  0  0  0  0  0  0  0  0  0  0  0
  143.7647  135.6827  151.2016 H   0  0  0  0  0  0  0  0  0  0  0  0
  145.2198  133.2667  149.7738 H   0  0  0  0  0  0  0  0  0  0  0  0
  143.4930  133.6017  149.7775 H   0  0  0  0  0  0  0  0  0  0  0  0
  144.0835  132.0421  150.3274 H   0  0  0  0  0  0  0  0  0  0  0  0
  143.3644  132.8771  153.1851 H   0  0  0  0  0  0  0  0  0  0  0  0
  146.2500  131.0995  154.3240 H   0  0  0  0  0  0  0  0  0  0  0  0
  147.2755  132.4858  154.6163 H   0  0  0  0  0  0  0  0  0  0  0  0
  144.9882  131.4550  156.3809 H   0  0  0  0  0  0  0  0  0  0  0  0
  146.6858  131.4632  156.7897 H   0  0  0  0  0  0  0  0  0  0  0  0
  148.3826  134.2200  160.2478 H   0  0  0  0  0  0  0  0  0  0  0  0
  149.2620  135.9497  154.1064 H   0  0  0  0  0  0  0  0  0  0  0  0
  151.3174  136.2391  157.3585 H   0  0  0  0  0  0  0  0  0  0  0  0
  151.6662  135.9509  155.6834 H   0  0  0  0  0  0  0  0  0  0  0  0
  149.8057  138.1986  156.0566 H   0  0  0  0  0  0  0  0  0  0  0  0
  152.5511  138.4440  154.7809 H   0  0  0  0  0  0  0  0  0  0  0  0
  151.2983  137.4909  154.0072 H   0  0  0  0  0  0  0  0  0  0  0  0
  149.9407  139.3282  154.1282 H   0  0  0  0  0  0  0  0  0  0  0  0
  150.9425  138.5931  158.1754 H   0  0  0  0  0  0  0  0  0  0  0  0
  151.9771  140.4526  155.9989 H   0  0  0  0  0  0  0  0  0  0  0  0
  150.6349  140.7810  157.0913 H   0  0  0  0  0  0  0  0  0  0  0  0
  153.1540  141.6016  157.7255 H   0  0  0  0  0  0  0  0  0  0  0  0
  152.0981  140.9545  158.9844 H   0  0  0  0  0  0  0  0  0  0  0  0
  153.1232  137.5635  158.1262 H   0  0  0  0  0  0  0  0  0  0  0  0
  153.5472  138.3860  156.6204 H   0  0  0  0  0  0  0  0  0  0  0  0
  144.4055  132.5292  154.1223 H   0  0  0  0  0  0  0  0  0  0  0  0
  1  2  1  0  0  0  0
  1 31  1  0  0  0  0
  1 32  1  0  0  0  0
  1 33  1  0  0  0  0
  2 12  1  0  0  0  0
  2  3  1  0  0  0  0
  2 34  1  0  0  0  0
  3  4  1  0  0  0  0
  3 35  1  0  0  0  0
  3 36  1  0  0  0  0
  4  5  1  0  0  0  0
  4 10  1  0  0  0  0
  4 65  1  0  0  0  0
  5  6  1  0  0  0  0
  5 37  1  0  0  0  0
  5 38  1  0  0  0  0
  6  7  1  0  0  0  0
  6  8  1  0  0  0  0
  6  9  1  0  0  0  0
  7 39  1  0  0  0  0
  7 40  1  0  0  0  0
  7 41  1  0  0  0  0
  8 42  1  0  0  0  0
  8 43  1  0  0  0  0
  8 44  1  0  0  0  0
  9 45  1  0  0  0  0
 10 11  1  0  0  0  0
 10 46  1  0  0  0  0
 10 47  1  0  0  0  0
 11 12  1  0  0  0  0
 11 48  1  0  0  0  0
 11 49  1  0  0  0  0
 12 13  1  0  0  0  0
 13 18  1  0  0  0  0
 13 14  2  0  0  0  0
 14 15  1  0  0  0  0
 15 16  2  0  0  0  0
 15 50  1  0  0  0  0
 16 17  1  0  0  0  0
 17 21  1  0  0  0  0
 17 18  2  0  0  0  0
 18 19  1  0  0  0  0
 19 20  2  0  0  0  0
 20 21  1  0  0  0  0
 20 51  1  0  0  0  0
 21 22  1  0  0  0  0
 22 23  1  0  0  0  0
 22 52  1  0  0  0  0
 22 53  1  0  0  0  0
 23 24  1  0  0  0  0
 23 26  1  0  0  0  0
 23 54  1  0  0  0  0
 24 25  1  0  0  0  0
 24 55  1  0  0  0  0
 24 56  1  0  0  0  0
 25 57  1  0  0  0  0
 26 30  1  0  0  0  0
 26 27  1  0  0  0  0
 26 58  1  0  0  0  0
 27 28  1  0  0  0  0
 27 59  1  0  0  0  0
 27 60  1  0  0  0  0
 28 29  1  0  0  0  0
 28 61  1  0  0  0  0
 28 62  1  0  0  0  0
 29 30  1  0  0  0  0
 30 63  1  0  0  0  0
 30 64  1  0  0  0  0
M  CHG  1   4   1
M  END
> <s_m_source_file>
AV-unprocessed.smi

> <i_m_source_file_index>
212

> <i_lp_mmshare_version>
43012

> <i_f3d_flags>
0

> <s_epik_input>
W0NIM11bQ0BASF0xW0NIMl1OKFtDSDJdQyhbQ0gzXSkoW0NIM10pW09IXSlbQ0gyXVtDSDJdTjFjKG5bY0hdbjIpYyhjMjMpbltjSF1uM1tDSDJdW0NASF0oW0NIMl1bT0hdKVtDQEBIXTRbQ0gyXVtDSDJdT1tDSDJdNA==

> <s_epik_cmdline>
J2VwaWtfcHl0aG9uJywgJy1waCcsICc3LjAnLCAnLXRuJywgJzgnLCAnLW1hJywgJzIwMCcsICctbWV0YWxfYmluZGluZycsICctaW1hZScsICc8aW5maWxlLm1hZT4nLCAnLW9tYWUnLCAnPG91dGZpbGUubWFlPic=

> <r_lp_tautomer_probability>
1

> <r_epik_Ionization_Penalty>
0.00182193

> <r_epik_Ionization_Penalty_Charging>
0.00173996

> <r_epik_Ionization_Penalty_Neutral>
8.19718e-05

> <r_epik_State_Penalty>
-0

> <r_epik_Charging_Adjusted_Penalty>
0.00173996

> <i_epik_Tot_Q>
1

> <i_epik_Tot_abs_Q>
1

> <r_epik_Metal_State_Penalty>
-0

> <b_epik_Metal_Only>
0

> <s_lp_Force_Field>
OPLS_2005

> <r_lp_Energy>
59.7923

> <b_lp_Chiralities_Consistent>
1

> <s_lp_Variant>
AV-unprocessed.smi:212-4

> <Gold.Version>
5.8.1

> <Gold.Id.Protein>
6NUR|6NUR_protein|mol2

> <Gold.PLP.Fitness>
45.3365

> <Gold.PLP.PLP>
-28.0650

> <Gold.PLP.part.hbond>
-5.0000

> <Gold.PLP.part.metal>
0.0000

> <Gold.PLP.part.buried>
-6.1894

> <Gold.PLP.part.nonpolar>
-17.3136

> <Gold.PLP.part.repulsive>
0.1214

> <Gold.PLP.ligand.clash>
0.0000

> <Gold.PLP.ligand.torsion>
1.9751

> <Gold.PLP.Chemscore.Hbond>
5.7088

> <Gold.PLP.Chemscore.CHOScore>
1.0000

> <Gold.PLP.Chemscore.Metal>
0.0000

> <Gold.Chemscore.Hbonds>
donor molecule, donor type, donor heavy atom, donor atom, acceptor molecule, acceptor atom, score
      L1  H     4    65       P1 10957  2.00
      L1  H     9    45       P1 10957  0.92
      P1  H  6896  6908       L1    16  0.90
      P1  H  7989  7998       L1    25  1.00
      P1  H  7997  8010       L1    29  1.00
      L1  C    20    51       P1  7948  1.00

> <Gold.PLP.Chemscore.Internal.Correction>
1.0955

> <Gold.Rescore>
     Score         DG    S(hbond)    S(metal)    S(lipo)     H(rot)  DE(clash)    DE(int)     intcor
     12.68     -16.09       3.84        0.00      61.55       3.68       0.04       3.38       ----

> <Gold.Chemscore.Fitness>
12.6765

> <Gold.Chemscore.DG>
-16.0881

> <Gold.Chemscore.ZeroCoef>
-5.4800

> <Gold.Chemscore.Hbond>
3.8417

> <Gold.Chemscore.Metal>
0.0000

> <Gold.Chemscore.Lipo>
61.5455

> <Gold.Chemscore.Internal_Hbond>
0.0000

> <Gold.Chemscore.DEClash>
0.0354

> <Gold.Chemscore.DEInternal>
3.3762

> <Gold.Chemscore.Rot>
3.6812

> <Gold.Chemscore.Internal.Correction>
   9.000000E+99

> <Gold.Chemscore.Hbonds>
donor molecule, donor type, donor heavy atom, donor atom, acceptor molecule, acceptor atom, score
      L1  H     4    65       P1 10957  0.63
      L1  H     9    45       P1 10957  0.46
      P1  H  6896  6908       L1    16  0.18
      P1  H  7989  7998       L1    25  0.99
      P1  H  7997  8010       L1    29  0.08

> <Gold.Chemscore.Hbond.Weighted>
-12.8312

> <Gold.Chemscore.Metal.Weighted>
-0.0000

> <Gold.Chemscore.Lipo.Weighted>
-7.2008

> <Gold.Chemscore.Internal_Hbond.Weighted>
0.0000

> <Gold.Chemscore.DEClash.Weighted>
0.0354

> <Gold.Chemscore.DEInternal.Weighted>
3.3762

> <Gold.Chemscore.Rot.Weighted>
9.4239

> <Gold.Chemscore.Internal.Correction.Weighted>
   9.000000E+99

> <Gold.Protein.RotatedTorsions>
[ 6907 6896 6895 6894 ] final  156.03 input  -60.11 | X-H torsion
[ 7974 7965 7964 7962 ] final  -62.39 input  175.53 | X-H torsion
[ 8008 7997 7996 7995 ] final   13.54 input   59.86 | X-H torsion
[ 10167 10162 10161 10158 ] final -115.85 input  -65.29 | X-H torsion
[ 10718 10713 10712 10709 ] final  134.07 input   66.30 | X-H torsion
[ 10763 10752 10751 10750 ] final  -36.11 input  -60.55 | X-H torsion
[ 11005 11000 10999 10996 ] final  170.82 input  -57.11 | X-H torsion

> <Gold.Protein.ActiveResidues>
 VAL166  LYS551  ARG553  GLY616  TRP617  ASP618  TYR619  PRO620  LYS621  CYS622 
 ASP623  PHE694  ASN695  SER759  ASP760  ASP761  ALA762  ILE779  LEU786  VAL792 
 PHE793  MET794  SER795  GLU796  ALA797  LYS798  CYS799  TRP800  GLU811  SER814 

> <Gold.Protein.RotatedAtoms>
  152.0356  133.3956  159.4315 H   0  0  0  0  0  0  0  0  0  0  0  0  # atno 6907 bound_to 6896
  150.6879  134.3472  159.4902 H   0  0  0  0  0  0  0  0  0  0  0  0  # atno 6908 bound_to 6896
  152.1264  134.9167  160.0611 H   0  0  0  0  0  0  0  0  0  0  0  0  # atno 6909 bound_to 6896
  145.7919  140.8705  143.0276 H   0  0  0  0  0  0  0  0  0  0  0  0  # atno 7974 bound_to 7965
  154.8359  140.2907  155.5691 H   0  0  0  0  0  0  0  0  0  0  0  0  # atno 8008 bound_to 7997
  156.3008  140.2523  156.3223 H   0  0  0  0  0  0  0  0  0  0  0  0  # atno 8009 bound_to 7997
  154.9180  140.0386  157.1971 H   0  0  0  0  0  0  0  0  0  0  0  0  # atno 8010 bound_to 7997
  140.0856  143.4747  152.1900 H   0  0  0  0  0  0  0  0  0  0  0  0  # atno 10167 bound_to 10162
  157.4709  131.1080  150.9804 H   0  0  0  0  0  0  0  0  0  0  0  0  # atno 10718 bound_to 10713
  153.8744  135.6828  153.4772 H   0  0  0  0  0  0  0  0  0  0  0  0  # atno 10763 bound_to 10752
  153.1269  135.4715  154.9285 H   0  0  0  0  0  0  0  0  0  0  0  0  # atno 10764 bound_to 10752
  154.7699  135.3235  154.8162 H   0  0  0  0  0  0  0  0  0  0  0  0  # atno 10765 bound_to 10752
  140.3124  134.7506  157.4001 H   0  0  0  0  0  0  0  0  0  0  0  0  # atno 11005 bound_to 11000
  144.6780  140.0135  143.7484 LP  0  0  0  0  0  0  0  0  0  0  0  0  # atno 17320 bound_to 7965
  145.9968  139.3059  143.0951 LP  0  0  0  0  0  0  0  0  0  0  0  0  # atno 17321 bound_to 7965
  139.5754  144.7485  151.3779 LP  0  0  0  0  0  0  0  0  0  0  0  0  # atno 17342 bound_to 10162
  140.7055  143.7524  150.7475 LP  0  0  0  0  0  0  0  0  0  0  0  0  # atno 17343 bound_to 10162
  157.0569  130.5809  149.5379 LP  0  0  0  0  0  0  0  0  0  0  0  0  # atno 17370 bound_to 10713
  156.0073  130.5161  150.7872 LP  0  0  0  0  0  0  0  0  0  0  0  0  # atno 17371 bound_to 10713
  140.1013  134.5468  155.8350 LP  0  0  0  0  0  0  0  0  0  0  0  0  # atno 17394 bound_to 11000
  141.2105  133.6696  156.6515 LP  0  0  0  0  0  0  0  0  0  0  0  0  # atno 17395 bound_to 11000

$$$$
