AV-unprocessed.smi:2346|AV-procd|sdf|9366|dock10
  -GOLD-   2272012593D 1   1.00000     0.00000
 Structure written by MMmdl.
 44 46  0  0  0  0  0  0  0  0  1 V2000
  154.2916  135.3725  163.9450 C   0  0  0  0  0  0  0  0  0  0  0  0
  154.1895  136.4782  163.0608 O   0  0  0  0  0  0  0  0  0  0  0  0
  154.7272  137.6867  163.4544 C   0  0  0  0  0  0  0  0  0  0  0  0
  155.2764  137.9229  164.7401 C   0  0  0  0  0  0  0  0  0  0  0  0
  155.8059  139.1861  165.0703 C   0  0  0  0  0  0  0  0  0  0  0  0
  156.3668  139.4189  166.3907 C   0  0  0  0  0  0  0  0  0  0  0  0
  156.8135  139.6042  167.4417 N   0  0  0  0  0  0  0  0  0  0  0  0
  155.7908  140.2228  164.1186 C   0  0  0  0  0  0  0  0  0  0  0  0
  155.2466  139.9982  162.8411 C   0  0  0  0  0  0  0  0  0  0  0  0
  154.7111  138.7310  162.5020 C   0  0  0  0  0  0  0  0  0  0  0  0
  154.1643  138.4371  161.2724 O   0  0  0  0  0  0  0  0  0  0  0  0
  154.0856  139.4618  160.2917 C   0  0  0  0  0  0  0  0  0  0  0  0
  152.7650  139.3020  159.5242 C   0  0  0  0  0  0  0  0  0  0  0  0
  152.3358  140.5538  158.9149 N   0  0  0  0  0  0  0  0  0  0  0  0
  151.9176  140.7748  157.6420 C   0  0  0  0  0  0  0  0  0  0  0  0
  151.8205  139.6727  156.6233 C   0  0  1  0  0  0  0  0  0  0  0  0
  150.6092  139.8530  155.6989 C   0  0  0  0  0  0  0  0  0  0  0  0
  152.9818  139.5810  155.8228 O   0  0  0  0  0  0  0  0  0  0  0  0
  151.5663  142.0322  157.3608 N   0  0  0  0  0  0  0  0  0  0  0  0
  151.8071  142.6915  158.5497 C   0  0  0  0  0  0  0  0  0  0  0  0
  151.6501  144.0535  158.8929 C   0  0  0  0  0  0  0  0  0  0  0  0
  151.9735  144.5048  160.1893 C   0  0  0  0  0  0  0  0  0  0  0  0
  152.4544  143.6023  161.1599 C   0  0  0  0  0  0  0  0  0  0  0  0
  152.6119  142.2404  160.8402 C   0  0  0  0  0  0  0  0  0  0  0  0
  152.2905  141.7952  159.5436 C   0  0  0  0  0  0  0  0  0  0  0  0
  153.8100  134.5063  163.4914 H   0  0  0  0  0  0  0  0  0  0  0  0
  153.7880  135.5711  164.8919 H   0  0  0  0  0  0  0  0  0  0  0  0
  155.3328  135.1094  164.1357 H   0  0  0  0  0  0  0  0  0  0  0  0
  155.2995  137.1443  165.4884 H   0  0  0  0  0  0  0  0  0  0  0  0
  156.1960  141.1949  164.3613 H   0  0  0  0  0  0  0  0  0  0  0  0
  155.2544  140.8144  162.1350 H   0  0  0  0  0  0  0  0  0  0  0  0
  154.1199  140.4443  160.7651 H   0  0  0  0  0  0  0  0  0  0  0  0
  154.9254  139.3886  159.5998 H   0  0  0  0  0  0  0  0  0  0  0  0
  152.8513  138.5314  158.7586 H   0  0  0  0  0  0  0  0  0  0  0  0
  151.9816  138.9643  160.2035 H   0  0  0  0  0  0  0  0  0  0  0  0
  151.7375  138.7148  157.1351 H   0  0  0  0  0  0  0  0  0  0  0  0
  149.6812  139.8750  156.2710 H   0  0  0  0  0  0  0  0  0  0  0  0
  150.5347  139.0344  154.9825 H   0  0  0  0  0  0  0  0  0  0  0  0
  150.6738  140.7851  155.1364 H   0  0  0  0  0  0  0  0  0  0  0  0
  153.1161  138.6725  155.5989 H   0  0  0  0  0  0  0  0  0  0  0  0
  151.2840  144.7527  158.1558 H   0  0  0  0  0  0  0  0  0  0  0  0
  151.8532  145.5485  160.4399 H   0  0  0  0  0  0  0  0  0  0  0  0
  152.7026  143.9558  162.1498 H   0  0  0  0  0  0  0  0  0  0  0  0
  152.9842  141.5476  161.5802 H   0  0  0  0  0  0  0  0  0  0  0  0
  1  2  1  0  0  0  0
  1 26  1  0  0  0  0
  1 27  1  0  0  0  0
  1 28  1  0  0  0  0
  2  3  1  0  0  0  0
  3 10  1  0  0  0  0
  3  4  2  0  0  0  0
  4  5  1  0  0  0  0
  4 29  1  0  0  0  0
  5  6  1  0  0  0  0
  5  8  2  0  0  0  0
  6  7  3  0  0  0  0
  8  9  1  0  0  0  0
  8 30  1  0  0  0  0
  9 10  2  0  0  0  0
  9 31  1  0  0  0  0
 10 11  1  0  0  0  0
 11 12  1  0  0  0  0
 12 13  1  0  0  0  0
 12 32  1  0  0  0  0
 12 33  1  0  0  0  0
 13 14  1  0  0  0  0
 13 34  1  0  0  0  0
 13 35  1  0  0  0  0
 14 25  1  0  0  0  0
 14 15  1  0  0  0  0
 15 16  1  0  0  0  0
 15 19  2  0  0  0  0
 16 17  1  0  0  0  0
 16 18  1  0  0  0  0
 16 36  1  0  0  0  0
 17 37  1  0  0  0  0
 17 38  1  0  0  0  0
 17 39  1  0  0  0  0
 18 40  1  0  0  0  0
 19 20  1  0  0  0  0
 20 25  2  0  0  0  0
 20 21  1  0  0  0  0
 21 22  2  0  0  0  0
 21 41  1  0  0  0  0
 22 23  1  0  0  0  0
 22 42  1  0  0  0  0
 23 24  2  0  0  0  0
 23 43  1  0  0  0  0
 24 25  1  0  0  0  0
 24 44  1  0  0  0  0
M  END
> <s_m_source_file>
AV-unprocessed.smi

> <i_m_source_file_index>
2346

> <i_lp_mmshare_version>
43012

> <i_f3d_flags>
0

> <s_epik_input>
W0NIM11PYzFbY0hdYyhDI04pW2NIXVtjSF1jMU9bQ0gyXVtDSDJdbihjKG4yKVtDQEhdKFtDSDNdKVtPSF0pYyhjMjMpW2NIXVtjSF1bY0hdW2NIXTM=

> <s_epik_cmdline>
J2VwaWtfcHl0aG9uJywgJy1waCcsICc3LjAnLCAnLXRuJywgJzgnLCAnLW1hJywgJzIwMCcsICctbWV0YWxfYmluZGluZycsICctaW1hZScsICc8aW5maWxlLm1hZT4nLCAnLW9tYWUnLCAnPG91dGZpbGUubWFlPic=

> <r_epik_Ionization_Penalty>
0.0419826

> <r_epik_Ionization_Penalty_Charging>
0

> <r_epik_Ionization_Penalty_Neutral>
0.0419826

> <r_epik_State_Penalty>
0.0354317

> <r_epik_Charging_Adjusted_Penalty>
0.0354317

> <i_epik_Tot_Q>
0

> <i_epik_Tot_abs_Q>
0

> <r_epik_Metal_State_Penalty>
3.65115e-05

> <b_epik_Metal_Only>
0

> <s_lp_Force_Field>
OPLS_2005

> <r_lp_Energy>
17.2355

> <b_lp_Chiralities_Consistent>
1

> <s_lp_Variant>
AV-unprocessed.smi:2346-2

> <Gold.Version>
5.8.1

> <Gold.Id.Protein>
6NUR|6NUR_protein|mol2

> <Gold.PLP.Fitness>
50.5085

> <Gold.PLP.PLP>
-49.9069

> <Gold.PLP.part.hbond>
-1.4874

> <Gold.PLP.part.metal>
0.0000

> <Gold.PLP.part.buried>
-5.7802

> <Gold.PLP.part.nonpolar>
-42.2760

> <Gold.PLP.part.repulsive>
0.0951

> <Gold.PLP.ligand.clash>
0.0000

> <Gold.PLP.ligand.torsion>
1.2510

> <Gold.PLP.Chemscore.Hbond>
1.0000

> <Gold.PLP.Chemscore.CHOScore>
0.0000

> <Gold.PLP.Chemscore.Metal>
0.0000

> <Gold.Chemscore.Hbonds>
donor molecule, donor type, donor heavy atom, donor atom, acceptor molecule, acceptor atom, score
      P1  H  7997  8010       L1    18  1.00

> <Gold.PLP.Chemscore.Internal.Correction>
0.1036

> <Gold.Rescore>
     Score         DG    S(hbond)    S(metal)    S(lipo)     H(rot)  DE(clash)    DE(int)     intcor
     16.72     -18.08       0.97        0.00     136.13       2.57       0.11       1.25       ----

> <Gold.Chemscore.Fitness>
16.7175

> <Gold.Chemscore.DG>
-18.0780

> <Gold.Chemscore.ZeroCoef>
-5.4800

> <Gold.Chemscore.Hbond>
0.9716

> <Gold.Chemscore.Metal>
0.0000

> <Gold.Chemscore.Lipo>
136.1305

> <Gold.Chemscore.Internal_Hbond>
0.0000

> <Gold.Chemscore.DEClash>
0.1126

> <Gold.Chemscore.DEInternal>
1.2479

> <Gold.Chemscore.Rot>
2.5681

> <Gold.Chemscore.Internal.Correction>
   9.000000E+99

> <Gold.Chemscore.Hbonds>
donor molecule, donor type, donor heavy atom, donor atom, acceptor molecule, acceptor atom, score
      P1  H  7997  8010       L1    18  0.56

> <Gold.Chemscore.Hbond.Weighted>
-3.2450

> <Gold.Chemscore.Metal.Weighted>
-0.0000

> <Gold.Chemscore.Lipo.Weighted>
-15.9273

> <Gold.Chemscore.Internal_Hbond.Weighted>
0.0000

> <Gold.Chemscore.DEClash.Weighted>
0.1126

> <Gold.Chemscore.DEInternal.Weighted>
1.2479

> <Gold.Chemscore.Rot.Weighted>
6.5743

> <Gold.Chemscore.Internal.Correction.Weighted>
   9.000000E+99

> <Gold.Protein.RotatedTorsions>
[ 6907 6896 6895 6894 ] final   -6.86 input  -60.11 | X-H torsion
[ 7974 7965 7964 7962 ] final  -40.31 input  175.53 | X-H torsion
[ 8008 7997 7996 7995 ] final   80.49 input   59.86 | X-H torsion
[ 10167 10162 10161 10158 ] final   41.83 input  -65.29 | X-H torsion
[ 10718 10713 10712 10709 ] final  141.43 input   66.30 | X-H torsion
[ 10763 10752 10751 10750 ] final  -22.44 input  -60.55 | X-H torsion
[ 11005 11000 10999 10996 ] final  -99.70 input  -57.11 | X-H torsion

> <Gold.Protein.ActiveResidues>
 VAL166  LYS551  ARG553  GLY616  TRP617  ASP618  TYR619  PRO620  LYS621  CYS622 
 ASP623  PHE694  ASN695  SER759  ASP760  ASP761  ALA762  ILE779  LEU786  VAL792 
 PHE793  MET794  SER795  GLU796  ALA797  LYS798  CYS799  TRP800  GLU811  SER814 

> <Gold.Protein.RotatedAtoms>
  151.4589  135.1036  159.9718 H   0  0  0  0  0  0  0  0  0  0  0  0  # atno 6907 bound_to 6896
  152.4860  133.8371  159.7144 H   0  0  0  0  0  0  0  0  0  0  0  0  # atno 6908 bound_to 6896
  150.8971  133.7107  159.2916 H   0  0  0  0  0  0  0  0  0  0  0  0  # atno 6909 bound_to 6896
  146.0316  140.6724  142.9130 H   0  0  0  0  0  0  0  0  0  0  0  0  # atno 7974 bound_to 7965
  155.8842  140.3442  155.5909 H   0  0  0  0  0  0  0  0  0  0  0  0  # atno 8008 bound_to 7997
  155.7685  140.0842  157.2139 H   0  0  0  0  0  0  0  0  0  0  0  0  # atno 8009 bound_to 7997
  154.4027  140.1522  156.2902 H   0  0  0  0  0  0  0  0  0  0  0  0  # atno 8010 bound_to 7997
  140.3605  144.2235  150.6138 H   0  0  0  0  0  0  0  0  0  0  0  0  # atno 10167 bound_to 10162
  157.3921  131.1006  151.0636 H   0  0  0  0  0  0  0  0  0  0  0  0  # atno 10718 bound_to 10713
  153.6519  135.6980  153.5206 H   0  0  0  0  0  0  0  0  0  0  0  0  # atno 10763 bound_to 10752
  153.2700  135.4218  155.0977 H   0  0  0  0  0  0  0  0  0  0  0  0  # atno 10764 bound_to 10752
  154.8474  135.3576  154.6064 H   0  0  0  0  0  0  0  0  0  0  0  0  # atno 10765 bound_to 10752
  141.1299  133.8342  157.1006 H   0  0  0  0  0  0  0  0  0  0  0  0  # atno 11005 bound_to 11000
  144.7033  140.3745  143.7138 LP  0  0  0  0  0  0  0  0  0  0  0  0  # atno 17320 bound_to 7965
  145.7032  139.1666  143.2581 LP  0  0  0  0  0  0  0  0  0  0  0  0  # atno 17321 bound_to 7965
  140.5132  143.2285  151.8503 LP  0  0  0  0  0  0  0  0  0  0  0  0  # atno 17342 bound_to 10162
  139.4815  144.4925  151.9166 LP  0  0  0  0  0  0  0  0  0  0  0  0  # atno 17343 bound_to 10162
  157.1666  130.6249  149.5627 LP  0  0  0  0  0  0  0  0  0  0  0  0  # atno 17370 bound_to 10713
  155.9801  130.4799  150.6753 LP  0  0  0  0  0  0  0  0  0  0  0  0  # atno 17371 bound_to 10713
  140.0335  134.9889  157.0827 LP  0  0  0  0  0  0  0  0  0  0  0  0  # atno 17394 bound_to 11000
  140.4247  134.1844  155.7165 LP  0  0  0  0  0  0  0  0  0  0  0  0  # atno 17395 bound_to 11000

$$$$
