AV-unprocessed.smi:1557|AV-procd|sdf|6270|dock2
  -GOLD-   22720 6463D 1   1.00000     0.00000
 Structure written by MMmdl.
 41 42  0  0  0  0  0  0  0  0  1 V2000
  152.1153  138.0956  154.4655 C   0  0  0  0  0  0  0  0  0  0  0  0
  151.0501  139.1653  154.7169 C   0  0  0  0  0  0  0  0  0  0  0  0
  149.8343  138.7503  154.1024 O   0  0  0  0  0  0  0  0  0  0  0  0
  148.7479  139.6037  154.1339 C   0  0  0  0  0  0  0  0  0  0  0  0
  148.9273  140.8628  154.6066 N   0  0  0  0  0  0  0  0  0  0  0  0
  147.8650  141.6934  154.6404 C   0  0  0  0  0  0  0  0  0  0  0  0
  146.5775  141.3161  154.2163 C   0  0  0  0  0  0  0  0  0  0  0  0
  146.3892  140.0109  153.7252 C   0  0  0  0  0  0  0  0  0  0  0  0
  147.4983  139.1328  153.6687 C   0  0  0  0  0  0  0  0  0  0  0  0
  147.4149  137.7906  153.2082 N   0  0  0  0  0  0  0  0  0  0  0  0
  146.3218  137.0214  153.0755 C   0  0  0  0  0  0  0  0  0  0  0  0
  145.1735  137.3585  153.3645 O   0  0  0  0  0  0  0  0  0  0  0  0
  146.6347  135.8245  152.5571 N   0  0  0  0  0  0  0  0  0  0  0  0
  145.6770  134.7744  152.2067 C   0  0  2  0  0  0  0  0  0  0  0  0
  146.4660  133.5923  151.5891 C   0  0  0  0  0  0  0  0  0  0  0  0
  145.6405  132.5576  150.7920 C   0  0  0  0  0  0  0  0  0  0  0  0
  144.3128  132.1301  151.4508 C   0  0  0  0  0  0  0  0  0  0  0  0
  143.2591  133.2445  151.6819 C   0  0  0  0  0  0  0  0  0  0  0  0
  143.5380  134.5081  150.9990 N   0  0  0  0  0  0  0  0  0  0  0  0
  144.6198  135.2796  151.1991 C   0  0  0  0  0  0  0  0  0  0  0  0
  144.7789  136.3330  150.5832 O   0  0  0  0  0  0  0  0  0  0  0  0
  153.0645  138.3762  154.9226 H   0  0  0  0  0  0  0  0  0  0  0  0
  152.2863  137.9568  153.3978 H   0  0  0  0  0  0  0  0  0  0  0  0
  151.8127  137.1357  154.8847 H   0  0  0  0  0  0  0  0  0  0  0  0
  150.9095  139.2955  155.7912 H   0  0  0  0  0  0  0  0  0  0  0  0
  151.3822  140.1174  154.3001 H   0  0  0  0  0  0  0  0  0  0  0  0
  148.0454  142.6869  155.0235 H   0  0  0  0  0  0  0  0  0  0  0  0
  145.7520  142.0101  154.2705 H   0  0  0  0  0  0  0  0  0  0  0  0
  145.4012  139.7052  153.4171 H   0  0  0  0  0  0  0  0  0  0  0  0
  148.2751  137.4052  152.8465 H   0  0  0  0  0  0  0  0  0  0  0  0
  147.6039  135.6396  152.3452 H   0  0  0  0  0  0  0  0  0  0  0  0
  145.1802  134.4414  153.1191 H   0  0  0  0  0  0  0  0  0  0  0  0
  147.2499  133.9712  150.9312 H   0  0  0  0  0  0  0  0  0  0  0  0
  146.9868  133.0756  152.3963 H   0  0  0  0  0  0  0  0  0  0  0  0
  145.4363  132.9442  149.7925 H   0  0  0  0  0  0  0  0  0  0  0  0
  146.2568  131.6727  150.6299 H   0  0  0  0  0  0  0  0  0  0  0  0
  143.8627  131.3634  150.8193 H   0  0  0  0  0  0  0  0  0  0  0  0
  144.5220  131.6351  152.4000 H   0  0  0  0  0  0  0  0  0  0  0  0
  142.2808  132.8922  151.3540 H   0  0  0  0  0  0  0  0  0  0  0  0
  143.1521  133.4404  152.7496 H   0  0  0  0  0  0  0  0  0  0  0  0
  142.8517  134.8260  150.3300 H   0  0  0  0  0  0  0  0  0  0  0  0
  1  2  1  0  0  0  0
  1 22  1  0  0  0  0
  1 23  1  0  0  0  0
  1 24  1  0  0  0  0
  2  3  1  0  0  0  0
  2 25  1  0  0  0  0
  2 26  1  0  0  0  0
  3  4  1  0  0  0  0
  4  9  1  0  0  0  0
  4  5  2  0  0  0  0
  5  6  1  0  0  0  0
  6  7  2  0  0  0  0
  6 27  1  0  0  0  0
  7  8  1  0  0  0  0
  7 28  1  0  0  0  0
  8  9  2  0  0  0  0
  8 29  1  0  0  0  0
  9 10  1  0  0  0  0
 10 11  1  0  0  0  0
 10 30  1  0  0  0  0
 11 12  2  0  0  0  0
 11 13  1  0  0  0  0
 13 14  1  0  0  0  0
 13 31  1  0  0  0  0
 14 20  1  0  0  0  0
 14 15  1  0  0  0  0
 14 32  1  0  0  0  0
 15 16  1  0  0  0  0
 15 33  1  0  0  0  0
 15 34  1  0  0  0  0
 16 17  1  0  0  0  0
 16 35  1  0  0  0  0
 16 36  1  0  0  0  0
 17 18  1  0  0  0  0
 17 37  1  0  0  0  0
 17 38  1  0  0  0  0
 18 19  1  0  0  0  0
 18 39  1  0  0  0  0
 18 40  1  0  0  0  0
 19 20  1  0  0  0  0
 19 41  1  0  0  0  0
 20 21  2  0  0  0  0
M  END
> <s_m_source_file>
AV-unprocessed.smi

> <i_m_source_file_index>
1557

> <i_lp_mmshare_version>
43012

> <i_f3d_flags>
0

> <s_epik_input>
W0NIM11bQ0gyXU9jMW5bY0hdW2NIXVtjSF1jMVtOSF1DKD1PKVtOSF1bQ0BASF0yW0NIMl1bQ0gyXVtDSDJdW0NIMl1bTkhdQzI9Tw==

> <s_epik_cmdline>
J2VwaWtfcHl0aG9uJywgJy1waCcsICc3LjAnLCAnLXRuJywgJzgnLCAnLW1hJywgJzIwMCcsICctbWV0YWxfYmluZGluZycsICctaW1hZScsICc8aW5maWxlLm1hZT4nLCAnLW9tYWUnLCAnPG91dGZpbGUubWFlPic=

> <r_lp_tautomer_probability>
1

> <r_epik_Ionization_Penalty>
0.000101084

> <r_epik_Ionization_Penalty_Charging>
0

> <r_epik_Ionization_Penalty_Neutral>
0.000101084

> <r_epik_State_Penalty>
-0

> <r_epik_Charging_Adjusted_Penalty>
0

> <i_epik_Tot_Q>
0

> <i_epik_Tot_abs_Q>
0

> <r_epik_Metal_State_Penalty>
-0

> <b_epik_Metal_Only>
0

> <s_lp_Force_Field>
OPLS_2005

> <r_lp_Energy>
17.7694

> <b_lp_Chiralities_Consistent>
1

> <s_lp_Variant>
AV-unprocessed.smi:1557-1

> <Gold.Version>
5.8.1

> <Gold.Id.Protein>
6NUR|6NUR_protein|mol2

> <Gold.PLP.Fitness>
40.2413

> <Gold.PLP.PLP>
-29.2514

> <Gold.PLP.part.hbond>
-2.6770

> <Gold.PLP.part.metal>
0.0000

> <Gold.PLP.part.buried>
-3.4544

> <Gold.PLP.part.nonpolar>
-28.7925

> <Gold.PLP.part.repulsive>
4.5037

> <Gold.PLP.ligand.clash>
0.0000

> <Gold.PLP.ligand.torsion>
0.1487

> <Gold.PLP.Chemscore.Hbond>
2.7597

> <Gold.PLP.Chemscore.CHOScore>
1.0000

> <Gold.PLP.Chemscore.Metal>
0.0000

> <Gold.Chemscore.Hbonds>
donor molecule, donor type, donor heavy atom, donor atom, acceptor molecule, acceptor atom, score
      L1  H    10    30       P1  7948  0.93
      L1  H    13    31       P1  7948  0.94
      L1  H    19    41       P1 10186  0.88
      L1  C     6    27       P1  8028  1.00

> <Gold.PLP.Chemscore.Internal.Correction>
0.0082

> <Gold.Rescore>
     Score         DG    S(hbond)    S(metal)    S(lipo)     H(rot)  DE(clash)    DE(int)     intcor
     15.29     -18.15       2.47        0.00      70.36       1.49       1.50       1.36       ----

> <Gold.Chemscore.Fitness>
15.2898

> <Gold.Chemscore.DG>
-18.1499

> <Gold.Chemscore.ZeroCoef>
-5.4800

> <Gold.Chemscore.Hbond>
2.4745

> <Gold.Chemscore.Metal>
0.0000

> <Gold.Chemscore.Lipo>
70.3577

> <Gold.Chemscore.Internal_Hbond>
0.0000

> <Gold.Chemscore.DEClash>
1.5043

> <Gold.Chemscore.DEInternal>
1.3558

> <Gold.Chemscore.Rot>
1.4948

> <Gold.Chemscore.Internal.Correction>
   9.000000E+99

> <Gold.Chemscore.Hbonds>
donor molecule, donor type, donor heavy atom, donor atom, acceptor molecule, acceptor atom, score
      L1  H    10    30       P1  7948  0.89
      L1  H    13    31       P1  7948  0.85
      L1  H    19    41       P1 10186  0.24

> <Gold.Chemscore.Hbond.Weighted>
-8.2648

> <Gold.Chemscore.Metal.Weighted>
-0.0000

> <Gold.Chemscore.Lipo.Weighted>
-8.2319

> <Gold.Chemscore.Internal_Hbond.Weighted>
0.0000

> <Gold.Chemscore.DEClash.Weighted>
1.5043

> <Gold.Chemscore.DEInternal.Weighted>
1.3558

> <Gold.Chemscore.Rot.Weighted>
3.8268

> <Gold.Chemscore.Internal.Correction.Weighted>
   9.000000E+99

> <Gold.Protein.RotatedTorsions>
[ 6907 6896 6895 6894 ] final -167.58 input  -60.11 | X-H torsion
[ 7974 7965 7964 7962 ] final -129.81 input  175.53 | X-H torsion
[ 8008 7997 7996 7995 ] final  -53.81 input   59.86 | X-H torsion
[ 10167 10162 10161 10158 ] final  -75.00 input  -65.29 | X-H torsion
[ 10718 10713 10712 10709 ] final   41.92 input   66.30 | X-H torsion
[ 10763 10752 10751 10750 ] final  177.83 input  -60.55 | X-H torsion
[ 11005 11000 10999 10996 ] final -124.01 input  -57.11 | X-H torsion

> <Gold.Protein.ActiveResidues>
 VAL166  LYS551  ARG553  GLY616  TRP617  ASP618  TYR619  PRO620  LYS621  CYS622 
 ASP623  PHE694  ASN695  SER759  ASP760  ASP761  ALA762  ILE779  LEU786  VAL792 
 PHE793  MET794  SER795  GLU796  ALA797  LYS798  CYS799  TRP800  GLU811  SER814 

> <Gold.Protein.RotatedAtoms>
  151.4619  133.3591  159.2810 H   0  0  0  0  0  0  0  0  0  0  0  0  # atno 6907 bound_to 6896
  150.9020  134.8434  159.7377 H   0  0  0  0  0  0  0  0  0  0  0  0  # atno 6908 bound_to 6896
  152.4884  134.4540  159.9635 H   0  0  0  0  0  0  0  0  0  0  0  0  # atno 6909 bound_to 6896
  144.9536  140.7371  143.4773 H   0  0  0  0  0  0  0  0  0  0  0  0  # atno 7974 bound_to 7965
  154.4144  140.1191  156.5214 H   0  0  0  0  0  0  0  0  0  0  0  0  # atno 8008 bound_to 7997
  155.6699  140.3496  155.4795 H   0  0  0  0  0  0  0  0  0  0  0  0  # atno 8009 bound_to 7997
  155.9642  140.1129  157.0859 H   0  0  0  0  0  0  0  0  0  0  0  0  # atno 8010 bound_to 7997
  140.4980  143.2367  151.7799 H   0  0  0  0  0  0  0  0  0  0  0  0  # atno 10167 bound_to 10162
  157.3991  130.7849  149.7333 H   0  0  0  0  0  0  0  0  0  0  0  0  # atno 10718 bound_to 10713
  154.4997  135.2783  155.1430 H   0  0  0  0  0  0  0  0  0  0  0  0  # atno 10763 bound_to 10752
  154.3069  135.6237  153.5452 H   0  0  0  0  0  0  0  0  0  0  0  0  # atno 10764 bound_to 10752
  152.9900  135.5710  154.5437 H   0  0  0  0  0  0  0  0  0  0  0  0  # atno 10765 bound_to 10752
  140.9874  134.0587  157.3694 H   0  0  0  0  0  0  0  0  0  0  0  0  # atno 11005 bound_to 11000
  145.2807  139.1919  143.4792 LP  0  0  0  0  0  0  0  0  0  0  0  0  # atno 17320 bound_to 7965
  146.3329  140.2768  142.8608 LP  0  0  0  0  0  0  0  0  0  0  0  0  # atno 17321 bound_to 7965
  139.4865  144.4561  151.9597 LP  0  0  0  0  0  0  0  0  0  0  0  0  # atno 17342 bound_to 10162
  140.3649  144.2927  150.5928 LP  0  0  0  0  0  0  0  0  0  0  0  0  # atno 17343 bound_to 10162
  155.9818  130.4016  150.3450 LP  0  0  0  0  0  0  0  0  0  0  0  0  # atno 17370 bound_to 10713
  157.1576  131.0337  151.2856 LP  0  0  0  0  0  0  0  0  0  0  0  0  # atno 17371 bound_to 10713
  139.8977  135.0151  156.7112 LP  0  0  0  0  0  0  0  0  0  0  0  0  # atno 17394 bound_to 11000
  140.7093  133.9237  155.8074 LP  0  0  0  0  0  0  0  0  0  0  0  0  # atno 17395 bound_to 11000

$$$$
