AV-unprocessed.smi:1893|AV-procd|sdf|7676|dock4
  -GOLD-   22720 9413D 1   1.00000     0.00000
 Structure written by MMmdl.
 43 44  0  0  0  0  0  0  0  0  2 V2000
  144.2843  135.4132  154.1827 C   0  0  0  0  0  0  0  0  0  0  0  0
  145.5738  135.1819  153.3648 C   0  0  1  0  0  0  0  0  0  0  0  0
  145.6059  133.7891  152.7011 C   0  0  0  0  0  0  0  0  0  0  0  0
  144.6375  133.6939  151.5129 C   0  0  0  0  0  0  0  0  0  0  0  0
  144.9190  134.8226  150.5140 C   0  0  0  0  0  0  0  0  0  0  0  0
  144.8843  136.1975  151.2017 C   0  0  0  0  0  0  0  0  0  0  0  0
  145.8315  136.2472  152.3494 N   0  3  1  0  0  0  0  0  0  0  0  0
  145.9924  137.6028  152.9363 C   0  0  0  0  0  0  0  0  0  0  0  0
  146.5714  138.6122  151.9272 C   0  0  0  0  0  0  0  0  0  0  0  0
  147.2144  139.7332  152.6019 N   0  0  0  0  0  0  0  0  0  0  0  0
  148.0862  139.6212  153.6176 C   0  0  0  0  0  0  0  0  0  0  0  0
  148.4033  138.5353  154.1048 O   0  0  0  0  0  0  0  0  0  0  0  0
  148.6748  140.9343  154.1644 C   0  0  1  0  0  0  0  0  0  0  0  0
  147.5946  141.9559  154.5743 C   0  0  0  0  0  0  0  0  0  0  0  0
  149.6040  140.6700  155.2568 N   0  0  0  0  0  0  0  0  0  0  0  0
  149.7913  141.3260  156.4041 C   0  0  0  0  0  0  0  0  0  0  0  0
  150.7569  140.8233  157.1604 N   0  0  0  0  0  0  0  0  0  0  0  0
  151.1552  139.7875  156.3636 C   0  0  0  0  0  0  0  0  0  0  0  0
  150.5029  139.6552  155.2090 N   0  0  0  0  0  0  0  0  0  0  0  0
  144.1511  134.6225  154.9213 H   0  0  0  0  0  0  0  0  0  0  0  0
  143.3913  135.4244  153.5587 H   0  0  0  0  0  0  0  0  0  0  0  0
  144.3162  136.3545  154.7312 H   0  0  0  0  0  0  0  0  0  0  0  0
  146.4047  135.2077  154.0713 H   0  0  0  0  0  0  0  0  0  0  0  0
  146.6183  133.5832  152.3504 H   0  0  0  0  0  0  0  0  0  0  0  0
  145.3780  133.0140  153.4338 H   0  0  0  0  0  0  0  0  0  0  0  0
  144.7396  132.7252  151.0229 H   0  0  0  0  0  0  0  0  0  0  0  0
  143.6065  133.7551  151.8622 H   0  0  0  0  0  0  0  0  0  0  0  0
  145.8967  134.6687  150.0551 H   0  0  0  0  0  0  0  0  0  0  0  0
  144.1902  134.7923  149.7035 H   0  0  0  0  0  0  0  0  0  0  0  0
  145.1435  136.9578  150.4660 H   0  0  0  0  0  0  0  0  0  0  0  0
  143.8730  136.4288  151.5379 H   0  0  0  0  0  0  0  0  0  0  0  0
  145.0368  137.9557  153.3270 H   0  0  0  0  0  0  0  0  0  0  0  0
  146.6714  137.5414  153.7880 H   0  0  0  0  0  0  0  0  0  0  0  0
  147.2818  138.1217  151.2595 H   0  0  0  0  0  0  0  0  0  0  0  0
  145.7868  139.0250  151.2944 H   0  0  0  0  0  0  0  0  0  0  0  0
  147.0038  140.6586  152.2566 H   0  0  0  0  0  0  0  0  0  0  0  0
  149.2519  141.3807  153.3529 H   0  0  0  0  0  0  0  0  0  0  0  0
  146.9461  142.2047  153.7335 H   0  0  0  0  0  0  0  0  0  0  0  0
  148.0499  142.8850  154.9188 H   0  0  0  0  0  0  0  0  0  0  0  0
  146.9631  141.5799  155.3802 H   0  0  0  0  0  0  0  0  0  0  0  0
  149.2123  142.1917  156.6903 H   0  0  0  0  0  0  0  0  0  0  0  0
  151.9532  139.1144  156.6402 H   0  0  0  0  0  0  0  0  0  0  0  0
  146.7369  136.0184  151.9643 H   0  0  0  0  0  0  0  0  0  0  0  0
  1  2  1  0  0  0  0
  1 20  1  0  0  0  0
  1 21  1  0  0  0  0
  1 22  1  0  0  0  0
  2  7  1  0  0  0  0
  2  3  1  0  0  0  0
  2 23  1  0  0  0  0
  3  4  1  0  0  0  0
  3 24  1  0  0  0  0
  3 25  1  0  0  0  0
  4  5  1  0  0  0  0
  4 26  1  0  0  0  0
  4 27  1  0  0  0  0
  5  6  1  0  0  0  0
  5 28  1  0  0  0  0
  5 29  1  0  0  0  0
  6  7  1  0  0  0  0
  6 30  1  0  0  0  0
  6 31  1  0  0  0  0
  7  8  1  0  0  0  0
  7 43  1  0  0  0  0
  8  9  1  0  0  0  0
  8 32  1  0  0  0  0
  8 33  1  0  0  0  0
  9 10  1  0  0  0  0
  9 34  1  0  0  0  0
  9 35  1  0  0  0  0
 10 11  1  0  0  0  0
 10 36  1  0  0  0  0
 11 12  2  0  0  0  0
 11 13  1  0  0  0  0
 13 14  1  0  0  0  0
 13 15  1  0  0  0  0
 13 37  1  0  0  0  0
 14 38  1  0  0  0  0
 14 39  1  0  0  0  0
 14 40  1  0  0  0  0
 15 19  1  0  0  0  0
 15 16  1  0  0  0  0
 16 17  2  0  0  0  0
 16 41  1  0  0  0  0
 17 18  1  0  0  0  0
 18 19  2  0  0  0  0
 18 42  1  0  0  0  0
M  CHG  1   7   1
M  END
> <s_m_source_file>
AV-unprocessed.smi

> <i_m_source_file_index>
1893

> <i_lp_mmshare_version>
43012

> <i_f3d_flags>
0

> <s_epik_input>
W0NIM11bQ0BASF0xW0NIMl1bQ0gyXVtDSDJdW0NIMl1OMVtDSDJdW0NIMl1bTkhdQyg9TylbQ0BIXShbQ0gzXSluMltjSF1uW2NIXW4y

> <s_epik_cmdline>
J2VwaWtfcHl0aG9uJywgJy1waCcsICc3LjAnLCAnLXRuJywgJzgnLCAnLW1hJywgJzIwMCcsICctbWV0YWxfYmluZGluZycsICctaW1hZScsICc8aW5maWxlLm1hZT4nLCAnLW9tYWUnLCAnPG91dGZpbGUubWFlPic=

> <r_lp_tautomer_probability>
1

> <r_epik_Ionization_Penalty>
0.00266409

> <r_epik_Ionization_Penalty_Charging>
0.00265606

> <r_epik_Ionization_Penalty_Neutral>
8.02794e-06

> <r_epik_State_Penalty>
0.00184955

> <r_epik_Charging_Adjusted_Penalty>
0.00450561

> <i_epik_Tot_Q>
1

> <i_epik_Tot_abs_Q>
1

> <r_epik_Metal_State_Penalty>
-0

> <b_epik_Metal_Only>
0

> <s_lp_Force_Field>
OPLS_2005

> <r_lp_Energy>
24.9679

> <b_lp_Chiralities_Consistent>
1

> <s_lp_Variant>
AV-unprocessed.smi:1893-6

> <Gold.Version>
5.8.1

> <Gold.Id.Protein>
6NUR|6NUR_protein|mol2

> <Gold.PLP.Fitness>
44.2160

> <Gold.PLP.PLP>
-33.4430

> <Gold.PLP.part.hbond>
-3.0000

> <Gold.PLP.part.metal>
0.0000

> <Gold.PLP.part.buried>
0.0822

> <Gold.PLP.part.nonpolar>
-30.5338

> <Gold.PLP.part.repulsive>
0.3981

> <Gold.PLP.ligand.clash>
0.0000

> <Gold.PLP.ligand.torsion>
0.6626

> <Gold.PLP.Chemscore.Hbond>
3.0000

> <Gold.PLP.Chemscore.CHOScore>
0.9770

> <Gold.PLP.Chemscore.Metal>
0.0000

> <Gold.Chemscore.Hbonds>
donor molecule, donor type, donor heavy atom, donor atom, acceptor molecule, acceptor atom, score
      L1  H     7    43       P1  7948  1.14
      P1  H  7989  7998       L1    19  0.05
      L1  C    16    41       P1  8028  0.46

> <Gold.PLP.Chemscore.Internal.Correction>
0.1672

> <Gold.Rescore>
     Score         DG    S(hbond)    S(metal)    S(lipo)     H(rot)  DE(clash)    DE(int)     intcor
      6.68     -10.63       1.73        0.00      50.26       2.54       0.45       3.49       ----

> <Gold.Chemscore.Fitness>
6.6847

> <Gold.Chemscore.DG>
-10.6264

> <Gold.Chemscore.ZeroCoef>
-5.4800

> <Gold.Chemscore.Hbond>
1.7255

> <Gold.Chemscore.Metal>
0.0000

> <Gold.Chemscore.Lipo>
50.2561

> <Gold.Chemscore.Internal_Hbond>
0.0000

> <Gold.Chemscore.DEClash>
0.4494

> <Gold.Chemscore.DEInternal>
3.4923

> <Gold.Chemscore.Rot>
2.5377

> <Gold.Chemscore.Internal.Correction>
   9.000000E+99

> <Gold.Chemscore.Hbonds>
donor molecule, donor type, donor heavy atom, donor atom, acceptor molecule, acceptor atom, score
      L1  H     7    43       P1  7948  0.55

> <Gold.Chemscore.Hbond.Weighted>
-5.7630

> <Gold.Chemscore.Metal.Weighted>
-0.0000

> <Gold.Chemscore.Lipo.Weighted>
-5.8800

> <Gold.Chemscore.Internal_Hbond.Weighted>
0.0000

> <Gold.Chemscore.DEClash.Weighted>
0.4494

> <Gold.Chemscore.DEInternal.Weighted>
3.4923

> <Gold.Chemscore.Rot.Weighted>
6.4966

> <Gold.Chemscore.Internal.Correction.Weighted>
   9.000000E+99

> <Gold.Protein.RotatedTorsions>
[ 6907 6896 6895 6894 ] final -100.48 input  -60.11 | X-H torsion
[ 7974 7965 7964 7962 ] final   94.08 input  175.53 | X-H torsion
[ 8008 7997 7996 7995 ] final   -4.51 input   59.86 | X-H torsion
[ 10167 10162 10161 10158 ] final -139.41 input  -65.29 | X-H torsion
[ 10718 10713 10712 10709 ] final   73.42 input   66.30 | X-H torsion
[ 10763 10752 10751 10750 ] final   94.76 input  -60.55 | X-H torsion
[ 11005 11000 10999 10996 ] final   -7.12 input  -57.11 | X-H torsion

> <Gold.Protein.ActiveResidues>
 VAL166  LYS551  ARG553  GLY616  TRP617  ASP618  TYR619  PRO620  LYS621  CYS622 
 ASP623  PHE694  ASN695  SER759  ASP760  ASP761  ALA762  ILE779  LEU786  VAL792 
 PHE793  MET794  SER795  GLU796  ALA797  LYS798  CYS799  TRP800  GLU811  SER814 

> <Gold.Protein.RotatedAtoms>
  150.7118  134.0880  159.3921 H   0  0  0  0  0  0  0  0  0  0  0  0  # atno 6907 bound_to 6896
  151.8865  135.0431  160.0503 H   0  0  0  0  0  0  0  0  0  0  0  0  # atno 6908 bound_to 6896
  152.2526  133.5192  159.5371 H   0  0  0  0  0  0  0  0  0  0  0  0  # atno 6909 bound_to 6896
  145.4704  139.2282  143.2938 H   0  0  0  0  0  0  0  0  0  0  0  0  # atno 7974 bound_to 7965
  154.6135  140.2482  155.7639 H   0  0  0  0  0  0  0  0  0  0  0  0  # atno 8008 bound_to 7997
  156.2385  140.2941  156.0328 H   0  0  0  0  0  0  0  0  0  0  0  0  # atno 8009 bound_to 7997
  155.2013  140.0394  157.2908 H   0  0  0  0  0  0  0  0  0  0  0  0  # atno 8010 bound_to 7997
  139.8382  143.7357  152.2664 H   0  0  0  0  0  0  0  0  0  0  0  0  # atno 10167 bound_to 10162
  157.6547  130.9627  150.1066 H   0  0  0  0  0  0  0  0  0  0  0  0  # atno 10718 bound_to 10713
  153.2453  135.4278  155.0741 H   0  0  0  0  0  0  0  0  0  0  0  0  # atno 10763 bound_to 10752
  154.8358  135.3412  154.6590 H   0  0  0  0  0  0  0  0  0  0  0  0  # atno 10764 bound_to 10752
  153.7013  135.7028  153.5119 H   0  0  0  0  0  0  0  0  0  0  0  0  # atno 10765 bound_to 10752
  140.7093  133.8922  155.8739 H   0  0  0  0  0  0  0  0  0  0  0  0  # atno 11005 bound_to 11000
  146.2400  140.5481  142.8938 LP  0  0  0  0  0  0  0  0  0  0  0  0  # atno 17320 bound_to 7965
  144.7949  140.6103  143.6517 LP  0  0  0  0  0  0  0  0  0  0  0  0  # atno 17321 bound_to 7965
  139.7586  144.7513  151.0398 LP  0  0  0  0  0  0  0  0  0  0  0  0  # atno 17342 bound_to 10162
  140.7800  143.4777  151.0060 LP  0  0  0  0  0  0  0  0  0  0  0  0  # atno 17343 bound_to 10162
  156.1974  130.3658  149.8831 LP  0  0  0  0  0  0  0  0  0  0  0  0  # atno 17370 bound_to 10713
  156.6744  130.8833  151.3567 LP  0  0  0  0  0  0  0  0  0  0  0  0  # atno 17371 bound_to 10713
  141.0098  134.1037  157.4233 LP  0  0  0  0  0  0  0  0  0  0  0  0  # atno 17394 bound_to 11000
  139.8876  135.0091  156.6568 LP  0  0  0  0  0  0  0  0  0  0  0  0  # atno 17395 bound_to 11000

$$$$
