AV-unprocessed.smi:3312|AV-procd|sdf|12727|dock1
  -GOLD-   2272019 73D 1   1.00000     0.00000
 Structure written by MMmdl.
 39 40  0  0  0  0  0  0  0  0  2 V2000
  153.3335  142.9324  163.3536 C   0  0  0  0  0  0  0  0  0  0  0  0
  152.9080  143.0884  161.9221 C   0  0  0  0  0  0  0  0  0  0  0  0
  153.0935  142.1693  160.8507 C   0  0  0  0  0  0  0  0  0  0  0  0
  152.6027  142.6112  159.7047 N   0  0  0  0  0  0  0  0  0  0  0  0
  152.0797  143.8191  160.0035 N   0  0  0  0  0  0  0  0  0  0  0  0
  151.4450  144.6087  158.9627 C   0  0  0  0  0  0  0  0  0  0  0  0
  151.5627  143.9507  157.5785 C   0  0  0  0  0  0  0  0  0  0  0  0
  150.4772  142.9715  157.3549 N   0  3  0  0  0  0  0  0  0  0  0  0
  150.9293  141.5713  157.2051 C   0  0  0  0  0  0  0  0  0  0  0  0
  150.2502  140.8431  156.0318 C   0  0  0  0  0  0  0  0  0  0  0  0
  149.0782  141.1149  155.7638 O   0  0  0  0  0  0  0  0  0  0  0  0
  150.9588  139.9319  155.3240 N   0  0  0  0  0  0  0  0  0  0  0  0
  152.3468  139.5316  155.5750 C   0  0  0  0  0  0  0  0  0  0  0  0
  152.3532  138.0483  155.9851 C   0  0  0  0  0  0  0  0  0  0  0  0
  151.7570  137.2658  154.9532 O   0  0  0  0  0  0  0  0  0  0  0  0
  150.4163  137.6518  154.6584 C   0  0  0  0  0  0  0  0  0  0  0  0
  150.3815  139.1328  154.2394 C   0  0  0  0  0  0  0  0  0  0  0  0
  152.2579  144.1361  161.3335 C   0  0  0  0  0  0  0  0  0  0  0  0
  154.1039  142.1691  163.4656 H   0  0  0  0  0  0  0  0  0  0  0  0
  152.4987  142.6424  163.9921 H   0  0  0  0  0  0  0  0  0  0  0  0
  153.7408  143.8596  163.7573 H   0  0  0  0  0  0  0  0  0  0  0  0
  153.5695  141.2001  160.8718 H   0  0  0  0  0  0  0  0  0  0  0  0
  150.3972  144.7626  159.2248 H   0  0  0  0  0  0  0  0  0  0  0  0
  151.9137  145.5936  158.9497 H   0  0  0  0  0  0  0  0  0  0  0  0
  151.5151  144.7118  156.7992 H   0  0  0  0  0  0  0  0  0  0  0  0
  152.5340  143.4641  157.4808 H   0  0  0  0  0  0  0  0  0  0  0  0
  149.8415  143.0081  158.1396 H   0  0  0  0  0  0  0  0  0  0  0  0
  152.0036  141.5870  157.0184 H   0  0  0  0  0  0  0  0  0  0  0  0
  150.7658  141.0377  158.1424 H   0  0  0  0  0  0  0  0  0  0  0  0
  152.9285  139.6669  154.6618 H   0  0  0  0  0  0  0  0  0  0  0  0
  152.8497  140.1281  156.3342 H   0  0  0  0  0  0  0  0  0  0  0  0
  153.3753  137.7041  156.1432 H   0  0  0  0  0  0  0  0  0  0  0  0
  151.8160  137.9014  156.9237 H   0  0  0  0  0  0  0  0  0  0  0  0
  150.0365  137.0227  153.8533 H   0  0  0  0  0  0  0  0  0  0  0  0
  149.7796  137.4787  155.5276 H   0  0  0  0  0  0  0  0  0  0  0  0
  149.3583  139.4204  153.9944 H   0  0  0  0  0  0  0  0  0  0  0  0
  150.9637  139.2815  153.3289 H   0  0  0  0  0  0  0  0  0  0  0  0
  151.9085  145.0698  161.7497 H   0  0  0  0  0  0  0  0  0  0  0  0
  149.9787  143.2438  156.5202 H   0  0  0  0  0  0  0  0  0  0  0  0
  1  2  1  0  0  0  0
  1 19  1  0  0  0  0
  1 20  1  0  0  0  0
  1 21  1  0  0  0  0
  2 18  2  0  0  0  0
  2  3  1  0  0  0  0
  3  4  2  0  0  0  0
  3 22  1  0  0  0  0
  4  5  1  0  0  0  0
  5  6  1  0  0  0  0
  5 18  1  0  0  0  0
  6  7  1  0  0  0  0
  6 23  1  0  0  0  0
  6 24  1  0  0  0  0
  7  8  1  0  0  0  0
  7 25  1  0  0  0  0
  7 26  1  0  0  0  0
  8  9  1  0  0  0  0
  8 27  1  0  0  0  0
  8 39  1  0  0  0  0
  9 10  1  0  0  0  0
  9 28  1  0  0  0  0
  9 29  1  0  0  0  0
 10 11  2  0  0  0  0
 10 12  1  0  0  0  0
 12 17  1  0  0  0  0
 12 13  1  0  0  0  0
 13 14  1  0  0  0  0
 13 30  1  0  0  0  0
 13 31  1  0  0  0  0
 14 15  1  0  0  0  0
 14 32  1  0  0  0  0
 14 33  1  0  0  0  0
 15 16  1  0  0  0  0
 16 17  1  0  0  0  0
 16 34  1  0  0  0  0
 16 35  1  0  0  0  0
 17 36  1  0  0  0  0
 17 37  1  0  0  0  0
 18 38  1  0  0  0  0
M  CHG  1   8   1
M  END
> <s_m_source_file>
AV-unprocessed.smi

> <i_m_source_file_index>
3312

> <i_lp_mmshare_version>
43012

> <i_f3d_flags>
0

> <s_epik_input>
W0NIM11jMVtjSF1ubihbY0hdMSlbQ0gyXVtDSDJdW05IXVtDSDJdQyg9TylOMltDSDJdW0NIMl1PW0NIMl1bQ0gyXTI=

> <s_epik_cmdline>
J2VwaWtfcHl0aG9uJywgJy1waCcsICc3LjAnLCAnLXRuJywgJzgnLCAnLW1hJywgJzIwMCcsICctbWV0YWxfYmluZGluZycsICctaW1hZScsICc8aW5maWxlLm1hZT4nLCAnLW9tYWUnLCAnPG91dGZpbGUubWFlPic=

> <r_lp_tautomer_probability>
1

> <r_epik_Ionization_Penalty>
0.325402

> <r_epik_Ionization_Penalty_Charging>
0.325398

> <r_epik_Ionization_Penalty_Neutral>
4.45308e-06

> <r_epik_State_Penalty>
0.321221

> <r_epik_Charging_Adjusted_Penalty>
0.646619

> <i_epik_Tot_Q>
1

> <i_epik_Tot_abs_Q>
1

> <r_epik_Metal_State_Penalty>
0.321643

> <b_epik_Metal_Only>
0

> <s_lp_Force_Field>
OPLS_2005

> <r_lp_Energy>
21.6744

> <b_lp_Chiralities_Consistent>
1

> <s_lp_Variant>
AV-unprocessed.smi:3312-1

> <Gold.Version>
5.8.1

> <Gold.Id.Protein>
6NUR|6NUR_protein|mol2

> <Gold.PLP.Fitness>
52.9578

> <Gold.PLP.PLP>
-47.0157

> <Gold.PLP.part.hbond>
-2.0000

> <Gold.PLP.part.metal>
0.0000

> <Gold.PLP.part.buried>
-3.8896

> <Gold.PLP.part.nonpolar>
-41.4736

> <Gold.PLP.part.repulsive>
0.1986

> <Gold.PLP.ligand.clash>
0.0000

> <Gold.PLP.ligand.torsion>
1.2133

> <Gold.PLP.Chemscore.Hbond>
2.7431

> <Gold.PLP.Chemscore.CHOScore>
0.0000

> <Gold.PLP.Chemscore.Metal>
0.0000

> <Gold.Chemscore.Hbonds>
donor molecule, donor type, donor heavy atom, donor atom, acceptor molecule, acceptor atom, score
      L1  H     8    39       P1  8028  1.76
      P1  H 10752 10765       L1    15  0.91

> <Gold.PLP.Chemscore.Internal.Correction>
0.1395

> <Gold.Rescore>
     Score         DG    S(hbond)    S(metal)    S(lipo)     H(rot)  DE(clash)    DE(int)     intcor
     17.39     -18.64       1.61        0.00     107.85       1.89       0.03       1.22       ----

> <Gold.Chemscore.Fitness>
17.3942

> <Gold.Chemscore.DG>
-18.6370

> <Gold.Chemscore.ZeroCoef>
-5.4800

> <Gold.Chemscore.Hbond>
1.6080

> <Gold.Chemscore.Metal>
0.0000

> <Gold.Chemscore.Lipo>
107.8455

> <Gold.Chemscore.Internal_Hbond>
0.0000

> <Gold.Chemscore.DEClash>
0.0260

> <Gold.Chemscore.DEInternal>
1.2169

> <Gold.Chemscore.Rot>
1.8874

> <Gold.Chemscore.Internal.Correction>
   9.000000E+99

> <Gold.Chemscore.Hbonds>
donor molecule, donor type, donor heavy atom, donor atom, acceptor molecule, acceptor atom, score
      L1  H     8    39       P1  8028  0.81
      P1  H 10752 10765       L1    15  0.63

> <Gold.Chemscore.Hbond.Weighted>
-5.3708

> <Gold.Chemscore.Metal.Weighted>
-0.0000

> <Gold.Chemscore.Lipo.Weighted>
-12.6179

> <Gold.Chemscore.Internal_Hbond.Weighted>
0.0000

> <Gold.Chemscore.DEClash.Weighted>
0.0260

> <Gold.Chemscore.DEInternal.Weighted>
1.2169

> <Gold.Chemscore.Rot.Weighted>
4.8317

> <Gold.Chemscore.Internal.Correction.Weighted>
   9.000000E+99

> <Gold.Protein.RotatedTorsions>
[ 6907 6896 6895 6894 ] final -170.18 input  -60.11 | X-H torsion
[ 7974 7965 7964 7962 ] final  110.38 input  175.53 | X-H torsion
[ 8008 7997 7996 7995 ] final  -78.00 input   59.86 | X-H torsion
[ 10167 10162 10161 10158 ] final -111.71 input  -65.29 | X-H torsion
[ 10718 10713 10712 10709 ] final -128.43 input   66.30 | X-H torsion
[ 10763 10752 10751 10750 ] final  176.30 input  -60.55 | X-H torsion
[ 11005 11000 10999 10996 ] final  145.90 input  -57.11 | X-H torsion

> <Gold.Protein.ActiveResidues>
 VAL166  LYS551  ARG553  GLY616  TRP617  ASP618  TYR619  PRO620  LYS621  CYS622 
 ASP623  PHE694  ASN695  SER759  ASP760  ASP761  ALA762  ILE779  LEU786  VAL792 
 PHE793  MET794  SER795  GLU796  ALA797  LYS798  CYS799  TRP800  GLU811  SER814 

> <Gold.Protein.RotatedAtoms>
  151.5035  133.3499  159.2872 H   0  0  0  0  0  0  0  0  0  0  0  0  # atno 6907 bound_to 6896
  150.8758  134.8142  159.7199 H   0  0  0  0  0  0  0  0  0  0  0  0  # atno 6908 bound_to 6896
  152.4729  134.4926  159.9752 H   0  0  0  0  0  0  0  0  0  0  0  0  # atno 6909 bound_to 6896
  145.2557  139.2722  143.4043 H   0  0  0  0  0  0  0  0  0  0  0  0  # atno 7974 bound_to 7965
  154.5648  140.0701  156.8875 H   0  0  0  0  0  0  0  0  0  0  0  0  # atno 8008 bound_to 7997
  155.2743  140.3367  155.4244 H   0  0  0  0  0  0  0  0  0  0  0  0  # atno 8009 bound_to 7997
  156.2072  140.1744  156.7760 H   0  0  0  0  0  0  0  0  0  0  0  0  # atno 8010 bound_to 7997
  140.1306  143.4364  152.1630 H   0  0  0  0  0  0  0  0  0  0  0  0  # atno 10167 bound_to 10162
  156.1951  130.6820  151.0471 H   0  0  0  0  0  0  0  0  0  0  0  0  # atno 10718 bound_to 10713
  154.4793  135.2774  155.1583 H   0  0  0  0  0  0  0  0  0  0  0  0  # atno 10763 bound_to 10752
  154.3300  135.6192  153.5550 H   0  0  0  0  0  0  0  0  0  0  0  0  # atno 10764 bound_to 10752
  152.9873  135.5763  154.5190 H   0  0  0  0  0  0  0  0  0  0  0  0  # atno 10765 bound_to 10752
  140.0749  134.9130  157.1407 H   0  0  0  0  0  0  0  0  0  0  0  0  # atno 11005 bound_to 11000
  146.3290  140.2961  142.8618 LP  0  0  0  0  0  0  0  0  0  0  0  0  # atno 17320 bound_to 7965
  144.9463  140.8131  143.5599 LP  0  0  0  0  0  0  0  0  0  0  0  0  # atno 17321 bound_to 7965
  139.5521  144.7346  151.4402 LP  0  0  0  0  0  0  0  0  0  0  0  0  # atno 17342 bound_to 10162
  140.6819  143.8062  150.7133 LP  0  0  0  0  0  0  0  0  0  0  0  0  # atno 17343 bound_to 10162
  157.6952  131.0796  150.6989 LP  0  0  0  0  0  0  0  0  0  0  0  0  # atno 17370 bound_to 10713
  156.7046  130.4633  149.5563 LP  0  0  0  0  0  0  0  0  0  0  0  0  # atno 17371 bound_to 10713
  140.3572  134.2534  155.7191 LP  0  0  0  0  0  0  0  0  0  0  0  0  # atno 17394 bound_to 11000
  141.2026  133.7934  157.0383 LP  0  0  0  0  0  0  0  0  0  0  0  0  # atno 17395 bound_to 11000

$$$$
