#       Name:                AV-unprocessed.smi:3303
#       Creating user name   scv26
#       Creation time:       Fri Mar 27 19:01:47 2020


#       File generated by GOLD software.
#

@<TRIPOS>MOLECULE
AV-unprocessed.smi:3303
    46    47     1
SMALL
NO_CHARGES


@<TRIPOS>ATOM
      1 ****        -0.4777   0.4485  -1.8778 C.3            1 S1                 0.0000
      2 ****        -0.9405  -0.2950  -0.6120 C.3            1 S1                 0.0000
      3 ****        -2.4750  -0.4397  -0.6157 C.3            1 S1                 0.0000
      4 ****        -2.9747  -1.1752   0.5749 N.4            1 S1                 1.0000
      5 ****        -4.4301  -1.4378   0.4633 C.3            1 S1                 0.0000
      6 ****        -2.5714  -0.5084   1.8485 C.3            1 S1                 0.0000
      7 ****        -3.0663  -1.2612   3.0991 C.3            1 S1                 0.0000
      8 ****        -1.0380  -0.3636   1.9052 C.3            1 S1                 0.0000
      9 ****        -0.4828   0.3979   0.6912 C.3            1 S1                 0.0000
     10 ****         0.9710   0.3760   0.7884 N.3            1 S1                 0.0000
     11 ****         1.5422   1.7041   0.6128 C.3            1 S1                 0.0000
     12 ****         3.0768   1.6378   0.5303 C.3            1 S1                 0.0000
     13 ****         3.5791   0.9294  -0.7171 C.ar           1 S1                 0.0000
     14 ****         3.8536   1.6601  -1.8928 C.ar           1 S1                 0.0000
     15 ****         4.2971   0.9594  -3.0311 C.ar           1 S1                 0.0000
     16 ****         4.4462  -0.4385  -2.9516 C.ar           1 S1                 0.0000
     17 ****         4.1454  -1.0759  -1.7316 C.ar           1 S1                 0.0000
     18 ****         3.7207  -0.4135  -0.6342 N.ar           1 S1                 0.0000
     19 ****        -0.8360   1.4783  -1.8870 H              1 S1                 0.0000
     20 ****        -0.8497  -0.0412  -2.7782 H              1 S1                 0.0000
     21 ****         0.6096   0.4715  -1.9545 H              1 S1                 0.0000
     22 ****        -0.5111  -1.2982  -0.6424 H              1 S1                 0.0000
     23 ****        -2.9458   0.5442  -0.6555 H              1 S1                 0.0000
     24 ****        -2.7813  -0.9702  -1.5185 H              1 S1                 0.0000
     25 ****        -5.0039  -0.5171   0.5769 H              1 S1                 0.0000
     26 ****        -4.7674  -2.1526   1.2133 H              1 S1                 0.0000
     27 ****        -4.6729  -1.8698  -0.5082 H              1 S1                 0.0000
     28 ****        -3.0117   0.4904   1.8612 H              1 S1                 0.0000
     29 ****        -2.6733  -0.8043   4.0077 H              1 S1                 0.0000
     30 ****        -2.7462  -2.3036   3.0907 H              1 S1                 0.0000
     31 ****        -4.1522  -1.2396   3.1880 H              1 S1                 0.0000
     32 ****        -0.7517   0.1559   2.8209 H              1 S1                 0.0000
     33 ****        -0.5846  -1.3554   1.9605 H              1 S1                 0.0000
     34 ****        -0.8598   1.4219   0.7203 H              1 S1                 0.0000
     35 ****         1.2588   0.0042   1.6825 H              1 S1                 0.0000
     36 ****         1.1470   2.1738  -0.2885 H              1 S1                 0.0000
     37 ****         1.2438   2.3265   1.4571 H              1 S1                 0.0000
     38 ****         3.4813   2.6506   0.5390 H              1 S1                 0.0000
     39 ****         3.4817   1.1459   1.4161 H              1 S1                 0.0000
     40 ****         3.7239   2.7319  -1.9249 H              1 S1                 0.0000
     41 ****         4.5167   1.4843  -3.9489 H              1 S1                 0.0000
     42 ****         4.7822  -1.0090  -3.8049 H              1 S1                 0.0000
     43 ****         4.2461  -2.1468  -1.6353 H              1 S1                 0.0000
     44 ****        -2.5207  -2.0775   0.5633 H              1 S1                 0.0000
     45 ****         1.3085  -0.2124   0.0537 LP             1 S1                 0.0000
     46 ****         3.5169  -0.9011   0.2147 LP             1 S1                 0.0000
@<TRIPOS>BOND
    1    1    2 1     
    2    1   19 1     
    3    1   20 1     
    4    1   21 1     
    5    2    9 1     
    6    2    3 1     
    7    2   22 1     
    8    3    4 1     
    9    3   23 1     
   10    3   24 1     
   11    4    5 1     
   12    4    6 1     
   13    4   44 1     
   14    5   25 1     
   15    5   26 1     
   16    5   27 1     
   17    6    7 1     
   18    6    8 1     
   19    6   28 1     
   20    7   29 1     
   21    7   30 1     
   22    7   31 1     
   23    8    9 1     
   24    8   32 1     
   25    8   33 1     
   26    9   10 1     
   27    9   34 1     
   28   10   11 1     
   29   10   35 1     
   30   11   12 1     
   31   11   36 1     
   32   11   37 1     
   33   12   13 1     
   34   12   38 1     
   35   12   39 1     
   36   13   18 ar    
   37   13   14 ar    
   38   14   15 ar    
   39   14   40 1     
   40   15   16 ar    
   41   15   41 1     
   42   16   17 ar    
   43   16   42 1     
   44   17   18 ar    
   45   17   43 1     
   46   10   45 1     
   47   18   46 1     
@<TRIPOS>SUBSTRUCTURE
      1 S1             1
@<TRIPOS>SET
LONE_PAIRS      STATIC     ATOMS    <user>   **** ""
2 45 46
DONOR_HYDROGENS      STATIC     ATOMS    <user>   **** ""
2 44 35
ATOM$BLUE        STATIC     ATOMS    COLORGROUP SYSTEM
2 45 46
ATOM$RED        STATIC     ATOMS    COLORGROUP SYSTEM
2 44 35
