AV-unprocessed.smi:883|AV-procd|sdf|4038|dock1
  -GOLD-   22720 1533D 1   1.00000     0.00000
 Structure written by MMmdl.
 29 31  0  0  0  0  0  0  0  0  1 V2000
  151.9607  137.1439  153.7713 N   0  0  0  0  0  0  0  0  0  0  0  0
  151.7133  138.1181  154.3445 C   0  0  0  0  0  0  0  0  0  0  0  0
  151.4029  139.3411  155.0646 C   0  0  0  0  0  0  0  0  0  0  0  0
  152.0418  139.6447  156.2830 C   0  0  0  0  0  0  0  0  0  0  0  0
  151.7079  140.8434  156.9436 C   0  0  0  0  0  0  0  0  0  0  0  0
  150.7466  141.6970  156.3619 C   0  0  0  0  0  0  0  0  0  0  0  0
  150.4193  142.8884  157.0253 N   0  0  0  0  0  0  0  0  0  0  0  0
  150.7781  143.1038  158.4233 C   0  0  2  0  0  0  0  0  0  0  0  0
  150.1849  144.3930  159.0063 C   0  0  0  0  0  0  0  0  0  0  0  0
  151.4383  145.1197  159.5097 C   0  0  1  0  0  0  0  0  0  0  0  0
  152.0750  144.4170  160.7164 C   0  0  0  0  0  0  0  0  0  0  0  0
  152.7044  143.1859  160.0648 C   0  0  0  0  0  0  0  0  0  0  0  0
  152.2855  143.3558  158.5981 C   0  0  2  0  0  0  0  0  0  0  0  0
  152.3538  144.7685  158.4876 O   0  0  0  0  0  0  0  0  0  0  0  0
  150.1296  141.4044  155.1918 N   0  0  0  0  0  0  0  0  0  0  0  0
  150.4539  140.2544  154.5623 C   0  0  0  0  0  0  0  0  0  0  0  0
  152.7756  138.9752  156.7083 H   0  0  0  0  0  0  0  0  0  0  0  0
  152.1841  141.0995  157.8790 H   0  0  0  0  0  0  0  0  0  0  0  0
  149.8005  143.5512  156.5809 H   0  0  0  0  0  0  0  0  0  0  0  0
  150.4825  142.2299  159.0055 H   0  0  0  0  0  0  0  0  0  0  0  0
  149.6879  144.9903  158.2402 H   0  0  0  0  0  0  0  0  0  0  0  0
  149.4656  144.2010  159.8028 H   0  0  0  0  0  0  0  0  0  0  0  0
  151.3027  146.1933  159.6423 H   0  0  0  0  0  0  0  0  0  0  0  0
  152.8432  145.0429  161.1719 H   0  0  0  0  0  0  0  0  0  0  0  0
  151.3407  144.1634  161.4819 H   0  0  0  0  0  0  0  0  0  0  0  0
  153.7902  143.2162  160.1617 H   0  0  0  0  0  0  0  0  0  0  0  0
  152.3501  142.2489  160.4954 H   0  0  0  0  0  0  0  0  0  0  0  0
  152.9217  142.8123  157.8984 H   0  0  0  0  0  0  0  0  0  0  0  0
  149.9383  140.0627  153.6323 H   0  0  0  0  0  0  0  0  0  0  0  0
  1  2  3  0  0  0  0
  2  3  1  0  0  0  0
  3 16  1  0  0  0  0
  3  4  2  0  0  0  0
  4  5  1  0  0  0  0
  4 17  1  0  0  0  0
  5  6  2  0  0  0  0
  5 18  1  0  0  0  0
  6  7  1  0  0  0  0
  6 15  1  0  0  0  0
  7  8  1  0  0  0  0
  7 19  1  0  0  0  0
  8 13  1  0  0  0  0
  8  9  1  0  0  0  0
  8 20  1  0  0  0  0
  9 10  1  0  0  0  0
  9 21  1  0  0  0  0
  9 22  1  0  0  0  0
 10 14  1  0  0  0  0
 10 11  1  0  0  0  0
 10 23  1  0  0  0  0
 11 12  1  0  0  0  0
 11 24  1  0  0  0  0
 11 25  1  0  0  0  0
 12 13  1  0  0  0  0
 12 26  1  0  0  0  0
 12 27  1  0  0  0  0
 13 14  1  0  0  0  0
 13 28  1  0  0  0  0
 15 16  2  0  0  0  0
 16 29  1  0  0  0  0
M  END
> <s_m_source_file>
AV-unprocessed.smi

> <i_m_source_file_index>
883

> <i_lp_mmshare_version>
43012

> <i_f3d_flags>
0

> <s_epik_input>
TiNDYzFbY0hdW2NIXWMobltjSF0xKVtOSF1bQ0BIXShbQ0gyXVtDQEBIXTIzKVtDQEBIXShPMylbQ0gyXVtDSDJdMg==

> <s_epik_cmdline>
J2VwaWtfcHl0aG9uJywgJy1waCcsICc3LjAnLCAnLXRuJywgJzgnLCAnLW1hJywgJzIwMCcsICctbWV0YWxfYmluZGluZycsICctaW1hZScsICc8aW5maWxlLm1hZT4nLCAnLW9tYWUnLCAnPG91dGZpbGUubWFlPic=

> <r_lp_tautomer_probability>
1

> <r_epik_Ionization_Penalty>
1.50983e-05

> <r_epik_Ionization_Penalty_Charging>
0

> <r_epik_Ionization_Penalty_Neutral>
1.50983e-05

> <r_epik_State_Penalty>
-0

> <r_epik_Charging_Adjusted_Penalty>
0

> <i_epik_Tot_Q>
0

> <i_epik_Tot_abs_Q>
0

> <r_epik_Metal_State_Penalty>
-0

> <b_epik_Metal_Only>
0

> <s_lp_Force_Field>
OPLS_2005

> <r_lp_Energy>
39.3096

> <b_lp_Chiralities_Consistent>
1

> <s_lp_Variant>
AV-unprocessed.smi:883-1

> <Gold.Version>
5.8.1

> <Gold.Id.Protein>
6NUR|6NUR_protein|mol2

> <Gold.PLP.Fitness>
44.8115

> <Gold.PLP.PLP>
-36.1155

> <Gold.PLP.part.hbond>
-2.8999

> <Gold.PLP.part.metal>
0.0000

> <Gold.PLP.part.buried>
-2.9463

> <Gold.PLP.part.nonpolar>
-32.9130

> <Gold.PLP.part.repulsive>
3.0696

> <Gold.PLP.ligand.clash>
0.0000

> <Gold.PLP.ligand.torsion>
0.1532

> <Gold.PLP.Chemscore.Hbond>
2.0000

> <Gold.PLP.Chemscore.CHOScore>
0.9944

> <Gold.PLP.Chemscore.Metal>
0.0000

> <Gold.Chemscore.Hbonds>
donor molecule, donor type, donor heavy atom, donor atom, acceptor molecule, acceptor atom, score
      L1  H     7    19       P1  8028  1.00
      P1  H 10752 10763       L1     1  1.00
      L1  C    16    29       P1  7957  1.00

> <Gold.PLP.Chemscore.Internal.Correction>
0.0192

> <Gold.Rescore>
     Score         DG    S(hbond)    S(metal)    S(lipo)     H(rot)  DE(clash)    DE(int)     intcor
     18.66     -19.86       1.85        0.00      92.04       1.00       0.25       0.95       ----

> <Gold.Chemscore.Fitness>
18.6610

> <Gold.Chemscore.DG>
-19.8631

> <Gold.Chemscore.ZeroCoef>
-5.4800

> <Gold.Chemscore.Hbond>
1.8486

> <Gold.Chemscore.Metal>
0.0000

> <Gold.Chemscore.Lipo>
92.0407

> <Gold.Chemscore.Internal_Hbond>
0.0000

> <Gold.Chemscore.DEClash>
0.2544

> <Gold.Chemscore.DEInternal>
0.9476

> <Gold.Chemscore.Rot>
1.0000

> <Gold.Chemscore.Internal.Correction>
   9.000000E+99

> <Gold.Chemscore.Hbonds>
donor molecule, donor type, donor heavy atom, donor atom, acceptor molecule, acceptor atom, score
      L1  H     7    19       P1  8028  1.00
      P1  H 10752 10763       L1     1  0.96

> <Gold.Chemscore.Hbond.Weighted>
-6.1743

> <Gold.Chemscore.Metal.Weighted>
-0.0000

> <Gold.Chemscore.Lipo.Weighted>
-10.7688

> <Gold.Chemscore.Internal_Hbond.Weighted>
0.0000

> <Gold.Chemscore.DEClash.Weighted>
0.2544

> <Gold.Chemscore.DEInternal.Weighted>
0.9476

> <Gold.Chemscore.Rot.Weighted>
2.5600

> <Gold.Chemscore.Internal.Correction.Weighted>
   9.000000E+99

> <Gold.Protein.RotatedTorsions>
[ 6907 6896 6895 6894 ] final   93.42 input  -60.11 | X-H torsion
[ 7974 7965 7964 7962 ] final  166.58 input  175.53 | X-H torsion
[ 8008 7997 7996 7995 ] final   82.57 input   59.86 | X-H torsion
[ 10167 10162 10161 10158 ] final -164.23 input  -65.29 | X-H torsion
[ 10718 10713 10712 10709 ] final -131.67 input   66.30 | X-H torsion
[ 10763 10752 10751 10750 ] final   15.72 input  -60.55 | X-H torsion
[ 11005 11000 10999 10996 ] final  -58.62 input  -57.11 | X-H torsion

> <Gold.Protein.ActiveResidues>
 VAL166  LYS551  ARG553  GLY616  TRP617  ASP618  TYR619  PRO620  LYS621  CYS622 
 ASP623  PHE694  ASN695  SER759  ASP760  ASP761  ALA762  ILE779  LEU786  VAL792 
 PHE793  MET794  SER795  GLU796  ALA797  LYS798  CYS799  TRP800  GLU811  SER814 

> <Gold.Protein.RotatedAtoms>
  152.5452  134.1350  159.8454 H   0  0  0  0  0  0  0  0  0  0  0  0  # atno 6907 bound_to 6896
  151.1392  133.4976  159.2604 H   0  0  0  0  0  0  0  0  0  0  0  0  # atno 6908 bound_to 6896
  151.1592  135.0275  159.8757 H   0  0  0  0  0  0  0  0  0  0  0  0  # atno 6909 bound_to 6896
  144.7457  139.8635  143.6383 H   0  0  0  0  0  0  0  0  0  0  0  0  # atno 7974 bound_to 7965
  155.9124  140.3426  155.6109 H   0  0  0  0  0  0  0  0  0  0  0  0  # atno 8008 bound_to 7997
  155.7371  140.0803  157.2281 H   0  0  0  0  0  0  0  0  0  0  0  0  # atno 8009 bound_to 7997
  154.4057  140.1577  156.2562 H   0  0  0  0  0  0  0  0  0  0  0  0  # atno 8010 bound_to 7997
  139.6265  144.0523  152.1979 H   0  0  0  0  0  0  0  0  0  0  0  0  # atno 10167 bound_to 10162
  156.2268  130.7013  151.0815 H   0  0  0  0  0  0  0  0  0  0  0  0  # atno 10718 bound_to 10713
  153.1498  135.6776  153.8899 H   0  0  0  0  0  0  0  0  0  0  0  0  # atno 10763 bound_to 10752
  153.8329  135.3115  155.3421 H   0  0  0  0  0  0  0  0  0  0  0  0  # atno 10764 bound_to 10752
  154.7853  135.4865  154.0019 H   0  0  0  0  0  0  0  0  0  0  0  0  # atno 10765 bound_to 10752
  141.1215  133.6613  156.4948 H   0  0  0  0  0  0  0  0  0  0  0  0  # atno 11005 bound_to 11000
  146.1331  139.4371  143.0156 LP  0  0  0  0  0  0  0  0  0  0  0  0  # atno 17320 bound_to 7965
  145.7133  141.0099  143.1442 LP  0  0  0  0  0  0  0  0  0  0  0  0  # atno 17321 bound_to 7965
  140.0177  144.6176  150.7593 LP  0  0  0  0  0  0  0  0  0  0  0  0  # atno 17342 bound_to 10162
  140.7414  143.2817  151.3579 LP  0  0  0  0  0  0  0  0  0  0  0  0  # atno 17343 bound_to 10162
  157.7114  131.0732  150.6486 LP  0  0  0  0  0  0  0  0  0  0  0  0  # atno 17370 bound_to 10713
  156.6552  130.4496  149.5706 LP  0  0  0  0  0  0  0  0  0  0  0  0  # atno 17371 bound_to 10713
  140.4494  134.6943  157.5032 LP  0  0  0  0  0  0  0  0  0  0  0  0  # atno 17394 bound_to 11000
  140.0176  134.6596  155.9287 LP  0  0  0  0  0  0  0  0  0  0  0  0  # atno 17395 bound_to 11000

$$$$
