AV-unprocessed.smi:2542|AV-procd|sdf|9992|dock3
  -GOLD-   2272014 43D 1   1.00000     0.00000
 Structure written by MMmdl.
 42 43  0  0  0  0  0  0  0  0  2 V2000
  153.4239  141.7399  161.4891 C   0  0  0  0  0  0  0  0  0  0  0  0
  153.4326  141.2517  160.0252 C   0  0  0  0  0  0  0  0  0  0  0  0
  154.9053  141.2861  159.5486 C   0  0  0  0  0  0  0  0  0  0  0  0
  152.9295  139.7828  159.9852 C   0  0  0  0  0  0  0  0  0  0  0  0
  153.7860  138.8776  160.7489 N   0  0  0  0  0  0  0  0  0  0  0  0
  153.6686  137.5411  160.8134 C   0  0  0  0  0  0  0  0  0  0  0  0
  152.8357  136.9176  160.1545 O   0  0  0  0  0  0  0  0  0  0  0  0
  154.6203  136.7956  161.7744 C   0  0  0  0  0  0  0  0  0  0  0  0
  156.0084  137.2961  161.6873 C   0  0  0  0  0  0  0  0  0  0  0  0
  157.0966  137.6864  161.6215 N   0  0  0  0  0  0  0  0  0  0  0  0
  154.1403  136.8790  163.2355 C   0  0  0  0  0  0  0  0  0  0  0  0
  154.7650  135.6705  163.9418 C   0  0  0  0  0  0  0  0  0  0  0  0
  155.0320  134.6309  162.8453 C   0  0  0  0  0  0  0  0  0  0  0  0
  154.5899  135.2777  161.5267 C   0  0  0  0  0  0  0  0  0  0  0  0
  152.5136  142.1533  159.1752 C   0  0  0  0  0  0  0  0  0  0  0  0
  152.7433  143.5444  159.0121 C   0  0  0  0  0  0  0  0  0  0  0  0
  151.8803  144.3071  158.1993 C   0  0  0  0  0  0  0  0  0  0  0  0
  150.8389  143.7147  157.5791 N   0  3  0  0  0  0  0  0  0  0  0  0
  150.5733  142.3978  157.7015 C   0  0  0  0  0  0  0  0  0  0  0  0
  151.4028  141.5866  158.5013 C   0  0  0  0  0  0  0  0  0  0  0  0
  154.0830  141.1341  162.1124 H   0  0  0  0  0  0  0  0  0  0  0  0
  152.4303  141.6891  161.9344 H   0  0  0  0  0  0  0  0  0  0  0  0
  153.7634  142.7738  161.5634 H   0  0  0  0  0  0  0  0  0  0  0  0
  155.5322  140.6358  160.1599 H   0  0  0  0  0  0  0  0  0  0  0  0
  155.3268  142.2897  159.6167 H   0  0  0  0  0  0  0  0  0  0  0  0
  155.0141  140.9489  158.5176 H   0  0  0  0  0  0  0  0  0  0  0  0
  151.8913  139.7215  160.3161 H   0  0  0  0  0  0  0  0  0  0  0  0
  152.9263  139.4160  158.9585 H   0  0  0  0  0  0  0  0  0  0  0  0
  154.5052  139.3093  161.3115 H   0  0  0  0  0  0  0  0  0  0  0  0
  154.4259  137.8170  163.7134 H   0  0  0  0  0  0  0  0  0  0  0  0
  153.0541  136.8017  163.3049 H   0  0  0  0  0  0  0  0  0  0  0  0
  155.7054  135.9569  164.4142 H   0  0  0  0  0  0  0  0  0  0  0  0
  154.1113  135.2827  164.7237 H   0  0  0  0  0  0  0  0  0  0  0  0
  156.0962  134.3939  162.8125 H   0  0  0  0  0  0  0  0  0  0  0  0
  154.4962  133.6990  163.0281 H   0  0  0  0  0  0  0  0  0  0  0  0
  153.5798  134.9410  161.2858 H   0  0  0  0  0  0  0  0  0  0  0  0
  155.2337  134.9807  160.6976 H   0  0  0  0  0  0  0  0  0  0  0  0
  153.5694  144.0481  159.4897 H   0  0  0  0  0  0  0  0  0  0  0  0
  151.9937  145.3674  158.0260 H   0  0  0  0  0  0  0  0  0  0  0  0
  149.7137  142.0346  157.1575 H   0  0  0  0  0  0  0  0  0  0  0  0
  151.1844  140.5324  158.5859 H   0  0  0  0  0  0  0  0  0  0  0  0
  150.2286  144.2854  156.9935 H   0  0  0  0  0  0  0  0  0  0  0  0
  1  2  1  0  0  0  0
  1 21  1  0  0  0  0
  1 22  1  0  0  0  0
  1 23  1  0  0  0  0
  2  3  1  0  0  0  0
  2  4  1  0  0  0  0
  2 15  1  0  0  0  0
  3 24  1  0  0  0  0
  3 25  1  0  0  0  0
  3 26  1  0  0  0  0
  4  5  1  0  0  0  0
  4 27  1  0  0  0  0
  4 28  1  0  0  0  0
  5  6  1  0  0  0  0
  5 29  1  0  0  0  0
  6  7  2  0  0  0  0
  6  8  1  0  0  0  0
  8 14  1  0  0  0  0
  8  9  1  0  0  0  0
  8 11  1  0  0  0  0
  9 10  3  0  0  0  0
 11 12  1  0  0  0  0
 11 30  1  0  0  0  0
 11 31  1  0  0  0  0
 12 13  1  0  0  0  0
 12 32  1  0  0  0  0
 12 33  1  0  0  0  0
 13 14  1  0  0  0  0
 13 34  1  0  0  0  0
 13 35  1  0  0  0  0
 14 36  1  0  0  0  0
 14 37  1  0  0  0  0
 15 20  1  0  0  0  0
 15 16  2  0  0  0  0
 16 17  1  0  0  0  0
 16 38  1  0  0  0  0
 17 18  2  0  0  0  0
 17 39  1  0  0  0  0
 18 19  1  0  0  0  0
 18 42  1  0  0  0  0
 19 20  2  0  0  0  0
 19 40  1  0  0  0  0
 20 41  1  0  0  0  0
M  CHG  1  18   1
M  END
> <s_m_source_file>
AV-unprocessed.smi

> <i_m_source_file_index>
2542

> <i_lp_mmshare_version>
43012

> <i_f3d_flags>
0

> <s_epik_input>
W2NIXTFbY0hdbltjSF1bY0hdYzFDKFtDSDNdKShbQ0gzXSlbQ0gyXVtOSF1DKD1PKUMyKEMjTilbQ0gyXVtDSDJdW0NIMl1bQ0gyXTI=

> <s_epik_cmdline>
J2VwaWtfcHl0aG9uJywgJy1waCcsICc3LjAnLCAnLXRuJywgJzgnLCAnLW1hJywgJzIwMCcsICctbWV0YWxfYmluZGluZycsICctaW1hZScsICc8aW5maWxlLm1hZT4nLCAnLW9tYWUnLCAnPG91dGZpbGUubWFlPic=

> <r_epik_Ionization_Penalty>
1.51272

> <r_epik_Ionization_Penalty_Charging>
1.51272

> <r_epik_Ionization_Penalty_Neutral>
6.26824e-07

> <r_epik_State_Penalty>
1.60388

> <r_epik_Charging_Adjusted_Penalty>
3.1166

> <i_epik_Tot_Q>
1

> <i_epik_Tot_abs_Q>
1

> <r_epik_Metal_State_Penalty>
1.64935

> <b_epik_Metal_Only>
0

> <s_lp_Force_Field>
OPLS_2005

> <r_lp_Energy>
37.2322

> <b_lp_Chiralities_Consistent>
1

> <s_lp_Variant>
AV-unprocessed.smi:2542-2

> <Gold.Version>
5.8.1

> <Gold.Id.Protein>
6NUR|6NUR_protein|mol2

> <Gold.PLP.Fitness>
51.1657

> <Gold.PLP.PLP>
-43.6927

> <Gold.PLP.part.hbond>
-1.8721

> <Gold.PLP.part.metal>
0.0000

> <Gold.PLP.part.buried>
-5.3060

> <Gold.PLP.part.nonpolar>
-37.7818

> <Gold.PLP.part.repulsive>
0.0376

> <Gold.PLP.ligand.clash>
0.0000

> <Gold.PLP.ligand.torsion>
0.6658

> <Gold.PLP.Chemscore.Hbond>
2.9100

> <Gold.PLP.Chemscore.CHOScore>
0.0000

> <Gold.PLP.Chemscore.Metal>
0.0000

> <Gold.Chemscore.Hbonds>
donor molecule, donor type, donor heavy atom, donor atom, acceptor molecule, acceptor atom, score
      L1  H    18    42       P1  8028  2.00
      P1  H  6896  6909       L1     7  0.99

> <Gold.PLP.Chemscore.Internal.Correction>
0.0745

> <Gold.Rescore>
     Score         DG    S(hbond)    S(metal)    S(lipo)     H(rot)  DE(clash)    DE(int)     intcor
     22.28     -23.04       1.95        0.00     128.73       1.56       0.03       0.73       ----

> <Gold.Chemscore.Fitness>
22.2838

> <Gold.Chemscore.DG>
-23.0393

> <Gold.Chemscore.ZeroCoef>
-5.4800

> <Gold.Chemscore.Hbond>
1.9472

> <Gold.Chemscore.Metal>
0.0000

> <Gold.Chemscore.Lipo>
128.7344

> <Gold.Chemscore.Internal_Hbond>
0.0000

> <Gold.Chemscore.DEClash>
0.0291

> <Gold.Chemscore.DEInternal>
0.7264

> <Gold.Chemscore.Rot>
1.5649

> <Gold.Chemscore.Internal.Correction>
   9.000000E+99

> <Gold.Chemscore.Hbonds>
donor molecule, donor type, donor heavy atom, donor atom, acceptor molecule, acceptor atom, score
      L1  H    18    42       P1  8028  0.88
      P1  H  6896  6909       L1     7  0.92

> <Gold.Chemscore.Hbond.Weighted>
-6.5035

> <Gold.Chemscore.Metal.Weighted>
-0.0000

> <Gold.Chemscore.Lipo.Weighted>
-15.0619

> <Gold.Chemscore.Internal_Hbond.Weighted>
0.0000

> <Gold.Chemscore.DEClash.Weighted>
0.0291

> <Gold.Chemscore.DEInternal.Weighted>
0.7264

> <Gold.Chemscore.Rot.Weighted>
4.0061

> <Gold.Chemscore.Internal.Correction.Weighted>
   9.000000E+99

> <Gold.Protein.RotatedTorsions>
[ 6907 6896 6895 6894 ] final  140.48 input  -60.11 | X-H torsion
[ 7974 7965 7964 7962 ] final   43.73 input  175.53 | X-H torsion
[ 8008 7997 7996 7995 ] final -100.58 input   59.86 | X-H torsion
[ 10167 10162 10161 10158 ] final   -7.69 input  -65.29 | X-H torsion
[ 10718 10713 10712 10709 ] final   60.87 input   66.30 | X-H torsion
[ 10763 10752 10751 10750 ] final  -94.15 input  -60.55 | X-H torsion
[ 11005 11000 10999 10996 ] final  116.47 input  -57.11 | X-H torsion

> <Gold.Protein.ActiveResidues>
 VAL166  LYS551  ARG553  GLY616  TRP617  ASP618  TYR619  PRO620  LYS621  CYS622 
 ASP623  PHE694  ASN695  SER759  ASP760  ASP761  ALA762  ILE779  LEU786  VAL792 
 PHE793  MET794  SER795  GLU796  ALA797  LYS798  CYS799  TRP800  GLU811  SER814 

> <Gold.Protein.RotatedAtoms>
  152.2425  133.5147  159.5278 H   0  0  0  0  0  0  0  0  0  0  0  0  # atno 6907 bound_to 6896
  150.7069  134.1069  159.3995 H   0  0  0  0  0  0  0  0  0  0  0  0  # atno 6908 bound_to 6896
  151.8990  135.0386  160.0555 H   0  0  0  0  0  0  0  0  0  0  0  0  # atno 6909 bound_to 6896
  146.0630  139.5154  142.9646 H   0  0  0  0  0  0  0  0  0  0  0  0  # atno 7974 bound_to 7965
  154.8305  140.0440  157.1474 H   0  0  0  0  0  0  0  0  0  0  0  0  # atno 8008 bound_to 7997
  154.9157  140.3020  155.5222 H   0  0  0  0  0  0  0  0  0  0  0  0  # atno 8009 bound_to 7997
  156.2986  140.2350  156.4202 H   0  0  0  0  0  0  0  0  0  0  0  0  # atno 8010 bound_to 7997
  140.7036  143.6052  150.8758 H   0  0  0  0  0  0  0  0  0  0  0  0  # atno 10167 bound_to 10162
  157.5785  130.8963  149.9390 H   0  0  0  0  0  0  0  0  0  0  0  0  # atno 10718 bound_to 10713
  154.7028  135.5168  153.8551 H   0  0  0  0  0  0  0  0  0  0  0  0  # atno 10763 bound_to 10752
  153.0717  135.6603  154.0242 H   0  0  0  0  0  0  0  0  0  0  0  0  # atno 10764 bound_to 10752
  154.0098  135.3003  155.3373 H   0  0  0  0  0  0  0  0  0  0  0  0  # atno 10765 bound_to 10752
  139.9042  134.9598  156.7203 H   0  0  0  0  0  0  0  0  0  0  0  0  # atno 11005 bound_to 11000
  145.6526  141.0259  143.1752 LP  0  0  0  0  0  0  0  0  0  0  0  0  # atno 17320 bound_to 7965
  144.7186  139.8109  143.7390 LP  0  0  0  0  0  0  0  0  0  0  0  0  # atno 17321 bound_to 7965
  139.9776  143.5987  152.2953 LP  0  0  0  0  0  0  0  0  0  0  0  0  # atno 17342 bound_to 10162
  139.6596  144.7662  151.1988 LP  0  0  0  0  0  0  0  0  0  0  0  0  # atno 17343 bound_to 10162
  156.0830  130.3671  150.0542 LP  0  0  0  0  0  0  0  0  0  0  0  0  # atno 17370 bound_to 10713
  156.8684  130.9516  151.3611 LP  0  0  0  0  0  0  0  0  0  0  0  0  # atno 17371 bound_to 10713
  140.7006  133.9310  155.8022 LP  0  0  0  0  0  0  0  0  0  0  0  0  # atno 17394 bound_to 11000
  141.0374  134.0669  157.3942 LP  0  0  0  0  0  0  0  0  0  0  0  0  # atno 17395 bound_to 11000

$$$$
