AV-unprocessed.smi:155|AV-procd|sdf|1271|dock3
  -GOLD-   2262018533D 1   1.00000     0.00000
 Structure written by MMmdl.
 63 66  0  0  0  0  0  0  0  0  2 V2000
  145.8940  132.0550  149.8005 C   0  0  0  0  0  0  0  0  0  0  0  0
  145.8396  132.2182  151.2492 N   0  0  0  0  0  0  0  0  0  0  0  0
  145.8535  130.8953  151.8592 C   0  0  0  0  0  0  0  0  0  0  0  0
  146.9824  132.9854  151.7410 C   0  0  0  0  0  0  0  0  0  0  0  0
  146.6579  133.7613  153.0411 C   0  0  0  0  0  0  0  0  0  0  0  0
  147.8553  134.3028  153.7359 N   0  3  2  0  0  0  0  0  0  0  0  0
  148.8264  133.2528  154.1332 C   0  0  0  0  0  0  0  0  0  0  0  0
  150.1962  133.8208  154.5405 C   0  0  0  0  0  0  0  0  0  0  0  0
  150.2007  134.4744  155.9322 C   0  0  0  0  0  0  0  0  0  0  0  0
  149.6900  135.8472  155.9438 N   0  0  0  0  0  0  0  0  0  0  0  0
  150.4522  136.7960  156.5506 C   0  0  0  0  0  0  0  0  0  0  0  0
  151.2803  136.4284  157.5653 N   0  0  0  0  0  0  0  0  0  0  0  0
  152.0344  137.3379  158.1893 C   0  0  0  0  0  0  0  0  0  0  0  0
  152.1187  138.6493  157.9614 N   0  0  0  0  0  0  0  0  0  0  0  0
  151.2990  139.0253  156.9390 C   0  0  0  0  0  0  0  0  0  0  0  0
  150.4415  138.1742  156.1853 C   0  0  0  0  0  0  0  0  0  0  0  0
  149.7745  138.9192  155.2181 N   0  0  0  0  0  0  0  0  0  0  0  0
  150.2013  140.1394  155.4004 C   0  0  0  0  0  0  0  0  0  0  0  0
  151.1176  140.2917  156.4152 N   0  0  0  0  0  0  0  0  0  0  0  0
  151.7561  141.5239  156.8395 C   0  0  0  0  0  0  0  0  0  0  0  0
  151.6155  141.7581  158.3583 C   0  0  2  0  0  0  0  0  0  0  0  0
  150.2517  141.8104  158.7272 O   0  0  0  0  0  0  0  0  0  0  0  0
  152.3205  143.0299  158.8716 C   0  0  1  0  0  0  0  0  0  0  0  0
  151.8317  144.3222  158.2130 C   0  0  0  0  0  0  0  0  0  0  0  0
  152.1596  145.3503  159.2708 C   0  0  0  0  0  0  0  0  0  0  0  0
  151.8227  144.5897  160.5484 C   0  0  0  0  0  0  0  0  0  0  0  0
  152.1083  143.2216  160.2705 O   0  0  0  0  0  0  0  0  0  0  0  0
  148.6374  136.2903  155.0269 C   0  0  0  0  0  0  0  0  0  0  0  0
  147.5196  135.2575  154.8222 C   0  0  0  0  0  0  0  0  0  0  0  0
  145.8367  133.0150  149.2896 H   0  0  0  0  0  0  0  0  0  0  0  0
  145.0514  131.4554  149.4539 H   0  0  0  0  0  0  0  0  0  0  0  0
  146.8138  131.5573  149.4901 H   0  0  0  0  0  0  0  0  0  0  0  0
  145.7812  130.9719  152.9450 H   0  0  0  0  0  0  0  0  0  0  0  0
  146.7684  130.3534  151.6150 H   0  0  0  0  0  0  0  0  0  0  0  0
  145.0039  130.3044  151.5153 H   0  0  0  0  0  0  0  0  0  0  0  0
  147.8092  132.3066  151.9552 H   0  0  0  0  0  0  0  0  0  0  0  0
  147.3368  133.6461  150.9489 H   0  0  0  0  0  0  0  0  0  0  0  0
  145.9656  134.5836  152.8567 H   0  0  0  0  0  0  0  0  0  0  0  0
  146.1249  133.1010  153.7261 H   0  0  0  0  0  0  0  0  0  0  0  0
  148.4190  132.6339  154.9334 H   0  0  0  0  0  0  0  0  0  0  0  0
  148.9820  132.5912  153.2805 H   0  0  0  0  0  0  0  0  0  0  0  0
  150.8966  132.9855  154.5708 H   0  0  0  0  0  0  0  0  0  0  0  0
  150.5851  134.5027  153.7828 H   0  0  0  0  0  0  0  0  0  0  0  0
  149.6358  133.8712  156.6437 H   0  0  0  0  0  0  0  0  0  0  0  0
  151.2338  134.4679  156.2814 H   0  0  0  0  0  0  0  0  0  0  0  0
  152.6579  136.9616  158.9872 H   0  0  0  0  0  0  0  0  0  0  0  0
  149.8561  140.9668  154.7976 H   0  0  0  0  0  0  0  0  0  0  0  0
  152.8068  141.4726  156.5539 H   0  0  0  0  0  0  0  0  0  0  0  0
  151.3219  142.3522  156.2780 H   0  0  0  0  0  0  0  0  0  0  0  0
  152.0360  140.9027  158.8892 H   0  0  0  0  0  0  0  0  0  0  0  0
  150.0098  140.9729  159.0922 H   0  0  0  0  0  0  0  0  0  0  0  0
  153.3969  142.9587  158.7039 H   0  0  0  0  0  0  0  0  0  0  0  0
  152.3190  144.5218  157.2584 H   0  0  0  0  0  0  0  0  0  0  0  0
  150.7549  144.2971  158.0442 H   0  0  0  0  0  0  0  0  0  0  0  0
  153.2232  145.5914  159.2435 H   0  0  0  0  0  0  0  0  0  0  0  0
  151.5940  146.2760  159.1621 H   0  0  0  0  0  0  0  0  0  0  0  0
  152.3854  144.9493  161.4102 H   0  0  0  0  0  0  0  0  0  0  0  0
  150.7598  144.6809  160.7756 H   0  0  0  0  0  0  0  0  0  0  0  0
  148.1802  137.1861  155.4500 H   0  0  0  0  0  0  0  0  0  0  0  0
  149.0708  136.5880  154.0711 H   0  0  0  0  0  0  0  0  0  0  0  0
  146.6265  135.8088  154.5248 H   0  0  0  0  0  0  0  0  0  0  0  0
  147.2640  134.7438  155.7504 H   0  0  0  0  0  0  0  0  0  0  0  0
  148.3265  134.8531  153.0321 H   0  0  0  0  0  0  0  0  0  0  0  0
  1  2  1  0  0  0  0
  1 30  1  0  0  0  0
  1 31  1  0  0  0  0
  1 32  1  0  0  0  0
  2  3  1  0  0  0  0
  2  4  1  0  0  0  0
  3 33  1  0  0  0  0
  3 34  1  0  0  0  0
  3 35  1  0  0  0  0
  4  5  1  0  0  0  0
  4 36  1  0  0  0  0
  4 37  1  0  0  0  0
  5  6  1  0  0  0  0
  5 38  1  0  0  0  0
  5 39  1  0  0  0  0
  6 29  1  0  0  0  0
  6  7  1  0  0  0  0
  6 63  1  0  0  0  0
  7  8  1  0  0  0  0
  7 40  1  0  0  0  0
  7 41  1  0  0  0  0
  8  9  1  0  0  0  0
  8 42  1  0  0  0  0
  8 43  1  0  0  0  0
  9 10  1  0  0  0  0
  9 44  1  0  0  0  0
  9 45  1  0  0  0  0
 10 11  1  0  0  0  0
 10 28  1  0  0  0  0
 11 16  1  0  0  0  0
 11 12  2  0  0  0  0
 12 13  1  0  0  0  0
 13 14  2  0  0  0  0
 13 46  1  0  0  0  0
 14 15  1  0  0  0  0
 15 19  1  0  0  0  0
 15 16  2  0  0  0  0
 16 17  1  0  0  0  0
 17 18  2  0  0  0  0
 18 19  1  0  0  0  0
 18 47  1  0  0  0  0
 19 20  1  0  0  0  0
 20 21  1  0  0  0  0
 20 48  1  0  0  0  0
 20 49  1  0  0  0  0
 21 22  1  0  0  0  0
 21 23  1  0  0  0  0
 21 50  1  0  0  0  0
 22 51  1  0  0  0  0
 23 27  1  0  0  0  0
 23 24  1  0  0  0  0
 23 52  1  0  0  0  0
 24 25  1  0  0  0  0
 24 53  1  0  0  0  0
 24 54  1  0  0  0  0
 25 26  1  0  0  0  0
 25 55  1  0  0  0  0
 25 56  1  0  0  0  0
 26 27  1  0  0  0  0
 26 57  1  0  0  0  0
 26 58  1  0  0  0  0
 28 29  1  0  0  0  0
 28 59  1  0  0  0  0
 28 60  1  0  0  0  0
 29 61  1  0  0  0  0
 29 62  1  0  0  0  0
M  CHG  1   6   1
M  END
> <s_m_source_file>
AV-unprocessed.smi

> <i_m_source_file_index>
155

> <i_lp_mmshare_version>
43012

> <i_f3d_flags>
0

> <s_epik_input>
W0NIM11OKFtDSDNdKVtDSDJdW0NIMl1OMVtDSDJdW0NIMl1bQ0gyXU4oW0NIMl1bQ0gyXTEpYyhuW2NIXW4yKWMoYzIzKW5bY0hdbjNbQ0gyXVtDQEhdKFtPSF0pW0NAQEhdNFtDSDJdW0NIMl1bQ0gyXU80

> <s_epik_cmdline>
J2VwaWtfcHl0aG9uJywgJy1waCcsICc3LjAnLCAnLXRuJywgJzgnLCAnLW1hJywgJzIwMCcsICctbWV0YWxfYmluZGluZycsICctaW1hZScsICc8aW5maWxlLm1hZT4nLCAnLW9tYWUnLCAnPG91dGZpbGUubWFlPic=

> <r_epik_Ionization_Penalty>
0.0619615

> <r_epik_Ionization_Penalty_Charging>
0.0161638

> <r_epik_Ionization_Penalty_Neutral>
0.0457976

> <r_epik_State_Penalty>
0.403408

> <r_epik_Charging_Adjusted_Penalty>
0.419572

> <i_epik_Tot_Q>
1

> <i_epik_Tot_abs_Q>
1

> <r_epik_Metal_State_Penalty>
0.404222

> <b_epik_Metal_Only>
0

> <s_lp_Force_Field>
OPLS_2005

> <r_lp_Energy>
57.0558

> <b_lp_Chiralities_Consistent>
1

> <s_lp_Variant>
AV-unprocessed.smi:155-5

> <Gold.Version>
5.8.1

> <Gold.Id.Protein>
6NUR|6NUR_protein|mol2

> <Gold.PLP.Fitness>
51.1311

> <Gold.PLP.PLP>
-46.1989

> <Gold.PLP.part.hbond>
-1.3074

> <Gold.PLP.part.metal>
0.0000

> <Gold.PLP.part.buried>
-8.1920

> <Gold.PLP.part.nonpolar>
-36.4833

> <Gold.PLP.part.repulsive>
0.2256

> <Gold.PLP.ligand.clash>
0.0000

> <Gold.PLP.ligand.torsion>
0.6905

> <Gold.PLP.Chemscore.Hbond>
2.0000

> <Gold.PLP.Chemscore.CHOScore>
0.0000

> <Gold.PLP.Chemscore.Metal>
0.0000

> <Gold.Chemscore.Hbonds>
donor molecule, donor type, donor heavy atom, donor atom, acceptor molecule, acceptor atom, score
      L1  H     6    63       P1  7948  2.00

> <Gold.PLP.Chemscore.Internal.Correction>
0.3131

> <Gold.Rescore>
     Score         DG    S(hbond)    S(metal)    S(lipo)     H(rot)  DE(clash)    DE(int)     intcor
     13.04     -15.14       0.94        0.00     113.27       2.63       0.03       2.07       ----

> <Gold.Chemscore.Fitness>
13.0434

> <Gold.Chemscore.DG>
-15.1438

> <Gold.Chemscore.ZeroCoef>
-5.4800

> <Gold.Chemscore.Hbond>
0.9430

> <Gold.Chemscore.Metal>
0.0000

> <Gold.Chemscore.Lipo>
113.2737

> <Gold.Chemscore.Internal_Hbond>
0.0000

> <Gold.Chemscore.DEClash>
0.0270

> <Gold.Chemscore.DEInternal>
2.0734

> <Gold.Chemscore.Rot>
2.6324

> <Gold.Chemscore.Internal.Correction>
   9.000000E+99

> <Gold.Chemscore.Hbonds>
donor molecule, donor type, donor heavy atom, donor atom, acceptor molecule, acceptor atom, score
      L1  H     6    63       P1  7948  0.74

> <Gold.Chemscore.Hbond.Weighted>
-3.1496

> <Gold.Chemscore.Metal.Weighted>
-0.0000

> <Gold.Chemscore.Lipo.Weighted>
-13.2530

> <Gold.Chemscore.Internal_Hbond.Weighted>
0.0000

> <Gold.Chemscore.DEClash.Weighted>
0.0270

> <Gold.Chemscore.DEInternal.Weighted>
2.0734

> <Gold.Chemscore.Rot.Weighted>
6.7389

> <Gold.Chemscore.Internal.Correction.Weighted>
   9.000000E+99

> <Gold.Protein.RotatedTorsions>
[ 6907 6896 6895 6894 ] final   23.92 input  -60.11 | X-H torsion
[ 7974 7965 7964 7962 ] final -163.71 input  175.53 | X-H torsion
[ 8008 7997 7996 7995 ] final  120.11 input   59.86 | X-H torsion
[ 10167 10162 10161 10158 ] final -165.02 input  -65.29 | X-H torsion
[ 10718 10713 10712 10709 ] final  -78.70 input   66.30 | X-H torsion
[ 10763 10752 10751 10750 ] final  150.96 input  -60.55 | X-H torsion
[ 11005 11000 10999 10996 ] final -161.71 input  -57.11 | X-H torsion

> <Gold.Protein.ActiveResidues>
 VAL166  LYS551  ARG553  GLY616  TRP617  ASP618  TYR619  PRO620  LYS621  CYS622 
 ASP623  PHE694  ASN695  SER759  ASP760  ASP761  ALA762  ILE779  LEU786  VAL792 
 PHE793  MET794  SER795  GLU796  ALA797  LYS798  CYS799  TRP800  GLU811  SER814 

> <Gold.Protein.RotatedAtoms>
  151.9497  135.0175  160.0540 H   0  0  0  0  0  0  0  0  0  0  0  0  # atno 6907 bound_to 6896
  152.1964  133.4805  159.5043 H   0  0  0  0  0  0  0  0  0  0  0  0  # atno 6908 bound_to 6896
  150.6945  134.1564  159.4202 H   0  0  0  0  0  0  0  0  0  0  0  0  # atno 6909 bound_to 6896
  144.7318  140.3067  143.6195 H   0  0  0  0  0  0  0  0  0  0  0  0  # atno 7974 bound_to 7965
  156.2627  140.2838  156.1098 H   0  0  0  0  0  0  0  0  0  0  0  0  # atno 8008 bound_to 7997
  155.1270  140.0393  157.2782 H   0  0  0  0  0  0  0  0  0  0  0  0  # atno 8009 bound_to 7997
  154.6628  140.2570  155.7097 H   0  0  0  0  0  0  0  0  0  0  0  0  # atno 8010 bound_to 7997
  139.6210  144.0624  152.1933 H   0  0  0  0  0  0  0  0  0  0  0  0  # atno 10167 bound_to 10162
  156.0111  130.4525  150.3536 H   0  0  0  0  0  0  0  0  0  0  0  0  # atno 10718 bound_to 10713
  154.0960  135.2849  155.3262 H   0  0  0  0  0  0  0  0  0  0  0  0  # atno 10763 bound_to 10752
  154.6588  135.5342  153.7995 H   0  0  0  0  0  0  0  0  0  0  0  0  # atno 10764 bound_to 10752
  153.0396  135.6528  154.1126 H   0  0  0  0  0  0  0  0  0  0  0  0  # atno 10765 bound_to 10752
  140.6173  134.4787  157.5221 H   0  0  0  0  0  0  0  0  0  0  0  0  # atno 11005 bound_to 11000
  145.7706  139.1856  143.2215 LP  0  0  0  0  0  0  0  0  0  0  0  0  # atno 17320 bound_to 7965
  146.0914  140.7651  142.9593 LP  0  0  0  0  0  0  0  0  0  0  0  0  # atno 17321 bound_to 7965
  140.0266  144.6113  150.7522 LP  0  0  0  0  0  0  0  0  0  0  0  0  # atno 17342 bound_to 10162
  140.7382  143.2775  151.3697 LP  0  0  0  0  0  0  0  0  0  0  0  0  # atno 17343 bound_to 10162
  157.1627  131.0349  151.2833 LP  0  0  0  0  0  0  0  0  0  0  0  0  # atno 17370 bound_to 10713
  157.4297  130.7483  149.6980 LP  0  0  0  0  0  0  0  0  0  0  0  0  # atno 17371 bound_to 10713
  139.9167  134.8231  156.1342 LP  0  0  0  0  0  0  0  0  0  0  0  0  # atno 17394 bound_to 11000
  141.0766  133.6772  156.2250 LP  0  0  0  0  0  0  0  0  0  0  0  0  # atno 17395 bound_to 11000

$$$$
