AV-unprocessed.smi:102|AV-procd|sdf|969|dock1
  -GOLD-   2262017513D 1   1.00000     0.00000
 Structure written by MMmdl.
 43 44  0  0  0  0  0  0  0  0  2 V2000
  145.1240  132.2895  161.3255 C   0  0  0  0  0  0  0  0  0  0  0  0
  146.4058  132.3161  160.5035 C   0  0  0  0  0  0  0  0  0  0  0  0
  147.1740  131.3542  160.4782 O   0  0  0  0  0  0  0  0  0  0  0  0
  146.5715  133.4760  159.8508 O   0  0  0  0  0  0  0  0  0  0  0  0
  147.6310  133.6082  158.9177 C   0  0  0  0  0  0  0  0  0  0  0  0
  147.5878  135.0068  158.2830 C   0  0  2  0  0  0  0  0  0  0  0  0
  148.8503  135.3325  157.7039 O   0  0  0  0  0  0  0  0  0  0  0  0
  149.4401  136.3943  158.3907 C   0  0  1  0  0  0  0  0  0  0  0  0
  150.4510  137.0920  157.4910 N   0  0  0  0  0  0  0  0  0  0  0  0
  150.4038  138.4617  157.2741 C   0  0  0  0  0  0  0  0  0  0  0  0
  151.3193  139.0885  156.5080 C   0  0  0  0  0  0  0  0  0  0  0  0
  151.2391  140.4172  156.3212 F   0  0  0  0  0  0  0  0  0  0  0  0
  152.4045  138.3194  155.9058 C   0  0  0  0  0  0  0  0  0  0  0  0
  153.2121  138.8867  155.1716 O   0  0  0  0  0  0  0  0  0  0  0  0
  152.4784  136.9900  156.1998 N   0  5  0  0  0  0  0  0  0  0  0  0
  151.5665  136.3568  156.9952 C   0  0  0  0  0  0  0  0  0  0  0  0
  151.6746  135.1729  157.3142 O   0  0  0  0  0  0  0  0  0  0  0  0
  148.2360  137.2446  158.8288 C   0  0  1  0  0  0  0  0  0  0  0  0
  147.6795  137.9791  157.7405 O   0  0  0  0  0  0  0  0  0  0  0  0
  146.8019  138.9708  157.9681 C   0  0  0  0  0  0  0  0  0  0  0  0
  146.2987  139.6045  156.6784 C   0  0  0  0  0  0  0  0  0  0  0  0
  146.4180  139.3611  159.0705 O   0  0  0  0  0  0  0  0  0  0  0  0
  147.2619  136.1555  159.2550 C   0  0  2  0  0  0  0  0  0  0  0  0
  147.5039  135.8013  160.6142 O   0  0  0  0  0  0  0  0  0  0  0  0
  146.9915  136.5402  161.6140 C   0  0  0  0  0  0  0  0  0  0  0  0
  147.4217  136.0365  162.9851 C   0  0  0  0  0  0  0  0  0  0  0  0
  146.2590  137.5215  161.4902 O   0  0  0  0  0  0  0  0  0  0  0  0
  144.2828  132.6466  160.7314 H   0  0  0  0  0  0  0  0  0  0  0  0
  145.2258  132.9285  162.2028 H   0  0  0  0  0  0  0  0  0  0  0  0
  144.9046  131.2753  161.6601 H   0  0  0  0  0  0  0  0  0  0  0  0
  148.5760  133.4701  159.4452 H   0  0  0  0  0  0  0  0  0  0  0  0
  147.5659  132.8369  158.1489 H   0  0  0  0  0  0  0  0  0  0  0  0
  146.8507  135.0181  157.4789 H   0  0  0  0  0  0  0  0  0  0  0  0
  150.0230  136.0230  159.2355 H   0  0  0  0  0  0  0  0  0  0  0  0
  149.6376  139.0642  157.7357 H   0  0  0  0  0  0  0  0  0  0  0  0
  148.5295  137.9070  159.6450 H   0  0  0  0  0  0  0  0  0  0  0  0
  147.1341  140.0020  156.1015 H   0  0  0  0  0  0  0  0  0  0  0  0
  145.6096  140.4210  156.8954 H   0  0  0  0  0  0  0  0  0  0  0  0
  145.7779  138.8646  156.0705 H   0  0  0  0  0  0  0  0  0  0  0  0
  146.2223  136.4656  159.1351 H   0  0  0  0  0  0  0  0  0  0  0  0
  147.2429  134.9646  163.0698 H   0  0  0  0  0  0  0  0  0  0  0  0
  146.8631  136.5435  163.7721 H   0  0  0  0  0  0  0  0  0  0  0  0
  148.4844  136.2244  163.1391 H   0  0  0  0  0  0  0  0  0  0  0  0
  1  2  1  0  0  0  0
  1 28  1  0  0  0  0
  1 29  1  0  0  0  0
  1 30  1  0  0  0  0
  2  3  2  0  0  0  0
  2  4  1  0  0  0  0
  4  5  1  0  0  0  0
  5  6  1  0  0  0  0
  5 31  1  0  0  0  0
  5 32  1  0  0  0  0
  6 23  1  0  0  0  0
  6  7  1  0  0  0  0
  6 33  1  0  0  0  0
  7  8  1  0  0  0  0
  8  9  1  0  0  0  0
  8 18  1  0  0  0  0
  8 34  1  0  0  0  0
  9 16  1  0  0  0  0
  9 10  1  0  0  0  0
 10 11  2  0  0  0  0
 10 35  1  0  0  0  0
 11 12  1  0  0  0  0
 11 13  1  0  0  0  0
 13 14  2  0  0  0  0
 13 15  1  0  0  0  0
 15 16  1  0  0  0  0
 16 17  2  0  0  0  0
 18 19  1  0  0  0  0
 18 23  1  0  0  0  0
 18 36  1  0  0  0  0
 19 20  1  0  0  0  0
 20 21  1  0  0  0  0
 20 22  2  0  0  0  0
 21 37  1  0  0  0  0
 21 38  1  0  0  0  0
 21 39  1  0  0  0  0
 23 24  1  0  0  0  0
 23 40  1  0  0  0  0
 24 25  1  0  0  0  0
 25 26  1  0  0  0  0
 25 27  2  0  0  0  0
 26 41  1  0  0  0  0
 26 42  1  0  0  0  0
 26 43  1  0  0  0  0
M  CHG  1  15  -1
M  END
> <s_m_source_file>
AV-unprocessed.smi

> <i_m_source_file_index>
102

> <i_lp_mmshare_version>
43012

> <i_f3d_flags>
0

> <s_epik_input>
W0NIM11DKD1PKU9bQ0gyXVtDQEBIXTFPW0NASF0oW0NAQEhdKE9DKD1PKVtDSDNdKVtDQEhdMU9DKD1PKVtDSDNdKW4yW2NIXWMoRiljKD1PKVtuSF1jMj1P

> <s_epik_cmdline>
J2VwaWtfcHl0aG9uJywgJy1waCcsICc3LjAnLCAnLXRuJywgJzgnLCAnLW1hJywgJzIwMCcsICctbWV0YWxfYmluZGluZycsICctaW1hZScsICc8aW5maWxlLm1hZT4nLCAnLW9tYWUnLCAnPG91dGZpbGUubWFlPic=

> <r_epik_Ionization_Penalty>
1.40304

> <r_epik_Ionization_Penalty_Charging>
1.43915e-08

> <r_epik_Ionization_Penalty_Neutral>
1.40304

> <r_epik_State_Penalty>
1.48536

> <r_epik_Charging_Adjusted_Penalty>
1.48536

> <i_epik_Tot_Q>
-1

> <i_epik_Tot_abs_Q>
1

> <r_epik_Metal_State_Penalty>
0.00663881

> <b_epik_Metal_Only>
0

> <s_epik_Chemistry_Notes>
This compound has an ester and may undergo hydrolysis at high or low pH. This compound contains an acetal/aminal-like group ( X-CH(R)-Y where X, Y are N, S, or O) that may be acid/base labile, releasing an aldehyde.

> <s_lp_Force_Field>
OPLS_2005

> <r_lp_Energy>
30.6684

> <b_lp_Chiralities_Consistent>
1

> <s_lp_Variant>
AV-unprocessed.smi:102-25

> <Gold.Version>
5.8.1

> <Gold.Id.Protein>
6NUR|6NUR_protein|mol2

> <Gold.PLP.Fitness>
41.7179

> <Gold.PLP.PLP>
-31.0098

> <Gold.PLP.part.hbond>
-5.8319

> <Gold.PLP.part.metal>
0.0000

> <Gold.PLP.part.buried>
-4.7686

> <Gold.PLP.part.nonpolar>
-21.7218

> <Gold.PLP.part.repulsive>
0.0000

> <Gold.PLP.ligand.clash>
0.0000

> <Gold.PLP.ligand.torsion>
0.6485

> <Gold.PLP.Chemscore.Hbond>
3.9235

> <Gold.PLP.Chemscore.CHOScore>
0.0000

> <Gold.PLP.Chemscore.Metal>
0.0000

> <Gold.Chemscore.Hbonds>
donor molecule, donor type, donor heavy atom, donor atom, acceptor molecule, acceptor atom, score
      P1  H  6934  6947       L1    27  1.00
      P1  H  7997  8008       L1    14  1.00
      P1  H 10752 10765       L1    15  1.79

> <Gold.PLP.Chemscore.Internal.Correction>
0.2346

> <Gold.Rescore>
     Score         DG    S(hbond)    S(metal)    S(lipo)     H(rot)  DE(clash)    DE(int)     intcor
      1.53      -6.67       2.16        0.00      35.87       4.00       0.01       5.13       ----

> <Gold.Chemscore.Fitness>
1.5297

> <Gold.Chemscore.DG>
-6.6694

> <Gold.Chemscore.ZeroCoef>
-5.4800

> <Gold.Chemscore.Hbond>
2.1618

> <Gold.Chemscore.Metal>
0.0000

> <Gold.Chemscore.Lipo>
35.8668

> <Gold.Chemscore.Internal_Hbond>
0.0000

> <Gold.Chemscore.DEClash>
0.0073

> <Gold.Chemscore.DEInternal>
5.1323

> <Gold.Chemscore.Rot>
3.9951

> <Gold.Chemscore.Internal.Correction>
   9.000000E+99

> <Gold.Chemscore.Hbonds>
donor molecule, donor type, donor heavy atom, donor atom, acceptor molecule, acceptor atom, score
      P1  H  6934  6947       L1    27  0.83
      P1  H  7997  8008       L1    14  0.95
      P1  H 10752 10765       L1    15  0.33

> <Gold.Chemscore.Hbond.Weighted>
-7.2204

> <Gold.Chemscore.Metal.Weighted>
-0.0000

> <Gold.Chemscore.Lipo.Weighted>
-4.1964

> <Gold.Chemscore.Internal_Hbond.Weighted>
0.0000

> <Gold.Chemscore.DEClash.Weighted>
0.0073

> <Gold.Chemscore.DEInternal.Weighted>
5.1323

> <Gold.Chemscore.Rot.Weighted>
10.2274

> <Gold.Chemscore.Internal.Correction.Weighted>
   9.000000E+99

> <Gold.Protein.RotatedTorsions>
[ 6907 6896 6895 6894 ] final -103.15 input  -60.11 | X-H torsion
[ 7974 7965 7964 7962 ] final -115.39 input  175.53 | X-H torsion
[ 8008 7997 7996 7995 ] final  -19.89 input   59.86 | X-H torsion
[ 10167 10162 10161 10158 ] final  156.02 input  -65.29 | X-H torsion
[ 10718 10713 10712 10709 ] final  111.46 input   66.30 | X-H torsion
[ 10763 10752 10751 10750 ] final -139.29 input  -60.55 | X-H torsion
[ 11005 11000 10999 10996 ] final  156.98 input  -57.11 | X-H torsion

> <Gold.Protein.ActiveResidues>
 VAL166  LYS551  ARG553  GLY616  TRP617  ASP618  TYR619  PRO620  LYS621  CYS622 
 ASP623  PHE694  ASN695  SER759  ASP760  ASP761  ALA762  ILE779  LEU786  VAL792 
 PHE793  MET794  SER795  GLU796  ALA797  LYS798  CYS799  TRP800  GLU811  SER814 

> <Gold.Protein.RotatedAtoms>
  150.7227  134.0473  159.3785 H   0  0  0  0  0  0  0  0  0  0  0  0  # atno 6907 bound_to 6896
  151.8449  135.0575  160.0461 H   0  0  0  0  0  0  0  0  0  0  0  0  # atno 6908 bound_to 6896
  152.2835  133.5456  159.5549 H   0  0  0  0  0  0  0  0  0  0  0  0  # atno 6909 bound_to 6896
  145.1089  140.8599  143.3882 H   0  0  0  0  0  0  0  0  0  0  0  0  # atno 7974 bound_to 7965
  154.4806  140.2076  155.9773 H   0  0  0  0  0  0  0  0  0  0  0  0  # atno 8008 bound_to 7997
  156.1159  140.3221  155.8108 H   0  0  0  0  0  0  0  0  0  0  0  0  # atno 8009 bound_to 7997
  155.4554  140.0520  157.2987 H   0  0  0  0  0  0  0  0  0  0  0  0  # atno 8010 bound_to 7997
  139.4821  144.5046  151.8117 H   0  0  0  0  0  0  0  0  0  0  0  0  # atno 10167 bound_to 10162
  157.6443  131.0951  150.6753 H   0  0  0  0  0  0  0  0  0  0  0  0  # atno 10718 bound_to 10713
  154.8613  135.3587  154.5522 H   0  0  0  0  0  0  0  0  0  0  0  0  # atno 10763 bound_to 10752
  153.6140  135.7008  153.5341 H   0  0  0  0  0  0  0  0  0  0  0  0  # atno 10764 bound_to 10752
  153.3185  135.4158  155.1357 H   0  0  0  0  0  0  0  0  0  0  0  0  # atno 10765 bound_to 10752
  140.1726  134.8532  157.2709 H   0  0  0  0  0  0  0  0  0  0  0  0  # atno 11005 bound_to 11000
  145.0870  139.2918  143.5754 LP  0  0  0  0  0  0  0  0  0  0  0  0  # atno 17320 bound_to 7965
  146.3527  140.0394  142.8644 LP  0  0  0  0  0  0  0  0  0  0  0  0  # atno 17321 bound_to 7965
  140.4543  144.1811  150.5900 LP  0  0  0  0  0  0  0  0  0  0  0  0  # atno 17342 bound_to 10162
  140.4552  143.2470  151.9294 LP  0  0  0  0  0  0  0  0  0  0  0  0  # atno 17343 bound_to 10162
  156.7072  130.4641  149.5557 LP  0  0  0  0  0  0  0  0  0  0  0  0  # atno 17370 bound_to 10713
  156.1755  130.6465  151.0889 LP  0  0  0  0  0  0  0  0  0  0  0  0  # atno 17371 bound_to 10713
  140.2359  134.3853  155.7501 LP  0  0  0  0  0  0  0  0  0  0  0  0  # atno 17394 bound_to 11000
  141.2218  133.7239  156.8713 LP  0  0  0  0  0  0  0  0  0  0  0  0  # atno 17395 bound_to 11000

$$$$
