#       Name:                AV-unprocessed.smi:1318
#       Creating user name   scv26
#       Creation time:       Fri Mar 27 05:02:49 2020


#       File generated by GOLD software.
#

@<TRIPOS>MOLECULE
AV-unprocessed.smi:1318
    31    32     1
SMALL
NO_CHARGES


@<TRIPOS>ATOM
      1 ****        -2.5927   4.3960   1.5565 C.3            1 S1                 0.0000
      2 ****        -2.5185   3.3410   0.5068 C.2            1 S1                 0.0000
      3 ****        -1.7701   2.2414   0.6238 N.2            1 S1                 0.0000
      4 ****        -1.8659   1.4030  -0.4915 C.2            1 S1                 0.0000
      5 ****        -1.0884   0.1227  -0.5340 C.3            1 S1                 0.0000
      6 ****         0.3932   0.3542  -0.8753 C.3            1 S1                 0.0000
      7 ****         1.1306  -0.9017  -0.9560 N.am           1 S1                 0.0000
      8 ****         1.6012  -1.5897   0.0954 C.2            1 S1                 0.0000
      9 ****         1.4535  -1.2188   1.2607 O.2            1 S1                 0.0000
     10 ****         2.3183  -2.8466  -0.2749 C.3            1 S1                 0.0000
     11 ****         2.1902  -4.0303   0.6625 C.3            1 S1                 0.0000
     12 ****         3.4896  -3.2684   0.5890 C.3            1 S1                 0.0000
     13 ****        -2.7050   1.8893  -1.4631 C.2            1 S1                 0.0000
     14 ****        -3.4058   3.4189  -1.0108 S.3            1 S1                 0.0000
     15 ****        -2.9149   3.9614   2.5028 H              1 S1                 0.0000
     16 ****        -3.3041   5.1697   1.2673 H              1 S1                 0.0000
     17 ****        -1.6137   4.8549   1.6953 H              1 S1                 0.0000
     18 ****        -1.1704  -0.3879   0.4264 H              1 S1                 0.0000
     19 ****        -1.5275  -0.5532  -1.2690 H              1 S1                 0.0000
     20 ****         0.4763   0.8553  -1.8400 H              1 S1                 0.0000
     21 ****         0.8582   1.0147  -0.1415 H              1 S1                 0.0000
     22 ****         1.2974  -1.2743  -1.8795 H              1 S1                 0.0000
     23 ****         2.3896  -3.0713  -1.3381 H              1 S1                 0.0000
     24 ****         1.5934  -3.9169   1.5658 H              1 S1                 0.0000
     25 ****         2.1505  -5.0178   0.2073 H              1 S1                 0.0000
     26 ****         4.3301  -3.7396   0.0839 H              1 S1                 0.0000
     27 ****         3.7559  -2.6490   1.4439 H              1 S1                 0.0000
     28 ****        -2.9521   1.4425  -2.4145 H              1 S1                 0.0000
     29 ****        -1.2027   2.0393   1.4221 LP             1 S1                 0.0000
     30 ****         0.9639  -0.3692   1.4568 LP             1 S1                 0.0000
     31 ****         1.8233  -1.7673   2.0107 LP             1 S1                 0.0000
@<TRIPOS>BOND
    1    1    2 1     
    2    1   15 1     
    3    1   16 1     
    4    1   17 1     
    5    2   14 1     
    6    2    3 2     
    7    3    4 1     
    8    4    5 1     
    9    4   13 2     
   10    5    6 1     
   11    5   18 1     
   12    5   19 1     
   13    6    7 1     
   14    6   20 1     
   15    6   21 1     
   16    7    8 am    
   17    7   22 1     
   18    8    9 2     
   19    8   10 1     
   20   10   12 1     
   21   10   11 1     
   22   10   23 1     
   23   11   12 1     
   24   11   24 1     
   25   11   25 1     
   26   12   26 1     
   27   12   27 1     
   28   13   14 1     
   29   13   28 1     
   30    3   29 1     
   31    9   30 1     
   32    9   31 1     
@<TRIPOS>SUBSTRUCTURE
      1 S1             1
@<TRIPOS>SET
LONE_PAIRS      STATIC     ATOMS    <user>   **** ""
3 29 30 31
DONOR_HYDROGENS      STATIC     ATOMS    <user>   **** ""
1 22
ATOM$BLUE        STATIC     ATOMS    COLORGROUP SYSTEM
3 29 30 31
ATOM$RED        STATIC     ATOMS    COLORGROUP SYSTEM
1 22
