AV-unprocessed.smi:1656|AV-procd|sdf|6646|dock7
  -GOLD-   22720 7353D 1   1.00000     0.00000
 Structure written by MMmdl.
 49 52  0  0  0  0  0  0  0  0  1 V2000
  146.6099  139.5664  155.0527 C   0  0  0  0  0  0  0  0  0  0  0  0
  147.9431  138.8831  155.1965 C   0  0  0  0  0  0  0  0  0  0  0  0
  147.9386  137.7072  155.7328 N   0  0  0  0  0  0  0  0  0  0  0  0
  149.1071  136.9904  155.9045 N   0  0  0  0  0  0  0  0  0  0  0  0
  148.9138  135.6568  156.4930 C   0  0  0  0  0  0  0  0  0  0  0  0
  148.7702  135.6917  158.0213 C   0  0  0  0  0  0  0  0  0  0  0  0
  149.7447  135.9399  158.7320 O   0  0  0  0  0  0  0  0  0  0  0  0
  147.5431  135.4234  158.5003 N   0  0  0  0  0  0  0  0  0  0  0  0
  147.0984  135.4045  159.8980 C   0  0  0  0  0  0  0  0  0  0  0  0
  145.5619  135.2033  160.0078 C   0  0  0  0  0  0  0  0  0  0  0  0
  145.1316  135.2513  161.4901 C   0  0  1  0  0  0  0  0  0  0  0  0
  145.8543  134.1344  162.2744 C   0  0  0  0  0  0  0  0  0  0  0  0
  147.3810  134.3499  162.1866 C   0  0  2  0  0  0  0  0  0  0  0  0
  147.7457  135.7228  162.7886 C   0  0  0  0  0  0  0  0  0  0  0  0
  147.0210  136.8318  161.9980 C   0  0  2  0  0  0  0  0  0  0  0  0
  145.4953  136.6247  162.0918 C   0  0  0  0  0  0  0  0  0  0  0  0
  147.4574  136.7790  160.5185 C   0  0  0  0  0  0  0  0  0  0  0  0
  147.8251  134.2962  160.7088 C   0  0  0  0  0  0  0  0  0  0  0  0
  150.3495  137.4357  155.5582 C   0  0  0  0  0  0  0  0  0  0  0  0
  151.3678  136.7666  155.7413 O   0  0  0  0  0  0  0  0  0  0  0  0
  150.3469  138.7683  154.9510 C   0  0  0  0  0  0  0  0  0  0  0  0
  151.6264  139.2670  154.5617 C   0  0  0  0  0  0  0  0  0  0  0  0
  152.6712  139.6678  154.2647 N   0  0  0  0  0  0  0  0  0  0  0  0
  149.2051  139.4776  154.7677 C   0  0  0  0  0  0  0  0  0  0  0  0
  149.1485  140.8631  154.1390 C   0  0  0  0  0  0  0  0  0  0  0  0
  146.5771  140.4787  155.6483 H   0  0  0  0  0  0  0  0  0  0  0  0
  145.7880  138.9283  155.3809 H   0  0  0  0  0  0  0  0  0  0  0  0
  146.4215  139.8332  154.0127 H   0  0  0  0  0  0  0  0  0  0  0  0
  148.0386  135.1787  156.0483 H   0  0  0  0  0  0  0  0  0  0  0  0
  149.7569  135.0082  156.2488 H   0  0  0  0  0  0  0  0  0  0  0  0
  146.8262  135.2289  157.8165 H   0  0  0  0  0  0  0  0  0  0  0  0
  145.0363  135.9730  159.4410 H   0  0  0  0  0  0  0  0  0  0  0  0
  145.2579  134.2480  159.5797 H   0  0  0  0  0  0  0  0  0  0  0  0
  144.0537  135.1013  161.5578 H   0  0  0  0  0  0  0  0  0  0  0  0
  145.5325  134.1356  163.3166 H   0  0  0  0  0  0  0  0  0  0  0  0
  145.5875  133.1568  161.8709 H   0  0  0  0  0  0  0  0  0  0  0  0
  147.8905  133.5640  162.7448 H   0  0  0  0  0  0  0  0  0  0  0  0
  147.4626  135.7618  163.8413 H   0  0  0  0  0  0  0  0  0  0  0  0
  148.8250  135.8765  162.7536 H   0  0  0  0  0  0  0  0  0  0  0  0
  147.2809  137.8041  162.4179 H   0  0  0  0  0  0  0  0  0  0  0  0
  144.9722  137.4211  161.5609 H   0  0  0  0  0  0  0  0  0  0  0  0
  145.1692  136.6808  163.1311 H   0  0  0  0  0  0  0  0  0  0  0  0
  148.5310  136.9595  160.4446 H   0  0  0  0  0  0  0  0  0  0  0  0
  146.9737  137.5838  159.9629 H   0  0  0  0  0  0  0  0  0  0  0  0
  147.6066  133.3069  160.3063 H   0  0  0  0  0  0  0  0  0  0  0  0
  148.9065  134.4217  160.6387 H   0  0  0  0  0  0  0  0  0  0  0  0
  150.1390  141.2502  153.9022 H   0  0  0  0  0  0  0  0  0  0  0  0
  148.6744  141.5745  154.8159 H   0  0  0  0  0  0  0  0  0  0  0  0
  148.5757  140.8364  153.2115 H   0  0  0  0  0  0  0  0  0  0  0  0
  1  2  1  0  0  0  0
  1 26  1  0  0  0  0
  1 27  1  0  0  0  0
  1 28  1  0  0  0  0
  2 24  1  0  0  0  0
  2  3  2  0  0  0  0
  3  4  1  0  0  0  0
  4  5  1  0  0  0  0
  4 19  1  0  0  0  0
  5  6  1  0  0  0  0
  5 29  1  0  0  0  0
  5 30  1  0  0  0  0
  6  7  2  0  0  0  0
  6  8  1  0  0  0  0
  8  9  1  0  0  0  0
  8 31  1  0  0  0  0
  9 17  1  0  0  0  0
  9 18  1  0  0  0  0
  9 10  1  0  0  0  0
 10 11  1  0  0  0  0
 10 32  1  0  0  0  0
 10 33  1  0  0  0  0
 11 16  1  0  0  0  0
 11 12  1  0  0  0  0
 11 34  1  0  0  0  0
 12 13  1  0  0  0  0
 12 35  1  0  0  0  0
 12 36  1  0  0  0  0
 13 14  1  0  0  0  0
 13 18  1  0  0  0  0
 13 37  1  0  0  0  0
 14 15  1  0  0  0  0
 14 38  1  0  0  0  0
 14 39  1  0  0  0  0
 15 16  1  0  0  0  0
 15 17  1  0  0  0  0
 15 40  1  0  0  0  0
 16 41  1  0  0  0  0
 16 42  1  0  0  0  0
 17 43  1  0  0  0  0
 17 44  1  0  0  0  0
 18 45  1  0  0  0  0
 18 46  1  0  0  0  0
 19 20  2  0  0  0  0
 19 21  1  0  0  0  0
 21 22  1  0  0  0  0
 21 24  2  0  0  0  0
 22 23  3  0  0  0  0
 24 25  1  0  0  0  0
 25 47  1  0  0  0  0
 25 48  1  0  0  0  0
 25 49  1  0  0  0  0
M  END
> <s_m_source_file>
AV-unprocessed.smi

> <i_m_source_file_index>
1656

> <i_lp_mmshare_version>
43012

> <i_f3d_flags>
0

> <s_epik_input>
TiNDYyhjMVtDSDNdKWMoPU8pbihuYzFbQ0gzXSlbQ0gyXUMoPU8pW05IXUMyM1tDSDJdW0NASF00W0NIMl1bQ0BASF0oW0NIMl0zKVtDSDJdW0NASF0oW0NIMl00KVtDSDJdMg==

> <s_epik_cmdline>
J2VwaWtfcHl0aG9uJywgJy1waCcsICc3LjAnLCAnLXRuJywgJzgnLCAnLW1hJywgJzIwMCcsICctbWV0YWxfYmluZGluZycsICctaW1hZScsICc8aW5maWxlLm1hZT4nLCAnLW9tYWUnLCAnPG91dGZpbGUubWFlPic=

> <r_lp_tautomer_probability>
1

> <r_epik_Ionization_Penalty>
2.33831e-08

> <r_epik_Ionization_Penalty_Charging>
2.51001e-11

> <r_epik_Ionization_Penalty_Neutral>
2.3358e-08

> <r_epik_State_Penalty>
-0

> <r_epik_Charging_Adjusted_Penalty>
2.51001e-11

> <i_epik_Tot_Q>
0

> <i_epik_Tot_abs_Q>
0

> <r_epik_Metal_State_Penalty>
-0

> <b_epik_Metal_Only>
0

> <s_lp_Force_Field>
OPLS_2005

> <r_lp_Energy>
45.1543

> <b_lp_Chiralities_Consistent>
1

> <s_lp_Variant>
AV-unprocessed.smi:1656-1

> <Gold.Version>
5.8.1

> <Gold.Id.Protein>
6NUR|6NUR_protein|mol2

> <Gold.PLP.Fitness>
44.6247

> <Gold.PLP.PLP>
-36.5902

> <Gold.PLP.part.hbond>
-3.9123

> <Gold.PLP.part.metal>
0.0000

> <Gold.PLP.part.buried>
-2.9236

> <Gold.PLP.part.nonpolar>
-30.0956

> <Gold.PLP.part.repulsive>
0.1169

> <Gold.PLP.ligand.clash>
0.0000

> <Gold.PLP.ligand.torsion>
0.4478

> <Gold.PLP.Chemscore.Hbond>
2.9750

> <Gold.PLP.Chemscore.CHOScore>
0.0000

> <Gold.PLP.Chemscore.Metal>
0.0000

> <Gold.Chemscore.Hbonds>
donor molecule, donor type, donor heavy atom, donor atom, acceptor molecule, acceptor atom, score
      P1  H  6896  6907       L1     7  1.00
      P1  H  7989  7998       L1    23  0.02
      P1  H 10752 10765       L1    20  0.42

> <Gold.PLP.Chemscore.Internal.Correction>
0.0050

> <Gold.Rescore>
     Score         DG    S(hbond)    S(metal)    S(lipo)     H(rot)  DE(clash)    DE(int)     intcor
     19.86     -20.49       2.68        0.00      83.33       1.44       0.15       0.47       ----

> <Gold.Chemscore.Fitness>
19.8632

> <Gold.Chemscore.DG>
-20.4863

> <Gold.Chemscore.ZeroCoef>
-5.4800

> <Gold.Chemscore.Hbond>
2.6808

> <Gold.Chemscore.Metal>
0.0000

> <Gold.Chemscore.Lipo>
83.3303

> <Gold.Chemscore.Internal_Hbond>
0.0000

> <Gold.Chemscore.DEClash>
0.1524

> <Gold.Chemscore.DEInternal>
0.4707

> <Gold.Chemscore.Rot>
1.4442

> <Gold.Chemscore.Internal.Correction>
   9.000000E+99

> <Gold.Chemscore.Hbonds>
donor molecule, donor type, donor heavy atom, donor atom, acceptor molecule, acceptor atom, score
      P1  H  6896  6907       L1     7  0.97
      P1  H  7997  8010       L1    23  0.02
      P1  H 10752 10765       L1    20  0.43

> <Gold.Chemscore.Hbond.Weighted>
-8.9538

> <Gold.Chemscore.Metal.Weighted>
-0.0000

> <Gold.Chemscore.Lipo.Weighted>
-9.7496

> <Gold.Chemscore.Internal_Hbond.Weighted>
0.0000

> <Gold.Chemscore.DEClash.Weighted>
0.1524

> <Gold.Chemscore.DEInternal.Weighted>
0.4707

> <Gold.Chemscore.Rot.Weighted>
3.6971

> <Gold.Chemscore.Internal.Correction.Weighted>
   9.000000E+99

> <Gold.Protein.RotatedTorsions>
[ 6907 6896 6895 6894 ] final  -70.04 input  -60.11 | X-H torsion
[ 7974 7965 7964 7962 ] final   14.23 input  175.53 | X-H torsion
[ 8008 7997 7996 7995 ] final   97.86 input   59.86 | X-H torsion
[ 10167 10162 10161 10158 ] final  -79.48 input  -65.29 | X-H torsion
[ 10718 10713 10712 10709 ] final   26.31 input   66.30 | X-H torsion
[ 10763 10752 10751 10750 ] final -156.72 input  -60.55 | X-H torsion
[ 11005 11000 10999 10996 ] final  -26.75 input  -57.11 | X-H torsion

> <Gold.Protein.ActiveResidues>
 VAL166  LYS551  ARG553  GLY616  TRP617  ASP618  TYR619  PRO620  LYS621  CYS622 
 ASP623  PHE694  ASN695  SER759  ASP760  ASP761  ALA762  ILE779  LEU786  VAL792 
 PHE793  MET794  SER795  GLU796  ALA797  LYS798  CYS799  TRP800  GLU811  SER814 

> <Gold.Protein.RotatedAtoms>
  150.7276  134.5510  159.5794 H   0  0  0  0  0  0  0  0  0  0  0  0  # atno 6907 bound_to 6896
  152.2997  134.7622  160.0369 H   0  0  0  0  0  0  0  0  0  0  0  0  # atno 6908 bound_to 6896
  151.8207  133.3358  159.3620 H   0  0  0  0  0  0  0  0  0  0  0  0  # atno 6909 bound_to 6896
  146.2310  139.9071  142.8530 H   0  0  0  0  0  0  0  0  0  0  0  0  # atno 7974 bound_to 7965
  156.0945  140.3252  155.7860 H   0  0  0  0  0  0  0  0  0  0  0  0  # atno 8008 bound_to 7997
  155.4941  140.0564  157.2966 H   0  0  0  0  0  0  0  0  0  0  0  0  # atno 8009 bound_to 7997
  154.4658  140.1988  156.0138 H   0  0  0  0  0  0  0  0  0  0  0  0  # atno 8010 bound_to 7997
  140.4589  143.2460  151.8378 H   0  0  0  0  0  0  0  0  0  0  0  0  # atno 10167 bound_to 10162
  157.2051  130.6908  149.6205 H   0  0  0  0  0  0  0  0  0  0  0  0  # atno 10718 bound_to 10713
  154.7691  135.3140  154.8226 H   0  0  0  0  0  0  0  0  0  0  0  0  # atno 10763 bound_to 10752
  153.8966  135.6820  153.4762 H   0  0  0  0  0  0  0  0  0  0  0  0  # atno 10764 bound_to 10752
  153.1302  135.4783  154.9270 H   0  0  0  0  0  0  0  0  0  0  0  0  # atno 10765 bound_to 10752
  140.9057  133.7494  156.0603 H   0  0  0  0  0  0  0  0  0  0  0  0  # atno 11005 bound_to 11000
  145.2266  140.9956  143.4015 LP  0  0  0  0  0  0  0  0  0  0  0  0  # atno 17320 bound_to 7965
  144.9566  139.4025  143.6376 LP  0  0  0  0  0  0  0  0  0  0  0  0  # atno 17321 bound_to 7965
  139.4804  144.5031  151.9033 LP  0  0  0  0  0  0  0  0  0  0  0  0  # atno 17342 bound_to 10162
  140.4117  144.2360  150.5888 LP  0  0  0  0  0  0  0  0  0  0  0  0  # atno 17343 bound_to 10162
  155.9696  130.4569  150.5944 LP  0  0  0  0  0  0  0  0  0  0  0  0  # atno 17370 bound_to 10713
  157.3728  131.0768  151.1543 LP  0  0  0  0  0  0  0  0  0  0  0  0  # atno 17371 bound_to 10713
  140.8174  134.3329  157.5393 LP  0  0  0  0  0  0  0  0  0  0  0  0  # atno 17394 bound_to 11000
  139.8749  134.9289  156.3463 LP  0  0  0  0  0  0  0  0  0  0  0  0  # atno 17395 bound_to 11000

$$$$
