AV-unprocessed.smi:2712|AV-procd|sdf|10474|dock6
  -GOLD-   2272014513D 1   1.00000     0.00000
 Structure written by MMmdl.
 52 53  0  0  0  0  0  0  0  0  1 V2000
  145.3832  137.6640  162.2652 C   0  0  0  0  0  0  0  0  0  0  0  0
  146.3244  136.8770  161.4020 C   0  0  0  0  0  0  0  0  0  0  0  0
  146.9286  135.6293  161.8285 C   0  0  0  0  0  0  0  0  0  0  0  0
  147.7669  134.9801  160.9926 C   0  0  0  0  0  0  0  0  0  0  0  0
  148.0811  135.4997  159.6636 C   0  0  0  0  0  0  0  0  0  0  0  0
  148.8291  134.9246  158.8736 O   0  0  0  0  0  0  0  0  0  0  0  0
  147.4548  136.6789  159.3721 N   0  0  0  0  0  0  0  0  0  0  0  0
  147.6327  137.3364  158.0666 C   0  0  0  0  0  0  0  0  0  0  0  0
  148.6125  138.5234  158.0698 C   0  0  0  0  0  0  0  0  0  0  0  0
  149.1044  138.8920  159.1358 O   0  0  0  0  0  0  0  0  0  0  0  0
  148.8961  139.1092  156.8940 N   0  0  0  0  0  0  0  0  0  0  0  0
  149.8215  140.2178  156.6819 C   0  0  2  0  0  0  0  0  0  0  0  0
  151.2513  139.7611  157.0268 C   0  0  0  0  0  0  0  0  0  0  0  0
  151.6106  139.8469  158.5177 C   0  0  0  0  0  0  0  0  0  0  0  0
  152.1964  141.2129  158.9215 C   0  0  0  0  0  0  0  0  0  0  0  0
  151.1928  142.3973  159.0015 C   0  0  1  0  0  0  0  0  0  0  0  0
  151.8541  143.7412  159.4852 C   0  0  0  0  0  0  0  0  0  0  0  0
  152.6387  143.5541  160.8021 C   0  0  0  0  0  0  0  0  0  0  0  0
  150.7908  144.8415  159.7087 C   0  0  0  0  0  0  0  0  0  0  0  0
  152.8201  144.2905  158.4080 C   0  0  0  0  0  0  0  0  0  0  0  0
  150.3831  142.5563  157.6819 C   0  0  0  0  0  0  0  0  0  0  0  0
  149.3312  141.4552  157.4634 C   0  0  0  0  0  0  0  0  0  0  0  0
  146.5976  137.3485  160.2299 N   0  0  0  0  0  0  0  0  0  0  0  0
  145.1710  137.1403  163.1976 H   0  0  0  0  0  0  0  0  0  0  0  0
  144.4347  137.8325  161.7542 H   0  0  0  0  0  0  0  0  0  0  0  0
  145.8093  138.6354  162.5170 H   0  0  0  0  0  0  0  0  0  0  0  0
  146.7058  135.2309  162.8072 H   0  0  0  0  0  0  0  0  0  0  0  0
  148.2170  134.0514  161.3121 H   0  0  0  0  0  0  0  0  0  0  0  0
  147.9891  136.6105  157.3336 H   0  0  0  0  0  0  0  0  0  0  0  0
  146.6702  137.6811  157.6841 H   0  0  0  0  0  0  0  0  0  0  0  0
  148.4419  138.7406  156.0710 H   0  0  0  0  0  0  0  0  0  0  0  0
  149.8215  140.4597  155.6174 H   0  0  0  0  0  0  0  0  0  0  0  0
  151.3867  138.7342  156.6838 H   0  0  0  0  0  0  0  0  0  0  0  0
  151.9701  140.3438  156.4494 H   0  0  0  0  0  0  0  0  0  0  0  0
  150.7608  139.5797  159.1473 H   0  0  0  0  0  0  0  0  0  0  0  0
  152.3723  139.0929  158.7187 H   0  0  0  0  0  0  0  0  0  0  0  0
  152.6473  141.0583  159.9004 H   0  0  0  0  0  0  0  0  0  0  0  0
  153.0201  141.4597  158.2519 H   0  0  0  0  0  0  0  0  0  0  0  0
  150.4780  142.1269  159.7801 H   0  0  0  0  0  0  0  0  0  0  0  0
  153.0750  144.4964  161.1354 H   0  0  0  0  0  0  0  0  0  0  0  0
  153.4610  142.8474  160.6902 H   0  0  0  0  0  0  0  0  0  0  0  0
  152.0011  143.1942  161.6092 H   0  0  0  0  0  0  0  0  0  0  0  0
  150.1589  144.6342  160.5722 H   0  0  0  0  0  0  0  0  0  0  0  0
  150.1448  144.9552  158.8372 H   0  0  0  0  0  0  0  0  0  0  0  0
  151.2538  145.8103  159.8988 H   0  0  0  0  0  0  0  0  0  0  0  0
  153.1857  145.2833  158.6732 H   0  0  0  0  0  0  0  0  0  0  0  0
  152.3279  144.3785  157.4389 H   0  0  0  0  0  0  0  0  0  0  0  0
  153.7055  143.6710  158.2754 H   0  0  0  0  0  0  0  0  0  0  0  0
  149.8319  143.4930  157.6978 H   0  0  0  0  0  0  0  0  0  0  0  0
  151.0455  142.6303  156.8189 H   0  0  0  0  0  0  0  0  0  0  0  0
  148.4916  141.8827  156.9136 H   0  0  0  0  0  0  0  0  0  0  0  0
  148.9135  141.1572  158.4262 H   0  0  0  0  0  0  0  0  0  0  0  0
  1  2  1  0  0  0  0
  1 24  1  0  0  0  0
  1 25  1  0  0  0  0
  1 26  1  0  0  0  0
  2 23  2  0  0  0  0
  2  3  1  0  0  0  0
  3  4  2  0  0  0  0
  3 27  1  0  0  0  0
  4  5  1  0  0  0  0
  4 28  1  0  0  0  0
  5  6  2  0  0  0  0
  5  7  1  0  0  0  0
  7  8  1  0  0  0  0
  7 23  1  0  0  0  0
  8  9  1  0  0  0  0
  8 29  1  0  0  0  0
  8 30  1  0  0  0  0
  9 10  2  0  0  0  0
  9 11  1  0  0  0  0
 11 12  1  0  0  0  0
 11 31  1  0  0  0  0
 12 22  1  0  0  0  0
 12 13  1  0  0  0  0
 12 32  1  0  0  0  0
 13 14  1  0  0  0  0
 13 33  1  0  0  0  0
 13 34  1  0  0  0  0
 14 15  1  0  0  0  0
 14 35  1  0  0  0  0
 14 36  1  0  0  0  0
 15 16  1  0  0  0  0
 15 37  1  0  0  0  0
 15 38  1  0  0  0  0
 16 17  1  0  0  0  0
 16 21  1  0  0  0  0
 16 39  1  0  0  0  0
 17 18  1  0  0  0  0
 17 19  1  0  0  0  0
 17 20  1  0  0  0  0
 18 40  1  0  0  0  0
 18 41  1  0  0  0  0
 18 42  1  0  0  0  0
 19 43  1  0  0  0  0
 19 44  1  0  0  0  0
 19 45  1  0  0  0  0
 20 46  1  0  0  0  0
 20 47  1  0  0  0  0
 20 48  1  0  0  0  0
 21 22  1  0  0  0  0
 21 49  1  0  0  0  0
 21 50  1  0  0  0  0
 22 51  1  0  0  0  0
 22 52  1  0  0  0  0
M  END
> <s_m_source_file>
AV-unprocessed.smi

> <i_m_source_file_index>
2712

> <i_lp_mmshare_version>
43012

> <i_f3d_flags>
0

> <s_epik_input>
W0NIM11jMVtjSF1bY0hdYyg9TyluKG4xKVtDSDJdQyg9TylbTkhdW0NAQEhdMltDSDJdW0NIMl1bQ0gyXVtDQEBIXShDKFtDSDNdKShbQ0gzXSlbQ0gzXSlbQ0gyXVtDSDJdMg==

> <s_epik_cmdline>
J2VwaWtfcHl0aG9uJywgJy1waCcsICc3LjAnLCAnLXRuJywgJzgnLCAnLW1hJywgJzIwMCcsICctbWV0YWxfYmluZGluZycsICctaW1hZScsICc8aW5maWxlLm1hZT4nLCAnLW9tYWUnLCAnPG91dGZpbGUubWFlPic=

> <r_lp_tautomer_probability>
1

> <r_epik_Ionization_Penalty>
8.71758e-07

> <r_epik_Ionization_Penalty_Charging>
8.50442e-07

> <r_epik_Ionization_Penalty_Neutral>
2.13165e-08

> <r_epik_State_Penalty>
-0

> <r_epik_Charging_Adjusted_Penalty>
8.50442e-07

> <i_epik_Tot_Q>
0

> <i_epik_Tot_abs_Q>
0

> <r_epik_Metal_State_Penalty>
-0

> <b_epik_Metal_Only>
0

> <s_lp_Force_Field>
OPLS_2005

> <r_lp_Energy>
38.8827

> <b_lp_Chiralities_Consistent>
1

> <s_lp_Variant>
AV-unprocessed.smi:2712-1

> <Gold.Version>
5.8.1

> <Gold.Id.Protein>
6NUR|6NUR_protein|mol2

> <Gold.PLP.Fitness>
43.5718

> <Gold.PLP.PLP>
-38.4754

> <Gold.PLP.part.hbond>
-4.0000

> <Gold.PLP.part.metal>
0.0000

> <Gold.PLP.part.buried>
-3.2070

> <Gold.PLP.part.nonpolar>
-31.6872

> <Gold.PLP.part.repulsive>
0.0326

> <Gold.PLP.ligand.clash>
0.0000

> <Gold.PLP.ligand.torsion>
0.3458

> <Gold.PLP.Chemscore.Hbond>
1.9000

> <Gold.PLP.Chemscore.CHOScore>
0.0000

> <Gold.PLP.Chemscore.Metal>
0.0000

> <Gold.Chemscore.Hbonds>
donor molecule, donor type, donor heavy atom, donor atom, acceptor molecule, acceptor atom, score
      P1  H  6896  6909       L1     6  1.00
      P1  H  6934  6947       L1    23  0.70

> <Gold.PLP.Chemscore.Internal.Correction>
0.0880

> <Gold.Rescore>
     Score         DG    S(hbond)    S(metal)    S(lipo)     H(rot)  DE(clash)    DE(int)     intcor
     15.01     -19.03       1.02        0.00     119.88       1.52       1.25       2.77       ----

> <Gold.Chemscore.Fitness>
15.0056

> <Gold.Chemscore.DG>
-19.0255

> <Gold.Chemscore.ZeroCoef>
-5.4800

> <Gold.Chemscore.Hbond>
1.0184

> <Gold.Chemscore.Metal>
0.0000

> <Gold.Chemscore.Lipo>
119.8770

> <Gold.Chemscore.Internal_Hbond>
0.0000

> <Gold.Chemscore.DEClash>
1.2507

> <Gold.Chemscore.DEInternal>
2.7692

> <Gold.Chemscore.Rot>
1.5162

> <Gold.Chemscore.Internal.Correction>
   9.000000E+99

> <Gold.Chemscore.Hbonds>
donor molecule, donor type, donor heavy atom, donor atom, acceptor molecule, acceptor atom, score
      P1  H  6896  6909       L1     6  0.83
      P1  H  6934  6947       L1    23  0.07

> <Gold.Chemscore.Hbond.Weighted>
-3.4014

> <Gold.Chemscore.Metal.Weighted>
-0.0000

> <Gold.Chemscore.Lipo.Weighted>
-14.0256

> <Gold.Chemscore.Internal_Hbond.Weighted>
0.0000

> <Gold.Chemscore.DEClash.Weighted>
1.2507

> <Gold.Chemscore.DEInternal.Weighted>
2.7692

> <Gold.Chemscore.Rot.Weighted>
3.8814

> <Gold.Chemscore.Internal.Correction.Weighted>
   9.000000E+99

> <Gold.Protein.RotatedTorsions>
[ 6907 6896 6895 6894 ] final   54.61 input  -60.11 | X-H torsion
[ 7974 7965 7964 7962 ] final   52.39 input  175.53 | X-H torsion
[ 8008 7997 7996 7995 ] final  137.04 input   59.86 | X-H torsion
[ 10167 10162 10161 10158 ] final -144.24 input  -65.29 | X-H torsion
[ 10718 10713 10712 10709 ] final   14.47 input   66.30 | X-H torsion
[ 10763 10752 10751 10750 ] final   30.15 input  -60.55 | X-H torsion
[ 11005 11000 10999 10996 ] final -126.01 input  -57.11 | X-H torsion

> <Gold.Protein.ActiveResidues>
 VAL166  LYS551  ARG553  GLY616  TRP617  ASP618  TYR619  PRO620  LYS621  CYS622 
 ASP623  PHE694  ASN695  SER759  ASP760  ASP761  ALA762  ILE779  LEU786  VAL792 
 PHE793  MET794  SER795  GLU796  ALA797  LYS798  CYS799  TRP800  GLU811  SER814 

> <Gold.Protein.RotatedAtoms>
  152.3456  134.7076  160.0251 H   0  0  0  0  0  0  0  0  0  0  0  0  # atno 6907 bound_to 6896
  151.7446  133.3318  159.3383 H   0  0  0  0  0  0  0  0  0  0  0  0  # atno 6908 bound_to 6896
  150.7507  134.6180  159.6165 H   0  0  0  0  0  0  0  0  0  0  0  0  # atno 6909 bound_to 6896
  145.9818  139.4250  143.0127 H   0  0  0  0  0  0  0  0  0  0  0  0  # atno 7974 bound_to 7965
  156.3003  140.2429  156.3844 H   0  0  0  0  0  0  0  0  0  0  0  0  # atno 8008 bound_to 7997
  154.8671  140.0417  157.1721 H   0  0  0  0  0  0  0  0  0  0  0  0  # atno 8009 bound_to 7997
  154.8834  140.2952  155.5415 H   0  0  0  0  0  0  0  0  0  0  0  0  # atno 8010 bound_to 7997
  139.7917  143.7957  152.2650 H   0  0  0  0  0  0  0  0  0  0  0  0  # atno 10167 bound_to 10162
  157.0396  130.6226  149.5748 H   0  0  0  0  0  0  0  0  0  0  0  0  # atno 10718 bound_to 10713
  153.0388  135.6471  154.1001 H   0  0  0  0  0  0  0  0  0  0  0  0  # atno 10763 bound_to 10752
  154.0711  135.2880  155.3309 H   0  0  0  0  0  0  0  0  0  0  0  0  # atno 10764 bound_to 10752
  154.6593  135.5397  153.8063 H   0  0  0  0  0  0  0  0  0  0  0  0  # atno 10765 bound_to 10752
  140.9715  134.0798  157.3864 H   0  0  0  0  0  0  0  0  0  0  0  0  # atno 11005 bound_to 11000
  145.7758  140.9877  143.1125 LP  0  0  0  0  0  0  0  0  0  0  0  0  # atno 17320 bound_to 7965
  144.6863  139.9504  143.7478 LP  0  0  0  0  0  0  0  0  0  0  0  0  # atno 17321 bound_to 7965
  139.8050  144.7359  150.9773 LP  0  0  0  0  0  0  0  0  0  0  0  0  # atno 17342 bound_to 10162
  140.7820  143.4307  151.0699 LP  0  0  0  0  0  0  0  0  0  0  0  0  # atno 17343 bound_to 10162
  156.0042  130.5127  150.7773 LP  0  0  0  0  0  0  0  0  0  0  0  0  # atno 17370 bound_to 10713
  157.5115  131.0926  151.0192 LP  0  0  0  0  0  0  0  0  0  0  0  0  # atno 17371 bound_to 10713
  139.8914  135.0118  156.6790 LP  0  0  0  0  0  0  0  0  0  0  0  0  # atno 17394 bound_to 11000
  140.7321  133.9050  155.8218 LP  0  0  0  0  0  0  0  0  0  0  0  0  # atno 17395 bound_to 11000

$$$$
