AV-unprocessed.smi:1709|AV-procd|sdf|6894|dock9
  -GOLD-   22720 8103D 1   1.00000     0.00000
 Structure written by MMmdl.
 43 45  0  0  0  0  0  0  0  0  2 V2000
  151.1471  137.9216  154.2047 C   0  0  0  0  0  0  0  0  0  0  0  0
  150.4031  139.2266  154.4401 C   0  0  0  0  0  0  0  0  0  0  0  0
  151.1020  140.3285  154.9770 C   0  0  0  0  0  0  0  0  0  0  0  0
  150.4172  141.5363  155.1928 C   0  0  0  0  0  0  0  0  0  0  0  0
  149.0543  141.5915  154.8580 C   0  0  0  0  0  0  0  0  0  0  0  0
  148.3788  140.5432  154.3440 N   0  0  0  0  0  0  0  0  0  0  0  0
  149.0222  139.3654  154.1341 C   0  0  0  0  0  0  0  0  0  0  0  0
  148.3873  138.2100  153.5812 N   0  0  0  0  0  0  0  0  0  0  0  0
  147.0951  137.8192  153.5650 C   0  0  0  0  0  0  0  0  0  0  0  0
  146.2176  138.5019  154.0903 O   0  0  0  0  0  0  0  0  0  0  0  0
  146.8357  136.6548  152.9475 N   0  0  0  0  0  0  0  0  0  0  0  0
  145.5249  136.0204  152.8307 C   0  0  1  0  0  0  0  0  0  0  0  0
  144.6897  136.5916  151.6681 C   0  0  0  0  0  0  0  0  0  0  0  0
  144.0455  135.3669  151.0107 C   0  0  0  0  0  0  0  0  0  0  0  0
  145.0532  134.3188  151.2088 N   0  3  2  0  0  0  0  0  0  0  0  0
  144.6796  132.9189  150.9221 C   0  0  0  0  0  0  0  0  0  0  0  0
  145.9467  132.0434  151.0296 C   0  0  0  0  0  0  0  0  0  0  0  0
  146.6843  132.2444  152.3727 C   0  0  0  0  0  0  0  0  0  0  0  0
  146.9305  133.7384  152.6734 C   0  0  0  0  0  0  0  0  0  0  0  0
  145.5957  134.4981  152.5663 C   0  0  1  0  0  0  0  0  0  0  0  0
  152.1846  137.9910  154.5325 H   0  0  0  0  0  0  0  0  0  0  0  0
  151.1465  137.6687  153.1440 H   0  0  0  0  0  0  0  0  0  0  0  0
  150.6764  137.1071  154.7562 H   0  0  0  0  0  0  0  0  0  0  0  0
  152.1513  140.2526  155.2216 H   0  0  0  0  0  0  0  0  0  0  0  0
  150.9241  142.3973  155.6028 H   0  0  0  0  0  0  0  0  0  0  0  0
  148.4900  142.5002  155.0060 H   0  0  0  0  0  0  0  0  0  0  0  0
  149.0105  137.6035  153.0681 H   0  0  0  0  0  0  0  0  0  0  0  0
  147.6193  136.1618  152.5422 H   0  0  0  0  0  0  0  0  0  0  0  0
  144.9677  136.1828  153.7556 H   0  0  0  0  0  0  0  0  0  0  0  0
  143.9511  137.3217  152.0004 H   0  0  0  0  0  0  0  0  0  0  0  0
  145.3380  137.0872  150.9437 H   0  0  0  0  0  0  0  0  0  0  0  0
  143.1229  135.0942  151.5256 H   0  0  0  0  0  0  0  0  0  0  0  0
  143.8211  135.5238  149.9553 H   0  0  0  0  0  0  0  0  0  0  0  0
  143.9130  132.5832  151.6222 H   0  0  0  0  0  0  0  0  0  0  0  0
  144.2575  132.8478  149.9193 H   0  0  0  0  0  0  0  0  0  0  0  0
  145.6880  130.9923  150.8987 H   0  0  0  0  0  0  0  0  0  0  0  0
  146.6241  132.2954  150.2128 H   0  0  0  0  0  0  0  0  0  0  0  0
  146.0888  131.8096  153.1765 H   0  0  0  0  0  0  0  0  0  0  0  0
  147.6306  131.7030  152.3648 H   0  0  0  0  0  0  0  0  0  0  0  0
  147.3554  133.8476  153.6714 H   0  0  0  0  0  0  0  0  0  0  0  0
  147.6585  134.1459  151.9703 H   0  0  0  0  0  0  0  0  0  0  0  0
  144.8925  134.0356  153.2626 H   0  0  0  0  0  0  0  0  0  0  0  0
  145.8066  134.5490  150.5765 H   0  0  0  0  0  0  0  0  0  0  0  0
  1  2  1  0  0  0  0
  1 21  1  0  0  0  0
  1 22  1  0  0  0  0
  1 23  1  0  0  0  0
  2  7  1  0  0  0  0
  2  3  2  0  0  0  0
  3  4  1  0  0  0  0
  3 24  1  0  0  0  0
  4  5  2  0  0  0  0
  4 25  1  0  0  0  0
  5  6  1  0  0  0  0
  5 26  1  0  0  0  0
  6  7  2  0  0  0  0
  7  8  1  0  0  0  0
  8  9  1  0  0  0  0
  8 27  1  0  0  0  0
  9 10  2  0  0  0  0
  9 11  1  0  0  0  0
 11 12  1  0  0  0  0
 11 28  1  0  0  0  0
 12 20  1  0  0  0  0
 12 13  1  0  0  0  0
 12 29  1  0  0  0  0
 13 14  1  0  0  0  0
 13 30  1  0  0  0  0
 13 31  1  0  0  0  0
 14 15  1  0  0  0  0
 14 32  1  0  0  0  0
 14 33  1  0  0  0  0
 15 20  1  0  0  0  0
 15 16  1  0  0  0  0
 15 43  1  0  0  0  0
 16 17  1  0  0  0  0
 16 34  1  0  0  0  0
 16 35  1  0  0  0  0
 17 18  1  0  0  0  0
 17 36  1  0  0  0  0
 17 37  1  0  0  0  0
 18 19  1  0  0  0  0
 18 38  1  0  0  0  0
 18 39  1  0  0  0  0
 19 20  1  0  0  0  0
 19 40  1  0  0  0  0
 19 41  1  0  0  0  0
 20 42  1  0  0  0  0
M  CHG  1  15   1
M  END
> <s_m_source_file>
AV-unprocessed.smi

> <i_m_source_file_index>
1709

> <i_lp_mmshare_version>
43012

> <i_f3d_flags>
0

> <s_epik_input>
W0NIM11jMVtjSF1bY0hdW2NIXW5jMVtOSF1DKD1PKVtOSF1bQ0BIXShbQ0gyXVtDSDJdMilbQ0BASF0oTjIzKVtDSDJdW0NIMl1bQ0gyXVtDSDJdMw==

> <s_epik_cmdline>
J2VwaWtfcHl0aG9uJywgJy1waCcsICc3LjAnLCAnLXRuJywgJzgnLCAnLW1hJywgJzIwMCcsICctbWV0YWxfYmluZGluZycsICctaW1hZScsICc8aW5maWxlLm1hZT4nLCAnLW9tYWUnLCAnPG91dGZpbGUubWFlPic=

> <r_epik_Ionization_Penalty>
0.00101524

> <r_epik_Ionization_Penalty_Charging>
0.000974069

> <r_epik_Ionization_Penalty_Neutral>
4.11757e-05

> <r_epik_State_Penalty>
0.000633842

> <r_epik_Charging_Adjusted_Penalty>
0.00160791

> <i_epik_Tot_Q>
1

> <i_epik_Tot_abs_Q>
1

> <r_epik_Metal_State_Penalty>
-0

> <b_epik_Metal_Only>
0

> <s_lp_Force_Field>
OPLS_2005

> <r_lp_Energy>
46.0591

> <b_lp_Chiralities_Consistent>
1

> <s_lp_Variant>
AV-unprocessed.smi:1709-4

> <Gold.Version>
5.8.1

> <Gold.Id.Protein>
6NUR|6NUR_protein|mol2

> <Gold.PLP.Fitness>
38.3317

> <Gold.PLP.PLP>
-30.6587

> <Gold.PLP.part.hbond>
-2.0000

> <Gold.PLP.part.metal>
0.0000

> <Gold.PLP.part.buried>
-1.4290

> <Gold.PLP.part.nonpolar>
-27.6951

> <Gold.PLP.part.repulsive>
0.2051

> <Gold.PLP.ligand.clash>
0.0000

> <Gold.PLP.ligand.torsion>
0.4477

> <Gold.PLP.Chemscore.Hbond>
1.8560

> <Gold.PLP.Chemscore.CHOScore>
1.0000

> <Gold.PLP.Chemscore.Metal>
0.0000

> <Gold.Chemscore.Hbonds>
donor molecule, donor type, donor heavy atom, donor atom, acceptor molecule, acceptor atom, score
      L1  H     8    27       P1  7948  0.83
      L1  H    11    28       P1  7948  0.87
      L1  C     5    26       P1  8028  1.00

> <Gold.PLP.Chemscore.Internal.Correction>
0.0005

> <Gold.Rescore>
     Score         DG    S(hbond)    S(metal)    S(lipo)     H(rot)  DE(clash)    DE(int)     intcor
     15.90     -17.51       1.70        0.00      76.09       1.00       0.01       1.61       ----

> <Gold.Chemscore.Fitness>
15.9003

> <Gold.Chemscore.DG>
-17.5124

> <Gold.Chemscore.ZeroCoef>
-5.4800

> <Gold.Chemscore.Hbond>
1.7036

> <Gold.Chemscore.Metal>
0.0000

> <Gold.Chemscore.Lipo>
76.0894

> <Gold.Chemscore.Internal_Hbond>
0.0000

> <Gold.Chemscore.DEClash>
0.0052

> <Gold.Chemscore.DEInternal>
1.6068

> <Gold.Chemscore.Rot>
1.0000

> <Gold.Chemscore.Internal.Correction>
   9.000000E+99

> <Gold.Chemscore.Hbonds>
donor molecule, donor type, donor heavy atom, donor atom, acceptor molecule, acceptor atom, score
      L1  H     8    27       P1  7948  0.81
      L1  H    11    28       P1  7948  0.81

> <Gold.Chemscore.Hbond.Weighted>
-5.6899

> <Gold.Chemscore.Metal.Weighted>
-0.0000

> <Gold.Chemscore.Lipo.Weighted>
-8.9025

> <Gold.Chemscore.Internal_Hbond.Weighted>
0.0000

> <Gold.Chemscore.DEClash.Weighted>
0.0052

> <Gold.Chemscore.DEInternal.Weighted>
1.6068

> <Gold.Chemscore.Rot.Weighted>
2.5600

> <Gold.Chemscore.Internal.Correction.Weighted>
   9.000000E+99

> <Gold.Protein.RotatedTorsions>
[ 6907 6896 6895 6894 ] final  154.28 input  -60.11 | X-H torsion
[ 7974 7965 7964 7962 ] final   58.35 input  175.53 | X-H torsion
[ 8008 7997 7996 7995 ] final  140.51 input   59.86 | X-H torsion
[ 10167 10162 10161 10158 ] final   45.02 input  -65.29 | X-H torsion
[ 10718 10713 10712 10709 ] final  103.95 input   66.30 | X-H torsion
[ 10763 10752 10751 10750 ] final   49.37 input  -60.55 | X-H torsion
[ 11005 11000 10999 10996 ] final   19.54 input  -57.11 | X-H torsion

> <Gold.Protein.ActiveResidues>
 VAL166  LYS551  ARG553  GLY616  TRP617  ASP618  TYR619  PRO620  LYS621  CYS622 
 ASP623  PHE694  ASN695  SER759  ASP760  ASP761  ALA762  ILE779  LEU786  VAL792 
 PHE793  MET794  SER795  GLU796  ALA797  LYS798  CYS799  TRP800  GLU811  SER814 

> <Gold.Protein.RotatedAtoms>
  152.0607  133.4061  159.4416 H   0  0  0  0  0  0  0  0  0  0  0  0  # atno 6907 bound_to 6896
  150.6866  134.3203  159.4793 H   0  0  0  0  0  0  0  0  0  0  0  0  # atno 6908 bound_to 6896
  152.1024  134.9332  160.0620 H   0  0  0  0  0  0  0  0  0  0  0  0  # atno 6909 bound_to 6896
  145.9191  139.3715  143.0489 H   0  0  0  0  0  0  0  0  0  0  0  0  # atno 7974 bound_to 7965
  156.2978  140.2339  156.4412 H   0  0  0  0  0  0  0  0  0  0  0  0  # atno 8008 bound_to 7997
  154.8184  140.0439  157.1413 H   0  0  0  0  0  0  0  0  0  0  0  0  # atno 8009 bound_to 7997
  154.9343  140.3021  155.5155 H   0  0  0  0  0  0  0  0  0  0  0  0  # atno 8010 bound_to 7997
  140.3284  144.2619  150.6172 H   0  0  0  0  0  0  0  0  0  0  0  0  # atno 10167 bound_to 10162
  157.6756  131.0791  150.5632 H   0  0  0  0  0  0  0  0  0  0  0  0  # atno 10718 bound_to 10713
  152.9787  135.5914  154.4077 H   0  0  0  0  0  0  0  0  0  0  0  0  # atno 10763 bound_to 10752
  154.3716  135.2767  155.2265 H   0  0  0  0  0  0  0  0  0  0  0  0  # atno 10764 bound_to 10752
  154.4218  135.6057  153.6069 H   0  0  0  0  0  0  0  0  0  0  0  0  # atno 10765 bound_to 10752
  140.4125  134.1603  155.7668 H   0  0  0  0  0  0  0  0  0  0  0  0  # atno 11005 bound_to 11000
  145.8573  140.9495  143.0718 LP  0  0  0  0  0  0  0  0  0  0  0  0  # atno 17320 bound_to 7965
  144.6751  140.0484  143.7479 LP  0  0  0  0  0  0  0  0  0  0  0  0  # atno 17321 bound_to 7965
  140.5420  143.2222  151.8069 LP  0  0  0  0  0  0  0  0  0  0  0  0  # atno 17342 bound_to 10162
  139.4861  144.4588  151.9566 LP  0  0  0  0  0  0  0  0  0  0  0  0  # atno 17343 bound_to 10162
  156.5934  130.4335  149.5927 LP  0  0  0  0  0  0  0  0  0  0  0  0  # atno 17370 bound_to 10713
  156.2564  130.6937  151.1692 LP  0  0  0  0  0  0  0  0  0  0  0  0  # atno 17371 bound_to 10713
  141.1815  133.8403  157.1239 LP  0  0  0  0  0  0  0  0  0  0  0  0  # atno 17394 bound_to 11000
  140.0257  134.9925  157.0681 LP  0  0  0  0  0  0  0  0  0  0  0  0  # atno 17395 bound_to 11000

$$$$
