AV-unprocessed.smi:1673|AV-procd|sdf|6710|dock10
  -GOLD-   22720 7453D 1   1.00000     0.00000
 Structure written by MMmdl.
 39 40  0  0  0  0  0  0  0  0  1 V2000
  147.2514  141.1767  153.9426 C   0  0  0  0  0  0  0  0  0  0  0  0
  148.6069  140.5620  154.1563 C   0  0  0  0  0  0  0  0  0  0  0  0
  149.5943  141.3233  154.6049 N   0  0  0  0  0  0  0  0  0  0  0  0
  150.7069  140.4845  154.7729 O   0  0  0  0  0  0  0  0  0  0  0  0
  150.3614  139.2197  154.4164 C   0  0  0  0  0  0  0  0  0  0  0  0
  151.4115  138.1685  154.5421 C   0  0  0  0  0  0  0  0  0  0  0  0
  149.0643  139.2208  153.9962 C   0  0  0  0  0  0  0  0  0  0  0  0
  148.3536  138.0692  153.5755 N   0  0  0  0  0  0  0  0  0  0  0  0
  147.0530  137.8079  153.7741 C   0  0  0  0  0  0  0  0  0  0  0  0
  146.2551  138.5773  154.3088 O   0  0  0  0  0  0  0  0  0  0  0  0
  146.7230  136.5987  153.2988 N   0  0  0  0  0  0  0  0  0  0  0  0
  145.3946  135.9842  153.3506 C   0  0  1  0  0  0  0  0  0  0  0  0
  144.5841  136.3904  152.1032 C   0  0  0  0  0  0  0  0  0  0  0  0
  145.1264  135.7395  150.8189 C   0  0  0  0  0  0  0  0  0  0  0  0
  145.2006  134.2116  150.9579 C   0  0  0  0  0  0  0  0  0  0  0  0
  146.0248  133.7993  152.1882 C   0  0  0  0  0  0  0  0  0  0  0  0
  145.4762  134.4409  153.4795 C   0  0  1  0  0  0  0  0  0  0  0  0
  146.2595  133.9751  154.7192 C   0  0  0  0  0  0  0  0  0  0  0  0
  146.4552  140.4612  154.1481 H   0  0  0  0  0  0  0  0  0  0  0  0
  147.1367  141.5229  152.9156 H   0  0  0  0  0  0  0  0  0  0  0  0
  147.0936  142.0328  154.5990 H   0  0  0  0  0  0  0  0  0  0  0  0
  150.9996  137.1772  154.3529 H   0  0  0  0  0  0  0  0  0  0  0  0
  151.8416  138.1699  155.5436 H   0  0  0  0  0  0  0  0  0  0  0  0
  152.2160  138.3416  153.8275 H   0  0  0  0  0  0  0  0  0  0  0  0
  148.8692  137.4127  153.0079 H   0  0  0  0  0  0  0  0  0  0  0  0
  147.4531  136.0467  152.8733 H   0  0  0  0  0  0  0  0  0  0  0  0
  144.8577  136.3685  154.2197 H   0  0  0  0  0  0  0  0  0  0  0  0
  143.5442  136.0910  152.2405 H   0  0  0  0  0  0  0  0  0  0  0  0
  144.5736  137.4759  151.9967 H   0  0  0  0  0  0  0  0  0  0  0  0
  144.4911  136.0040  149.9731 H   0  0  0  0  0  0  0  0  0  0  0  0
  146.1173  136.1351  150.5928 H   0  0  0  0  0  0  0  0  0  0  0  0
  144.1926  133.8038  151.0417 H   0  0  0  0  0  0  0  0  0  0  0  0
  145.6347  133.7777  150.0569 H   0  0  0  0  0  0  0  0  0  0  0  0
  146.0177  132.7128  152.2806 H   0  0  0  0  0  0  0  0  0  0  0  0
  147.0670  134.0864  152.0428 H   0  0  0  0  0  0  0  0  0  0  0  0
  144.4544  134.0801  153.6071 H   0  0  0  0  0  0  0  0  0  0  0  0
  147.3176  134.2278  154.6482 H   0  0  0  0  0  0  0  0  0  0  0  0
  146.1890  132.8941  154.8415 H   0  0  0  0  0  0  0  0  0  0  0  0
  145.8669  134.4347  155.6266 H   0  0  0  0  0  0  0  0  0  0  0  0
  1  2  1  0  0  0  0
  1 19  1  0  0  0  0
  1 20  1  0  0  0  0
  1 21  1  0  0  0  0
  2  7  1  0  0  0  0
  2  3  2  0  0  0  0
  3  4  1  0  0  0  0
  4  5  1  0  0  0  0
  5  6  1  0  0  0  0
  5  7  2  0  0  0  0
  6 22  1  0  0  0  0
  6 23  1  0  0  0  0
  6 24  1  0  0  0  0
  7  8  1  0  0  0  0
  8  9  1  0  0  0  0
  8 25  1  0  0  0  0
  9 10  2  0  0  0  0
  9 11  1  0  0  0  0
 11 12  1  0  0  0  0
 11 26  1  0  0  0  0
 12 17  1  0  0  0  0
 12 13  1  0  0  0  0
 12 27  1  0  0  0  0
 13 14  1  0  0  0  0
 13 28  1  0  0  0  0
 13 29  1  0  0  0  0
 14 15  1  0  0  0  0
 14 30  1  0  0  0  0
 14 31  1  0  0  0  0
 15 16  1  0  0  0  0
 15 32  1  0  0  0  0
 15 33  1  0  0  0  0
 16 17  1  0  0  0  0
 16 34  1  0  0  0  0
 16 35  1  0  0  0  0
 17 18  1  0  0  0  0
 17 36  1  0  0  0  0
 18 37  1  0  0  0  0
 18 38  1  0  0  0  0
 18 39  1  0  0  0  0
M  END
> <s_m_source_file>
AV-unprocessed.smi

> <i_m_source_file_index>
1673

> <i_lp_mmshare_version>
43012

> <i_f3d_flags>
0

> <s_epik_input>
W0NIM11jMW5vYyhbQ0gzXSljMVtOSF1DKD1PKVtOSF1bQ0BASF0yW0NIMl1bQ0gyXVtDSDJdW0NIMl1bQ0BIXTJbQ0gzXQ==

> <s_epik_cmdline>
J2VwaWtfcHl0aG9uJywgJy1waCcsICc3LjAnLCAnLXRuJywgJzgnLCAnLW1hJywgJzIwMCcsICctbWV0YWxfYmluZGluZycsICctaW1hZScsICc8aW5maWxlLm1hZT4nLCAnLW9tYWUnLCAnPG91dGZpbGUubWFlPic=

> <r_lp_tautomer_probability>
1

> <r_epik_Ionization_Penalty>
4.01865e-05

> <r_epik_Ionization_Penalty_Charging>
0

> <r_epik_Ionization_Penalty_Neutral>
4.01865e-05

> <r_epik_State_Penalty>
-0

> <r_epik_Charging_Adjusted_Penalty>
0

> <i_epik_Tot_Q>
0

> <i_epik_Tot_abs_Q>
0

> <r_epik_Metal_State_Penalty>
-0

> <b_epik_Metal_Only>
0

> <s_lp_Force_Field>
OPLS_2005

> <r_lp_Energy>
11.4639

> <b_lp_Chiralities_Consistent>
1

> <s_lp_Variant>
AV-unprocessed.smi:1673-2

> <Gold.Version>
5.8.1

> <Gold.Id.Protein>
6NUR|6NUR_protein|mol2

> <Gold.PLP.Fitness>
35.8875

> <Gold.PLP.PLP>
-28.3936

> <Gold.PLP.part.hbond>
-4.4114

> <Gold.PLP.part.metal>
0.0000

> <Gold.PLP.part.buried>
-0.2064

> <Gold.PLP.part.nonpolar>
-22.9572

> <Gold.PLP.part.repulsive>
0.3903

> <Gold.PLP.ligand.clash>
0.0000

> <Gold.PLP.ligand.torsion>
0.5994

> <Gold.PLP.Chemscore.Hbond>
2.8160

> <Gold.PLP.Chemscore.CHOScore>
0.0000

> <Gold.PLP.Chemscore.Metal>
0.0000

> <Gold.Chemscore.Hbonds>
donor molecule, donor type, donor heavy atom, donor atom, acceptor molecule, acceptor atom, score
      L1  H     8    25       P1  7948  1.00
      L1  H    11    26       P1  7948  0.83
      P1  H  7989  7998       L1     4  1.00

> <Gold.PLP.Chemscore.Internal.Correction>
0.2447

> <Gold.Rescore>
     Score         DG    S(hbond)    S(metal)    S(lipo)     H(rot)  DE(clash)    DE(int)     intcor
     14.69     -16.67       1.84        0.00      64.92       1.00       0.06       1.92       ----

> <Gold.Chemscore.Fitness>
14.6876

> <Gold.Chemscore.DG>
-16.6675

> <Gold.Chemscore.ZeroCoef>
-5.4800

> <Gold.Chemscore.Hbond>
1.8418

> <Gold.Chemscore.Metal>
0.0000

> <Gold.Chemscore.Lipo>
64.9215

> <Gold.Chemscore.Internal_Hbond>
0.0000

> <Gold.Chemscore.DEClash>
0.0647

> <Gold.Chemscore.DEInternal>
1.9152

> <Gold.Chemscore.Rot>
1.0000

> <Gold.Chemscore.Internal.Correction>
   9.000000E+99

> <Gold.Chemscore.Hbonds>
donor molecule, donor type, donor heavy atom, donor atom, acceptor molecule, acceptor atom, score
      L1  H     8    25       P1  7948  0.96
      L1  H    11    26       P1  7948  0.81
      P1  H  7989  7998       L1     4  0.09

> <Gold.Chemscore.Hbond.Weighted>
-6.1517

> <Gold.Chemscore.Metal.Weighted>
-0.0000

> <Gold.Chemscore.Lipo.Weighted>
-7.5958

> <Gold.Chemscore.Internal_Hbond.Weighted>
0.0000

> <Gold.Chemscore.DEClash.Weighted>
0.0647

> <Gold.Chemscore.DEInternal.Weighted>
1.9152

> <Gold.Chemscore.Rot.Weighted>
2.5600

> <Gold.Chemscore.Internal.Correction.Weighted>
   9.000000E+99

> <Gold.Protein.RotatedTorsions>
[ 6907 6896 6895 6894 ] final  -71.32 input  -60.11 | X-H torsion
[ 7974 7965 7964 7962 ] final  -59.49 input  175.53 | X-H torsion
[ 8008 7997 7996 7995 ] final   50.52 input   59.86 | X-H torsion
[ 10167 10162 10161 10158 ] final  107.46 input  -65.29 | X-H torsion
[ 10718 10713 10712 10709 ] final  154.29 input   66.30 | X-H torsion
[ 10763 10752 10751 10750 ] final   35.49 input  -60.55 | X-H torsion
[ 11005 11000 10999 10996 ] final  104.21 input  -57.11 | X-H torsion

> <Gold.Protein.ActiveResidues>
 VAL166  LYS551  ARG553  GLY616  TRP617  ASP618  TYR619  PRO620  LYS621  CYS622 
 ASP623  PHE694  ASN695  SER759  ASP760  ASP761  ALA762  ILE779  LEU786  VAL792 
 PHE793  MET794  SER795  GLU796  ALA797  LYS798  CYS799  TRP800  GLU811  SER814 

> <Gold.Protein.RotatedAtoms>
  150.7218  134.5325  159.5707 H   0  0  0  0  0  0  0  0  0  0  0  0  # atno 6907 bound_to 6896
  152.2855  134.7778  160.0397 H   0  0  0  0  0  0  0  0  0  0  0  0  # atno 6908 bound_to 6896
  151.8409  133.3388  159.3679 H   0  0  0  0  0  0  0  0  0  0  0  0  # atno 6909 bound_to 6896
  145.8269  140.8505  143.0104 H   0  0  0  0  0  0  0  0  0  0  0  0  # atno 7974 bound_to 7965
  155.4201  140.3446  155.4270 H   0  0  0  0  0  0  0  0  0  0  0  0  # atno 8008 bound_to 7997
  156.1398  140.1539  156.8969 H   0  0  0  0  0  0  0  0  0  0  0  0  # atno 8009 bound_to 7997
  154.4962  140.0827  156.7681 H   0  0  0  0  0  0  0  0  0  0  0  0  # atno 8010 bound_to 7997
  139.6925  144.7106  151.1323 H   0  0  0  0  0  0  0  0  0  0  0  0  # atno 10167 bound_to 10162
  157.2336  131.0744  151.1838 H   0  0  0  0  0  0  0  0  0  0  0  0  # atno 10718 bound_to 10713
  153.0117  135.6332  154.1834 H   0  0  0  0  0  0  0  0  0  0  0  0  # atno 10763 bound_to 10752
  154.1576  135.2825  155.3119 H   0  0  0  0  0  0  0  0  0  0  0  0  # atno 10764 bound_to 10752
  154.6006  135.5588  153.7431 H   0  0  0  0  0  0  0  0  0  0  0  0  # atno 10765 bound_to 10752
  139.8790  134.9292  156.5328 H   0  0  0  0  0  0  0  0  0  0  0  0  # atno 11005 bound_to 11000
  144.6743  140.0615  143.7476 LP  0  0  0  0  0  0  0  0  0  0  0  0  # atno 17320 bound_to 7965
  145.9614  139.2803  143.1153 LP  0  0  0  0  0  0  0  0  0  0  0  0  # atno 17321 bound_to 7965
  140.7687  143.5539  150.9174 LP  0  0  0  0  0  0  0  0  0  0  0  0  # atno 17342 bound_to 10162
  139.9217  143.6598  152.3095 LP  0  0  0  0  0  0  0  0  0  0  0  0  # atno 17343 bound_to 10162
  157.3453  130.7054  149.6406 LP  0  0  0  0  0  0  0  0  0  0  0  0  # atno 17370 bound_to 10713
  155.9674  130.4268  150.4716 LP  0  0  0  0  0  0  0  0  0  0  0  0  # atno 17371 bound_to 10713
  140.8368  133.8236  155.9037 LP  0  0  0  0  0  0  0  0  0  0  0  0  # atno 17394 bound_to 11000
  140.9276  134.2063  157.4886 LP  0  0  0  0  0  0  0  0  0  0  0  0  # atno 17395 bound_to 11000

$$$$
