AV-unprocessed.smi:107|AV-procd|sdf|1024|dock2
  -GOLD-   2262018 23D 1   1.00000     0.00000
 Structure written by MMmdl.
 30 31  0  0  0  0  0  0  0  0  2 V2000
  150.4780  143.0692  158.4602 C   0  0  0  0  0  0  0  0  0  0  0  0
  150.9838  141.9268  157.5968 C   0  0  0  0  0  0  0  0  0  0  0  0
  150.4741  141.6678  156.3723 C   0  0  0  0  0  0  0  0  0  0  0  0
  150.9372  140.6252  155.5882 N   0  0  0  0  0  0  0  0  0  0  0  0
  150.3445  140.3469  154.2222 C   0  0  1  0  0  0  0  0  0  0  0  0
  149.8194  138.9107  154.1528 C   0  0  0  0  0  0  0  0  0  0  0  0
  148.3494  139.1051  154.4608 C   0  0  2  0  0  0  0  0  0  0  0  0
  147.5773  138.0515  153.9222 O   0  0  0  0  0  0  0  0  0  0  0  0
  148.0641  140.4475  153.7828 C   0  0  1  0  0  0  0  0  0  0  0  0
  146.8518  141.1887  154.3677 C   0  0  0  0  0  0  0  0  0  0  0  0
  145.7197  140.3458  154.3577 O   0  0  0  0  0  0  0  0  0  0  0  0
  149.2570  141.2006  154.0030 O   0  0  0  0  0  0  0  0  0  0  0  0
  151.9648  139.7800  156.0840 C   0  0  0  0  0  0  0  0  0  0  0  0
  152.3333  138.8407  155.3783 O   0  0  0  0  0  0  0  0  0  0  0  0
  152.4902  140.0376  157.3156 N   0  5  0  0  0  0  0  0  0  0  0  0
  152.0615  141.0672  158.1007 C   0  0  0  0  0  0  0  0  0  0  0  0
  152.5478  141.2911  159.2088 O   0  0  0  0  0  0  0  0  0  0  0  0
  149.6743  143.6151  157.9652 H   0  0  0  0  0  0  0  0  0  0  0  0
  151.2843  143.7725  158.6708 H   0  0  0  0  0  0  0  0  0  0  0  0
  150.0949  142.6900  159.4080 H   0  0  0  0  0  0  0  0  0  0  0  0
  149.6782  142.2963  156.0054 H   0  0  0  0  0  0  0  0  0  0  0  0
  151.1305  140.5671  153.4985 H   0  0  0  0  0  0  0  0  0  0  0  0
  149.9620  138.5464  153.1342 H   0  0  0  0  0  0  0  0  0  0  0  0
  150.3357  138.2412  154.8419 H   0  0  0  0  0  0  0  0  0  0  0  0
  148.1957  139.1729  155.5389 H   0  0  0  0  0  0  0  0  0  0  0  0
  148.1395  137.5127  153.3862 H   0  0  0  0  0  0  0  0  0  0  0  0
  147.9474  140.2906  152.7084 H   0  0  0  0  0  0  0  0  0  0  0  0
  147.0452  141.4631  155.4050 H   0  0  0  0  0  0  0  0  0  0  0  0
  146.6429  142.1097  153.8238 H   0  0  0  0  0  0  0  0  0  0  0  0
  145.2712  140.4609  153.5336 H   0  0  0  0  0  0  0  0  0  0  0  0
  1  2  1  0  0  0  0
  1 18  1  0  0  0  0
  1 19  1  0  0  0  0
  1 20  1  0  0  0  0
  2 16  1  0  0  0  0
  2  3  2  0  0  0  0
  3  4  1  0  0  0  0
  3 21  1  0  0  0  0
  4  5  1  0  0  0  0
  4 13  1  0  0  0  0
  5 12  1  0  0  0  0
  5  6  1  0  0  0  0
  5 22  1  0  0  0  0
  6  7  1  0  0  0  0
  6 23  1  0  0  0  0
  6 24  1  0  0  0  0
  7  8  1  0  0  0  0
  7  9  1  0  0  0  0
  7 25  1  0  0  0  0
  8 26  1  0  0  0  0
  9 10  1  0  0  0  0
  9 12  1  0  0  0  0
  9 27  1  0  0  0  0
 10 11  1  0  0  0  0
 10 28  1  0  0  0  0
 10 29  1  0  0  0  0
 11 30  1  0  0  0  0
 13 14  2  0  0  0  0
 13 15  1  0  0  0  0
 15 16  1  0  0  0  0
 16 17  2  0  0  0  0
M  CHG  1  15  -1
M  END
> <s_m_source_file>
AV-unprocessed.smi

> <i_m_source_file_index>
107

> <i_lp_mmshare_version>
43012

> <i_f3d_flags>
0

> <s_epik_input>
Tz1jMVtuSF1jKD1PKW4oW2NIXWMxW0NIM10pW0NAQEhdMltDSDJdW0NAQEhdKFtPSF0pW0NASF0oTzIpW0NIMl1bT0hd

> <s_epik_cmdline>
J2VwaWtfcHl0aG9uJywgJy1waCcsICc3LjAnLCAnLXRuJywgJzgnLCAnLW1hJywgJzIwMCcsICctbWV0YWxfYmluZGluZycsICctaW1hZScsICc8aW5maWxlLm1hZT4nLCAnLW9tYWUnLCAnPG91dGZpbGUubWFlPic=

> <r_lp_tautomer_probability>
0.999537

> <r_epik_Ionization_Penalty>
3.66603

> <r_epik_Ionization_Penalty_Charging>
1.09773e-07

> <r_epik_Ionization_Penalty_Neutral>
3.66603

> <r_epik_State_Penalty>
3.66562

> <r_epik_Charging_Adjusted_Penalty>
3.66562

> <i_epik_Tot_Q>
-1

> <i_epik_Tot_abs_Q>
1

> <r_epik_Metal_State_Penalty>
0.234536

> <b_epik_Metal_Only>
1

> <s_epik_Chemistry_Notes>
This compound contains an acetal/aminal-like group ( X-CH(R)-Y where X, Y are N, S, or O) that may be acid/base labile, releasing an aldehyde.

> <s_lp_Force_Field>
OPLS_2005

> <r_lp_Energy>
34.1834

> <b_lp_Chiralities_Consistent>
1

> <s_lp_Variant>
AV-unprocessed.smi:107-12

> <Gold.Version>
5.8.1

> <Gold.Id.Protein>
6NUR|6NUR_protein|mol2

> <Gold.PLP.Fitness>
40.3125

> <Gold.PLP.PLP>
-23.7288

> <Gold.PLP.part.hbond>
-4.9464

> <Gold.PLP.part.metal>
0.0000

> <Gold.PLP.part.buried>
5.6704

> <Gold.PLP.part.nonpolar>
-23.3736

> <Gold.PLP.part.repulsive>
0.5883

> <Gold.PLP.ligand.clash>
0.0000

> <Gold.PLP.ligand.torsion>
0.0852

> <Gold.PLP.Chemscore.Hbond>
4.5846

> <Gold.PLP.Chemscore.CHOScore>
0.9965

> <Gold.PLP.Chemscore.Metal>
0.0000

> <Gold.Chemscore.Hbonds>
donor molecule, donor type, donor heavy atom, donor atom, acceptor molecule, acceptor atom, score
      L1  H     8    26       P1  7948  0.71
      L1  H    11    30       P1 10175  1.00
      P1  H  7997  8009       L1    15  1.50
      P1  H  8011  8017       L1    12  0.61
      L1  C     3    21       P1  8028  0.89

> <Gold.PLP.Chemscore.Internal.Correction>
0.0110

> <Gold.Rescore>
     Score         DG    S(hbond)    S(metal)    S(lipo)     H(rot)  DE(clash)    DE(int)     intcor
      8.78     -12.27       2.50        0.00      45.56       2.69       2.04       1.45       ----

> <Gold.Chemscore.Fitness>
8.7818

> <Gold.Chemscore.DG>
-12.2720

> <Gold.Chemscore.ZeroCoef>
-5.4800

> <Gold.Chemscore.Hbond>
2.4971

> <Gold.Chemscore.Metal>
0.0000

> <Gold.Chemscore.Lipo>
45.5629

> <Gold.Chemscore.Internal_Hbond>
0.0000

> <Gold.Chemscore.DEClash>
2.0428

> <Gold.Chemscore.DEInternal>
1.4474

> <Gold.Chemscore.Rot>
2.6871

> <Gold.Chemscore.Internal.Correction>
   9.000000E+99

> <Gold.Chemscore.Hbonds>
donor molecule, donor type, donor heavy atom, donor atom, acceptor molecule, acceptor atom, score
      L1  H     8    26       P1  7948  0.71
      L1  H    11    30       P1 10175  0.95
      P1  H  7997  8009       L1    15  0.08
      P1  H  8011  8017       L1    12  0.29

> <Gold.Chemscore.Hbond.Weighted>
-8.3402

> <Gold.Chemscore.Metal.Weighted>
-0.0000

> <Gold.Chemscore.Lipo.Weighted>
-5.3309

> <Gold.Chemscore.Internal_Hbond.Weighted>
0.0000

> <Gold.Chemscore.DEClash.Weighted>
2.0428

> <Gold.Chemscore.DEInternal.Weighted>
1.4474

> <Gold.Chemscore.Rot.Weighted>
6.8791

> <Gold.Chemscore.Internal.Correction.Weighted>
   9.000000E+99

> <Gold.Protein.RotatedTorsions>
[ 6907 6896 6895 6894 ] final  145.94 input  -60.11 | X-H torsion
[ 7974 7965 7964 7962 ] final  138.06 input  175.53 | X-H torsion
[ 8008 7997 7996 7995 ] final  177.48 input   59.86 | X-H torsion
[ 10167 10162 10161 10158 ] final  -40.69 input  -65.29 | X-H torsion
[ 10718 10713 10712 10709 ] final  -32.54 input   66.30 | X-H torsion
[ 10763 10752 10751 10750 ] final -122.66 input  -60.55 | X-H torsion
[ 11005 11000 10999 10996 ] final    5.24 input  -57.11 | X-H torsion

> <Gold.Protein.ActiveResidues>
 VAL166  LYS551  ARG553  GLY616  TRP617  ASP618  TYR619  PRO620  LYS621  CYS622 
 ASP623  PHE694  ASN695  SER759  ASP760  ASP761  ALA762  ILE779  LEU786  VAL792 
 PHE793  MET794  SER795  GLU796  ALA797  LYS798  CYS799  TRP800  GLU811  SER814 

> <Gold.Protein.RotatedAtoms>
  152.1743  133.4664  159.4925 H   0  0  0  0  0  0  0  0  0  0  0  0  # atno 6907 bound_to 6896
  150.6924  134.1913  159.4295 H   0  0  0  0  0  0  0  0  0  0  0  0  # atno 6908 bound_to 6896
  151.9821  135.0022  160.0608 H   0  0  0  0  0  0  0  0  0  0  0  0  # atno 6909 bound_to 6896
  144.9408  139.4933  143.5572 H   0  0  0  0  0  0  0  0  0  0  0  0  # atno 7974 bound_to 7965
  156.0652  140.1357  156.9895 H   0  0  0  0  0  0  0  0  0  0  0  0  # atno 8008 bound_to 7997
  154.4502  140.0983  156.6647 H   0  0  0  0  0  0  0  0  0  0  0  0  # atno 8009 bound_to 7997
  155.5315  140.3459  155.4429 H   0  0  0  0  0  0  0  0  0  0  0  0  # atno 8010 bound_to 7997
  140.7026  143.3138  151.2961 H   0  0  0  0  0  0  0  0  0  0  0  0  # atno 10167 bound_to 10162
  156.3736  130.4344  149.7525 H   0  0  0  0  0  0  0  0  0  0  0  0  # atno 10718 bound_to 10713
  154.8694  135.4125  154.2818 H   0  0  0  0  0  0  0  0  0  0  0  0  # atno 10763 bound_to 10752
  153.3709  135.7007  153.6644 H   0  0  0  0  0  0  0  0  0  0  0  0  # atno 10764 bound_to 10752
  153.5506  135.3629  155.2729 H   0  0  0  0  0  0  0  0  0  0  0  0  # atno 10765 bound_to 10752
  140.5730  134.0085  155.8016 H   0  0  0  0  0  0  0  0  0  0  0  0  # atno 11005 bound_to 11000
  146.3285  139.8426  142.8887 LP  0  0  0  0  0  0  0  0  0  0  0  0  # atno 17320 bound_to 7965
  145.2994  141.0190  143.3617 LP  0  0  0  0  0  0  0  0  0  0  0  0  # atno 17321 bound_to 7965
  139.6570  144.0258  152.2666 LP  0  0  0  0  0  0  0  0  0  0  0  0  # atno 17342 bound_to 10162
  139.9813  144.6426  150.7898 LP  0  0  0  0  0  0  0  0  0  0  0  0  # atno 17343 bound_to 10162
  156.4643  130.7966  151.2986 LP  0  0  0  0  0  0  0  0  0  0  0  0  # atno 17370 bound_to 10713
  157.7486  131.0056  150.3119 LP  0  0  0  0  0  0  0  0  0  0  0  0  # atno 17371 bound_to 10713
  141.1044  133.9716  157.3022 LP  0  0  0  0  0  0  0  0  0  0  0  0  # atno 17394 bound_to 11000
  139.9353  135.0197  156.8535 LP  0  0  0  0  0  0  0  0  0  0  0  0  # atno 17395 bound_to 11000

$$$$
