AV-unprocessed.smi:438|AV-procd|sdf|2573|dock4
  -GOLD-   2262022553D 1   1.00000     0.00000
 Structure written by MMmdl.
 47 48  0  0  0  0  0  0  0  0  2 V2000
  147.8741  133.0717  159.6237 C   0  0  0  0  0  0  0  0  0  0  0  0
  148.1142  134.5426  159.9138 C   0  0  0  0  0  0  0  0  0  0  0  0
  148.9664  135.2112  159.0194 N   0  0  0  0  0  0  0  0  0  0  0  0
  149.2221  136.4509  159.1988 C   0  0  0  0  0  0  0  0  0  0  0  0
  150.3201  137.3084  158.0570 S   0  0  0  0  0  0  0  0  0  0  0  0
  150.3017  139.0285  158.6476 C   0  0  0  0  0  0  0  0  0  0  0  0
  151.6954  139.6482  158.6970 C   0  0  0  0  0  0  0  0  0  0  0  0
  152.6858  138.9689  158.4278 O   0  0  0  0  0  0  0  0  0  0  0  0
  151.7565  140.9384  159.0602 N   0  0  0  0  0  0  0  0  0  0  0  0
  152.9736  141.7408  159.1778 C   0  0  2  0  0  0  0  0  0  0  0  0
  153.7951  141.3130  160.4132 C   0  0  0  0  0  0  0  0  0  0  0  0
  153.1054  141.7027  161.7321 C   0  0  0  0  0  0  0  0  0  0  0  0
  152.7874  143.2049  161.7711 C   0  0  0  0  0  0  0  0  0  0  0  0
  151.9496  143.6317  160.5553 C   0  0  0  0  0  0  0  0  0  0  0  0
  152.6389  143.2524  159.2279 C   0  0  2  0  0  0  0  0  0  0  0  0
  151.8203  143.7223  158.0126 C   0  0  0  0  0  0  0  0  0  0  0  0
  148.7071  137.1984  160.2325 N   0  5  0  0  0  0  0  0  0  0  0  0
  147.8726  136.6218  161.1442 C   0  0  0  0  0  0  0  0  0  0  0  0
  147.3947  137.2535  162.0857 O   0  0  0  0  0  0  0  0  0  0  0  0
  147.5550  135.1929  160.9738 C   0  0  0  0  0  0  0  0  0  0  0  0
  146.6115  134.5232  161.9701 C   0  0  0  0  0  0  0  0  0  0  0  0
  145.1962  135.1164  161.9158 C   0  0  0  0  0  0  0  0  0  0  0  0
  144.3535  134.4298  162.8158 O   0  0  0  0  0  0  0  0  0  0  0  0
  148.0803  132.4667  160.5070 H   0  0  0  0  0  0  0  0  0  0  0  0
  148.5189  132.7177  158.8183 H   0  0  0  0  0  0  0  0  0  0  0  0
  146.8395  132.9082  159.3221 H   0  0  0  0  0  0  0  0  0  0  0  0
  149.8464  139.0621  159.6382 H   0  0  0  0  0  0  0  0  0  0  0  0
  149.6806  139.6322  157.9851 H   0  0  0  0  0  0  0  0  0  0  0  0
  150.8856  141.4083  159.2617 H   0  0  0  0  0  0  0  0  0  0  0  0
  153.5828  141.5666  158.2888 H   0  0  0  0  0  0  0  0  0  0  0  0
  153.9825  140.2388  160.3937 H   0  0  0  0  0  0  0  0  0  0  0  0
  154.7754  141.7891  160.3712 H   0  0  0  0  0  0  0  0  0  0  0  0
  152.1845  141.1299  161.8504 H   0  0  0  0  0  0  0  0  0  0  0  0
  153.7426  141.4369  162.5759 H   0  0  0  0  0  0  0  0  0  0  0  0
  152.2562  143.4480  162.6918 H   0  0  0  0  0  0  0  0  0  0  0  0
  153.7173  143.7746  161.7914 H   0  0  0  0  0  0  0  0  0  0  0  0
  150.9645  143.1665  160.6104 H   0  0  0  0  0  0  0  0  0  0  0  0
  151.7809  144.7085  160.5919 H   0  0  0  0  0  0  0  0  0  0  0  0
  153.5873  143.7908  159.1935 H   0  0  0  0  0  0  0  0  0  0  0  0
  150.8262  143.2746  157.9959 H   0  0  0  0  0  0  0  0  0  0  0  0
  152.3192  143.4603  157.0792 H   0  0  0  0  0  0  0  0  0  0  0  0
  151.6916  144.8050  158.0238 H   0  0  0  0  0  0  0  0  0  0  0  0
  147.0082  134.6187  162.9804 H   0  0  0  0  0  0  0  0  0  0  0  0
  146.5788  133.4497  161.7780 H   0  0  0  0  0  0  0  0  0  0  0  0
  145.2119  136.1741  162.1809 H   0  0  0  0  0  0  0  0  0  0  0  0
  144.7803  135.0379  160.9111 H   0  0  0  0  0  0  0  0  0  0  0  0
  143.5892  134.9620  162.9749 H   0  0  0  0  0  0  0  0  0  0  0  0
  1 24  1  0  0  0  0
  1 25  1  0  0  0  0
  1 26  1  0  0  0  0
  1  2  1  0  0  0  0
  2 20  2  0  0  0  0
  2  3  1  0  0  0  0
  3  4  2  0  0  0  0
  4  5  1  0  0  0  0
  4 17  1  0  0  0  0
  5  6  1  0  0  0  0
  6  7  1  0  0  0  0
  6 27  1  0  0  0  0
  6 28  1  0  0  0  0
  7  8  2  0  0  0  0
  7  9  1  0  0  0  0
  9 10  1  0  0  0  0
  9 29  1  0  0  0  0
 10 15  1  0  0  0  0
 10 11  1  0  0  0  0
 10 30  1  0  0  0  0
 11 12  1  0  0  0  0
 11 31  1  0  0  0  0
 11 32  1  0  0  0  0
 12 13  1  0  0  0  0
 12 33  1  0  0  0  0
 12 34  1  0  0  0  0
 13 14  1  0  0  0  0
 13 35  1  0  0  0  0
 13 36  1  0  0  0  0
 14 15  1  0  0  0  0
 14 37  1  0  0  0  0
 14 38  1  0  0  0  0
 15 16  1  0  0  0  0
 15 39  1  0  0  0  0
 16 40  1  0  0  0  0
 16 41  1  0  0  0  0
 16 42  1  0  0  0  0
 17 18  1  0  0  0  0
 18 19  2  0  0  0  0
 18 20  1  0  0  0  0
 20 21  1  0  0  0  0
 21 22  1  0  0  0  0
 21 43  1  0  0  0  0
 21 44  1  0  0  0  0
 22 23  1  0  0  0  0
 22 45  1  0  0  0  0
 22 46  1  0  0  0  0
 23 47  1  0  0  0  0
M  CHG  1  17  -1
M  END
> <s_m_source_file>
AV-unprocessed.smi

> <i_m_source_file_index>
438

> <i_lp_mmshare_version>
43012

> <i_f3d_flags>
0

> <s_epik_input>
W09IXVtDSDJdW0NIMl1jMWMoW09IXSluYyhuYzFbQ0gzXSlTW0NIMl1DKD1PKVtOSF1bQ0BASF0yW0NIMl1bQ0gyXVtDSDJdW0NIMl1bQ0BIXTJbQ0gzXQ==

> <s_epik_cmdline>
J2VwaWtfcHl0aG9uJywgJy1waCcsICc3LjAnLCAnLXRuJywgJzgnLCAnLW1hJywgJzIwMCcsICctbWV0YWxfYmluZGluZycsICctaW1hZScsICc8aW5maWxlLm1hZT4nLCAnLW9tYWUnLCAnPG91dGZpbGUubWFlPic=

> <r_lp_tautomer_probability>
1

> <r_epik_Ionization_Penalty>
3.69231

> <r_epik_Ionization_Penalty_Charging>
0.00434774

> <r_epik_Ionization_Penalty_Neutral>
3.68796

> <r_epik_State_Penalty>
2.13826

> <r_epik_Charging_Adjusted_Penalty>
2.14261

> <i_epik_Tot_Q>
-1

> <i_epik_Tot_abs_Q>
1

> <r_epik_Metal_State_Penalty>
0.260979

> <b_epik_Metal_Only>
0

> <s_lp_Force_Field>
OPLS_2005

> <r_lp_Energy>
17.6813

> <b_lp_Chiralities_Consistent>
1

> <s_lp_Variant>
AV-unprocessed.smi:438-11

> <Gold.Version>
5.8.1

> <Gold.Id.Protein>
6NUR|6NUR_protein|mol2

> <Gold.PLP.Fitness>
49.3909

> <Gold.PLP.PLP>
-45.8911

> <Gold.PLP.part.hbond>
-4.6896

> <Gold.PLP.part.metal>
0.0000

> <Gold.PLP.part.buried>
-5.0357

> <Gold.PLP.part.nonpolar>
-36.7375

> <Gold.PLP.part.repulsive>
0.1541

> <Gold.PLP.ligand.clash>
0.0000

> <Gold.PLP.ligand.torsion>
0.5301

> <Gold.PLP.Chemscore.Hbond>
1.5042

> <Gold.PLP.Chemscore.CHOScore>
0.0000

> <Gold.PLP.Chemscore.Metal>
0.0000

> <Gold.Chemscore.Hbonds>
donor molecule, donor type, donor heavy atom, donor atom, acceptor molecule, acceptor atom, score
      P1  H  6896  6908       L1     3  1.00
      P1  H  6931  6943       L1    19  0.13
      P1  H  6934  6947       L1    19  0.37

> <Gold.PLP.Chemscore.Internal.Correction>
0.0476

> <Gold.Rescore>
     Score         DG    S(hbond)    S(metal)    S(lipo)     H(rot)  DE(clash)    DE(int)     intcor
     14.78     -15.30       1.18        0.00     111.45       2.79       0.12       0.40       ----

> <Gold.Chemscore.Fitness>
14.7835

> <Gold.Chemscore.DG>
-15.3033

> <Gold.Chemscore.ZeroCoef>
-5.4800

> <Gold.Chemscore.Hbond>
1.1777

> <Gold.Chemscore.Metal>
0.0000

> <Gold.Chemscore.Lipo>
111.4453

> <Gold.Chemscore.Internal_Hbond>
0.0000

> <Gold.Chemscore.DEClash>
0.1154

> <Gold.Chemscore.DEInternal>
0.4043

> <Gold.Chemscore.Rot>
2.7927

> <Gold.Chemscore.Internal.Correction>
   9.000000E+99

> <Gold.Chemscore.Hbonds>
donor molecule, donor type, donor heavy atom, donor atom, acceptor molecule, acceptor atom, score
      P1  H  6896  6908       L1     3  0.10
      P1  H  6934  6947       L1    19  0.04

> <Gold.Chemscore.Hbond.Weighted>
-3.9334

> <Gold.Chemscore.Metal.Weighted>
-0.0000

> <Gold.Chemscore.Lipo.Weighted>
-13.0391

> <Gold.Chemscore.Internal_Hbond.Weighted>
0.0000

> <Gold.Chemscore.DEClash.Weighted>
0.1154

> <Gold.Chemscore.DEInternal.Weighted>
0.4043

> <Gold.Chemscore.Rot.Weighted>
7.1492

> <Gold.Chemscore.Internal.Correction.Weighted>
   9.000000E+99

> <Gold.Protein.RotatedTorsions>
[ 6907 6896 6895 6894 ] final  155.43 input  -60.11 | X-H torsion
[ 7974 7965 7964 7962 ] final -100.15 input  175.53 | X-H torsion
[ 8008 7997 7996 7995 ] final   -7.20 input   59.86 | X-H torsion
[ 10167 10162 10161 10158 ] final -157.99 input  -65.29 | X-H torsion
[ 10718 10713 10712 10709 ] final  -25.23 input   66.30 | X-H torsion
[ 10763 10752 10751 10750 ] final   96.41 input  -60.55 | X-H torsion
[ 11005 11000 10999 10996 ] final   99.95 input  -57.11 | X-H torsion

> <Gold.Protein.ActiveResidues>
 VAL166  LYS551  ARG553  GLY616  TRP617  ASP618  TYR619  PRO620  LYS621  CYS622 
 ASP623  PHE694  ASN695  SER759  ASP760  ASP761  ALA762  ILE779  LEU786  VAL792 
 PHE793  MET794  SER795  GLU796  ALA797  LYS798  CYS799  TRP800  GLU811  SER814 

> <Gold.Protein.RotatedAtoms>
  152.0443  133.3991  159.4349 H   0  0  0  0  0  0  0  0  0  0  0  0  # atno 6907 bound_to 6896
  150.6873  134.3380  159.4865 H   0  0  0  0  0  0  0  0  0  0  0  0  # atno 6908 bound_to 6896
  152.1182  134.9224  160.0615 H   0  0  0  0  0  0  0  0  0  0  0  0  # atno 6909 bound_to 6896
  145.2983  140.9371  143.2838 H   0  0  0  0  0  0  0  0  0  0  0  0  # atno 7974 bound_to 7965
  154.5861  140.2413  155.7985 H   0  0  0  0  0  0  0  0  0  0  0  0  # atno 8008 bound_to 7997
  156.2214  140.2996  155.9917 H   0  0  0  0  0  0  0  0  0  0  0  0  # atno 8009 bound_to 7997
  155.2455  140.0408  157.2971 H   0  0  0  0  0  0  0  0  0  0  0  0  # atno 8010 bound_to 7997
  139.6727  143.9717  152.2293 H   0  0  0  0  0  0  0  0  0  0  0  0  # atno 10167 bound_to 10162
  156.4671  130.4516  149.6892 H   0  0  0  0  0  0  0  0  0  0  0  0  # atno 10718 bound_to 10713
  153.2646  135.4219  155.0928 H   0  0  0  0  0  0  0  0  0  0  0  0  # atno 10763 bound_to 10752
  154.8433  135.3457  154.6330 H   0  0  0  0  0  0  0  0  0  0  0  0  # atno 10764 bound_to 10752
  153.6750  135.7042  153.5192 H   0  0  0  0  0  0  0  0  0  0  0  0  # atno 10765 bound_to 10752
  139.8770  134.9119  156.4683 H   0  0  0  0  0  0  0  0  0  0  0  0  # atno 11005 bound_to 11000
  144.9115  139.4523  143.6585 LP  0  0  0  0  0  0  0  0  0  0  0  0  # atno 17320 bound_to 7965
  146.3161  139.7925  142.8982 LP  0  0  0  0  0  0  0  0  0  0  0  0  # atno 17321 bound_to 7965
  139.9486  144.6635  150.8195 LP  0  0  0  0  0  0  0  0  0  0  0  0  # atno 17342 bound_to 10162
  140.7624  143.3197  151.2650 LP  0  0  0  0  0  0  0  0  0  0  0  0  # atno 17343 bound_to 10162
  156.3656  130.7504  151.2481 LP  0  0  0  0  0  0  0  0  0  0  0  0  # atno 17370 bound_to 10713
  157.7494  131.0337  150.4286 LP  0  0  0  0  0  0  0  0  0  0  0  0  # atno 17371 bound_to 10713
  140.8814  133.7915  155.9471 LP  0  0  0  0  0  0  0  0  0  0  0  0  # atno 17394 bound_to 11000
  140.8850  134.2565  157.5124 LP  0  0  0  0  0  0  0  0  0  0  0  0  # atno 17395 bound_to 11000

$$$$
