AV-unprocessed.smi:830|AV-procd|sdf|3872|dock1
  -GOLD-   22720 1323D 1   1.00000     0.00000
 Structure written by MMmdl.
 53 55  0  0  0  0  0  0  0  0  2 V2000
  151.6736  138.6240  156.2323 C   0  0  0  0  0  0  0  0  0  0  0  0
  151.4009  138.9586  157.7082 C   0  0  2  0  0  0  0  0  0  0  0  0
  150.0644  138.5113  158.0962 N   0  0  0  0  0  0  0  0  0  0  0  0
  149.7818  137.6620  159.0937 C   0  0  0  0  0  0  0  0  0  0  0  0
  150.6372  137.1350  159.8046 O   0  0  0  0  0  0  0  0  0  0  0  0
  148.4580  137.4555  159.1925 N   0  0  0  0  0  0  0  0  0  0  0  0
  147.7630  136.5998  160.0938 C   0  0  0  0  0  0  0  0  0  0  0  0
  148.1580  136.4811  161.4516 C   0  0  0  0  0  0  0  0  0  0  0  0
  147.4647  135.6098  162.3124 C   0  0  0  0  0  0  0  0  0  0  0  0
  146.3820  134.8718  161.8049 C   0  0  0  0  0  0  0  0  0  0  0  0
  146.0174  135.0221  160.5150 N   0  3  0  0  0  0  0  0  0  0  0  0
  146.6346  135.8556  159.6406 C   0  0  0  0  0  0  0  0  0  0  0  0
  146.1287  135.9167  158.3217 N   0  0  0  0  0  0  0  0  0  0  0  0
  146.3258  134.8020  157.4021 C   0  0  0  0  0  0  0  0  0  0  0  0
  145.3724  135.0730  156.2415 C   0  0  0  0  0  0  0  0  0  0  0  0
  144.1799  135.7173  156.9419 C   0  0  0  0  0  0  0  0  0  0  0  0
  144.8173  136.5128  158.0863 C   0  0  0  0  0  0  0  0  0  0  0  0
  151.6048  140.4406  158.0431 C   0  0  0  0  0  0  0  0  0  0  0  0
  150.9266  141.3077  157.4898 O   0  0  0  0  0  0  0  0  0  0  0  0
  152.5584  140.7193  158.9450 N   0  0  0  0  0  0  0  0  0  0  0  0
  152.9206  142.0595  159.3972 C   0  0  0  0  0  0  0  0  0  0  0  0
  153.7234  141.9888  160.7091 C   0  0  0  0  0  0  0  0  0  0  0  0
  152.7851  142.4972  161.8039 C   0  0  0  0  0  0  0  0  0  0  0  0
  151.9020  143.5169  161.0916 C   0  0  0  0  0  0  0  0  0  0  0  0
  151.6738  142.9157  159.7036 C   0  0  0  0  0  0  0  0  0  0  0  0
  152.6726  138.9431  155.9330 H   0  0  0  0  0  0  0  0  0  0  0  0
  150.9567  139.1171  155.5747 H   0  0  0  0  0  0  0  0  0  0  0  0
  151.6078  137.5508  156.0508 H   0  0  0  0  0  0  0  0  0  0  0  0
  152.1253  138.4079  158.3119 H   0  0  0  0  0  0  0  0  0  0  0  0
  149.2966  138.8955  157.5646 H   0  0  0  0  0  0  0  0  0  0  0  0
  147.8909  137.8842  158.4758 H   0  0  0  0  0  0  0  0  0  0  0  0
  148.9825  137.0514  161.8515 H   0  0  0  0  0  0  0  0  0  0  0  0
  147.7614  135.5089  163.3461 H   0  0  0  0  0  0  0  0  0  0  0  0
  145.7947  134.1776  162.3883 H   0  0  0  0  0  0  0  0  0  0  0  0
  147.3619  134.7375  157.0687 H   0  0  0  0  0  0  0  0  0  0  0  0
  146.0584  133.8600  157.8822 H   0  0  0  0  0  0  0  0  0  0  0  0
  145.8223  135.7818  155.5448 H   0  0  0  0  0  0  0  0  0  0  0  0
  145.1088  134.1717  155.6875 H   0  0  0  0  0  0  0  0  0  0  0  0
  143.5795  136.3391  156.2773 H   0  0  0  0  0  0  0  0  0  0  0  0
  143.5328  134.9397  157.3504 H   0  0  0  0  0  0  0  0  0  0  0  0
  144.1901  136.4957  158.9786 H   0  0  0  0  0  0  0  0  0  0  0  0
  144.9538  137.5517  157.7850 H   0  0  0  0  0  0  0  0  0  0  0  0
  153.0719  139.9483  159.3466 H   0  0  0  0  0  0  0  0  0  0  0  0
  153.5343  142.5451  158.6359 H   0  0  0  0  0  0  0  0  0  0  0  0
  154.1098  140.9925  160.9293 H   0  0  0  0  0  0  0  0  0  0  0  0
  154.5838  142.6558  160.6389 H   0  0  0  0  0  0  0  0  0  0  0  0
  152.1717  141.6748  162.1747 H   0  0  0  0  0  0  0  0  0  0  0  0
  153.3211  142.9238  162.6521 H   0  0  0  0  0  0  0  0  0  0  0  0
  150.9702  143.7113  161.6233 H   0  0  0  0  0  0  0  0  0  0  0  0
  152.4367  144.4631  160.9988 H   0  0  0  0  0  0  0  0  0  0  0  0
  151.5090  143.6852  158.9488 H   0  0  0  0  0  0  0  0  0  0  0  0
  150.7768  142.2946  159.7300 H   0  0  0  0  0  0  0  0  0  0  0  0
  145.2212  134.4803  160.1792 H   0  0  0  0  0  0  0  0  0  0  0  0
  1  2  1  0  0  0  0
  1 26  1  0  0  0  0
  1 27  1  0  0  0  0
  1 28  1  0  0  0  0
  2  3  1  0  0  0  0
  2 18  1  0  0  0  0
  2 29  1  0  0  0  0
  3  4  1  0  0  0  0
  3 30  1  0  0  0  0
  4  5  2  0  0  0  0
  4  6  1  0  0  0  0
  6  7  1  0  0  0  0
  6 31  1  0  0  0  0
  7 12  1  0  0  0  0
  7  8  2  0  0  0  0
  8  9  1  0  0  0  0
  8 32  1  0  0  0  0
  9 10  2  0  0  0  0
  9 33  1  0  0  0  0
 10 11  1  0  0  0  0
 10 34  1  0  0  0  0
 11 12  2  0  0  0  0
 11 53  1  0  0  0  0
 12 13  1  0  0  0  0
 13 17  1  0  0  0  0
 13 14  1  0  0  0  0
 14 15  1  0  0  0  0
 14 35  1  0  0  0  0
 14 36  1  0  0  0  0
 15 16  1  0  0  0  0
 15 37  1  0  0  0  0
 15 38  1  0  0  0  0
 16 17  1  0  0  0  0
 16 39  1  0  0  0  0
 16 40  1  0  0  0  0
 17 41  1  0  0  0  0
 17 42  1  0  0  0  0
 18 19  2  0  0  0  0
 18 20  1  0  0  0  0
 20 21  1  0  0  0  0
 20 43  1  0  0  0  0
 21 25  1  0  0  0  0
 21 22  1  0  0  0  0
 21 44  1  0  0  0  0
 22 23  1  0  0  0  0
 22 45  1  0  0  0  0
 22 46  1  0  0  0  0
 23 24  1  0  0  0  0
 23 47  1  0  0  0  0
 23 48  1  0  0  0  0
 24 25  1  0  0  0  0
 24 49  1  0  0  0  0
 24 50  1  0  0  0  0
 25 51  1  0  0  0  0
 25 52  1  0  0  0  0
M  CHG  1  11   1
M  END
> <s_m_source_file>
AV-unprocessed.smi

> <i_m_source_file_index>
830

> <i_lp_mmshare_version>
43012

> <i_f3d_flags>
0

> <s_epik_input>
W0NIMl0xW0NIMl1bQ0gyXVtDSDJdW0NIXTFbTkhdQyg9TylbQ0BIXShbQ0gzXSlbTkhdQyg9TylbTkhdYzJbY0hdW2NIXVtjSF1uYzJOM1tDSDJdW0NIMl1bQ0gyXVtDSDJdMw==

> <s_epik_cmdline>
J2VwaWtfcHl0aG9uJywgJy1waCcsICc3LjAnLCAnLXRuJywgJzgnLCAnLW1hJywgJzIwMCcsICctbWV0YWxfYmluZGluZycsICctaW1hZScsICc8aW5maWxlLm1hZT4nLCAnLW9tYWUnLCAnPG91dGZpbGUubWFlPic=

> <r_lp_tautomer_probability>
0.999994

> <r_epik_Ionization_Penalty>
1.21091

> <r_epik_Ionization_Penalty_Charging>
1.21089

> <r_epik_Ionization_Penalty_Neutral>
1.88713e-05

> <r_epik_State_Penalty>
1.27732

> <r_epik_Charging_Adjusted_Penalty>
2.48821

> <i_epik_Tot_Q>
1

> <i_epik_Tot_abs_Q>
1

> <r_epik_Metal_State_Penalty>
1.3505

> <b_epik_Metal_Only>
0

> <s_lp_Force_Field>
OPLS_2005

> <r_lp_Energy>
52.1076

> <b_lp_Chiralities_Consistent>
1

> <s_lp_Variant>
AV-unprocessed.smi:830-3

> <Gold.Version>
5.8.1

> <Gold.Id.Protein>
6NUR|6NUR_protein|mol2

> <Gold.PLP.Fitness>
38.2648

> <Gold.PLP.PLP>
-36.3286

> <Gold.PLP.part.hbond>
-1.1611

> <Gold.PLP.part.metal>
0.0000

> <Gold.PLP.part.buried>
-3.8019

> <Gold.PLP.part.nonpolar>
-31.7987

> <Gold.PLP.part.repulsive>
0.4623

> <Gold.PLP.ligand.clash>
0.0000

> <Gold.PLP.ligand.torsion>
0.7764

> <Gold.PLP.Chemscore.Hbond>
1.0000

> <Gold.PLP.Chemscore.CHOScore>
0.0000

> <Gold.PLP.Chemscore.Metal>
0.0000

> <Gold.Chemscore.Hbonds>
donor molecule, donor type, donor heavy atom, donor atom, acceptor molecule, acceptor atom, score
      P1  H  6896  6908       L1     5  0.81

> <Gold.PLP.Chemscore.Internal.Correction>
0.4890

> <Gold.Rescore>
     Score         DG    S(hbond)    S(metal)    S(lipo)     H(rot)  DE(clash)    DE(int)     intcor
     13.11     -15.74       1.00        0.00      95.60       1.67       0.00       2.63       ----

> <Gold.Chemscore.Fitness>
13.1073

> <Gold.Chemscore.DG>
-15.7364

> <Gold.Chemscore.ZeroCoef>
-5.4800

> <Gold.Chemscore.Hbond>
1.0000

> <Gold.Chemscore.Metal>
0.0000

> <Gold.Chemscore.Lipo>
95.6029

> <Gold.Chemscore.Internal_Hbond>
0.0000

> <Gold.Chemscore.DEClash>
0.0019

> <Gold.Chemscore.DEInternal>
2.6272

> <Gold.Chemscore.Rot>
1.6676

> <Gold.Chemscore.Internal.Correction>
   9.000000E+99

> <Gold.Chemscore.Hbonds>
donor molecule, donor type, donor heavy atom, donor atom, acceptor molecule, acceptor atom, score
      P1  H  6896  6908       L1     5  0.80

> <Gold.Chemscore.Hbond.Weighted>
-3.3400

> <Gold.Chemscore.Metal.Weighted>
-0.0000

> <Gold.Chemscore.Lipo.Weighted>
-11.1855

> <Gold.Chemscore.Internal_Hbond.Weighted>
0.0000

> <Gold.Chemscore.DEClash.Weighted>
0.0019

> <Gold.Chemscore.DEInternal.Weighted>
2.6272

> <Gold.Chemscore.Rot.Weighted>
4.2691

> <Gold.Chemscore.Internal.Correction.Weighted>
   9.000000E+99

> <Gold.Protein.RotatedTorsions>
[ 6907 6896 6895 6894 ] final -133.23 input  -60.11 | X-H torsion
[ 7974 7965 7964 7962 ] final  -76.17 input  175.53 | X-H torsion
[ 8008 7997 7996 7995 ] final   29.15 input   59.86 | X-H torsion
[ 10167 10162 10161 10158 ] final -128.95 input  -65.29 | X-H torsion
[ 10718 10713 10712 10709 ] final -167.14 input   66.30 | X-H torsion
[ 10763 10752 10751 10750 ] final  163.35 input  -60.55 | X-H torsion
[ 11005 11000 10999 10996 ] final  -53.24 input  -57.11 | X-H torsion

> <Gold.Protein.ActiveResidues>
 VAL166  LYS551  ARG553  GLY616  TRP617  ASP618  TYR619  PRO620  LYS621  CYS622 
 ASP623  PHE694  ASN695  SER759  ASP760  ASP761  ALA762  ILE779  LEU786  VAL792 
 PHE793  MET794  SER795  GLU796  ALA797  LYS798  CYS799  TRP800  GLU811  SER814 

> <Gold.Protein.RotatedAtoms>
  150.9716  133.6338  159.2736 H   0  0  0  0  0  0  0  0  0  0  0  0  # atno 6907 bound_to 6896
  151.3624  135.0905  159.9448 H   0  0  0  0  0  0  0  0  0  0  0  0  # atno 6908 bound_to 6896
  152.5185  133.9287  159.7624 H   0  0  0  0  0  0  0  0  0  0  0  0  # atno 6909 bound_to 6896
  145.6164  140.9374  143.1161 H   0  0  0  0  0  0  0  0  0  0  0  0  # atno 7974 bound_to 7965
  155.0700  140.3199  155.4633 H   0  0  0  0  0  0  0  0  0  0  0  0  # atno 8008 bound_to 7997
  156.2793  140.2113  156.5773 H   0  0  0  0  0  0  0  0  0  0  0  0  # atno 8009 bound_to 7997
  154.7062  140.0502  157.0494 H   0  0  0  0  0  0  0  0  0  0  0  0  # atno 8010 bound_to 7997
  139.9449  143.6121  152.2493 H   0  0  0  0  0  0  0  0  0  0  0  0  # atno 10167 bound_to 10162
  156.6781  130.9111  151.3053 H   0  0  0  0  0  0  0  0  0  0  0  0  # atno 10718 bound_to 10713
  154.2923  135.2760  155.2649 H   0  0  0  0  0  0  0  0  0  0  0  0  # atno 10763 bound_to 10752
  154.5122  135.5779  153.6617 H   0  0  0  0  0  0  0  0  0  0  0  0  # atno 10764 bound_to 10752
  152.9912  135.6184  154.3089 H   0  0  0  0  0  0  0  0  0  0  0  0  # atno 10765 bound_to 10752
  141.0966  133.6624  156.4142 H   0  0  0  0  0  0  0  0  0  0  0  0  # atno 11005 bound_to 11000
  144.7248  139.7910  143.7369 LP  0  0  0  0  0  0  0  0  0  0  0  0  # atno 17320 bound_to 7965
  146.1464  139.4535  143.0076 LP  0  0  0  0  0  0  0  0  0  0  0  0  # atno 17321 bound_to 7965
  139.6675  144.7662  151.1846 LP  0  0  0  0  0  0  0  0  0  0  0  0  # atno 17342 bound_to 10162
  140.7600  143.5916  150.8791 LP  0  0  0  0  0  0  0  0  0  0  0  0  # atno 17343 bound_to 10162
  157.7053  130.9378  150.0912 LP  0  0  0  0  0  0  0  0  0  0  0  0  # atno 17370 bound_to 10713
  156.1888  130.3653  149.8937 LP  0  0  0  0  0  0  0  0  0  0  0  0  # atno 17371 bound_to 10713
  140.5126  134.6381  157.5290 LP  0  0  0  0  0  0  0  0  0  0  0  0  # atno 17394 bound_to 11000
  139.9804  134.7146  155.9870 LP  0  0  0  0  0  0  0  0  0  0  0  0  # atno 17395 bound_to 11000

$$$$
