AV-unprocessed.smi:2084|AV-procd|sdf|8514|dock1
  -GOLD-   2272011233D 1   1.00000     0.00000
 Structure written by MMmdl.
 39 40  0  0  0  0  0  0  0  0  2 V2000
  146.6911  138.6464  153.7326 C   0  0  0  0  0  0  0  0  0  0  0  0
  146.5017  140.0116  153.1677 N   0  3  0  0  0  0  0  0  0  0  0  0
  146.9120  140.0345  151.7398 C   0  0  0  0  0  0  0  0  0  0  0  0
  147.0235  141.1562  154.0013 C   0  0  0  0  0  0  0  0  0  0  0  0
  148.5754  141.0431  154.1411 C   0  0  0  0  0  0  0  0  0  0  0  0
  149.1527  141.9855  155.1012 N   0  0  0  0  0  0  0  0  0  0  0  0
  150.1445  141.7174  155.9626 C   0  0  0  0  0  0  0  0  0  0  0  0
  150.6974  140.6208  156.0426 O   0  0  0  0  0  0  0  0  0  0  0  0
  150.4473  142.7957  156.7029 N   0  0  0  0  0  0  0  0  0  0  0  0
  151.4313  142.9033  157.7167 C   0  0  0  0  0  0  0  0  0  0  0  0
  151.8050  141.8024  158.3712 N   0  0  0  0  0  0  0  0  0  0  0  0
  152.7803  142.0714  159.3359 C   0  0  0  0  0  0  0  0  0  0  0  0
  153.1423  143.3940  159.4010 C   0  0  0  0  0  0  0  0  0  0  0  0
  152.2671  144.3647  158.2480 S   0  0  0  0  0  0  0  0  0  0  0  0
  146.6593  142.5235  153.3451 C   0  0  0  0  0  0  0  0  0  0  0  0
  145.6197  143.1857  154.2521 C   0  0  0  0  0  0  0  0  0  0  0  0
  145.9510  142.6624  155.6445 C   0  0  0  0  0  0  0  0  0  0  0  0
  146.3583  141.2070  155.4080 C   0  0  0  0  0  0  0  0  0  0  0  0
  147.7303  138.3228  153.6863 H   0  0  0  0  0  0  0  0  0  0  0  0
  146.1084  137.9271  153.1561 H   0  0  0  0  0  0  0  0  0  0  0  0
  146.3539  138.5505  154.7623 H   0  0  0  0  0  0  0  0  0  0  0  0
  147.9962  140.0855  151.6366 H   0  0  0  0  0  0  0  0  0  0  0  0
  146.4686  140.8720  151.2032 H   0  0  0  0  0  0  0  0  0  0  0  0
  146.5726  139.1353  151.2242 H   0  0  0  0  0  0  0  0  0  0  0  0
  148.8621  140.0619  154.5169 H   0  0  0  0  0  0  0  0  0  0  0  0
  149.0418  141.1405  153.1592 H   0  0  0  0  0  0  0  0  0  0  0  0
  148.7634  142.9172  155.1088 H   0  0  0  0  0  0  0  0  0  0  0  0
  149.9160  143.6347  156.5231 H   0  0  0  0  0  0  0  0  0  0  0  0
  153.1636  141.2584  159.9347 H   0  0  0  0  0  0  0  0  0  0  0  0
  153.8677  143.8543  160.0554 H   0  0  0  0  0  0  0  0  0  0  0  0
  147.5223  143.1855  153.2923 H   0  0  0  0  0  0  0  0  0  0  0  0
  146.3196  142.4445  152.3128 H   0  0  0  0  0  0  0  0  0  0  0  0
  145.6477  144.2743  154.1960 H   0  0  0  0  0  0  0  0  0  0  0  0
  144.6164  142.8656  153.9688 H   0  0  0  0  0  0  0  0  0  0  0  0
  146.7895  143.2235  156.0589 H   0  0  0  0  0  0  0  0  0  0  0  0
  145.1146  142.7560  156.3378 H   0  0  0  0  0  0  0  0  0  0  0  0
  145.4627  140.5911  155.4613 H   0  0  0  0  0  0  0  0  0  0  0  0
  147.0136  140.8415  156.1995 H   0  0  0  0  0  0  0  0  0  0  0  0
  145.5000  140.1429  153.1546 H   0  0  0  0  0  0  0  0  0  0  0  0
  1  2  1  0  0  0  0
  1 19  1  0  0  0  0
  1 20  1  0  0  0  0
  1 21  1  0  0  0  0
  2  3  1  0  0  0  0
  2  4  1  0  0  0  0
  2 39  1  0  0  0  0
  3 22  1  0  0  0  0
  3 23  1  0  0  0  0
  3 24  1  0  0  0  0
  4 18  1  0  0  0  0
  4  5  1  0  0  0  0
  4 15  1  0  0  0  0
  5  6  1  0  0  0  0
  5 25  1  0  0  0  0
  5 26  1  0  0  0  0
  6  7  1  0  0  0  0
  6 27  1  0  0  0  0
  7  8  2  0  0  0  0
  7  9  1  0  0  0  0
  9 10  1  0  0  0  0
  9 28  1  0  0  0  0
 10 14  1  0  0  0  0
 10 11  2  0  0  0  0
 11 12  1  0  0  0  0
 12 13  2  0  0  0  0
 12 29  1  0  0  0  0
 13 14  1  0  0  0  0
 13 30  1  0  0  0  0
 15 16  1  0  0  0  0
 15 31  1  0  0  0  0
 15 32  1  0  0  0  0
 16 17  1  0  0  0  0
 16 33  1  0  0  0  0
 16 34  1  0  0  0  0
 17 18  1  0  0  0  0
 17 35  1  0  0  0  0
 17 36  1  0  0  0  0
 18 37  1  0  0  0  0
 18 38  1  0  0  0  0
M  CHG  1   2   1
M  END
> <s_m_source_file>
AV-unprocessed.smi

> <i_m_source_file_index>
2084

> <i_lp_mmshare_version>
43012

> <i_f3d_flags>
0

> <s_epik_input>
W0NIMl0xW0NIMl1bQ0gyXVtDSDJdQzEoTihbQ0gzXSlbQ0gzXSlbQ0gyXVtOSF1DKD1PKVtOSF1jMm5bY0hdW2NIXXMy

> <s_epik_cmdline>
J2VwaWtfcHl0aG9uJywgJy1waCcsICc3LjAnLCAnLXRuJywgJzgnLCAnLW1hJywgJzIwMCcsICctbWV0YWxfYmluZGluZycsICctaW1hZScsICc8aW5maWxlLm1hZT4nLCAnLW9tYWUnLCAnPG91dGZpbGUubWFlPic=

> <r_lp_tautomer_probability>
1

> <r_epik_Ionization_Penalty>
0.0027968

> <r_epik_Ionization_Penalty_Charging>
0.00256589

> <r_epik_Ionization_Penalty_Neutral>
0.000230907

> <r_epik_State_Penalty>
-0

> <r_epik_Charging_Adjusted_Penalty>
0.00256589

> <i_epik_Tot_Q>
1

> <i_epik_Tot_abs_Q>
1

> <r_epik_Metal_State_Penalty>
0.0129581

> <b_epik_Metal_Only>
0

> <s_lp_Force_Field>
OPLS_2005

> <r_lp_Energy>
35.9551

> <b_lp_Chiralities_Consistent>
1

> <s_lp_Variant>
AV-unprocessed.smi:2084-1

> <Gold.Version>
5.8.1

> <Gold.Id.Protein>
6NUR|6NUR_protein|mol2

> <Gold.PLP.Fitness>
49.0658

> <Gold.PLP.PLP>
-37.7839

> <Gold.PLP.part.hbond>
-3.0000

> <Gold.PLP.part.metal>
0.0000

> <Gold.PLP.part.buried>
-3.9470

> <Gold.PLP.part.nonpolar>
-32.0062

> <Gold.PLP.part.repulsive>
0.2812

> <Gold.PLP.ligand.clash>
0.0000

> <Gold.PLP.ligand.torsion>
0.4153

> <Gold.PLP.Chemscore.Hbond>
3.9920

> <Gold.PLP.Chemscore.CHOScore>
0.0000

> <Gold.PLP.Chemscore.Metal>
0.0000

> <Gold.Chemscore.Hbonds>
donor molecule, donor type, donor heavy atom, donor atom, acceptor molecule, acceptor atom, score
      L1  H     2    39       P1 10175  2.00
      L1  H     6    27       P1  8028  1.00
      L1  H     9    28       P1  8028  1.00

> <Gold.PLP.Chemscore.Internal.Correction>
0.1365

> <Gold.Rescore>
     Score         DG    S(hbond)    S(metal)    S(lipo)     H(rot)  DE(clash)    DE(int)     intcor
     17.39     -21.71       2.92        0.00      90.21       1.59       2.59       1.74       ----

> <Gold.Chemscore.Fitness>
17.3883

> <Gold.Chemscore.DG>
-21.7149

> <Gold.Chemscore.ZeroCoef>
-5.4800

> <Gold.Chemscore.Hbond>
2.9154

> <Gold.Chemscore.Metal>
0.0000

> <Gold.Chemscore.Lipo>
90.2144

> <Gold.Chemscore.Internal_Hbond>
0.0000

> <Gold.Chemscore.DEClash>
2.5860

> <Gold.Chemscore.DEInternal>
1.7407

> <Gold.Chemscore.Rot>
1.5850

> <Gold.Chemscore.Internal.Correction>
   9.000000E+99

> <Gold.Chemscore.Hbonds>
donor molecule, donor type, donor heavy atom, donor atom, acceptor molecule, acceptor atom, score
      L1  H     2    39       P1 10175  0.97
      L1  H     6    27       P1  8028  0.94
      L1  H     9    28       P1  8028  0.99

> <Gold.Chemscore.Hbond.Weighted>
-9.7375

> <Gold.Chemscore.Metal.Weighted>
-0.0000

> <Gold.Chemscore.Lipo.Weighted>
-10.5551

> <Gold.Chemscore.Internal_Hbond.Weighted>
0.0000

> <Gold.Chemscore.DEClash.Weighted>
2.5860

> <Gold.Chemscore.DEInternal.Weighted>
1.7407

> <Gold.Chemscore.Rot.Weighted>
4.0577

> <Gold.Chemscore.Internal.Correction.Weighted>
   9.000000E+99

> <Gold.Protein.RotatedTorsions>
[ 6907 6896 6895 6894 ] final  142.70 input  -60.11 | X-H torsion
[ 7974 7965 7964 7962 ] final -116.31 input  175.53 | X-H torsion
[ 8008 7997 7996 7995 ] final  162.67 input   59.86 | X-H torsion
[ 10167 10162 10161 10158 ] final  144.29 input  -65.29 | X-H torsion
[ 10718 10713 10712 10709 ] final -178.38 input   66.30 | X-H torsion
[ 10763 10752 10751 10750 ] final   95.73 input  -60.55 | X-H torsion
[ 11005 11000 10999 10996 ] final  -60.07 input  -57.11 | X-H torsion

> <Gold.Protein.ActiveResidues>
 VAL166  LYS551  ARG553  GLY616  TRP617  ASP618  TYR619  PRO620  LYS621  CYS622 
 ASP623  PHE694  ASN695  SER759  ASP760  ASP761  ALA762  ILE779  LEU786  VAL792 
 PHE793  MET794  SER795  GLU796  ALA797  LYS798  CYS799  TRP800  GLU811  SER814 

> <Gold.Protein.RotatedAtoms>
  152.2154  133.4943  159.5132 H   0  0  0  0  0  0  0  0  0  0  0  0  # atno 6907 bound_to 6896
  150.7000  134.1412  159.4115 H   0  0  0  0  0  0  0  0  0  0  0  0  # atno 6908 bound_to 6896
  151.9332  135.0247  160.0581 H   0  0  0  0  0  0  0  0  0  0  0  0  # atno 6909 bound_to 6896
  145.0982  140.8535  143.3942 H   0  0  0  0  0  0  0  0  0  0  0  0  # atno 7974 bound_to 7965
  156.2014  140.1744  156.7891 H   0  0  0  0  0  0  0  0  0  0  0  0  # atno 8008 bound_to 7997
  154.5597  140.0702  156.8830 H   0  0  0  0  0  0  0  0  0  0  0  0  # atno 8009 bound_to 7997
  155.2872  140.3353  155.4257 H   0  0  0  0  0  0  0  0  0  0  0  0  # atno 8010 bound_to 7997
  139.4950  144.5982  151.6537 H   0  0  0  0  0  0  0  0  0  0  0  0  # atno 10167 bound_to 10162
  156.8435  130.9694  151.3098 H   0  0  0  0  0  0  0  0  0  0  0  0  # atno 10718 bound_to 10713
  153.2566  135.4243  155.0852 H   0  0  0  0  0  0  0  0  0  0  0  0  # atno 10763 bound_to 10752
  154.8403  135.3439  154.6436 H   0  0  0  0  0  0  0  0  0  0  0  0  # atno 10764 bound_to 10752
  153.6857  135.7036  153.5162 H   0  0  0  0  0  0  0  0  0  0  0  0  # atno 10765 bound_to 10752
  141.1273  133.6620  156.5167 H   0  0  0  0  0  0  0  0  0  0  0  0  # atno 11005 bound_to 11000
  145.0986  139.2839  143.5698 LP  0  0  0  0  0  0  0  0  0  0  0  0  # atno 17320 bound_to 7965
  146.3530  140.0546  142.8633 LP  0  0  0  0  0  0  0  0  0  0  0  0  # atno 17321 bound_to 7965
  140.5625  144.0244  150.6176 LP  0  0  0  0  0  0  0  0  0  0  0  0  # atno 17342 bound_to 10162
  140.3335  143.3063  152.0663 LP  0  0  0  0  0  0  0  0  0  0  0  0  # atno 17343 bound_to 10162
  157.6342  130.8754  149.9329 LP  0  0  0  0  0  0  0  0  0  0  0  0  # atno 17370 bound_to 10713
  156.0867  130.3667  150.0473 LP  0  0  0  0  0  0  0  0  0  0  0  0  # atno 17371 bound_to 10713
  140.4325  134.7089  157.4949 LP  0  0  0  0  0  0  0  0  0  0  0  0  # atno 17394 bound_to 11000
  140.0284  134.6443  155.9141 LP  0  0  0  0  0  0  0  0  0  0  0  0  # atno 17395 bound_to 11000

$$$$
