AV-unprocessed.smi:437|AV-procd|sdf|2562|dock1
  -GOLD-   2262022533D 1   1.00000     0.00000
 Structure written by MMmdl.
 48 49  0  0  0  0  0  0  0  0  1 V2000
  148.3072  133.3445  152.1454 C   0  0  0  0  0  0  0  0  0  0  0  0
  148.9670  133.5799  153.4774 C   0  0  0  0  0  0  0  0  0  0  0  0
  148.9073  134.7814  153.9498 N   0  0  0  0  0  0  0  0  0  0  0  0
  149.4855  135.1081  155.1612 N   0  0  0  0  0  0  0  0  0  0  0  0
  149.3280  136.5209  155.5373 C   0  0  0  0  0  0  0  0  0  0  0  0
  150.6637  137.2338  155.8004 C   0  0  0  0  0  0  0  0  0  0  0  0
  151.7300  136.6241  155.6812 O   0  0  0  0  0  0  0  0  0  0  0  0
  150.5519  138.5319  156.1470 N   0  0  0  0  0  0  0  0  0  0  0  0
  151.5457  139.3953  156.4313 C   0  0  0  0  0  0  0  0  0  0  0  0
  152.7484  139.1952  156.2471 O   0  0  0  0  0  0  0  0  0  0  0  0
  151.0586  140.5320  156.9503 N   0  0  0  0  0  0  0  0  0  0  0  0
  151.8547  141.5949  157.5612 C   0  0  1  0  0  0  0  0  0  0  0  0
  151.2863  142.9742  157.1625 C   0  0  0  0  0  0  0  0  0  0  0  0
  152.0572  144.1205  157.8324 C   0  0  0  0  0  0  0  0  0  0  0  0
  152.0683  143.9577  159.3581 C   0  0  0  0  0  0  0  0  0  0  0  0
  152.6472  142.5934  159.7617 C   0  0  0  0  0  0  0  0  0  0  0  0
  151.8854  141.4262  159.1012 C   0  0  2  0  0  0  0  0  0  0  0  0
  152.4848  140.0767  159.5359 C   0  0  0  0  0  0  0  0  0  0  0  0
  150.1534  134.2310  155.9646 C   0  0  0  0  0  0  0  0  0  0  0  0
  150.6537  134.5664  157.0394 O   0  0  0  0  0  0  0  0  0  0  0  0
  150.2154  132.8710  155.4245 C   0  0  0  0  0  0  0  0  0  0  0  0
  150.9111  131.9215  156.2317 C   0  0  0  0  0  0  0  0  0  0  0  0
  151.4595  131.1380  156.8840 N   0  0  0  0  0  0  0  0  0  0  0  0
  149.6506  132.5379  154.2368 C   0  0  0  0  0  0  0  0  0  0  0  0
  149.6866  131.1406  153.6329 C   0  0  0  0  0  0  0  0  0  0  0  0
  147.4574  132.6697  152.2497 H   0  0  0  0  0  0  0  0  0  0  0  0
  149.0080  132.9002  151.4381 H   0  0  0  0  0  0  0  0  0  0  0  0
  147.9399  134.2722  151.7035 H   0  0  0  0  0  0  0  0  0  0  0  0
  148.8055  137.0615  154.7459 H   0  0  0  0  0  0  0  0  0  0  0  0
  148.6904  136.6092  156.4191 H   0  0  0  0  0  0  0  0  0  0  0  0
  149.6132  138.8994  156.1968 H   0  0  0  0  0  0  0  0  0  0  0  0
  150.0593  140.6728  156.9311 H   0  0  0  0  0  0  0  0  0  0  0  0
  152.8800  141.5217  157.1928 H   0  0  0  0  0  0  0  0  0  0  0  0
  151.3230  143.0999  156.0797 H   0  0  0  0  0  0  0  0  0  0  0  0
  150.2336  143.0353  157.4430 H   0  0  0  0  0  0  0  0  0  0  0  0
  153.0814  144.1410  157.4580 H   0  0  0  0  0  0  0  0  0  0  0  0
  151.6094  145.0777  157.5634 H   0  0  0  0  0  0  0  0  0  0  0  0
  152.6518  144.7584  159.8131 H   0  0  0  0  0  0  0  0  0  0  0  0
  151.0533  144.0551  159.7453 H   0  0  0  0  0  0  0  0  0  0  0  0
  153.7007  142.5503  159.4821 H   0  0  0  0  0  0  0  0  0  0  0  0
  152.6134  142.4937  160.8472 H   0  0  0  0  0  0  0  0  0  0  0  0
  150.8568  141.4586  159.4648 H   0  0  0  0  0  0  0  0  0  0  0  0
  153.5076  139.9643  159.1748 H   0  0  0  0  0  0  0  0  0  0  0  0
  151.9039  139.2356  159.1572 H   0  0  0  0  0  0  0  0  0  0  0  0
  152.5057  139.9900  160.6226 H   0  0  0  0  0  0  0  0  0  0  0  0
  150.1169  130.4082  154.3153 H   0  0  0  0  0  0  0  0  0  0  0  0
  150.2850  131.1360  152.7213 H   0  0  0  0  0  0  0  0  0  0  0  0
  148.6805  130.8004  153.3856 H   0  0  0  0  0  0  0  0  0  0  0  0
  1  2  1  0  0  0  0
  1 26  1  0  0  0  0
  1 27  1  0  0  0  0
  1 28  1  0  0  0  0
  2 24  1  0  0  0  0
  2  3  2  0  0  0  0
  3  4  1  0  0  0  0
  4  5  1  0  0  0  0
  4 19  1  0  0  0  0
  5  6  1  0  0  0  0
  5 29  1  0  0  0  0
  5 30  1  0  0  0  0
  6  7  2  0  0  0  0
  6  8  1  0  0  0  0
  8  9  1  0  0  0  0
  8 31  1  0  0  0  0
  9 10  2  0  0  0  0
  9 11  1  0  0  0  0
 11 12  1  0  0  0  0
 11 32  1  0  0  0  0
 12 17  1  0  0  0  0
 12 13  1  0  0  0  0
 12 33  1  0  0  0  0
 13 14  1  0  0  0  0
 13 34  1  0  0  0  0
 13 35  1  0  0  0  0
 14 15  1  0  0  0  0
 14 36  1  0  0  0  0
 14 37  1  0  0  0  0
 15 16  1  0  0  0  0
 15 38  1  0  0  0  0
 15 39  1  0  0  0  0
 16 17  1  0  0  0  0
 16 40  1  0  0  0  0
 16 41  1  0  0  0  0
 17 18  1  0  0  0  0
 17 42  1  0  0  0  0
 18 43  1  0  0  0  0
 18 44  1  0  0  0  0
 18 45  1  0  0  0  0
 19 20  2  0  0  0  0
 19 21  1  0  0  0  0
 21 22  1  0  0  0  0
 21 24  2  0  0  0  0
 22 23  3  0  0  0  0
 24 25  1  0  0  0  0
 25 46  1  0  0  0  0
 25 47  1  0  0  0  0
 25 48  1  0  0  0  0
M  END
> <s_m_source_file>
AV-unprocessed.smi

> <i_m_source_file_index>
437

> <i_lp_mmshare_version>
43012

> <i_f3d_flags>
0

> <s_epik_input>
TiNDYyhjMVtDSDNdKWMoPU8pbihuYzFbQ0gzXSlbQ0gyXUMoPU8pW05IXUMoPU8pW05IXVtDQEBIXTJbQ0gyXVtDSDJdW0NIMl1bQ0gyXVtDQEhdMltDSDNd

> <s_epik_cmdline>
J2VwaWtfcHl0aG9uJywgJy1waCcsICc3LjAnLCAnLXRuJywgJzgnLCAnLW1hJywgJzIwMCcsICctbWV0YWxfYmluZGluZycsICctaW1hZScsICc8aW5maWxlLm1hZT4nLCAnLW9tYWUnLCAnPG91dGZpbGUubWFlPic=

> <r_lp_tautomer_probability>
1

> <r_epik_Ionization_Penalty>
3.27035e-05

> <r_epik_Ionization_Penalty_Charging>
1.6965e-11

> <r_epik_Ionization_Penalty_Neutral>
3.27035e-05

> <r_epik_State_Penalty>
-0

> <r_epik_Charging_Adjusted_Penalty>
1.6965e-11

> <i_epik_Tot_Q>
0

> <i_epik_Tot_abs_Q>
0

> <r_epik_Metal_State_Penalty>
-0

> <b_epik_Metal_Only>
0

> <s_lp_Force_Field>
OPLS_2005

> <r_lp_Energy>
26.7465

> <b_lp_Chiralities_Consistent>
1

> <s_lp_Variant>
AV-unprocessed.smi:437-4

> <Gold.Version>
5.8.1

> <Gold.Id.Protein>
6NUR|6NUR_protein|mol2

> <Gold.PLP.Fitness>
50.7161

> <Gold.PLP.PLP>
-44.3902

> <Gold.PLP.part.hbond>
-3.0000

> <Gold.PLP.part.metal>
0.0000

> <Gold.PLP.part.buried>
-7.1634

> <Gold.PLP.part.nonpolar>
-34.4278

> <Gold.PLP.part.repulsive>
0.2376

> <Gold.PLP.ligand.clash>
0.0000

> <Gold.PLP.ligand.torsion>
0.3740

> <Gold.PLP.Chemscore.Hbond>
2.3360

> <Gold.PLP.Chemscore.CHOScore>
0.0000

> <Gold.PLP.Chemscore.Metal>
0.0000

> <Gold.Chemscore.Hbonds>
donor molecule, donor type, donor heavy atom, donor atom, acceptor molecule, acceptor atom, score
      P1  H  6896  6909       L1    20  0.09
      P1  H  7997  8008       L1    10  1.00
      P1  H 10752 10763       L1     7  1.00

> <Gold.PLP.Chemscore.Internal.Correction>
0.0659

> <Gold.Rescore>
     Score         DG    S(hbond)    S(metal)    S(lipo)     H(rot)  DE(clash)    DE(int)     intcor
     20.48     -22.71       2.78        0.00     102.12       1.57       0.34       1.89       ----

> <Gold.Chemscore.Fitness>
20.4753

> <Gold.Chemscore.DG>
-22.7118

> <Gold.Chemscore.ZeroCoef>
-5.4800

> <Gold.Chemscore.Hbond>
2.7821

> <Gold.Chemscore.Metal>
0.0000

> <Gold.Chemscore.Lipo>
102.1160

> <Gold.Chemscore.Internal_Hbond>
0.0000

> <Gold.Chemscore.DEClash>
0.3419

> <Gold.Chemscore.DEInternal>
1.8946

> <Gold.Chemscore.Rot>
1.5656

> <Gold.Chemscore.Internal.Correction>
   9.000000E+99

> <Gold.Chemscore.Hbonds>
donor molecule, donor type, donor heavy atom, donor atom, acceptor molecule, acceptor atom, score
      P1  H  6896  6909       L1    20  0.10
      P1  H  7997  8008       L1    10  0.99
      P1  H 10752 10763       L1     7  1.00

> <Gold.Chemscore.Hbond.Weighted>
-9.2921

> <Gold.Chemscore.Metal.Weighted>
-0.0000

> <Gold.Chemscore.Lipo.Weighted>
-11.9476

> <Gold.Chemscore.Internal_Hbond.Weighted>
0.0000

> <Gold.Chemscore.DEClash.Weighted>
0.3419

> <Gold.Chemscore.DEInternal.Weighted>
1.8946

> <Gold.Chemscore.Rot.Weighted>
4.0079

> <Gold.Chemscore.Internal.Correction.Weighted>
   9.000000E+99

> <Gold.Protein.RotatedTorsions>
[ 6907 6896 6895 6894 ] final   -6.49 input  -60.11 | X-H torsion
[ 7974 7965 7964 7962 ] final  139.48 input  175.53 | X-H torsion
[ 8008 7997 7996 7995 ] final  -29.77 input   59.86 | X-H torsion
[ 10167 10162 10161 10158 ] final -160.46 input  -65.29 | X-H torsion
[ 10718 10713 10712 10709 ] final -128.15 input   66.30 | X-H torsion
[ 10763 10752 10751 10750 ] final   71.00 input  -60.55 | X-H torsion
[ 11005 11000 10999 10996 ] final   73.22 input  -57.11 | X-H torsion

> <Gold.Protein.ActiveResidues>
 VAL166  LYS551  ARG553  GLY616  TRP617  ASP618  TYR619  PRO620  LYS621  CYS622 
 ASP623  PHE694  ASN695  SER759  ASP760  ASP761  ALA762  ILE779  LEU786  VAL792 
 PHE793  MET794  SER795  GLU796  ALA797  LYS798  CYS799  TRP800  GLU811  SER814 

> <Gold.Protein.RotatedAtoms>
  151.4648  135.1041  159.9734 H   0  0  0  0  0  0  0  0  0  0  0  0  # atno 6907 bound_to 6896
  152.4839  133.8319  159.7118 H   0  0  0  0  0  0  0  0  0  0  0  0  # atno 6908 bound_to 6896
  150.8933  133.7154  159.2925 H   0  0  0  0  0  0  0  0  0  0  0  0  # atno 6909 bound_to 6896
  144.9275  139.5089  143.5633 H   0  0  0  0  0  0  0  0  0  0  0  0  # atno 7974 bound_to 7965
  154.4276  140.1809  156.1300 H   0  0  0  0  0  0  0  0  0  0  0  0  # atno 8008 bound_to 7997
  156.0075  140.3354  155.6882 H   0  0  0  0  0  0  0  0  0  0  0  0  # atno 8009 bound_to 7997
  155.6157  140.0654  157.2683 H   0  0  0  0  0  0  0  0  0  0  0  0  # atno 8010 bound_to 7997
  139.6538  144.0036  152.2179 H   0  0  0  0  0  0  0  0  0  0  0  0  # atno 10167 bound_to 10162
  156.1924  130.6804  151.0440 H   0  0  0  0  0  0  0  0  0  0  0  0  # atno 10718 bound_to 10713
  153.0374  135.5153  154.7527 H   0  0  0  0  0  0  0  0  0  0  0  0  # atno 10763 bound_to 10752
  154.6492  135.2923  155.0010 H   0  0  0  0  0  0  0  0  0  0  0  0  # atno 10764 bound_to 10752
  154.0900  135.6651  153.4903 H   0  0  0  0  0  0  0  0  0  0  0  0  # atno 10765 bound_to 10752
  139.9451  134.7328  156.1000 H   0  0  0  0  0  0  0  0  0  0  0  0  # atno 11005 bound_to 11000
  146.3232  139.8201  142.8928 LP  0  0  0  0  0  0  0  0  0  0  0  0  # atno 17320 bound_to 7965
  145.3195  141.0240  143.3508 LP  0  0  0  0  0  0  0  0  0  0  0  0  # atno 17321 bound_to 7965
  139.9757  144.6463  150.7947 LP  0  0  0  0  0  0  0  0  0  0  0  0  # atno 17342 bound_to 10162
  140.7550  143.3037  151.3016 LP  0  0  0  0  0  0  0  0  0  0  0  0  # atno 17343 bound_to 10162
  157.6937  131.0801  150.7032 LP  0  0  0  0  0  0  0  0  0  0  0  0  # atno 17370 bound_to 10713
  156.7089  130.4646  149.5552 LP  0  0  0  0  0  0  0  0  0  0  0  0  # atno 17371 bound_to 10713
  141.1099  133.6647  156.2953 LP  0  0  0  0  0  0  0  0  0  0  0  0  # atno 17394 bound_to 11000
  140.5855  134.5703  157.5488 LP  0  0  0  0  0  0  0  0  0  0  0  0  # atno 17395 bound_to 11000

$$$$
