AV-unprocessed.smi:2623|AV-procd|sdf|10231|dock3
  -GOLD-   2272014233D 1   1.00000     0.00000
 Structure written by MMmdl.
 41 43  0  0  0  0  0  0  0  0  2 V2000
  149.5422  141.0119  153.2726 O   0  0  0  0  0  0  0  0  0  0  0  0
  149.2077  140.4365  154.5157 C   0  0  0  0  0  0  0  0  0  0  0  0
  150.0898  140.9197  155.6188 C   0  0  0  0  0  0  0  0  0  0  0  0
  150.1971  142.2081  156.0495 N   0  3  0  0  0  0  0  0  0  0  0  0
  151.1277  142.2839  157.0865 C   0  0  0  0  0  0  0  0  0  0  0  0
  151.5705  143.3704  157.8348 C   0  0  0  0  0  0  0  0  0  0  0  0
  152.5360  143.1036  158.8275 C   0  0  0  0  0  0  0  0  0  0  0  0
  153.0229  141.7985  159.0460 C   0  0  0  0  0  0  0  0  0  0  0  0
  152.5665  140.7049  158.2810 C   0  0  0  0  0  0  0  0  0  0  0  0
  151.6128  140.9769  157.2998 C   0  0  0  0  0  0  0  0  0  0  0  0
  150.9442  140.1690  156.3717 N   0  0  0  0  0  0  0  0  0  0  0  0
  151.2283  138.7260  156.3167 C   0  0  0  0  0  0  0  0  0  0  0  0
  151.8624  138.2917  154.9801 C   0  0  2  0  0  0  0  0  0  0  0  0
  152.0294  136.8885  154.9565 O   0  0  0  0  0  0  0  0  0  0  0  0
  153.2267  138.9528  154.7363 C   0  0  0  0  0  0  0  0  0  0  0  0
  154.2356  138.1589  155.3469 O   0  0  0  0  0  0  0  0  0  0  0  0
  155.4941  138.1566  154.7853 C   0  0  0  0  0  0  0  0  0  0  0  0
  156.5242  137.5416  155.5271 C   0  0  0  0  0  0  0  0  0  0  0  0
  157.8404  137.4923  155.0295 C   0  0  0  0  0  0  0  0  0  0  0  0
  158.1411  138.0616  153.7783 C   0  0  0  0  0  0  0  0  0  0  0  0
  157.1236  138.6797  153.0281 C   0  0  0  0  0  0  0  0  0  0  0  0
  155.8067  138.7286  153.5257 C   0  0  0  0  0  0  0  0  0  0  0  0
  149.5598  140.3287  152.6197 H   0  0  0  0  0  0  0  0  0  0  0  0
  148.1699  140.6737  154.7507 H   0  0  0  0  0  0  0  0  0  0  0  0
  149.2782  139.3516  154.4373 H   0  0  0  0  0  0  0  0  0  0  0  0
  151.1983  144.3710  157.6699 H   0  0  0  0  0  0  0  0  0  0  0  0
  152.9102  143.9157  159.4340 H   0  0  0  0  0  0  0  0  0  0  0  0
  153.7616  141.6320  159.8168 H   0  0  0  0  0  0  0  0  0  0  0  0
  152.9442  139.7094  158.4613 H   0  0  0  0  0  0  0  0  0  0  0  0
  151.9067  138.5026  157.1409 H   0  0  0  0  0  0  0  0  0  0  0  0
  150.3151  138.1677  156.5230 H   0  0  0  0  0  0  0  0  0  0  0  0
  151.1961  138.5512  154.1567 H   0  0  0  0  0  0  0  0  0  0  0  0
  151.2155  136.4868  155.2188 H   0  0  0  0  0  0  0  0  0  0  0  0
  153.4087  139.0557  153.6649 H   0  0  0  0  0  0  0  0  0  0  0  0
  153.2346  139.9503  155.1795 H   0  0  0  0  0  0  0  0  0  0  0  0
  156.3030  137.1020  156.4886 H   0  0  0  0  0  0  0  0  0  0  0  0
  158.6191  137.0177  155.6081 H   0  0  0  0  0  0  0  0  0  0  0  0
  159.1502  138.0243  153.3948 H   0  0  0  0  0  0  0  0  0  0  0  0
  157.3532  139.1179  152.0681 H   0  0  0  0  0  0  0  0  0  0  0  0
  155.0544  139.2121  152.9211 H   0  0  0  0  0  0  0  0  0  0  0  0
  149.6730  142.9787  155.6551 H   0  0  0  0  0  0  0  0  0  0  0  0
  1  2  1  0  0  0  0
  1 23  1  0  0  0  0
  2  3  1  0  0  0  0
  2 24  1  0  0  0  0
  2 25  1  0  0  0  0
  3 11  1  0  0  0  0
  3  4  2  0  0  0  0
  4  5  1  0  0  0  0
  4 41  1  0  0  0  0
  5 10  2  0  0  0  0
  5  6  1  0  0  0  0
  6  7  2  0  0  0  0
  6 26  1  0  0  0  0
  7  8  1  0  0  0  0
  7 27  1  0  0  0  0
  8  9  2  0  0  0  0
  8 28  1  0  0  0  0
  9 10  1  0  0  0  0
  9 29  1  0  0  0  0
 10 11  1  0  0  0  0
 11 12  1  0  0  0  0
 12 13  1  0  0  0  0
 12 30  1  0  0  0  0
 12 31  1  0  0  0  0
 13 14  1  0  0  0  0
 13 15  1  0  0  0  0
 13 32  1  0  0  0  0
 14 33  1  0  0  0  0
 15 16  1  0  0  0  0
 15 34  1  0  0  0  0
 15 35  1  0  0  0  0
 16 17  1  0  0  0  0
 17 22  1  0  0  0  0
 17 18  2  0  0  0  0
 18 19  1  0  0  0  0
 18 36  1  0  0  0  0
 19 20  2  0  0  0  0
 19 37  1  0  0  0  0
 20 21  1  0  0  0  0
 20 38  1  0  0  0  0
 21 22  2  0  0  0  0
 21 39  1  0  0  0  0
 22 40  1  0  0  0  0
M  CHG  1   4   1
M  END
> <s_m_source_file>
AV-unprocessed.smi

> <i_m_source_file_index>
2623

> <i_lp_mmshare_version>
43012

> <i_f3d_flags>
0

> <s_epik_input>
W2NIXTFbY0hdW2NIXVtjSF1jKGMxMiluKGMobjIpW0NIMl1bT0hdKVtDSDJdW0NASF0oW09IXSlbQ0gyXU9jM1tjSF1bY0hdW2NIXVtjSF1bY0hdMw==

> <s_epik_cmdline>
J2VwaWtfcHl0aG9uJywgJy1waCcsICc3LjAnLCAnLXRuJywgJzgnLCAnLW1hJywgJzIwMCcsICctbWV0YWxfYmluZGluZycsICctaW1hZScsICc8aW5maWxlLm1hZT4nLCAnLW9tYWUnLCAnPG91dGZpbGUubWFlPic=

> <r_lp_tautomer_probability>
1

> <r_epik_Ionization_Penalty>
1.40416

> <r_epik_Ionization_Penalty_Charging>
1.4033

> <r_epik_Ionization_Penalty_Neutral>
0.000858184

> <r_epik_State_Penalty>
1.48564

> <r_epik_Charging_Adjusted_Penalty>
2.88894

> <i_epik_Tot_Q>
1

> <i_epik_Tot_abs_Q>
1

> <r_epik_Metal_State_Penalty>
5.52809

> <b_epik_Metal_Only>
0

> <s_lp_Force_Field>
OPLS_2005

> <r_lp_Energy>
17.9205

> <b_lp_Chiralities_Consistent>
1

> <s_lp_Variant>
AV-unprocessed.smi:2623-3

> <Gold.Version>
5.8.1

> <Gold.Id.Protein>
6NUR|6NUR_protein|mol2

> <Gold.PLP.Fitness>
61.8069

> <Gold.PLP.PLP>
-48.1483

> <Gold.PLP.part.hbond>
-6.2291

> <Gold.PLP.part.metal>
0.0000

> <Gold.PLP.part.buried>
-2.2031

> <Gold.PLP.part.nonpolar>
-40.1160

> <Gold.PLP.part.repulsive>
0.1191

> <Gold.PLP.ligand.clash>
0.0000

> <Gold.PLP.ligand.torsion>
0.6067

> <Gold.PLP.Chemscore.Hbond>
4.9168

> <Gold.PLP.Chemscore.CHOScore>
0.0000

> <Gold.PLP.Chemscore.Metal>
0.0000

> <Gold.Chemscore.Hbonds>
donor molecule, donor type, donor heavy atom, donor atom, acceptor molecule, acceptor atom, score
      L1  H     1    23       P1  7957  0.79
      L1  H     4    41       P1  8028  2.00
      P1  H  7989  7998       L1     1  0.07
      P1  H  8011  8017       L1     1  1.00
      P1  H 10752 10765       L1    14  0.91

> <Gold.PLP.Chemscore.Internal.Correction>
0.1216

> <Gold.Rescore>
     Score         DG    S(hbond)    S(metal)    S(lipo)     H(rot)  DE(clash)    DE(int)     intcor
     23.11     -25.02       3.28        0.00     141.77       3.13       1.36       0.55       ----

> <Gold.Chemscore.Fitness>
23.1099

> <Gold.Chemscore.DG>
-25.0231

> <Gold.Chemscore.ZeroCoef>
-5.4800

> <Gold.Chemscore.Hbond>
3.2845

> <Gold.Chemscore.Metal>
0.0000

> <Gold.Chemscore.Lipo>
141.7687

> <Gold.Chemscore.Internal_Hbond>
0.0000

> <Gold.Chemscore.DEClash>
1.3648

> <Gold.Chemscore.DEInternal>
0.5484

> <Gold.Chemscore.Rot>
3.1305

> <Gold.Chemscore.Internal.Correction>
   9.000000E+99

> <Gold.Chemscore.Hbonds>
donor molecule, donor type, donor heavy atom, donor atom, acceptor molecule, acceptor atom, score
      L1  H     1    23       P1  7957  0.74
      L1  H     4    41       P1  8028  0.98
      P1  H  8011  8017       L1     1  0.34
      P1  H 10752 10765       L1    14  0.49

> <Gold.Chemscore.Hbond.Weighted>
-10.9703

> <Gold.Chemscore.Metal.Weighted>
-0.0000

> <Gold.Chemscore.Lipo.Weighted>
-16.5869

> <Gold.Chemscore.Internal_Hbond.Weighted>
0.0000

> <Gold.Chemscore.DEClash.Weighted>
1.3648

> <Gold.Chemscore.DEInternal.Weighted>
0.5484

> <Gold.Chemscore.Rot.Weighted>
8.0141

> <Gold.Chemscore.Internal.Correction.Weighted>
   9.000000E+99

> <Gold.Protein.RotatedTorsions>
[ 6907 6896 6895 6894 ] final  -32.98 input  -60.11 | X-H torsion
[ 7974 7965 7964 7962 ] final -106.51 input  175.53 | X-H torsion
[ 8008 7997 7996 7995 ] final  146.80 input   59.86 | X-H torsion
[ 10167 10162 10161 10158 ] final  178.97 input  -65.29 | X-H torsion
[ 10718 10713 10712 10709 ] final   -9.85 input   66.30 | X-H torsion
[ 10763 10752 10751 10750 ] final  164.35 input  -60.55 | X-H torsion
[ 11005 11000 10999 10996 ] final   12.84 input  -57.11 | X-H torsion

> <Gold.Protein.ActiveResidues>
 VAL166  LYS551  ARG553  GLY616  TRP617  ASP618  TYR619  PRO620  LYS621  CYS622 
 ASP623  PHE694  ASN695  SER759  ASP760  ASP761  ALA762  ILE779  LEU786  VAL792 
 PHE793  MET794  SER795  GLU796  ALA797  LYS798  CYS799  TRP800  GLU811  SER814 

> <Gold.Protein.RotatedAtoms>
  151.0716  134.9802  159.8311 H   0  0  0  0  0  0  0  0  0  0  0  0  # atno 6907 bound_to 6896
  152.5409  134.2292  159.8828 H   0  0  0  0  0  0  0  0  0  0  0  0  # atno 6908 bound_to 6896
  151.2317  133.4403  159.2637 H   0  0  0  0  0  0  0  0  0  0  0  0  # atno 6909 bound_to 6896
  145.2169  140.9119  143.3282 H   0  0  0  0  0  0  0  0  0  0  0  0  # atno 7974 bound_to 7965
  156.2844  140.2173  156.5435 H   0  0  0  0  0  0  0  0  0  0  0  0  # atno 8008 bound_to 7997
  154.7350  140.0492  157.0783 H   0  0  0  0  0  0  0  0  0  0  0  0  # atno 8009 bound_to 7997
  155.0304  140.3134  155.4763 H   0  0  0  0  0  0  0  0  0  0  0  0  # atno 8010 bound_to 7997
  139.5316  144.2617  152.0701 H   0  0  0  0  0  0  0  0  0  0  0  0  # atno 10167 bound_to 10162
  156.6820  130.5040  149.5968 H   0  0  0  0  0  0  0  0  0  0  0  0  # atno 10718 bound_to 10713
  154.3075  135.2758  155.2582 H   0  0  0  0  0  0  0  0  0  0  0  0  # atno 10763 bound_to 10752
  154.4991  135.5813  153.6521 H   0  0  0  0  0  0  0  0  0  0  0  0  # atno 10764 bound_to 10752
  152.9892  135.6153  154.3250 H   0  0  0  0  0  0  0  0  0  0  0  0  # atno 10765 bound_to 10752
  140.4875  134.0873  155.7764 H   0  0  0  0  0  0  0  0  0  0  0  0  # atno 11005 bound_to 11000
  144.9802  139.3791  143.6265 LP  0  0  0  0  0  0  0  0  0  0  0  0  # atno 17320 bound_to 7965
  146.3385  139.8940  142.8804 LP  0  0  0  0  0  0  0  0  0  0  0  0  # atno 17321 bound_to 7965
  140.2081  144.4590  150.6399 LP  0  0  0  0  0  0  0  0  0  0  0  0  # atno 17342 bound_to 10162
  140.6498  143.2222  151.6104 LP  0  0  0  0  0  0  0  0  0  0  0  0  # atno 17343 bound_to 10162
  156.1860  130.6530  151.1007 LP  0  0  0  0  0  0  0  0  0  0  0  0  # atno 17370 bound_to 10713
  157.7040  131.0764  150.6728 LP  0  0  0  0  0  0  0  0  0  0  0  0  # atno 17371 bound_to 10713
  141.1501  133.8985  157.2120 LP  0  0  0  0  0  0  0  0  0  0  0  0  # atno 17394 bound_to 11000
  139.9789  135.0105  156.9700 LP  0  0  0  0  0  0  0  0  0  0  0  0  # atno 17395 bound_to 11000

$$$$
