AV-unprocessed.smi:1367|AV-procd|sdf|5573|dock7
  -GOLD-   22720 5163D 1   1.00000     0.00000
 Structure written by MMmdl.
 30 30  0  0  0  0  0  0  0  0  1 V2000
  146.2113  138.1299  152.5552 C   0  0  0  0  0  0  0  0  0  0  0  0
  147.1202  139.1583  153.1925 C   0  0  0  0  0  0  0  0  0  0  0  0
  146.5151  140.3883  153.3911 N   0  0  0  0  0  0  0  0  0  0  0  0
  147.2670  141.3932  153.9737 C   0  0  0  0  0  0  0  0  0  0  0  0
  146.5281  142.7074  154.1566 C   0  0  0  0  0  0  0  0  0  0  0  0
  148.5583  141.1848  154.3362 C   0  0  0  0  0  0  0  0  0  0  0  0
  149.4213  142.2696  154.9813 C   0  0  0  0  0  0  0  0  0  0  0  0
  150.0886  141.8886  156.3042 C   0  0  0  0  0  0  0  0  0  0  0  0
  150.1916  140.7042  156.6216 O   0  0  0  0  0  0  0  0  0  0  0  0
  150.5353  142.8994  157.0646 N   0  0  0  0  0  0  0  0  0  0  0  0
  151.1487  142.7559  158.3802 C   0  0  0  0  0  0  0  0  0  0  0  0
  151.7232  144.0871  158.8945 C   0  0  0  0  0  0  0  0  0  0  0  0
  152.2936  143.8864  160.0816 F   0  0  0  0  0  0  0  0  0  0  0  0
  152.6459  144.5486  158.0500 F   0  0  0  0  0  0  0  0  0  0  0  0
  150.7622  145.0003  159.0343 F   0  0  0  0  0  0  0  0  0  0  0  0
  149.1533  139.8496  154.0899 C   0  0  0  0  0  0  0  0  0  0  0  0
  150.3234  139.6025  154.3792 O   0  0  0  0  0  0  0  0  0  0  0  0
  148.3458  138.8625  153.5025 N   0  0  0  0  0  0  0  0  0  0  0  0
  145.5585  140.5870  153.1358 H   0  0  0  0  0  0  0  0  0  0  0  0
  146.7037  137.1584  152.4940 H   0  0  0  0  0  0  0  0  0  0  0  0
  145.9386  138.4386  151.5456 H   0  0  0  0  0  0  0  0  0  0  0  0
  145.2987  138.0118  153.1404 H   0  0  0  0  0  0  0  0  0  0  0  0
  146.4942  142.9835  155.2106 H   0  0  0  0  0  0  0  0  0  0  0  0
  145.5010  142.6439  153.7949 H   0  0  0  0  0  0  0  0  0  0  0  0
  147.0269  143.5052  153.6060 H   0  0  0  0  0  0  0  0  0  0  0  0
  148.8482  143.1838  155.1378 H   0  0  0  0  0  0  0  0  0  0  0  0
  150.2008  142.5525  154.2730 H   0  0  0  0  0  0  0  0  0  0  0  0
  150.4111  143.8407  156.7212 H   0  0  0  0  0  0  0  0  0  0  0  0
  150.4323  142.3473  159.0949 H   0  0  0  0  0  0  0  0  0  0  0  0
  151.9494  142.0209  158.2947 H   0  0  0  0  0  0  0  0  0  0  0  0
  1 20  1  0  0  0  0
  1 21  1  0  0  0  0
  1 22  1  0  0  0  0
  1  2  1  0  0  0  0
  2  3  1  0  0  0  0
  2 18  2  0  0  0  0
  3  4  1  0  0  0  0
  3 19  1  0  0  0  0
  4  6  2  0  0  0  0
  4  5  1  0  0  0  0
  5 23  1  0  0  0  0
  5 24  1  0  0  0  0
  5 25  1  0  0  0  0
  6 16  1  0  0  0  0
  6  7  1  0  0  0  0
  7  8  1  0  0  0  0
  7 26  1  0  0  0  0
  7 27  1  0  0  0  0
  8  9  2  0  0  0  0
  8 10  1  0  0  0  0
 10 11  1  0  0  0  0
 10 28  1  0  0  0  0
 11 12  1  0  0  0  0
 11 29  1  0  0  0  0
 11 30  1  0  0  0  0
 12 13  1  0  0  0  0
 12 14  1  0  0  0  0
 12 15  1  0  0  0  0
 16 17  2  0  0  0  0
 16 18  1  0  0  0  0
M  END
> <s_m_source_file>
AV-unprocessed.smi

> <i_m_source_file_index>
1367

> <i_lp_mmshare_version>
43012

> <i_f3d_flags>
0

> <s_epik_input>
W0NIM11jMW5jKFtDSDNdKWMoYyg9TylbbkhdMSlbQ0gyXUMoPU8pW05IXVtDSDJdQyhGKShGKUY=

> <s_epik_cmdline>
J2VwaWtfcHl0aG9uJywgJy1waCcsICc3LjAnLCAnLXRuJywgJzgnLCAnLW1hJywgJzIwMCcsICctbWV0YWxfYmluZGluZycsICctaW1hZScsICc8aW5maWxlLm1hZT4nLCAnLW9tYWUnLCAnPG91dGZpbGUubWFlPic=

> <r_lp_tautomer_probability>
0.156392

> <r_epik_Ionization_Penalty>
0.0162169

> <r_epik_Ionization_Penalty_Charging>
0.0161253

> <r_epik_Ionization_Penalty_Neutral>
9.15634e-05

> <r_epik_State_Penalty>
1.51104

> <r_epik_Charging_Adjusted_Penalty>
1.52717

> <i_epik_Tot_Q>
0

> <i_epik_Tot_abs_Q>
0

> <r_epik_Metal_State_Penalty>
1.71038

> <b_epik_Metal_Only>
0

> <s_lp_Force_Field>
OPLS_2005

> <r_lp_Energy>
7.37455

> <b_lp_Chiralities_Consistent>
1

> <s_lp_Variant>
AV-unprocessed.smi:1367-2

> <Gold.Version>
5.8.1

> <Gold.Id.Protein>
6NUR|6NUR_protein|mol2

> <Gold.PLP.Fitness>
45.6696

> <Gold.PLP.PLP>
-38.2626

> <Gold.PLP.part.hbond>
-3.0000

> <Gold.PLP.part.metal>
0.0000

> <Gold.PLP.part.buried>
0.2365

> <Gold.PLP.part.nonpolar>
-37.7349

> <Gold.PLP.part.repulsive>
1.8035

> <Gold.PLP.ligand.clash>
0.0000

> <Gold.PLP.ligand.torsion>
0.3074

> <Gold.PLP.Chemscore.Hbond>
2.6720

> <Gold.PLP.Chemscore.CHOScore>
0.0000

> <Gold.PLP.Chemscore.Metal>
0.0000

> <Gold.Chemscore.Hbonds>
donor molecule, donor type, donor heavy atom, donor atom, acceptor molecule, acceptor atom, score
      L1  H     3    19       P1 10175  1.00
      L1  H    10    28       P1  8028  0.64
      P1  H  7989  7998       L1    17  1.00

> <Gold.PLP.Chemscore.Internal.Correction>
0.0059

> <Gold.Rescore>
     Score         DG    S(hbond)    S(metal)    S(lipo)     H(rot)  DE(clash)    DE(int)     intcor
     10.89     -15.63       2.64        0.00      52.74       1.90       2.00       2.74       ----

> <Gold.Chemscore.Fitness>
10.8877

> <Gold.Chemscore.DG>
-15.6257

> <Gold.Chemscore.ZeroCoef>
-5.4800

> <Gold.Chemscore.Hbond>
2.6441

> <Gold.Chemscore.Metal>
0.0000

> <Gold.Chemscore.Lipo>
52.7373

> <Gold.Chemscore.Internal_Hbond>
0.0000

> <Gold.Chemscore.DEClash>
1.9989

> <Gold.Chemscore.DEInternal>
2.7391

> <Gold.Chemscore.Rot>
1.8968

> <Gold.Chemscore.Internal.Correction>
   9.000000E+99

> <Gold.Chemscore.Hbonds>
donor molecule, donor type, donor heavy atom, donor atom, acceptor molecule, acceptor atom, score
      L1  H     3    19       P1 10175  0.83
      L1  H    10    28       P1  8028  0.61
      P1  H  7989  7998       L1    17  0.77

> <Gold.Chemscore.Hbond.Weighted>
-8.8313

> <Gold.Chemscore.Metal.Weighted>
-0.0000

> <Gold.Chemscore.Lipo.Weighted>
-6.1703

> <Gold.Chemscore.Internal_Hbond.Weighted>
0.0000

> <Gold.Chemscore.DEClash.Weighted>
1.9989

> <Gold.Chemscore.DEInternal.Weighted>
2.7391

> <Gold.Chemscore.Rot.Weighted>
4.8559

> <Gold.Chemscore.Internal.Correction.Weighted>
   9.000000E+99

> <Gold.Protein.RotatedTorsions>
[ 6907 6896 6895 6894 ] final  176.81 input  -60.11 | X-H torsion
[ 7974 7965 7964 7962 ] final   36.46 input  175.53 | X-H torsion
[ 8008 7997 7996 7995 ] final -163.19 input   59.86 | X-H torsion
[ 10167 10162 10161 10158 ] final  -55.01 input  -65.29 | X-H torsion
[ 10718 10713 10712 10709 ] final  -14.03 input   66.30 | X-H torsion
[ 10763 10752 10751 10750 ] final  121.38 input  -60.55 | X-H torsion
[ 11005 11000 10999 10996 ] final   36.92 input  -57.11 | X-H torsion

> <Gold.Protein.ActiveResidues>
 VAL166  LYS551  ARG553  GLY616  TRP617  ASP618  TYR619  PRO620  LYS621  CYS622 
 ASP623  PHE694  ASN695  SER759  ASP760  ASP761  ALA762  ILE779  LEU786  VAL792 
 PHE793  MET794  SER795  GLU796  ALA797  LYS798  CYS799  TRP800  GLU811  SER814 

> <Gold.Protein.RotatedAtoms>
  151.7142  133.3313  159.3298 H   0  0  0  0  0  0  0  0  0  0  0  0  # atno 6907 bound_to 6896
  150.7681  134.6506  159.6295 H   0  0  0  0  0  0  0  0  0  0  0  0  # atno 6908 bound_to 6896
  152.3693  134.6761  160.0233 H   0  0  0  0  0  0  0  0  0  0  0  0  # atno 6909 bound_to 6896
  146.1209  139.6015  142.9290 H   0  0  0  0  0  0  0  0  0  0  0  0  # atno 7974 bound_to 7965
  155.8177  140.0915  157.1867 H   0  0  0  0  0  0  0  0  0  0  0  0  # atno 8008 bound_to 7997
  154.3979  140.1442  156.3522 H   0  0  0  0  0  0  0  0  0  0  0  0  # atno 8009 bound_to 7997
  155.8299  140.3443  155.5568 H   0  0  0  0  0  0  0  0  0  0  0  0  # atno 8010 bound_to 7997
  140.6399  143.2502  151.5018 H   0  0  0  0  0  0  0  0  0  0  0  0  # atno 10167 bound_to 10162
  156.6218  130.4877  149.6162 H   0  0  0  0  0  0  0  0  0  0  0  0  # atno 10718 bound_to 10713
  153.6133  135.3426  155.2986 H   0  0  0  0  0  0  0  0  0  0  0  0  # atno 10763 bound_to 10752
  154.8614  135.4255  154.2286 H   0  0  0  0  0  0  0  0  0  0  0  0  # atno 10764 bound_to 10752
  153.3142  135.7034  153.7160 H   0  0  0  0  0  0  0  0  0  0  0  0  # atno 10765 bound_to 10752
  140.2277  134.3564  155.7977 H   0  0  0  0  0  0  0  0  0  0  0  0  # atno 11005 bound_to 11000
  145.5467  141.0416  143.2301 LP  0  0  0  0  0  0  0  0  0  0  0  0  # atno 17320 bound_to 7965
  144.7597  139.6988  143.7239 LP  0  0  0  0  0  0  0  0  0  0  0  0  # atno 17321 bound_to 7965
  139.5608  144.2161  152.1688 LP  0  0  0  0  0  0  0  0  0  0  0  0  # atno 17342 bound_to 10162
  140.1428  144.5186  150.6733 LP  0  0  0  0  0  0  0  0  0  0  0  0  # atno 17343 bound_to 10162
  156.2306  130.6792  151.1459 LP  0  0  0  0  0  0  0  0  0  0  0  0  # atno 17370 bound_to 10713
  157.7225  131.0672  150.6073 LP  0  0  0  0  0  0  0  0  0  0  0  0  # atno 17371 bound_to 10713
  141.2219  133.7228  156.8681 LP  0  0  0  0  0  0  0  0  0  0  0  0  # atno 17394 bound_to 11000
  140.1783  134.9051  157.2917 LP  0  0  0  0  0  0  0  0  0  0  0  0  # atno 17395 bound_to 11000

$$$$
