AV-unprocessed.smi:3046|AV-procd|sdf|11620|dock2
  -GOLD-   2272017 03D 1   1.00000     0.00000
 Structure written by MMmdl.
 37 37  0  0  0  0  0  0  0  0  1 V2000
  149.9412  138.6033  154.4567 C   0  0  0  0  0  0  0  0  0  0  0  0
  151.1604  138.2449  154.8859 C   0  0  0  0  0  0  0  0  0  0  0  0
  151.8402  138.8190  156.1132 C   0  0  0  0  0  0  0  0  0  0  0  0
  151.3045  140.1307  156.4533 N   0  0  0  0  0  0  0  0  0  0  0  0
  151.4746  140.7546  157.6305 C   0  0  0  0  0  0  0  0  0  0  0  0
  152.1035  140.2580  158.5661 O   0  0  0  0  0  0  0  0  0  0  0  0
  150.8339  142.1461  157.7542 C   0  0  1  0  0  0  0  0  0  0  0  0
  149.3240  142.1171  157.4407 C   0  0  0  0  0  0  0  0  0  0  0  0
  151.0696  142.6872  159.1032 N   0  0  0  0  0  0  0  0  0  0  0  0
  151.9644  143.8408  159.1721 C   0  0  1  0  0  0  0  0  0  0  0  0
  151.3258  145.0943  158.5427 C   0  0  0  0  0  0  0  0  0  0  0  0
  152.3802  144.0520  160.6466 C   0  0  0  0  0  0  0  0  0  0  0  0
  153.0633  142.9125  161.2399 N   0  0  0  0  0  0  0  0  0  0  0  0
  153.5100  141.7638  160.6200 C   0  0  0  0  0  0  0  0  0  0  0  0
  154.0866  140.9811  161.5786 C   0  0  0  0  0  0  0  0  0  0  0  0
  153.9383  141.7434  162.7709 C   0  0  0  0  0  0  0  0  0  0  0  0
  153.3235  142.8968  162.5656 N   0  0  0  0  0  0  0  0  0  0  0  0
  149.3565  139.3438  154.9827 H   0  0  0  0  0  0  0  0  0  0  0  0
  149.5115  138.1578  153.5715 H   0  0  0  0  0  0  0  0  0  0  0  0
  151.7162  137.5014  154.3330 H   0  0  0  0  0  0  0  0  0  0  0  0
  151.6650  138.1475  156.9535 H   0  0  0  0  0  0  0  0  0  0  0  0
  152.9208  138.8704  155.9680 H   0  0  0  0  0  0  0  0  0  0  0  0
  150.7800  140.6110  155.7367 H   0  0  0  0  0  0  0  0  0  0  0  0
  151.3281  142.7731  157.0101 H   0  0  0  0  0  0  0  0  0  0  0  0
  149.1341  141.7129  156.4457 H   0  0  0  0  0  0  0  0  0  0  0  0
  148.8867  143.1142  157.4676 H   0  0  0  0  0  0  0  0  0  0  0  0
  148.7778  141.5039  158.1588 H   0  0  0  0  0  0  0  0  0  0  0  0
  150.2105  142.8603  159.6063 H   0  0  0  0  0  0  0  0  0  0  0  0
  152.8712  143.5940  158.6179 H   0  0  0  0  0  0  0  0  0  0  0  0
  151.9548  145.9700  158.7038 H   0  0  0  0  0  0  0  0  0  0  0  0
  150.3448  145.3078  158.9689 H   0  0  0  0  0  0  0  0  0  0  0  0
  151.2053  144.9850  157.4651 H   0  0  0  0  0  0  0  0  0  0  0  0
  153.0122  144.9359  160.7485 H   0  0  0  0  0  0  0  0  0  0  0  0
  151.4901  144.2500  161.2449 H   0  0  0  0  0  0  0  0  0  0  0  0
  153.3846  141.6029  159.5593 H   0  0  0  0  0  0  0  0  0  0  0  0
  154.5439  140.0116  161.4484 H   0  0  0  0  0  0  0  0  0  0  0  0
  154.2561  141.4946  163.7727 H   0  0  0  0  0  0  0  0  0  0  0  0
  1  2  2  0  0  0  0
  1 18  1  0  0  0  0
  1 19  1  0  0  0  0
  2  3  1  0  0  0  0
  2 20  1  0  0  0  0
  3  4  1  0  0  0  0
  3 21  1  0  0  0  0
  3 22  1  0  0  0  0
  4  5  1  0  0  0  0
  4 23  1  0  0  0  0
  5  6  2  0  0  0  0
  5  7  1  0  0  0  0
  7  8  1  0  0  0  0
  7  9  1  0  0  0  0
  7 24  1  0  0  0  0
  8 25  1  0  0  0  0
  8 26  1  0  0  0  0
  8 27  1  0  0  0  0
  9 10  1  0  0  0  0
  9 28  1  0  0  0  0
 10 11  1  0  0  0  0
 10 12  1  0  0  0  0
 10 29  1  0  0  0  0
 11 30  1  0  0  0  0
 11 31  1  0  0  0  0
 11 32  1  0  0  0  0
 12 13  1  0  0  0  0
 12 33  1  0  0  0  0
 12 34  1  0  0  0  0
 13 17  1  0  0  0  0
 13 14  1  0  0  0  0
 14 15  2  0  0  0  0
 14 35  1  0  0  0  0
 15 16  1  0  0  0  0
 15 36  1  0  0  0  0
 16 17  2  0  0  0  0
 16 37  1  0  0  0  0
M  END
> <s_m_source_file>
AV-unprocessed.smi

> <i_m_source_file_index>
3046

> <i_lp_mmshare_version>
43012

> <i_f3d_flags>
0

> <s_epik_input>
W0NIMl09W0NIXVtDSDJdW05IXUMoPU8pW0NASF0oW0NIM10pW05IXVtDQEhdKFtDSDNdKVtDSDJdbjFbY0hdW2NIXVtjSF1uMQ==

> <s_epik_cmdline>
J2VwaWtfcHl0aG9uJywgJy1waCcsICc3LjAnLCAnLXRuJywgJzgnLCAnLW1hJywgJzIwMCcsICctbWV0YWxfYmluZGluZycsICctaW1hZScsICc8aW5maWxlLm1hZT4nLCAnLW9tYWUnLCAnPG91dGZpbGUubWFlPic=

> <r_lp_tautomer_probability>
1

> <r_epik_Ionization_Penalty>
0.950627

> <r_epik_Ionization_Penalty_Charging>
0

> <r_epik_Ionization_Penalty_Neutral>
0.950627

> <r_epik_State_Penalty>
0.994814

> <r_epik_Charging_Adjusted_Penalty>
0.994814

> <i_epik_Tot_Q>
0

> <i_epik_Tot_abs_Q>
0

> <r_epik_Metal_State_Penalty>
0.994788

> <b_epik_Metal_Only>
0

> <s_lp_Force_Field>
OPLS_2005

> <r_lp_Energy>
8.07161

> <b_lp_Chiralities_Consistent>
1

> <s_lp_Variant>
AV-unprocessed.smi:3046-8

> <Gold.Version>
5.8.1

> <Gold.Id.Protein>
6NUR|6NUR_protein|mol2

> <Gold.PLP.Fitness>
37.7049

> <Gold.PLP.PLP>
-39.7506

> <Gold.PLP.part.hbond>
0.0000

> <Gold.PLP.part.metal>
0.0000

> <Gold.PLP.part.buried>
-4.4708

> <Gold.PLP.part.nonpolar>
-34.2878

> <Gold.PLP.part.repulsive>
0.2394

> <Gold.PLP.ligand.clash>
0.0000

> <Gold.PLP.ligand.torsion>
1.1580

> <Gold.PLP.Chemscore.Hbond>
0.0000

> <Gold.PLP.Chemscore.CHOScore>
0.0000

> <Gold.PLP.Chemscore.Metal>
0.0000

> <Gold.PLP.Chemscore.Internal.Correction>
0.2703

> <Gold.Rescore>
     Score         DG    S(hbond)    S(metal)    S(lipo)     H(rot)  DE(clash)    DE(int)     intcor
     10.12     -11.93       0.00        0.00     102.71       2.17       0.15       1.66       ----

> <Gold.Chemscore.Fitness>
10.1235

> <Gold.Chemscore.DG>
-11.9323

> <Gold.Chemscore.ZeroCoef>
-5.4800

> <Gold.Chemscore.Hbond>
0.0000

> <Gold.Chemscore.Metal>
0.0000

> <Gold.Chemscore.Lipo>
102.7131

> <Gold.Chemscore.Internal_Hbond>
0.0000

> <Gold.Chemscore.DEClash>
0.1505

> <Gold.Chemscore.DEInternal>
1.6583

> <Gold.Chemscore.Rot>
2.1739

> <Gold.Chemscore.Internal.Correction>
   9.000000E+99

> <Gold.Chemscore.Hbond.Weighted>
-0.0000

> <Gold.Chemscore.Metal.Weighted>
-0.0000

> <Gold.Chemscore.Lipo.Weighted>
-12.0174

> <Gold.Chemscore.Internal_Hbond.Weighted>
0.0000

> <Gold.Chemscore.DEClash.Weighted>
0.1505

> <Gold.Chemscore.DEInternal.Weighted>
1.6583

> <Gold.Chemscore.Rot.Weighted>
5.5652

> <Gold.Chemscore.Internal.Correction.Weighted>
   9.000000E+99

> <Gold.Protein.RotatedTorsions>
[ 6907 6896 6895 6894 ] final  -28.02 input  -60.11 | X-H torsion
[ 7974 7965 7964 7962 ] final  -88.27 input  175.53 | X-H torsion
[ 8008 7997 7996 7995 ] final -131.30 input   59.86 | X-H torsion
[ 10167 10162 10161 10158 ] final  149.03 input  -65.29 | X-H torsion
[ 10718 10713 10712 10709 ] final   37.91 input   66.30 | X-H torsion
[ 10763 10752 10751 10750 ] final    5.27 input  -60.55 | X-H torsion
[ 11005 11000 10999 10996 ] final   75.41 input  -57.11 | X-H torsion

> <Gold.Protein.ActiveResidues>
 VAL166  LYS551  ARG553  GLY616  TRP617  ASP618  TYR619  PRO620  LYS621  CYS622 
 ASP623  PHE694  ASN695  SER759  ASP760  ASP761  ALA762  ILE779  LEU786  VAL792 
 PHE793  MET794  SER795  GLU796  ALA797  LYS798  CYS799  TRP800  GLU811  SER814 

> <Gold.Protein.RotatedAtoms>
  151.1388  135.0168  159.8615 H   0  0  0  0  0  0  0  0  0  0  0  0  # atno 6907 bound_to 6896
  152.5452  134.1524  159.8534 H   0  0  0  0  0  0  0  0  0  0  0  0  # atno 6908 bound_to 6896
  151.1597  133.4807  159.2627 H   0  0  0  0  0  0  0  0  0  0  0  0  # atno 6909 bound_to 6896
  145.4554  140.9561  143.1999 H   0  0  0  0  0  0  0  0  0  0  0  0  # atno 7974 bound_to 7965
  155.3101  140.0457  157.3034 H   0  0  0  0  0  0  0  0  0  0  0  0  # atno 8008 bound_to 7997
  154.5438  140.2296  155.8564 H   0  0  0  0  0  0  0  0  0  0  0  0  # atno 8009 bound_to 7997
  156.1905  140.3052  155.9329 H   0  0  0  0  0  0  0  0  0  0  0  0  # atno 8010 bound_to 7997
  139.4867  144.5634  151.7190 H   0  0  0  0  0  0  0  0  0  0  0  0  # atno 10167 bound_to 10162
  157.3526  130.7606  149.6989 H   0  0  0  0  0  0  0  0  0  0  0  0  # atno 10718 bound_to 10713
  153.2613  135.6923  153.7575 H   0  0  0  0  0  0  0  0  0  0  0  0  # atno 10763 bound_to 10752
  153.6633  135.3357  155.3134 H   0  0  0  0  0  0  0  0  0  0  0  0  # atno 10764 bound_to 10752
  154.8431  135.4482  154.1605 H   0  0  0  0  0  0  0  0  0  0  0  0  # atno 10765 bound_to 10752
  139.9345  134.7515  156.1267 H   0  0  0  0  0  0  0  0  0  0  0  0  # atno 11005 bound_to 11000
  144.8035  139.6095  143.7061 LP  0  0  0  0  0  0  0  0  0  0  0  0  # atno 17320 bound_to 7965
  146.2481  139.6140  142.9446 LP  0  0  0  0  0  0  0  0  0  0  0  0  # atno 17321 bound_to 7965
  140.5207  144.0883  150.6022 LP  0  0  0  0  0  0  0  0  0  0  0  0  # atno 17342 bound_to 10162
  140.3840  143.2787  152.0138 LP  0  0  0  0  0  0  0  0  0  0  0  0  # atno 17343 bound_to 10162
  155.9724  130.4136  150.4092 LP  0  0  0  0  0  0  0  0  0  0  0  0  # atno 17370 bound_to 10713
  157.2157  131.0470  151.2575 LP  0  0  0  0  0  0  0  0  0  0  0  0  # atno 17371 bound_to 10713
  141.0952  133.6698  156.2628 LP  0  0  0  0  0  0  0  0  0  0  0  0  # atno 17394 bound_to 11000
  140.6113  134.5456  157.5534 LP  0  0  0  0  0  0  0  0  0  0  0  0  # atno 17395 bound_to 11000

$$$$
