AV-unprocessed.smi:2701|AV-procd|sdf|10428|dock4
  -GOLD-   2272014463D 1   1.00000     0.00000
 Structure written by MMmdl.
 31 32  0  0  0  0  0  0  0  0  2 V2000
  151.1007  138.0190  153.7145 C   0  0  0  0  0  0  0  0  0  0  0  0
  151.1026  138.4705  155.1891 C   0  0  1  0  0  0  0  0  0  0  0  0
  151.0252  137.2618  156.1543 C   0  0  0  0  0  0  0  0  0  0  0  0
  151.9498  136.4482  156.1802 O   0  0  0  0  0  0  0  0  0  0  0  0
  149.8891  137.2618  156.8938 N   0  5  0  0  0  0  0  0  0  0  0  0
  149.7299  136.4465  158.2867 S   0  0  0  0  0  0  0  0  0  0  0  0
  149.3273  135.0477  158.0706 O   0  0  0  0  0  0  0  0  0  0  0  0
  150.8832  136.6762  159.1707 O   0  0  0  0  0  0  0  0  0  0  0  0
  148.2835  137.2790  159.0944 C   0  0  0  0  0  0  0  0  0  0  0  0
  147.8976  136.5757  160.3664 C   0  0  0  0  0  0  0  0  0  0  0  0
  147.6896  135.1842  160.5754 C   0  0  0  0  0  0  0  0  0  0  0  0
  147.3697  135.1041  161.8999 C   0  0  0  0  0  0  0  0  0  0  0  0
  147.3915  136.3354  162.4693 O   0  0  0  0  0  0  0  0  0  0  0  0
  147.7363  137.2677  161.4842 N   0  0  0  0  0  0  0  0  0  0  0  0
  152.2747  139.4195  155.5156 C   0  0  0  0  0  0  0  0  0  0  0  0
  151.6637  140.3914  156.5007 C   0  0  0  0  0  0  0  0  0  0  0  0
  150.2647  140.5504  155.9238 C   0  0  0  0  0  0  0  0  0  0  0  0
  149.9319  139.2729  155.3879 O   0  0  0  0  0  0  0  0  0  0  0  0
  152.0355  137.5276  153.4419 H   0  0  0  0  0  0  0  0  0  0  0  0
  150.9741  138.8708  153.0457 H   0  0  0  0  0  0  0  0  0  0  0  0
  150.2858  137.3227  153.5124 H   0  0  0  0  0  0  0  0  0  0  0  0
  148.5203  138.3267  159.2728 H   0  0  0  0  0  0  0  0  0  0  0  0
  147.4585  137.2576  158.3825 H   0  0  0  0  0  0  0  0  0  0  0  0
  147.7593  134.3760  159.8637 H   0  0  0  0  0  0  0  0  0  0  0  0
  147.1179  134.2830  162.5544 H   0  0  0  0  0  0  0  0  0  0  0  0
  153.1587  138.9240  155.9179 H   0  0  0  0  0  0  0  0  0  0  0  0
  152.5885  139.9569  154.6197 H   0  0  0  0  0  0  0  0  0  0  0  0
  151.6158  139.9473  157.4957 H   0  0  0  0  0  0  0  0  0  0  0  0
  152.2079  141.3334  156.5686 H   0  0  0  0  0  0  0  0  0  0  0  0
  149.5371  140.8737  156.6683 H   0  0  0  0  0  0  0  0  0  0  0  0
  150.2686  141.2790  155.1122 H   0  0  0  0  0  0  0  0  0  0  0  0
  1  2  1  0  0  0  0
  1 19  1  0  0  0  0
  1 20  1  0  0  0  0
  1 21  1  0  0  0  0
  2 18  1  0  0  0  0
  2  3  1  0  0  0  0
  2 15  1  0  0  0  0
  3  4  2  0  0  0  0
  3  5  1  0  0  0  0
  5  6  1  0  0  0  0
  6  7  2  0  0  0  0
  6  8  2  0  0  0  0
  6  9  1  0  0  0  0
  9 10  1  0  0  0  0
  9 22  1  0  0  0  0
  9 23  1  0  0  0  0
 10 14  2  0  0  0  0
 10 11  1  0  0  0  0
 11 12  2  0  0  0  0
 11 24  1  0  0  0  0
 12 13  1  0  0  0  0
 12 25  1  0  0  0  0
 13 14  1  0  0  0  0
 15 16  1  0  0  0  0
 15 26  1  0  0  0  0
 15 27  1  0  0  0  0
 16 17  1  0  0  0  0
 16 28  1  0  0  0  0
 16 29  1  0  0  0  0
 17 18  1  0  0  0  0
 17 30  1  0  0  0  0
 17 31  1  0  0  0  0
M  CHG  1   5  -1
M  END
> <s_m_source_file>
AV-unprocessed.smi

> <i_m_source_file_index>
2701

> <i_lp_mmshare_version>
43012

> <i_f3d_flags>
0

> <s_epik_input>
TzFbQ0gyXVtDSDJdW0NIMl1bQ0BAXTEoW0NIM10pQyg9TylbTkhdUyg9TykoPU8pW0NIMl1jMltjSF1bY0hdb24y

> <s_epik_cmdline>
J2VwaWtfcHl0aG9uJywgJy1waCcsICc3LjAnLCAnLXRuJywgJzgnLCAnLW1hJywgJzIwMCcsICctbWV0YWxfYmluZGluZycsICctaW1hZScsICc8aW5maWxlLm1hZT4nLCAnLW9tYWUnLCAnPG91dGZpbGUubWFlPic=

> <r_lp_tautomer_probability>
1

> <r_epik_Ionization_Penalty>
0.000279175

> <r_epik_Ionization_Penalty_Charging>
0.000279174

> <r_epik_Ionization_Penalty_Neutral>
1.67252e-10

> <r_epik_State_Penalty>
-0

> <r_epik_Charging_Adjusted_Penalty>
0.000279174

> <i_epik_Tot_Q>
-1

> <i_epik_Tot_abs_Q>
1

> <r_epik_Metal_State_Penalty>
-0

> <b_epik_Metal_Only>
0

> <s_lp_Force_Field>
OPLS_2005

> <r_lp_Energy>
15.6344

> <b_lp_Chiralities_Consistent>
1

> <s_lp_Variant>
AV-unprocessed.smi:2701-1

> <Gold.Version>
5.8.1

> <Gold.Id.Protein>
6NUR|6NUR_protein|mol2

> <Gold.PLP.Fitness>
38.3176

> <Gold.PLP.PLP>
-26.1232

> <Gold.PLP.part.hbond>
-5.0000

> <Gold.PLP.part.metal>
0.0000

> <Gold.PLP.part.buried>
-2.9000

> <Gold.PLP.part.nonpolar>
-18.2474

> <Gold.PLP.part.repulsive>
0.0465

> <Gold.PLP.ligand.clash>
0.0000

> <Gold.PLP.ligand.torsion>
0.8919

> <Gold.PLP.Chemscore.Hbond>
4.2960

> <Gold.PLP.Chemscore.CHOScore>
0.0000

> <Gold.PLP.Chemscore.Metal>
0.0000

> <Gold.Chemscore.Hbonds>
donor molecule, donor type, donor heavy atom, donor atom, acceptor molecule, acceptor atom, score
      P1  H  6896  6907       L1     7  0.73
      P1  H  6896  6908       L1     8  0.56
      P1  H  6931  6943       L1    14  0.98
      P1  H  6934  6947       L1    14  0.74
      P1  H 10752 10764       L1     4  1.00

> <Gold.PLP.Chemscore.Internal.Correction>
1.0903

> <Gold.Rescore>
     Score         DG    S(hbond)    S(metal)    S(lipo)     H(rot)  DE(clash)    DE(int)     intcor
     16.89     -19.76       3.41        0.00      58.67       1.56       0.91       1.95       ----

> <Gold.Chemscore.Fitness>
16.8891

> <Gold.Chemscore.DG>
-19.7554

> <Gold.Chemscore.ZeroCoef>
-5.4800

> <Gold.Chemscore.Hbond>
3.4139

> <Gold.Chemscore.Metal>
0.0000

> <Gold.Chemscore.Lipo>
58.6690

> <Gold.Chemscore.Internal_Hbond>
0.0000

> <Gold.Chemscore.DEClash>
0.9123

> <Gold.Chemscore.DEInternal>
1.9540

> <Gold.Chemscore.Rot>
1.5591

> <Gold.Chemscore.Internal.Correction>
   9.000000E+99

> <Gold.Chemscore.Hbonds>
donor molecule, donor type, donor heavy atom, donor atom, acceptor molecule, acceptor atom, score
      P1  H  6896  6907       L1     7  0.21
      P1  H  6896  6908       L1     8  0.53
      P1  H  6931  6943       L1    14  0.75
      P1  H  6934  6947       L1    14  0.41
      P1  H 10752 10764       L1     4  0.95

> <Gold.Chemscore.Hbond.Weighted>
-11.4025

> <Gold.Chemscore.Metal.Weighted>
-0.0000

> <Gold.Chemscore.Lipo.Weighted>
-6.8643

> <Gold.Chemscore.Internal_Hbond.Weighted>
0.0000

> <Gold.Chemscore.DEClash.Weighted>
0.9123

> <Gold.Chemscore.DEInternal.Weighted>
1.9540

> <Gold.Chemscore.Rot.Weighted>
3.9914

> <Gold.Chemscore.Internal.Correction.Weighted>
   9.000000E+99

> <Gold.Protein.RotatedTorsions>
[ 6907 6896 6895 6894 ] final -106.01 input  -60.11 | X-H torsion
[ 7974 7965 7964 7962 ] final   16.28 input  175.53 | X-H torsion
[ 8008 7997 7996 7995 ] final  -37.88 input   59.86 | X-H torsion
[ 10167 10162 10161 10158 ] final -125.51 input  -65.29 | X-H torsion
[ 10718 10713 10712 10709 ] final   37.45 input   66.30 | X-H torsion
[ 10763 10752 10751 10750 ] final  -14.56 input  -60.55 | X-H torsion
[ 11005 11000 10999 10996 ] final  -17.73 input  -57.11 | X-H torsion

> <Gold.Protein.ActiveResidues>
 VAL166  LYS551  ARG553  GLY616  TRP617  ASP618  TYR619  PRO620  LYS621  CYS622 
 ASP623  PHE694  ASN695  SER759  ASP760  ASP761  ALA762  ILE779  LEU786  VAL792 
 PHE793  MET794  SER795  GLU796  ALA797  LYS798  CYS799  TRP800  GLU811  SER814 

> <Gold.Protein.RotatedAtoms>
  150.7367  134.0040  159.3647 H   0  0  0  0  0  0  0  0  0  0  0  0  # atno 6907 bound_to 6896
  151.7995  135.0710  160.0408 H   0  0  0  0  0  0  0  0  0  0  0  0  # atno 6908 bound_to 6896
  152.3150  133.5757  159.5742 H   0  0  0  0  0  0  0  0  0  0  0  0  # atno 6909 bound_to 6896
  146.2254  139.8770  142.8577 H   0  0  0  0  0  0  0  0  0  0  0  0  # atno 7974 bound_to 7965
  154.4046  140.1592  156.2609 H   0  0  0  0  0  0  0  0  0  0  0  0  # atno 8008 bound_to 7997
  155.9037  140.3431  155.6023 H   0  0  0  0  0  0  0  0  0  0  0  0  # atno 8009 bound_to 7997
  155.7418  140.0793  157.2233 H   0  0  0  0  0  0  0  0  0  0  0  0  # atno 8010 bound_to 7997
  139.9813  143.5739  152.2377 H   0  0  0  0  0  0  0  0  0  0  0  0  # atno 10167 bound_to 10162
  157.3471  130.7578  149.6952 H   0  0  0  0  0  0  0  0  0  0  0  0  # atno 10718 bound_to 10713
  153.5301  135.7014  153.5687 H   0  0  0  0  0  0  0  0  0  0  0  0  # atno 10763 bound_to 10752
  153.3698  135.3947  155.1780 H   0  0  0  0  0  0  0  0  0  0  0  0  # atno 10764 bound_to 10752
  154.8685  135.3809  154.4797 H   0  0  0  0  0  0  0  0  0  0  0  0  # atno 10765 bound_to 10752
  140.8198  133.8077  155.9648 H   0  0  0  0  0  0  0  0  0  0  0  0  # atno 11005 bound_to 11000
  145.2550  141.0057  143.3859 LP  0  0  0  0  0  0  0  0  0  0  0  0  # atno 17320 bound_to 7965
  144.9344  139.4261  143.6479 LP  0  0  0  0  0  0  0  0  0  0  0  0  # atno 17321 bound_to 7965
  139.6408  144.7654  151.2343 LP  0  0  0  0  0  0  0  0  0  0  0  0  # atno 17342 bound_to 10162
  140.7488  143.6321  150.8413 LP  0  0  0  0  0  0  0  0  0  0  0  0  # atno 17343 bound_to 10162
  155.9716  130.4151  150.4165 LP  0  0  0  0  0  0  0  0  0  0  0  0  # atno 17370 bound_to 10713
  157.2222  131.0485  151.2540 LP  0  0  0  0  0  0  0  0  0  0  0  0  # atno 17371 bound_to 10713
  140.9111  134.2259  157.4985 LP  0  0  0  0  0  0  0  0  0  0  0  0  # atno 17394 bound_to 11000
  139.8709  134.9750  156.4868 LP  0  0  0  0  0  0  0  0  0  0  0  0  # atno 17395 bound_to 11000

$$$$
