AV-unprocessed.smi:2858|AV-procd|sdf|11002|dock2
  -GOLD-   2272015463D 1   1.00000     0.00000
 Structure written by MMmdl.
 39 40  0  0  0  0  0  0  0  0  3 V2000
  151.9085  136.4538  155.5060 O   0  0  0  0  0  0  0  0  0  0  0  0
  150.6974  136.4550  155.2969 C   0  0  0  0  0  0  0  0  0  0  0  0
  150.0503  137.8189  154.9332 C   0  0  0  0  0  0  0  0  0  0  0  0
  148.7263  137.6594  154.2644 N   0  3  2  0  0  0  0  0  0  0  0  0
  148.0596  138.9539  153.9751 C   0  0  0  0  0  0  0  0  0  0  0  0
  148.3733  140.0229  155.0346 C   0  0  0  0  0  0  0  0  0  0  0  0
  149.6412  140.8243  154.6992 C   0  0  0  0  0  0  0  0  0  0  0  0
  149.7677  141.9994  155.5533 N   0  0  0  0  0  0  0  0  0  0  0  0
  150.5088  142.0601  156.6692 C   0  0  0  0  0  0  0  0  0  0  0  0
  151.1834  141.1177  157.0858 O   0  0  0  0  0  0  0  0  0  0  0  0
  150.4044  143.2642  157.2584 N   0  0  0  0  0  0  0  0  0  0  0  0
  151.0426  143.7207  158.4423 C   0  0  0  0  0  0  0  0  0  0  0  0
  151.4817  142.7005  159.3159 C   0  0  0  0  0  0  0  0  0  0  0  0
  152.1230  143.0483  160.5204 C   0  0  0  0  0  0  0  0  0  0  0  0
  152.3087  144.4095  160.8211 C   0  0  0  0  0  0  0  0  0  0  0  0
  151.8420  145.3623  159.8968 C   0  0  0  0  0  0  0  0  0  0  0  0
  151.2276  145.0311  158.7413 N   0  0  0  0  0  0  0  0  0  0  0  0
  147.8447  136.7141  154.9970 C   0  0  0  0  0  0  0  0  0  0  0  0
  148.4619  135.3026  155.0066 C   0  0  0  0  0  0  0  0  0  0  0  0
  149.8723  135.3676  155.4048 N   0  5  0  0  0  0  0  0  0  0  0  0
  149.9372  138.4016  155.8485 H   0  0  0  0  0  0  0  0  0  0  0  0
  150.7361  138.3631  154.2843 H   0  0  0  0  0  0  0  0  0  0  0  0
  148.4067  139.3278  153.0109 H   0  0  0  0  0  0  0  0  0  0  0  0
  146.9832  138.8050  153.8787 H   0  0  0  0  0  0  0  0  0  0  0  0
  147.5380  140.7156  155.1353 H   0  0  0  0  0  0  0  0  0  0  0  0
  148.4927  139.5384  156.0047 H   0  0  0  0  0  0  0  0  0  0  0  0
  150.5290  140.1961  154.7906 H   0  0  0  0  0  0  0  0  0  0  0  0
  149.6049  141.1611  153.6628 H   0  0  0  0  0  0  0  0  0  0  0  0
  149.2448  142.8192  155.2820 H   0  0  0  0  0  0  0  0  0  0  0  0
  149.7994  143.9341  156.8072 H   0  0  0  0  0  0  0  0  0  0  0  0
  151.3305  141.6593  159.0696 H   0  0  0  0  0  0  0  0  0  0  0  0
  152.4656  142.2833  161.2014 H   0  0  0  0  0  0  0  0  0  0  0  0
  152.7951  144.7155  161.7355 H   0  0  0  0  0  0  0  0  0  0  0  0
  151.9643  146.4178  160.0895 H   0  0  0  0  0  0  0  0  0  0  0  0
  147.6907  137.0737  156.0159 H   0  0  0  0  0  0  0  0  0  0  0  0
  146.8626  136.6644  154.5258 H   0  0  0  0  0  0  0  0  0  0  0  0
  147.8806  134.6588  155.6662 H   0  0  0  0  0  0  0  0  0  0  0  0
  148.3627  134.8734  154.0092 H   0  0  0  0  0  0  0  0  0  0  0  0
  148.9056  137.2171  153.3745 H   0  0  0  0  0  0  0  0  0  0  0  0
  1  2  2  0  0  0  0
  2 20  1  0  0  0  0
  2  3  1  0  0  0  0
  3  4  1  0  0  0  0
  3 21  1  0  0  0  0
  3 22  1  0  0  0  0
  4  5  1  0  0  0  0
  4 18  1  0  0  0  0
  4 39  1  0  0  0  0
  5  6  1  0  0  0  0
  5 23  1  0  0  0  0
  5 24  1  0  0  0  0
  6  7  1  0  0  0  0
  6 25  1  0  0  0  0
  6 26  1  0  0  0  0
  7  8  1  0  0  0  0
  7 27  1  0  0  0  0
  7 28  1  0  0  0  0
  8  9  1  0  0  0  0
  8 29  1  0  0  0  0
  9 10  2  0  0  0  0
  9 11  1  0  0  0  0
 11 12  1  0  0  0  0
 11 30  1  0  0  0  0
 12 17  1  0  0  0  0
 12 13  2  0  0  0  0
 13 14  1  0  0  0  0
 13 31  1  0  0  0  0
 14 15  2  0  0  0  0
 14 32  1  0  0  0  0
 15 16  1  0  0  0  0
 15 33  1  0  0  0  0
 16 17  2  0  0  0  0
 16 34  1  0  0  0  0
 18 19  1  0  0  0  0
 18 35  1  0  0  0  0
 18 36  1  0  0  0  0
 19 20  1  0  0  0  0
 19 37  1  0  0  0  0
 19 38  1  0  0  0  0
M  CHG  1   4   1
M  CHG  1  20  -1
M  END
> <s_m_source_file>
AV-unprocessed.smi

> <i_m_source_file_index>
2858

> <i_lp_mmshare_version>
43012

> <i_f3d_flags>
0

> <s_epik_input>
Tz1DMVtDSDJdTihbQ0gyXVtDSDJdW05IXTEpW0NIMl1bQ0gyXVtDSDJdW05IXUMoPU8pW05IXWMyW2NIXVtjSF1bY0hdW2NIXW4y

> <s_epik_cmdline>
J2VwaWtfcHl0aG9uJywgJy1waCcsICc3LjAnLCAnLXRuJywgJzgnLCAnLW1hJywgJzIwMCcsICctbWV0YWxfYmluZGluZycsICctaW1hZScsICc8aW5maWxlLm1hZT4nLCAnLW9tYWUnLCAnPG91dGZpbGUubWFlPic=

> <r_epik_Ionization_Penalty>
5.09835

> <r_epik_Ionization_Penalty_Charging>
5.09831

> <r_epik_Ionization_Penalty_Neutral>
4.20822e-05

> <r_epik_State_Penalty>
5.19693

> <r_epik_Charging_Adjusted_Penalty>
10.2952

> <i_epik_Tot_Q>
0

> <i_epik_Tot_abs_Q>
2

> <r_epik_Metal_State_Penalty>
1.27693

> <b_epik_Metal_Only>
1

> <s_lp_Force_Field>
OPLS_2005

> <r_lp_Energy>
13.8629

> <b_lp_Chiralities_Consistent>
1

> <s_lp_Variant>
AV-unprocessed.smi:2858-4

> <Gold.Version>
5.8.1

> <Gold.Id.Protein>
6NUR|6NUR_protein|mol2

> <Gold.PLP.Fitness>
45.9035

> <Gold.PLP.PLP>
-32.7628

> <Gold.PLP.part.hbond>
-3.9972

> <Gold.PLP.part.metal>
0.0000

> <Gold.PLP.part.buried>
-6.4718

> <Gold.PLP.part.nonpolar>
-23.6723

> <Gold.PLP.part.repulsive>
0.4950

> <Gold.PLP.ligand.clash>
0.0000

> <Gold.PLP.ligand.torsion>
0.8784

> <Gold.PLP.Chemscore.Hbond>
4.9440

> <Gold.PLP.Chemscore.CHOScore>
0.0000

> <Gold.PLP.Chemscore.Metal>
0.0000

> <Gold.Chemscore.Hbonds>
donor molecule, donor type, donor heavy atom, donor atom, acceptor molecule, acceptor atom, score
      L1  H     4    39       P1  7948  2.00
      L1  H     8    29       P1  8028  0.93
      L1  H    11    30       P1  8028  1.00
      P1  H 10752 10764       L1     1  0.99

> <Gold.PLP.Chemscore.Internal.Correction>
0.0654

> <Gold.Rescore>
     Score         DG    S(hbond)    S(metal)    S(lipo)     H(rot)  DE(clash)    DE(int)     intcor
     19.44     -21.75       3.93        0.00      71.00       2.02       0.01       2.30       ----

> <Gold.Chemscore.Fitness>
19.4396

> <Gold.Chemscore.DG>
-21.7465

> <Gold.Chemscore.ZeroCoef>
-5.4800

> <Gold.Chemscore.Hbond>
3.9323

> <Gold.Chemscore.Metal>
0.0000

> <Gold.Chemscore.Lipo>
70.9996

> <Gold.Chemscore.Internal_Hbond>
0.0000

> <Gold.Chemscore.DEClash>
0.0111

> <Gold.Chemscore.DEInternal>
2.2958

> <Gold.Chemscore.Rot>
2.0213

> <Gold.Chemscore.Internal.Correction>
   9.000000E+99

> <Gold.Chemscore.Hbonds>
donor molecule, donor type, donor heavy atom, donor atom, acceptor molecule, acceptor atom, score
      L1  H     4    39       P1  7948  1.00
      L1  H     8    29       P1  8028  0.89
      L1  H    11    30       P1  8028  0.96
      P1  H 10752 10764       L1     1  0.93

> <Gold.Chemscore.Hbond.Weighted>
-13.1340

> <Gold.Chemscore.Metal.Weighted>
-0.0000

> <Gold.Chemscore.Lipo.Weighted>
-8.3069

> <Gold.Chemscore.Internal_Hbond.Weighted>
0.0000

> <Gold.Chemscore.DEClash.Weighted>
0.0111

> <Gold.Chemscore.DEInternal.Weighted>
2.2958

> <Gold.Chemscore.Rot.Weighted>
5.1744

> <Gold.Chemscore.Internal.Correction.Weighted>
   9.000000E+99

> <Gold.Protein.RotatedTorsions>
[ 6907 6896 6895 6894 ] final -163.23 input  -60.11 | X-H torsion
[ 7974 7965 7964 7962 ] final  -58.51 input  175.53 | X-H torsion
[ 8008 7997 7996 7995 ] final   94.66 input   59.86 | X-H torsion
[ 10167 10162 10161 10158 ] final -106.01 input  -65.29 | X-H torsion
[ 10718 10713 10712 10709 ] final   34.84 input   66.30 | X-H torsion
[ 10763 10752 10751 10750 ] final  -63.98 input  -60.55 | X-H torsion
[ 11005 11000 10999 10996 ] final  100.24 input  -57.11 | X-H torsion

> <Gold.Protein.ActiveResidues>
 VAL166  LYS551  ARG553  GLY616  TRP617  ASP618  TYR619  PRO620  LYS621  CYS622 
 ASP623  PHE694  ASN695  SER759  ASP760  ASP761  ALA762  ILE779  LEU786  VAL792 
 PHE793  MET794  SER795  GLU796  ALA797  LYS798  CYS799  TRP800  GLU811  SER814 

> <Gold.Protein.RotatedAtoms>
  151.3927  133.3783  159.2722 H   0  0  0  0  0  0  0  0  0  0  0  0  # atno 6907 bound_to 6896
  150.9493  134.8895  159.7672 H   0  0  0  0  0  0  0  0  0  0  0  0  # atno 6908 bound_to 6896
  152.5105  134.3882  159.9427 H   0  0  0  0  0  0  0  0  0  0  0  0  # atno 6909 bound_to 6896
  145.8385  140.8433  143.0047 H   0  0  0  0  0  0  0  0  0  0  0  0  # atno 7974 bound_to 7965
  156.0604  140.3297  155.7455 H   0  0  0  0  0  0  0  0  0  0  0  0  # atno 8008 bound_to 7997
  155.5464  140.0606  157.2877 H   0  0  0  0  0  0  0  0  0  0  0  0  # atno 8009 bound_to 7997
  154.4478  140.1902  156.0630 H   0  0  0  0  0  0  0  0  0  0  0  0  # atno 8010 bound_to 7997
  140.1924  143.3882  152.1196 H   0  0  0  0  0  0  0  0  0  0  0  0  # atno 10167 bound_to 10162
  157.3153  130.7420  149.6750 H   0  0  0  0  0  0  0  0  0  0  0  0  # atno 10718 bound_to 10713
  154.3232  135.6192  153.5517 H   0  0  0  0  0  0  0  0  0  0  0  0  # atno 10763 bound_to 10752
  152.9818  135.5729  154.5046 H   0  0  0  0  0  0  0  0  0  0  0  0  # atno 10764 bound_to 10752
  154.4719  135.2859  155.1613 H   0  0  0  0  0  0  0  0  0  0  0  0  # atno 10765 bound_to 10752
  139.8771  134.9131  156.4726 H   0  0  0  0  0  0  0  0  0  0  0  0  # atno 11005 bound_to 11000
  144.6735  140.0777  143.7470 LP  0  0  0  0  0  0  0  0  0  0  0  0  # atno 17320 bound_to 7965
  145.9492  139.2722  143.1222 LP  0  0  0  0  0  0  0  0  0  0  0  0  # atno 17321 bound_to 7965
  139.5250  144.7091  151.5262 LP  0  0  0  0  0  0  0  0  0  0  0  0  # atno 17342 bound_to 10162
  140.6447  143.8819  150.6725 LP  0  0  0  0  0  0  0  0  0  0  0  0  # atno 17343 bound_to 10162
  155.9681  130.4239  150.4585 LP  0  0  0  0  0  0  0  0  0  0  0  0  # atno 17370 bound_to 10713
  157.2590  131.0563  151.2332 LP  0  0  0  0  0  0  0  0  0  0  0  0  # atno 17371 bound_to 10713
  140.8785  133.7936  155.9440 LP  0  0  0  0  0  0  0  0  0  0  0  0  # atno 17394 bound_to 11000
  140.8879  134.2531  157.5110 LP  0  0  0  0  0  0  0  0  0  0  0  0  # atno 17395 bound_to 11000

$$$$
