AV-unprocessed.smi:67|AV-procd|sdf|630|dock5
  -GOLD-   2262016523D 1   1.00000     0.00000
 Structure written by MMmdl.
 49 51  0  0  0  0  0  0  0  0  3 V2000
  147.1940  139.5586  155.2138 O   0  0  0  0  0  0  0  0  0  0  0  0
  148.1402  139.5576  154.1585 C   0  0  2  0  0  0  0  0  0  0  0  0
  149.2011  138.4730  154.4508 C   0  0  0  0  0  0  0  0  0  0  0  0
  150.2625  138.9661  155.3687 N   0  3  2  0  0  0  0  0  0  0  0  0
  151.5653  138.2769  155.1792 C   0  0  0  0  0  0  0  0  0  0  0  0
  152.6805  138.9741  155.9758 C   0  0  0  0  0  0  0  0  0  0  0  0
  152.2906  139.1099  157.4633 C   0  0  1  0  0  0  0  0  0  0  0  0
  153.3047  139.6765  158.2973 O   0  0  0  0  0  0  0  0  0  0  0  0
  153.0933  140.7732  159.1121 C   0  0  0  0  0  0  0  0  0  0  0  0
  153.3998  140.5909  160.4763 C   0  0  0  0  0  0  0  0  0  0  0  0
  153.2268  141.6338  161.4053 C   0  0  0  0  0  0  0  0  0  0  0  0
  152.7412  142.8829  160.9794 C   0  0  0  0  0  0  0  0  0  0  0  0
  152.4269  143.0898  159.6199 C   0  0  0  0  0  0  0  0  0  0  0  0
  151.8978  144.4279  159.1262 C   0  0  0  0  0  0  0  0  0  0  0  0
  150.6539  144.2726  158.6730 F   0  0  0  0  0  0  0  0  0  0  0  0
  151.8862  145.3497  160.0895 F   0  0  0  0  0  0  0  0  0  0  0  0
  152.6643  144.8668  158.1280 F   0  0  0  0  0  0  0  0  0  0  0  0
  152.6043  142.0374  158.6969 C   0  0  0  0  0  0  0  0  0  0  0  0
  150.8812  139.7058  157.6674 C   0  0  0  0  0  0  0  0  0  0  0  0
  149.8485  138.9731  156.7962 C   0  0  0  0  0  0  0  0  0  0  0  0
  148.7341  140.9642  154.0391 C   0  0  0  0  0  0  0  0  0  0  0  0
  147.6899  141.7468  153.2384 C   0  0  0  0  0  0  0  0  0  0  0  0
  146.9723  140.7559  152.4133 N   0  3  0  0  0  0  0  0  0  0  0  0
  147.4054  139.4028  152.8170 C   0  0  0  0  0  0  0  0  0  0  0  0
  146.3404  139.3558  154.8604 H   0  0  0  0  0  0  0  0  0  0  0  0
  148.7257  137.5838  154.8685 H   0  0  0  0  0  0  0  0  0  0  0  0
  149.6394  138.1449  153.5065 H   0  0  0  0  0  0  0  0  0  0  0  0
  151.4754  137.2331  155.4849 H   0  0  0  0  0  0  0  0  0  0  0  0
  151.8323  138.2769  154.1214 H   0  0  0  0  0  0  0  0  0  0  0  0
  153.6034  138.3996  155.8909 H   0  0  0  0  0  0  0  0  0  0  0  0
  152.8879  139.9346  155.5119 H   0  0  0  0  0  0  0  0  0  0  0  0
  152.2221  138.0859  157.8331 H   0  0  0  0  0  0  0  0  0  0  0  0
  153.7737  139.6363  160.8167 H   0  0  0  0  0  0  0  0  0  0  0  0
  153.4672  141.4742  162.4462 H   0  0  0  0  0  0  0  0  0  0  0  0
  152.6132  143.6744  161.7028 H   0  0  0  0  0  0  0  0  0  0  0  0
  152.3513  142.2439  157.6723 H   0  0  0  0  0  0  0  0  0  0  0  0
  150.5981  139.6222  158.7171 H   0  0  0  0  0  0  0  0  0  0  0  0
  150.8405  140.7664  157.4346 H   0  0  0  0  0  0  0  0  0  0  0  0
  148.8805  139.4626  156.9027 H   0  0  0  0  0  0  0  0  0  0  0  0
  149.7226  137.9462  157.1436 H   0  0  0  0  0  0  0  0  0  0  0  0
  148.9616  141.4238  155.0019 H   0  0  0  0  0  0  0  0  0  0  0  0
  149.6635  140.9266  153.4685 H   0  0  0  0  0  0  0  0  0  0  0  0
  146.9724  142.2177  153.9111 H   0  0  0  0  0  0  0  0  0  0  0  0
  148.1371  142.5283  152.6238 H   0  0  0  0  0  0  0  0  0  0  0  0
  145.9801  140.8573  152.5747 H   0  0  0  0  0  0  0  0  0  0  0  0
  148.0938  139.0450  152.0508 H   0  0  0  0  0  0  0  0  0  0  0  0
  146.5675  138.7056  152.8606 H   0  0  0  0  0  0  0  0  0  0  0  0
  147.1719  140.9016  151.4338 H   0  0  0  0  0  0  0  0  0  0  0  0
  150.4218  139.9293  155.1085 H   0  0  0  0  0  0  0  0  0  0  0  0
  1  2  1  0  0  0  0
  1 25  1  0  0  0  0
  2 24  1  0  0  0  0
  2  3  1  0  0  0  0
  2 21  1  0  0  0  0
  3  4  1  0  0  0  0
  3 26  1  0  0  0  0
  3 27  1  0  0  0  0
  4 20  1  0  0  0  0
  4  5  1  0  0  0  0
  4 49  1  0  0  0  0
  5  6  1  0  0  0  0
  5 28  1  0  0  0  0
  5 29  1  0  0  0  0
  6  7  1  0  0  0  0
  6 30  1  0  0  0  0
  6 31  1  0  0  0  0
  7  8  1  0  0  0  0
  7 19  1  0  0  0  0
  7 32  1  0  0  0  0
  8  9  1  0  0  0  0
  9 18  1  0  0  0  0
  9 10  2  0  0  0  0
 10 11  1  0  0  0  0
 10 33  1  0  0  0  0
 11 12  2  0  0  0  0
 11 34  1  0  0  0  0
 12 13  1  0  0  0  0
 12 35  1  0  0  0  0
 13 14  1  0  0  0  0
 13 18  2  0  0  0  0
 14 15  1  0  0  0  0
 14 16  1  0  0  0  0
 14 17  1  0  0  0  0
 18 36  1  0  0  0  0
 19 20  1  0  0  0  0
 19 37  1  0  0  0  0
 19 38  1  0  0  0  0
 20 39  1  0  0  0  0
 20 40  1  0  0  0  0
 21 22  1  0  0  0  0
 21 41  1  0  0  0  0
 21 42  1  0  0  0  0
 22 23  1  0  0  0  0
 22 43  1  0  0  0  0
 22 44  1  0  0  0  0
 23 24  1  0  0  0  0
 23 45  1  0  0  0  0
 23 48  1  0  0  0  0
 24 46  1  0  0  0  0
 24 47  1  0  0  0  0
M  CHG  1   4   1
M  CHG  1  23   1
M  END
> <s_m_source_file>
AV-unprocessed.smi

> <i_m_source_file_index>
67

> <i_lp_mmshare_version>
43012

> <i_f3d_flags>
0

> <s_epik_input>
W0NIMl0xW05IXVtDSDJdW0NIMl1bQ0BAXTEoW09IXSlbQ0gyXU4yW0NIMl1bQ0gyXVtDSF0oW0NIMl1bQ0gyXTIpT2MzW2NIXVtjSF1bY0hdYyhDKEYpKEYpRilbY0hdMw==

> <s_epik_cmdline>
J2VwaWtfcHl0aG9uJywgJy1waCcsICc3LjAnLCAnLXRuJywgJzgnLCAnLW1hJywgJzIwMCcsICctbWV0YWxfYmluZGluZycsICctaW1hZScsICc8aW5maWxlLm1hZT4nLCAnLW9tYWUnLCAnPG91dGZpbGUubWFlPic=

> <r_lp_tautomer_probability>
1

> <r_epik_Ionization_Penalty>
0.0989853

> <r_epik_Ionization_Penalty_Charging>
0.0989662

> <r_epik_Ionization_Penalty_Neutral>
1.91014e-05

> <r_epik_State_Penalty>
0.0852826

> <r_epik_Charging_Adjusted_Penalty>
0.184249

> <i_epik_Tot_Q>
2

> <i_epik_Tot_abs_Q>
2

> <r_epik_Metal_State_Penalty>
0.0849414

> <b_epik_Metal_Only>
0

> <s_lp_Force_Field>
OPLS_2005

> <r_lp_Energy>
59.8113

> <b_lp_Chiralities_Consistent>
1

> <s_lp_Variant>
AV-unprocessed.smi:67-2

> <Gold.Version>
5.8.1

> <Gold.Id.Protein>
6NUR|6NUR_protein|mol2

> <Gold.PLP.Fitness>
59.7889

> <Gold.PLP.PLP>
-53.1634

> <Gold.PLP.part.hbond>
-2.0000

> <Gold.PLP.part.metal>
0.0000

> <Gold.PLP.part.buried>
-6.7516

> <Gold.PLP.part.nonpolar>
-44.7757

> <Gold.PLP.part.repulsive>
0.0700

> <Gold.PLP.ligand.clash>
0.0000

> <Gold.PLP.ligand.torsion>
1.4653

> <Gold.PLP.Chemscore.Hbond>
3.0000

> <Gold.PLP.Chemscore.CHOScore>
0.0000

> <Gold.PLP.Chemscore.Metal>
0.0000

> <Gold.Chemscore.Hbonds>
donor molecule, donor type, donor heavy atom, donor atom, acceptor molecule, acceptor atom, score
      L1  H    23    45       P1 10175  0.56
      P1  H  7997  8010       L1     8  1.00

> <Gold.PLP.Chemscore.Internal.Correction>
0.5561

> <Gold.Rescore>
     Score         DG    S(hbond)    S(metal)    S(lipo)     H(rot)  DE(clash)    DE(int)     intcor
     18.16     -20.03       1.59        0.00     127.99       2.24       0.30       1.57       ----

> <Gold.Chemscore.Fitness>
18.1566

> <Gold.Chemscore.DG>
-20.0296

> <Gold.Chemscore.ZeroCoef>
-5.4800

> <Gold.Chemscore.Hbond>
1.5861

> <Gold.Chemscore.Metal>
0.0000

> <Gold.Chemscore.Lipo>
127.9851

> <Gold.Chemscore.Internal_Hbond>
0.0000

> <Gold.Chemscore.DEClash>
0.3021

> <Gold.Chemscore.DEInternal>
1.5709

> <Gold.Chemscore.Rot>
2.2352

> <Gold.Chemscore.Internal.Correction>
   9.000000E+99

> <Gold.Chemscore.Hbonds>
donor molecule, donor type, donor heavy atom, donor atom, acceptor molecule, acceptor atom, score
      L1  H    23    45       P1 10175  0.06
      P1  H  7997  8010       L1     8  0.41

> <Gold.Chemscore.Hbond.Weighted>
-5.2975

> <Gold.Chemscore.Metal.Weighted>
-0.0000

> <Gold.Chemscore.Lipo.Weighted>
-14.9743

> <Gold.Chemscore.Internal_Hbond.Weighted>
0.0000

> <Gold.Chemscore.DEClash.Weighted>
0.3021

> <Gold.Chemscore.DEInternal.Weighted>
1.5709

> <Gold.Chemscore.Rot.Weighted>
5.7221

> <Gold.Chemscore.Internal.Correction.Weighted>
   9.000000E+99

> <Gold.Protein.RotatedTorsions>
[ 6907 6896 6895 6894 ] final -177.75 input  -60.11 | X-H torsion
[ 7974 7965 7964 7962 ] final   73.60 input  175.53 | X-H torsion
[ 8008 7997 7996 7995 ] final   17.30 input   59.86 | X-H torsion
[ 10167 10162 10161 10158 ] final   34.95 input  -65.29 | X-H torsion
[ 10718 10713 10712 10709 ] final  135.86 input   66.30 | X-H torsion
[ 10763 10752 10751 10750 ] final  -73.41 input  -60.55 | X-H torsion
[ 11005 11000 10999 10996 ] final  -92.43 input  -57.11 | X-H torsion

> <Gold.Protein.ActiveResidues>
 VAL166  LYS551  ARG553  GLY616  TRP617  ASP618  TYR619  PRO620  LYS621  CYS622 
 ASP623  PHE694  ASN695  SER759  ASP760  ASP761  ALA762  ILE779  LEU786  VAL792 
 PHE793  MET794  SER795  GLU796  ALA797  LYS798  CYS799  TRP800  GLU811  SER814 

> <Gold.Protein.RotatedAtoms>
  151.6261  133.3335  159.3098 H   0  0  0  0  0  0  0  0  0  0  0  0  # atno 6907 bound_to 6896
  150.8080  134.7221  159.6674 H   0  0  0  0  0  0  0  0  0  0  0  0  # atno 6908 bound_to 6896
  152.4176  134.6018  160.0053 H   0  0  0  0  0  0  0  0  0  0  0  0  # atno 6909 bound_to 6896
  145.7388  139.2712  143.1498 H   0  0  0  0  0  0  0  0  0  0  0  0  # atno 7974 bound_to 7965
  154.8895  140.2985  155.5379 H   0  0  0  0  0  0  0  0  0  0  0  0  # atno 8008 bound_to 7997
  156.3021  140.2427  156.3843 H   0  0  0  0  0  0  0  0  0  0  0  0  # atno 8009 bound_to 7997
  154.8633  140.0404  157.1668 H   0  0  0  0  0  0  0  0  0  0  0  0  # atno 8010 bound_to 7997
  140.4267  144.1383  150.6154 H   0  0  0  0  0  0  0  0  0  0  0  0  # atno 10167 bound_to 10162
  157.4526  131.1067  151.0015 H   0  0  0  0  0  0  0  0  0  0  0  0  # atno 10718 bound_to 10713
  154.4591  135.5898  153.6243 H   0  0  0  0  0  0  0  0  0  0  0  0  # atno 10763 bound_to 10752
  152.9821  135.6039  154.3509 H   0  0  0  0  0  0  0  0  0  0  0  0  # atno 10764 bound_to 10752
  154.3379  135.2842  155.2417 H   0  0  0  0  0  0  0  0  0  0  0  0  # atno 10765 bound_to 10752
  141.1522  133.7820  157.0019 H   0  0  0  0  0  0  0  0  0  0  0  0  # atno 11005 bound_to 11000
  146.0468  140.8110  142.9801 LP  0  0  0  0  0  0  0  0  0  0  0  0  # atno 17320 bound_to 7965
  144.6875  140.2992  143.7266 LP  0  0  0  0  0  0  0  0  0  0  0  0  # atno 17321 bound_to 7965
  140.4473  143.2501  151.9394 LP  0  0  0  0  0  0  0  0  0  0  0  0  # atno 17342 bound_to 10162
  139.4783  144.5596  151.8259 LP  0  0  0  0  0  0  0  0  0  0  0  0  # atno 17343 bound_to 10162
  157.0840  130.5914  149.5426 LP  0  0  0  0  0  0  0  0  0  0  0  0  # atno 17370 bound_to 10713
  155.9994  130.5069  150.7604 LP  0  0  0  0  0  0  0  0  0  0  0  0  # atno 17371 bound_to 10713
  140.0934  134.9579  157.1812 LP  0  0  0  0  0  0  0  0  0  0  0  0  # atno 17394 bound_to 11000
  140.3415  134.2699  155.7211 LP  0  0  0  0  0  0  0  0  0  0  0  0  # atno 17395 bound_to 11000

$$$$
