#       Name:                AV-unprocessed.smi:3171
#       Creating user name   scv26
#       Creation time:       Fri Mar 27 17:55:06 2020


#       File generated by GOLD software.
#

@<TRIPOS>MOLECULE
AV-unprocessed.smi:3171
    38    39     1
SMALL
NO_CHARGES


@<TRIPOS>ATOM
      1 ****        -4.2842  -0.4679   0.8851 C.3            1 S1                 0.0000
      2 ****        -2.7728  -0.5997   0.9483 C.ar           1 S1                 0.0000
      3 ****        -2.1090   0.5532   1.1824 N.ar           1 S1                 0.0000
      4 ****        -0.7782   0.5605   1.2709 N.ar           1 S1                 0.0000
      5 ****        -0.0627  -0.5816   1.1295 C.ar           1 S1                 0.0000
      6 ****         1.3374  -0.4946   1.2482 N.pl3          1 S1                 0.0000
      7 ****         2.0302   0.7692   1.0242 C.3            1 S1                 0.0000
      8 ****         2.2437   1.0562  -0.4708 C.3            1 S1                 0.0000
      9 ****         3.1281   2.2713  -0.7361 C.3            1 S1                 0.0000
     10 ****         2.7333   2.6885  -2.1429 C.3            1 S1                 0.0000
     11 ****         1.3607   2.0404  -2.3495 C.3            1 S1                 0.0000
     12 ****         1.0331   1.4400  -1.1034 O.3            1 S1                 0.0000
     13 ****        -0.6956  -1.8285   0.8849 C.ar           1 S1                 0.0000
     14 ****         0.0802  -3.0591   0.7441 C.1            1 S1                 0.0000
     15 ****         0.6944  -4.0334   0.6324 N.1            1 S1                 0.0000
     16 ****        -2.1097  -1.8396   0.7821 C.ar           1 S1                 0.0000
     17 ****        -2.8802  -3.1307   0.5165 C.3            1 S1                 0.0000
     18 ****        -4.7565  -1.1369   1.6049 H              1 S1                 0.0000
     19 ****        -4.6469  -0.7149  -0.1127 H              1 S1                 0.0000
     20 ****        -4.6068   0.5483   1.1160 H              1 S1                 0.0000
     21 ****         1.8719  -1.3399   1.1087 H              1 S1                 0.0000
     22 ****         1.5204   1.5992   1.5142 H              1 S1                 0.0000
     23 ****         3.0024   0.6866   1.5104 H              1 S1                 0.0000
     24 ****         2.6573   0.1817  -0.9775 H              1 S1                 0.0000
     25 ****         2.8845   3.0720  -0.0362 H              1 S1                 0.0000
     26 ****         4.1916   2.0513  -0.6398 H              1 S1                 0.0000
     27 ****         2.6948   3.7741  -2.2392 H              1 S1                 0.0000
     28 ****         3.4452   2.3104  -2.8775 H              1 S1                 0.0000
     29 ****         0.5976   2.7625  -2.6410 H              1 S1                 0.0000
     30 ****         1.4117   1.2696  -3.1196 H              1 S1                 0.0000
     31 ****        -2.4367  -3.6817  -0.3137 H              1 S1                 0.0000
     32 ****        -3.9231  -2.9591   0.2557 H              1 S1                 0.0000
     33 ****        -2.8571  -3.7682   1.4007 H              1 S1                 0.0000
     34 ****        -2.6187   1.4068   1.2901 LP             1 S1                 0.0000
     35 ****        -0.3010   1.4221   1.4443 LP             1 S1                 0.0000
     36 ****         0.5430   2.0957  -0.5290 LP             1 S1                 0.0000
     37 ****         0.4592   0.6352  -1.2548 LP             1 S1                 0.0000
     38 ****         1.2252  -4.8754   0.5359 LP             1 S1                 0.0000
@<TRIPOS>BOND
    1    1    2 1     
    2    1   18 1     
    3    1   19 1     
    4    1   20 1     
    5    2   16 ar    
    6    2    3 ar    
    7    3    4 ar    
    8    4    5 ar    
    9    5    6 1     
   10    5   13 ar    
   11    6    7 1     
   12    6   21 1     
   13    7    8 1     
   14    7   22 1     
   15    7   23 1     
   16    8   12 1     
   17    8    9 1     
   18    8   24 1     
   19    9   10 1     
   20    9   25 1     
   21    9   26 1     
   22   10   11 1     
   23   10   27 1     
   24   10   28 1     
   25   11   12 1     
   26   11   29 1     
   27   11   30 1     
   28   13   14 1     
   29   13   16 ar    
   30   14   15 3     
   31   16   17 1     
   32   17   31 1     
   33   17   32 1     
   34   17   33 1     
   35    3   34 1     
   36    4   35 1     
   37   12   36 1     
   38   12   37 1     
   39   15   38 1     
@<TRIPOS>SUBSTRUCTURE
      1 S1             1
@<TRIPOS>SET
LONE_PAIRS      STATIC     ATOMS    <user>   **** ""
5 34 35 36 37 38
DONOR_HYDROGENS      STATIC     ATOMS    <user>   **** ""
1 21
ATOM$BLUE        STATIC     ATOMS    COLORGROUP SYSTEM
5 34 35 36 37 38
ATOM$RED        STATIC     ATOMS    COLORGROUP SYSTEM
1 21
