AV-unprocessed.smi:47|AV-procd|sdf|423|dock6
  -GOLD-   2262016303D 1   1.00000     0.00000
 Structure written by MMmdl.
 32 34  0  0  0  0  0  0  0  0  2 V2000
  145.5697  139.7754  154.5719 O   0  0  0  0  0  0  0  0  0  0  0  0
  146.9800  139.7857  154.6322 C   0  0  1  0  0  0  0  0  0  0  0  0
  147.6151  139.1221  153.4119 C   0  0  0  0  0  0  0  0  0  0  0  0
  148.9643  139.7074  153.3130 N   0  3  0  0  0  0  0  0  0  0  0  0
  148.9698  141.0076  154.0203 C   0  0  2  0  0  0  0  0  0  0  0  0
  150.0118  141.0290  155.0969 C   0  0  0  0  0  0  0  0  0  0  0  0
  150.9952  140.1357  155.1123 N   0  0  0  0  0  0  0  0  0  0  0  0
  151.7140  140.5327  156.1825 N   0  0  0  0  0  0  0  0  0  0  0  0
  151.1621  141.6195  156.7371 C   0  0  0  0  0  0  0  0  0  0  0  0
  151.6887  142.3173  157.9121 C   0  0  0  0  0  0  0  0  0  0  0  0
  152.3673  141.6019  158.9260 C   0  0  0  0  0  0  0  0  0  0  0  0
  152.8743  142.2723  160.0563 C   0  0  0  0  0  0  0  0  0  0  0  0
  152.7086  143.6639  160.1846 C   0  0  0  0  0  0  0  0  0  0  0  0
  152.0348  144.3851  159.1815 C   0  0  0  0  0  0  0  0  0  0  0  0
  151.5275  143.7159  158.0507 C   0  0  0  0  0  0  0  0  0  0  0  0
  150.0658  141.9861  156.0721 N   0  0  0  0  0  0  0  0  0  0  0  0
  147.5497  141.2008  154.5766 C   0  0  0  0  0  0  0  0  0  0  0  0
  147.3126  139.2862  155.5434 H   0  0  0  0  0  0  0  0  0  0  0  0
  149.1941  141.7955  153.2996 H   0  0  0  0  0  0  0  0  0  0  0  0
  152.5513  140.0562  156.4868 H   0  0  0  0  0  0  0  0  0  0  0  0
  145.3041  139.8029  153.6650 H   0  0  0  0  0  0  0  0  0  0  0  0
  147.6492  138.0352  153.4886 H   0  0  0  0  0  0  0  0  0  0  0  0
  147.0658  139.3819  152.5057 H   0  0  0  0  0  0  0  0  0  0  0  0
  149.6170  139.0983  153.7864 H   0  0  0  0  0  0  0  0  0  0  0  0
  152.5060  140.5337  158.8492 H   0  0  0  0  0  0  0  0  0  0  0  0
  153.3905  141.7177  160.8261 H   0  0  0  0  0  0  0  0  0  0  0  0
  153.0974  144.1776  161.0516 H   0  0  0  0  0  0  0  0  0  0  0  0
  151.9062  145.4531  159.2792 H   0  0  0  0  0  0  0  0  0  0  0  0
  151.0136  144.2893  157.2932 H   0  0  0  0  0  0  0  0  0  0  0  0
  146.9716  141.7931  153.8652 H   0  0  0  0  0  0  0  0  0  0  0  0
  147.5190  141.7216  155.5348 H   0  0  0  0  0  0  0  0  0  0  0  0
  149.2395  139.8161  152.3474 H   0  0  0  0  0  0  0  0  0  0  0  0
  1  2  1  0  0  0  0
  1 21  1  0  0  0  0
  2 18  1  0  0  0  0
  2 17  1  0  0  0  0
  2  3  1  0  0  0  0
  3  4  1  0  0  0  0
  3 22  1  0  0  0  0
  3 23  1  0  0  0  0
  4  5  1  0  0  0  0
  4 24  1  0  0  0  0
  4 32  1  0  0  0  0
  5 19  1  0  0  0  0
  5  6  1  0  0  0  0
  5 17  1  0  0  0  0
  6 16  1  0  0  0  0
  6  7  2  0  0  0  0
  7  8  1  0  0  0  0
  8 20  1  0  0  0  0
  8  9  1  0  0  0  0
  9 10  1  0  0  0  0
  9 16  2  0  0  0  0
 10 15  1  0  0  0  0
 10 11  2  0  0  0  0
 11 12  1  0  0  0  0
 11 25  1  0  0  0  0
 12 13  2  0  0  0  0
 12 26  1  0  0  0  0
 13 14  1  0  0  0  0
 13 27  1  0  0  0  0
 14 15  2  0  0  0  0
 14 28  1  0  0  0  0
 15 29  1  0  0  0  0
 17 30  1  0  0  0  0
 17 31  1  0  0  0  0
M  CHG  1   4   1
M  END
> <s_m_source_file>
AV-unprocessed.smi

> <i_m_source_file_index>
47

> <i_lp_mmshare_version>
43012

> <i_f3d_flags>
0

> <s_epik_input>
W09IXVtDQEhdMVtDSDJdW05IXVtDQEBIXShbQ0gyXTEpYzJuW25IXWMobjIpLWMzW2NIXVtjSF1bY0hdW2NIXVtjSF0z

> <s_epik_cmdline>
J2VwaWtfcHl0aG9uJywgJy1waCcsICc3LjAnLCAnLXRuJywgJzgnLCAnLW1hJywgJzIwMCcsICctbWV0YWxfYmluZGluZycsICctaW1hZScsICc8aW5maWxlLm1hZT4nLCAnLW9tYWUnLCAnPG91dGZpbGUubWFlPic=

> <r_lp_tautomer_probability>
0.948284

> <r_epik_Ionization_Penalty>
0.163822

> <r_epik_Ionization_Penalty_Charging>
0.0371552

> <r_epik_Ionization_Penalty_Neutral>
0.126667

> <r_epik_State_Penalty>
0.318338

> <r_epik_Charging_Adjusted_Penalty>
0.355493

> <i_epik_Tot_Q>
1

> <i_epik_Tot_abs_Q>
1

> <r_epik_Metal_State_Penalty>
0.81572

> <b_epik_Metal_Only>
0

> <s_lp_Force_Field>
OPLS_2005

> <r_lp_Energy>
24.5404

> <b_lp_Chiralities_Consistent>
1

> <s_lp_Variant>
AV-unprocessed.smi:47-1

> <Gold.Version>
5.8.1

> <Gold.Id.Protein>
6NUR|6NUR_protein|mol2

> <Gold.PLP.Fitness>
43.8786

> <Gold.PLP.PLP>
-36.4255

> <Gold.PLP.part.hbond>
-2.8159

> <Gold.PLP.part.metal>
0.0000

> <Gold.PLP.part.buried>
-6.0289

> <Gold.PLP.part.nonpolar>
-30.6060

> <Gold.PLP.part.repulsive>
2.8883

> <Gold.PLP.ligand.clash>
0.0000

> <Gold.PLP.ligand.torsion>
0.7810

> <Gold.PLP.Chemscore.Hbond>
3.0000

> <Gold.PLP.Chemscore.CHOScore>
0.0000

> <Gold.PLP.Chemscore.Metal>
0.0000

> <Gold.Chemscore.Hbonds>
donor molecule, donor type, donor heavy atom, donor atom, acceptor molecule, acceptor atom, score
      L1  H     1    21       P1 10175  0.60
      L1  H     4    32       P1  7957  0.32
      P1  H  7989  7998       L1     7  0.45

> <Gold.PLP.Chemscore.Internal.Correction>
0.0150

> <Gold.Rescore>
     Score         DG    S(hbond)    S(metal)    S(lipo)     H(rot)  DE(clash)    DE(int)     intcor
     17.36     -19.23       2.06        0.00      91.58       1.50       1.43       0.45       ----

> <Gold.Chemscore.Fitness>
17.3606

> <Gold.Chemscore.DG>
-19.2339

> <Gold.Chemscore.ZeroCoef>
-5.4800

> <Gold.Chemscore.Hbond>
2.0568

> <Gold.Chemscore.Metal>
0.0000

> <Gold.Chemscore.Lipo>
91.5850

> <Gold.Chemscore.Internal_Hbond>
0.0000

> <Gold.Chemscore.DEClash>
1.4274

> <Gold.Chemscore.DEInternal>
0.4459

> <Gold.Chemscore.Rot>
1.4966

> <Gold.Chemscore.Internal.Correction>
   9.000000E+99

> <Gold.Chemscore.Hbonds>
donor molecule, donor type, donor heavy atom, donor atom, acceptor molecule, acceptor atom, score
      L1  H     1    21       P1 10175  0.60
      L1  H     4    32       P1  7957  0.33
      P1  H  7989  7998       L1     7  0.01

> <Gold.Chemscore.Hbond.Weighted>
-6.8696

> <Gold.Chemscore.Metal.Weighted>
-0.0000

> <Gold.Chemscore.Lipo.Weighted>
-10.7154

> <Gold.Chemscore.Internal_Hbond.Weighted>
0.0000

> <Gold.Chemscore.DEClash.Weighted>
1.4274

> <Gold.Chemscore.DEInternal.Weighted>
0.4459

> <Gold.Chemscore.Rot.Weighted>
3.8312

> <Gold.Chemscore.Internal.Correction.Weighted>
   9.000000E+99

> <Gold.Protein.RotatedTorsions>
[ 6907 6896 6895 6894 ] final  119.44 input  -60.11 | X-H torsion
[ 7974 7965 7964 7962 ] final -133.89 input  175.53 | X-H torsion
[ 8008 7997 7996 7995 ] final   66.97 input   59.86 | X-H torsion
[ 10167 10162 10161 10158 ] final  129.66 input  -65.29 | X-H torsion
[ 10718 10713 10712 10709 ] final   38.63 input   66.30 | X-H torsion
[ 10763 10752 10751 10750 ] final   50.68 input  -60.55 | X-H torsion
[ 11005 11000 10999 10996 ] final  -41.26 input  -57.11 | X-H torsion

> <Gold.Protein.ActiveResidues>
 VAL166  LYS551  ARG553  GLY616  TRP617  ASP618  TYR619  PRO620  LYS621  CYS622 
 ASP623  PHE694  ASN695  SER759  ASP760  ASP761  ALA762  ILE779  LEU786  VAL792 
 PHE793  MET794  SER795  GLU796  ALA797  LYS798  CYS799  TRP800  GLU811  SER814 

> <Gold.Protein.RotatedAtoms>
  152.4471  133.7558  159.6718 H   0  0  0  0  0  0  0  0  0  0  0  0  # atno 6907 bound_to 6896
  150.8374  133.7981  159.3080 H   0  0  0  0  0  0  0  0  0  0  0  0  # atno 6908 bound_to 6896
  151.5616  135.1068  160.0026 H   0  0  0  0  0  0  0  0  0  0  0  0  # atno 6909 bound_to 6896
  144.9152  140.6946  143.5000 H   0  0  0  0  0  0  0  0  0  0  0  0  # atno 7974 bound_to 7965
  155.6856  140.3496  155.4872 H   0  0  0  0  0  0  0  0  0  0  0  0  # atno 8008 bound_to 7997
  155.9569  140.1130  157.0951 H   0  0  0  0  0  0  0  0  0  0  0  0  # atno 8009 bound_to 7997
  154.4134  140.1183  156.5113 H   0  0  0  0  0  0  0  0  0  0  0  0  # atno 8010 bound_to 7997
  139.5467  144.6779  151.4452 H   0  0  0  0  0  0  0  0  0  0  0  0  # atno 10167 bound_to 10162
  157.3611  130.7650  149.7048 H   0  0  0  0  0  0  0  0  0  0  0  0  # atno 10718 bound_to 10713
  152.9784  135.5871  154.4292 H   0  0  0  0  0  0  0  0  0  0  0  0  # atno 10763 bound_to 10752
  154.3907  135.2768  155.2158 H   0  0  0  0  0  0  0  0  0  0  0  0  # atno 10764 bound_to 10752
  154.4032  135.6099  153.5963 H   0  0  0  0  0  0  0  0  0  0  0  0  # atno 10765 bound_to 10752
  141.0234  133.6852  156.2434 H   0  0  0  0  0  0  0  0  0  0  0  0  # atno 11005 bound_to 11000
  145.3387  139.1738  143.4497 LP  0  0  0  0  0  0  0  0  0  0  0  0  # atno 17320 bound_to 7965
  146.3178  140.3425  142.8649 LP  0  0  0  0  0  0  0  0  0  0  0  0  # atno 17321 bound_to 7965
  140.6717  143.8279  150.7007 LP  0  0  0  0  0  0  0  0  0  0  0  0  # atno 17342 bound_to 10162
  140.1705  143.4198  152.2004 LP  0  0  0  0  0  0  0  0  0  0  0  0  # atno 17343 bound_to 10162
  155.9737  130.4113  150.3977 LP  0  0  0  0  0  0  0  0  0  0  0  0  # atno 17370 bound_to 10713
  157.2054  131.0448  151.2628 LP  0  0  0  0  0  0  0  0  0  0  0  0  # atno 17371 bound_to 10713
  140.6534  134.5043  157.5579 LP  0  0  0  0  0  0  0  0  0  0  0  0  # atno 17394 bound_to 11000
  139.9160  134.8245  156.1365 LP  0  0  0  0  0  0  0  0  0  0  0  0  # atno 17395 bound_to 11000

$$$$
