AV-unprocessed.smi:2981|AV-procd|sdf|11374|dock7
  -GOLD-   2272016293D 1   1.00000     0.00000
 Structure written by MMmdl.
 31 32  0  0  0  0  0  0  0  0  1 V2000
  150.2120  140.6566  157.6922 O   0  0  0  0  0  0  0  0  0  0  0  0
  150.2785  141.8209  157.2956 C   0  0  0  0  0  0  0  0  0  0  0  0
  151.4110  142.7477  157.7619 C   0  0  0  0  0  0  0  0  0  0  0  0
  152.2296  142.1726  158.8399 N   0  0  0  0  0  0  0  0  0  0  0  0
  152.3419  142.9826  159.9565 N   0  0  0  0  0  0  0  0  0  0  0  0
  153.0241  142.5741  160.9704 C   0  0  0  0  0  0  0  0  0  0  0  0
  153.6881  141.2894  160.9854 C   0  0  0  0  0  0  0  0  0  0  0  0
  154.5892  140.7949  162.3750 Cl  0  0  0  0  0  0  0  0  0  0  0  0
  153.5769  140.5057  159.8833 C   0  0  0  0  0  0  0  0  0  0  0  0
  154.3448  138.9560  159.8258 Cl  0  0  0  0  0  0  0  0  0  0  0  0
  152.8074  140.9387  158.7087 C   0  0  0  0  0  0  0  0  0  0  0  0
  152.6847  140.2585  157.6890 O   0  0  0  0  0  0  0  0  0  0  0  0
  149.3785  142.3648  156.4626 N   0  0  0  0  0  0  0  0  0  0  0  0
  148.2292  141.6651  155.8977 C   0  0  2  0  0  0  0  0  0  0  0  0
  148.2602  141.6965  154.3585 C   0  0  0  0  0  0  0  0  0  0  0  0
  146.8836  141.2748  153.8297 C   0  0  0  0  0  0  0  0  0  0  0  0
  145.6661  141.8154  155.0894 S   0  0  0  0  0  0  0  0  0  0  0  0
  144.9725  143.0242  154.6188 O   0  0  0  0  0  0  0  0  0  0  0  0
  144.9109  140.6422  155.5546 O   0  0  0  0  0  0  0  0  0  0  0  0
  146.9016  142.2882  156.3571 C   0  0  0  0  0  0  0  0  0  0  0  0
  152.0458  143.0068  156.9122 H   0  0  0  0  0  0  0  0  0  0  0  0
  150.9626  143.6878  158.0883 H   0  0  0  0  0  0  0  0  0  0  0  0
  153.1376  143.1760  161.8721 H   0  0  0  0  0  0  0  0  0  0  0  0
  149.5052  143.3292  156.1912 H   0  0  0  0  0  0  0  0  0  0  0  0
  148.2490  140.6185  156.2083 H   0  0  0  0  0  0  0  0  0  0  0  0
  148.4636  142.7150  154.0241 H   0  0  0  0  0  0  0  0  0  0  0  0
  149.0533  141.0654  153.9557 H   0  0  0  0  0  0  0  0  0  0  0  0
  146.6462  141.7151  152.8611 H   0  0  0  0  0  0  0  0  0  0  0  0
  146.8184  140.1899  153.7446 H   0  0  0  0  0  0  0  0  0  0  0  0
  146.5844  141.9400  157.3403 H   0  0  0  0  0  0  0  0  0  0  0  0
  146.9598  143.3770  156.3748 H   0  0  0  0  0  0  0  0  0  0  0  0
  1  2  2  0  0  0  0
  2  3  1  0  0  0  0
  2 13  1  0  0  0  0
  3  4  1  0  0  0  0
  3 21  1  0  0  0  0
  3 22  1  0  0  0  0
  4 11  1  0  0  0  0
  4  5  1  0  0  0  0
  5  6  2  0  0  0  0
  6  7  1  0  0  0  0
  6 23  1  0  0  0  0
  7  8  1  0  0  0  0
  7  9  2  0  0  0  0
  9 10  1  0  0  0  0
  9 11  1  0  0  0  0
 11 12  2  0  0  0  0
 13 14  1  0  0  0  0
 13 24  1  0  0  0  0
 14 20  1  0  0  0  0
 14 15  1  0  0  0  0
 14 25  1  0  0  0  0
 15 16  1  0  0  0  0
 15 26  1  0  0  0  0
 15 27  1  0  0  0  0
 16 17  1  0  0  0  0
 16 28  1  0  0  0  0
 16 29  1  0  0  0  0
 17 18  2  0  0  0  0
 17 19  2  0  0  0  0
 17 20  1  0  0  0  0
 20 30  1  0  0  0  0
 20 31  1  0  0  0  0
M  END
> <s_m_source_file>
AV-unprocessed.smi

> <i_m_source_file_index>
2981

> <i_lp_mmshare_version>
43012

> <i_f3d_flags>
0

> <s_epik_input>
Tz1TMSg9TylbQ0gyXVtDSDJdW0NASF0oW0NIMl0xKVtOSF1DKD1PKVtDSDJdbjJuW2NIXWMoQ2wpYyhDbCljMj1P

> <s_epik_cmdline>
J2VwaWtfcHl0aG9uJywgJy1waCcsICc3LjAnLCAnLXRuJywgJzgnLCAnLW1hJywgJzIwMCcsICctbWV0YWxfYmluZGluZycsICctaW1hZScsICc8aW5maWxlLm1hZT4nLCAnLW9tYWUnLCAnPG91dGZpbGUubWFlPic=

> <r_lp_tautomer_probability>
1

> <r_epik_Ionization_Penalty>
1.07216e-07

> <r_epik_Ionization_Penalty_Charging>
2.33395e-11

> <r_epik_Ionization_Penalty_Neutral>
1.07193e-07

> <r_epik_State_Penalty>
-0

> <r_epik_Charging_Adjusted_Penalty>
2.33395e-11

> <i_epik_Tot_Q>
0

> <i_epik_Tot_abs_Q>
0

> <r_epik_Metal_State_Penalty>
-0

> <b_epik_Metal_Only>
0

> <s_lp_Force_Field>
OPLS_2005

> <r_lp_Energy>
19.0616

> <b_lp_Chiralities_Consistent>
1

> <s_lp_Variant>
AV-unprocessed.smi:2981-1

> <Gold.Version>
5.8.1

> <Gold.Id.Protein>
6NUR|6NUR_protein|mol2

> <Gold.PLP.Fitness>
38.9403

> <Gold.PLP.PLP>
-33.2224

> <Gold.PLP.part.hbond>
-1.9687

> <Gold.PLP.part.metal>
0.0000

> <Gold.PLP.part.buried>
-2.5740

> <Gold.PLP.part.nonpolar>
-28.2987

> <Gold.PLP.part.repulsive>
0.3893

> <Gold.PLP.ligand.clash>
0.0000

> <Gold.PLP.ligand.torsion>
0.1298

> <Gold.PLP.Chemscore.Hbond>
1.9920

> <Gold.PLP.Chemscore.CHOScore>
0.0000

> <Gold.PLP.Chemscore.Metal>
0.0000

> <Gold.Chemscore.Hbonds>
donor molecule, donor type, donor heavy atom, donor atom, acceptor molecule, acceptor atom, score
      L1  H    13    24       P1  8028  0.99
      P1  H  7997  8008       L1    12  0.98

> <Gold.PLP.Chemscore.Internal.Correction>
0.0014

> <Gold.Rescore>
     Score         DG    S(hbond)    S(metal)    S(lipo)     H(rot)  DE(clash)    DE(int)     intcor
     11.41     -15.82       1.85        0.00      72.80       1.70       0.05       4.37       ----

> <Gold.Chemscore.Fitness>
11.4092

> <Gold.Chemscore.DG>
-15.8215

> <Gold.Chemscore.ZeroCoef>
-5.4800

> <Gold.Chemscore.Hbond>
1.8529

> <Gold.Chemscore.Metal>
0.0000

> <Gold.Chemscore.Lipo>
72.7988

> <Gold.Chemscore.Internal_Hbond>
0.0000

> <Gold.Chemscore.DEClash>
0.0456

> <Gold.Chemscore.DEInternal>
4.3667

> <Gold.Chemscore.Rot>
1.7049

> <Gold.Chemscore.Internal.Correction>
   9.000000E+99

> <Gold.Chemscore.Hbonds>
donor molecule, donor type, donor heavy atom, donor atom, acceptor molecule, acceptor atom, score
      L1  H    13    24       P1  8028  0.93
      P1  H  7997  8008       L1    12  0.64

> <Gold.Chemscore.Hbond.Weighted>
-6.1886

> <Gold.Chemscore.Metal.Weighted>
-0.0000

> <Gold.Chemscore.Lipo.Weighted>
-8.5175

> <Gold.Chemscore.Internal_Hbond.Weighted>
0.0000

> <Gold.Chemscore.DEClash.Weighted>
0.0456

> <Gold.Chemscore.DEInternal.Weighted>
4.3667

> <Gold.Chemscore.Rot.Weighted>
4.3646

> <Gold.Chemscore.Internal.Correction.Weighted>
   9.000000E+99

> <Gold.Protein.RotatedTorsions>
[ 6907 6896 6895 6894 ] final  -78.69 input  -60.11 | X-H torsion
[ 7974 7965 7964 7962 ] final   85.56 input  175.53 | X-H torsion
[ 8008 7997 7996 7995 ] final  -70.41 input   59.86 | X-H torsion
[ 10167 10162 10161 10158 ] final  -99.09 input  -65.29 | X-H torsion
[ 10718 10713 10712 10709 ] final -120.93 input   66.30 | X-H torsion
[ 10763 10752 10751 10750 ] final  -34.86 input  -60.55 | X-H torsion
[ 11005 11000 10999 10996 ] final  130.04 input  -57.11 | X-H torsion

> <Gold.Protein.ActiveResidues>
 VAL166  LYS551  ARG553  GLY616  TRP617  ASP618  TYR619  PRO620  LYS621  CYS622 
 ASP623  PHE694  ASN695  SER759  ASP760  ASP761  ALA762  ILE779  LEU786  VAL792 
 PHE793  MET794  SER795  GLU796  ALA797  LYS798  CYS799  TRP800  GLU811  SER814 

> <Gold.Protein.RotatedAtoms>
  150.6967  134.4234  159.5214 H   0  0  0  0  0  0  0  0  0  0  0  0  # atno 6907 bound_to 6896
  152.1973  134.8617  160.0520 H   0  0  0  0  0  0  0  0  0  0  0  0  # atno 6908 bound_to 6896
  151.9550  133.3642  159.4051 H   0  0  0  0  0  0  0  0  0  0  0  0  # atno 6909 bound_to 6896
  145.5839  139.2328  143.2337 H   0  0  0  0  0  0  0  0  0  0  0  0  # atno 7974 bound_to 7965
  154.5010  140.0835  156.7797 H   0  0  0  0  0  0  0  0  0  0  0  0  # atno 8008 bound_to 7997
  155.4004  140.3437  155.4238 H   0  0  0  0  0  0  0  0  0  0  0  0  # atno 8009 bound_to 7997
  156.1456  140.1542  156.8840 H   0  0  0  0  0  0  0  0  0  0  0  0  # atno 8010 bound_to 7997
  140.2661  143.3375  152.0579 H   0  0  0  0  0  0  0  0  0  0  0  0  # atno 10167 bound_to 10162
  156.1297  130.6386  150.9601 H   0  0  0  0  0  0  0  0  0  0  0  0  # atno 10718 bound_to 10713
  153.8537  135.6846  153.4789 H   0  0  0  0  0  0  0  0  0  0  0  0  # atno 10763 bound_to 10752
  153.1382  135.4668  154.9453 H   0  0  0  0  0  0  0  0  0  0  0  0  # atno 10764 bound_to 10752
  154.7790  135.3263  154.7978 H   0  0  0  0  0  0  0  0  0  0  0  0  # atno 10765 bound_to 10752
  139.9649  134.9593  156.9236 H   0  0  0  0  0  0  0  0  0  0  0  0  # atno 11005 bound_to 11000
  146.1696  140.6665  142.9239 LP  0  0  0  0  0  0  0  0  0  0  0  0  # atno 17320 bound_to 7965
  144.7381  140.4867  143.6889 LP  0  0  0  0  0  0  0  0  0  0  0  0  # atno 17321 bound_to 7965
  139.5002  144.6687  151.6295 LP  0  0  0  0  0  0  0  0  0  0  0  0  # atno 17342 bound_to 10162
  140.5927  143.9751  150.6335 LP  0  0  0  0  0  0  0  0  0  0  0  0  # atno 17343 bound_to 10162
  157.6476  131.0902  150.8120 LP  0  0  0  0  0  0  0  0  0  0  0  0  # atno 17370 bound_to 10713
  156.8206  130.4983  149.5343 LP  0  0  0  0  0  0  0  0  0  0  0  0  # atno 17371 bound_to 10713
  140.5417  134.0713  155.7343 LP  0  0  0  0  0  0  0  0  0  0  0  0  # atno 17394 bound_to 11000
  141.1329  133.9272  157.2497 LP  0  0  0  0  0  0  0  0  0  0  0  0  # atno 17395 bound_to 11000

$$$$
