AV-unprocessed.smi:798|AV-procd|sdf|3770|dock8
  -GOLD-   22720 1203D 1   1.00000     0.00000
 Structure written by MMmdl.
 34 36  0  0  0  0  0  0  0  0  1 V2000
  145.6959  137.9997  154.1684 O   0  0  0  0  0  0  0  0  0  0  0  0
  146.6094  137.4426  153.5594 C   0  0  0  0  0  0  0  0  0  0  0  0
  147.8262  137.9661  153.3302 N   0  0  0  0  0  0  0  0  0  0  0  0
  148.3424  139.2179  153.7568 C   0  0  0  0  0  0  0  0  0  0  0  0
  149.6005  139.3970  154.1890 N   0  0  0  0  0  0  0  0  0  0  0  0
  149.8461  140.7187  154.5387 N   0  0  0  0  0  0  0  0  0  0  0  0
  148.7655  141.4829  154.3564 C   0  0  0  0  0  0  0  0  0  0  0  0
  147.3422  140.6633  153.7377 S   0  0  0  0  0  0  0  0  0  0  0  0
  146.5093  136.2104  153.0402 N   0  0  0  0  0  0  0  0  0  0  0  0
  145.3212  135.3573  153.0971 C   0  0  1  0  0  0  0  0  0  0  0  0
  144.1858  135.9776  152.2550 C   0  0  2  0  0  0  0  0  0  0  0  0
  142.8544  135.2970  152.6217 C   0  0  0  0  0  0  0  0  0  0  0  0
  143.0079  133.9005  151.9897 C   0  0  0  0  0  0  0  0  0  0  0  0
  144.4089  133.9656  151.3493 C   0  0  1  0  0  0  0  0  0  0  0  0
  144.4528  135.4094  150.8661 C   0  0  0  0  0  0  0  0  0  0  0  0
  145.4852  133.9415  152.4630 C   0  0  1  0  0  0  0  0  0  0  0  0
  146.8961  133.5830  151.9433 C   0  0  0  0  0  0  0  0  0  0  0  0
  146.8479  132.4214  151.1422 O   0  0  0  0  0  0  0  0  0  0  0  0
  148.4660  137.3945  152.7986 H   0  0  0  0  0  0  0  0  0  0  0  0
  148.8070  142.5372  154.5866 H   0  0  0  0  0  0  0  0  0  0  0  0
  147.3118  135.8328  152.5579 H   0  0  0  0  0  0  0  0  0  0  0  0
  145.0010  135.2732  154.1375 H   0  0  0  0  0  0  0  0  0  0  0  0
  144.1384  137.0663  152.3068 H   0  0  0  0  0  0  0  0  0  0  0  0
  142.6904  135.2526  153.6990 H   0  0  0  0  0  0  0  0  0  0  0  0
  142.0113  135.8273  152.1769 H   0  0  0  0  0  0  0  0  0  0  0  0
  142.9214  133.0977  152.7230 H   0  0  0  0  0  0  0  0  0  0  0  0
  142.2417  133.7402  151.2301 H   0  0  0  0  0  0  0  0  0  0  0  0
  144.5550  133.2185  150.5686 H   0  0  0  0  0  0  0  0  0  0  0  0
  143.6702  135.6480  150.1436 H   0  0  0  0  0  0  0  0  0  0  0  0
  145.4187  135.7032  150.4527 H   0  0  0  0  0  0  0  0  0  0  0  0
  145.2176  133.1913  153.2094 H   0  0  0  0  0  0  0  0  0  0  0  0
  147.3306  134.3984  151.3647 H   0  0  0  0  0  0  0  0  0  0  0  0
  147.5690  133.3776  152.7758 H   0  0  0  0  0  0  0  0  0  0  0  0
  147.7100  132.0348  151.1216 H   0  0  0  0  0  0  0  0  0  0  0  0
  1  2  2  0  0  0  0
  2  3  1  0  0  0  0
  2  9  1  0  0  0  0
  3  4  1  0  0  0  0
  3 19  1  0  0  0  0
  4  8  1  0  0  0  0
  4  5  2  0  0  0  0
  5  6  1  0  0  0  0
  6  7  2  0  0  0  0
  7  8  1  0  0  0  0
  7 20  1  0  0  0  0
  9 10  1  0  0  0  0
  9 21  1  0  0  0  0
 10 16  1  0  0  0  0
 10 11  1  0  0  0  0
 10 22  1  0  0  0  0
 11 15  1  0  0  0  0
 11 12  1  0  0  0  0
 11 23  1  0  0  0  0
 12 13  1  0  0  0  0
 12 24  1  0  0  0  0
 12 25  1  0  0  0  0
 13 14  1  0  0  0  0
 13 26  1  0  0  0  0
 13 27  1  0  0  0  0
 14 15  1  0  0  0  0
 14 16  1  0  0  0  0
 14 28  1  0  0  0  0
 15 29  1  0  0  0  0
 15 30  1  0  0  0  0
 16 17  1  0  0  0  0
 16 31  1  0  0  0  0
 17 18  1  0  0  0  0
 17 32  1  0  0  0  0
 17 33  1  0  0  0  0
 18 34  1  0  0  0  0
M  END
> <s_m_source_file>
AV-unprocessed.smi

> <i_m_source_file_index>
798

> <i_lp_mmshare_version>
43012

> <i_f3d_flags>
0

> <s_epik_input>
W0NIMl0xW0NIMl1bQ0BASF0oW0NIMl0yKVtDQEBIXShbQ0gyXVtPSF0pW0NAQEhdKFtDQEhdMTIpW05IXUMoPU8pW05IXWMzbm5bY0hdczM=

> <s_epik_cmdline>
J2VwaWtfcHl0aG9uJywgJy1waCcsICc3LjAnLCAnLXRuJywgJzgnLCAnLW1hJywgJzIwMCcsICctbWV0YWxfYmluZGluZycsICctaW1hZScsICc8aW5maWxlLm1hZT4nLCAnLW9tYWUnLCAnPG91dGZpbGUubWFlPic=

> <r_lp_tautomer_probability>
1

> <r_epik_Ionization_Penalty>
0.000329046

> <r_epik_Ionization_Penalty_Charging>
0

> <r_epik_Ionization_Penalty_Neutral>
0.000329046

> <r_epik_State_Penalty>
-0

> <r_epik_Charging_Adjusted_Penalty>
0

> <i_epik_Tot_Q>
0

> <i_epik_Tot_abs_Q>
0

> <r_epik_Metal_State_Penalty>
0.173433

> <b_epik_Metal_Only>
0

> <s_lp_Force_Field>
OPLS_2005

> <r_lp_Energy>
49.2939

> <b_lp_Chiralities_Consistent>
1

> <s_lp_Variant>
AV-unprocessed.smi:798-2

> <Gold.Version>
5.8.1

> <Gold.Id.Protein>
6NUR|6NUR_protein|mol2

> <Gold.PLP.Fitness>
39.6386

> <Gold.PLP.PLP>
-26.9599

> <Gold.PLP.part.hbond>
-3.9688

> <Gold.PLP.part.metal>
0.0000

> <Gold.PLP.part.buried>
-2.3201

> <Gold.PLP.part.nonpolar>
-21.0564

> <Gold.PLP.part.repulsive>
1.1335

> <Gold.PLP.ligand.clash>
0.0000

> <Gold.PLP.ligand.torsion>
0.4043

> <Gold.PLP.Chemscore.Hbond>
3.4912

> <Gold.PLP.Chemscore.CHOScore>
1.0000

> <Gold.PLP.Chemscore.Metal>
0.0000

> <Gold.Chemscore.Hbonds>
donor molecule, donor type, donor heavy atom, donor atom, acceptor molecule, acceptor atom, score
      L1  H     3    19       P1  7948  1.00
      L1  H     9    21       P1  7948  0.91
      L1  H    18    34       P1 10747  0.99
      P1  H  7989  7998       L1     6  0.55
      L1  C     7    20       P1  8028  1.00

> <Gold.PLP.Chemscore.Internal.Correction>
0.0136

> <Gold.Rescore>
     Score         DG    S(hbond)    S(metal)    S(lipo)     H(rot)  DE(clash)    DE(int)     intcor
     15.79     -16.37       2.92        0.00      52.09       1.94       0.06       0.52       ----

> <Gold.Chemscore.Fitness>
15.7945

> <Gold.Chemscore.DG>
-16.3670

> <Gold.Chemscore.ZeroCoef>
-5.4800

> <Gold.Chemscore.Hbond>
2.9249

> <Gold.Chemscore.Metal>
0.0000

> <Gold.Chemscore.Lipo>
52.0942

> <Gold.Chemscore.Internal_Hbond>
0.0000

> <Gold.Chemscore.DEClash>
0.0554

> <Gold.Chemscore.DEInternal>
0.5170

> <Gold.Chemscore.Rot>
1.9442

> <Gold.Chemscore.Internal.Correction>
   9.000000E+99

> <Gold.Chemscore.Hbonds>
donor molecule, donor type, donor heavy atom, donor atom, acceptor molecule, acceptor atom, score
      L1  H     3    19       P1  7948  0.96
      L1  H     9    21       P1  7948  0.90
      L1  H    18    34       P1 10747  0.93
      P1  H  7989  7998       L1     6  0.08

> <Gold.Chemscore.Hbond.Weighted>
-9.7690

> <Gold.Chemscore.Metal.Weighted>
-0.0000

> <Gold.Chemscore.Lipo.Weighted>
-6.0950

> <Gold.Chemscore.Internal_Hbond.Weighted>
0.0000

> <Gold.Chemscore.DEClash.Weighted>
0.0554

> <Gold.Chemscore.DEInternal.Weighted>
0.5170

> <Gold.Chemscore.Rot.Weighted>
4.9771

> <Gold.Chemscore.Internal.Correction.Weighted>
   9.000000E+99

> <Gold.Protein.RotatedTorsions>
[ 6907 6896 6895 6894 ] final  -35.23 input  -60.11 | X-H torsion
[ 7974 7965 7964 7962 ] final -148.37 input  175.53 | X-H torsion
[ 8008 7997 7996 7995 ] final   67.65 input   59.86 | X-H torsion
[ 10167 10162 10161 10158 ] final  -89.12 input  -65.29 | X-H torsion
[ 10718 10713 10712 10709 ] final -113.61 input   66.30 | X-H torsion
[ 10763 10752 10751 10750 ] final   78.49 input  -60.55 | X-H torsion
[ 11005 11000 10999 10996 ] final   37.96 input  -57.11 | X-H torsion

> <Gold.Protein.ActiveResidues>
 VAL166  LYS551  ARG553  GLY616  TRP617  ASP618  TYR619  PRO620  LYS621  CYS622 
 ASP623  PHE694  ASN695  SER759  ASP760  ASP761  ALA762  ILE779  LEU786  VAL792 
 PHE793  MET794  SER795  GLU796  ALA797  LYS798  CYS799  TRP800  GLU811  SER814 

> <Gold.Protein.RotatedAtoms>
  151.0425  134.9617  159.8168 H   0  0  0  0  0  0  0  0  0  0  0  0  # atno 6907 bound_to 6896
  152.5366  134.2640  159.8956 H   0  0  0  0  0  0  0  0  0  0  0  0  # atno 6908 bound_to 6896
  151.2653  133.4239  159.2652 H   0  0  0  0  0  0  0  0  0  0  0  0  # atno 6909 bound_to 6896
  144.8034  140.5206  143.5692 H   0  0  0  0  0  0  0  0  0  0  0  0  # atno 7974 bound_to 7965
  155.6962  140.3495  155.4914 H   0  0  0  0  0  0  0  0  0  0  0  0  # atno 8008 bound_to 7997
  155.9481  140.1114  157.1022 H   0  0  0  0  0  0  0  0  0  0  0  0  # atno 8009 bound_to 7997
  154.4116  140.1199  156.5002 H   0  0  0  0  0  0  0  0  0  0  0  0  # atno 8010 bound_to 7997
  140.3680  143.2808  151.9535 H   0  0  0  0  0  0  0  0  0  0  0  0  # atno 10167 bound_to 10162
  156.0777  130.5982  150.8665 H   0  0  0  0  0  0  0  0  0  0  0  0  # atno 10718 bound_to 10713
  153.0878  135.4875  154.8631 H   0  0  0  0  0  0  0  0  0  0  0  0  # atno 10763 bound_to 10752
  154.7232  135.3044  154.9015 H   0  0  0  0  0  0  0  0  0  0  0  0  # atno 10764 bound_to 10752
  153.9673  135.6805  153.4799 H   0  0  0  0  0  0  0  0  0  0  0  0  # atno 10765 bound_to 10752
  140.2174  134.3682  155.8021 H   0  0  0  0  0  0  0  0  0  0  0  0  # atno 11005 bound_to 11000
  145.5497  139.1476  143.3401 LP  0  0  0  0  0  0  0  0  0  0  0  0  # atno 17320 bound_to 7965
  146.2320  140.5636  142.8971 LP  0  0  0  0  0  0  0  0  0  0  0  0  # atno 17321 bound_to 7965
  139.4807  144.5933  151.7734 LP  0  0  0  0  0  0  0  0  0  0  0  0  # atno 17342 bound_to 10162
  140.5062  144.1095  150.5983 LP  0  0  0  0  0  0  0  0  0  0  0  0  # atno 17343 bound_to 10162
  157.5880  131.0945  150.9164 LP  0  0  0  0  0  0  0  0  0  0  0  0  # atno 17370 bound_to 10713
  156.9346  130.5362  149.5279 LP  0  0  0  0  0  0  0  0  0  0  0  0  # atno 17371 bound_to 10713
  141.2224  133.7175  156.8518 LP  0  0  0  0  0  0  0  0  0  0  0  0  # atno 17394 bound_to 11000
  140.1886  134.8982  157.3034 LP  0  0  0  0  0  0  0  0  0  0  0  0  # atno 17395 bound_to 11000

$$$$
