AV-unprocessed.smi:227|AV-procd|sdf|1735|dock2
  -GOLD-   2262020233D 1   1.00000     0.00000
 Structure written by MMmdl.
 54 58  0  0  0  0  0  0  0  0  1 V2000
  149.3090  140.8857  155.9525 O   0  0  0  0  0  0  0  0  0  0  0  0
  149.7626  141.1424  157.2649 C   0  0  0  0  0  0  0  0  0  0  0  0
  151.2168  140.6509  157.4580 C   0  0  2  0  0  0  0  0  0  0  0  0
  151.3676  139.1298  157.1801 C   0  0  0  0  0  0  0  0  0  0  0  0
  150.7062  138.2719  158.1534 N   0  0  0  0  0  0  0  0  0  0  0  0
  151.3018  137.5664  159.1736 C   0  0  0  0  0  0  0  0  0  0  0  0
  150.4887  136.8656  159.9134 N   0  0  0  0  0  0  0  0  0  0  0  0
  149.2332  137.0887  159.3600 C   0  0  0  0  0  0  0  0  0  0  0  0
  147.9101  136.6454  159.6604 C   0  0  0  0  0  0  0  0  0  0  0  0
  147.5790  135.8128  160.6872 N   0  0  0  0  0  0  0  0  0  0  0  0
  147.8475  136.1629  162.0746 C   0  0  2  0  0  0  0  0  0  0  0  0
  147.4832  134.8663  162.8182 C   0  0  0  0  0  0  0  0  0  0  0  0
  146.3104  134.3520  161.9717 C   0  0  0  0  0  0  0  0  0  0  0  0
  146.1815  135.4721  160.9230 C   0  0  1  0  0  0  0  0  0  0  0  0
  145.6019  136.7703  161.5435 C   0  0  1  0  0  0  0  0  0  0  0  0
  144.2636  136.6310  162.2922 C   0  0  0  0  0  0  0  0  0  0  0  0
  143.3156  135.9868  161.4682 O   0  0  0  0  0  0  0  0  0  0  0  0
  146.7917  137.2377  162.4039 C   0  0  0  0  0  0  0  0  0  0  0  0
  146.9134  137.0728  158.8404 N   0  0  0  0  0  0  0  0  0  0  0  0
  147.1757  137.8872  157.8156 C   0  0  0  0  0  0  0  0  0  0  0  0
  148.3492  138.3878  157.4298 N   0  0  0  0  0  0  0  0  0  0  0  0
  149.3595  137.9596  158.2384 C   0  0  0  0  0  0  0  0  0  0  0  0
  151.7624  141.0560  158.8528 C   0  0  1  0  0  0  0  0  0  0  0  0
  153.2193  140.6972  159.0943 C   0  0  0  0  0  0  0  0  0  0  0  0
  153.5773  141.5851  160.2804 C   0  0  0  0  0  0  0  0  0  0  0  0
  152.8019  142.7668  160.1193 O   0  0  0  0  0  0  0  0  0  0  0  0
  151.8150  142.5662  159.1124 C   0  0  0  0  0  0  0  0  0  0  0  0
  149.2557  139.9492  155.8326 H   0  0  0  0  0  0  0  0  0  0  0  0
  149.6930  142.2190  157.4161 H   0  0  0  0  0  0  0  0  0  0  0  0
  149.0854  140.6797  157.9830 H   0  0  0  0  0  0  0  0  0  0  0  0
  151.8274  141.1673  156.7156 H   0  0  0  0  0  0  0  0  0  0  0  0
  150.9745  138.8886  156.1920 H   0  0  0  0  0  0  0  0  0  0  0  0
  152.4211  138.8526  157.1431 H   0  0  0  0  0  0  0  0  0  0  0  0
  152.3649  137.5868  159.3592 H   0  0  0  0  0  0  0  0  0  0  0  0
  148.8668  136.4719  162.2977 H   0  0  0  0  0  0  0  0  0  0  0  0
  148.3110  134.1564  162.7969 H   0  0  0  0  0  0  0  0  0  0  0  0
  147.2112  135.0400  163.8601 H   0  0  0  0  0  0  0  0  0  0  0  0
  146.5799  133.4115  161.4893 H   0  0  0  0  0  0  0  0  0  0  0  0
  145.4036  134.1746  162.5481 H   0  0  0  0  0  0  0  0  0  0  0  0
  145.6368  135.1418  160.0377 H   0  0  0  0  0  0  0  0  0  0  0  0
  145.4558  137.4869  160.7330 H   0  0  0  0  0  0  0  0  0  0  0  0
  144.3957  136.0384  163.1976 H   0  0  0  0  0  0  0  0  0  0  0  0
  143.8632  137.6002  162.5886 H   0  0  0  0  0  0  0  0  0  0  0  0
  143.2804  135.0737  161.7087 H   0  0  0  0  0  0  0  0  0  0  0  0
  146.5662  137.2841  163.4700 H   0  0  0  0  0  0  0  0  0  0  0  0
  147.1257  138.2273  162.0897 H   0  0  0  0  0  0  0  0  0  0  0  0
  146.3232  138.1794  157.2204 H   0  0  0  0  0  0  0  0  0  0  0  0
  151.1531  140.6010  159.6350 H   0  0  0  0  0  0  0  0  0  0  0  0
  153.3841  139.6412  159.3048 H   0  0  0  0  0  0  0  0  0  0  0  0
  153.8269  140.9682  158.2296 H   0  0  0  0  0  0  0  0  0  0  0  0
  153.2877  141.1049  161.2159 H   0  0  0  0  0  0  0  0  0  0  0  0
  154.6431  141.8090  160.3284 H   0  0  0  0  0  0  0  0  0  0  0  0
  152.1289  143.1023  158.2157 H   0  0  0  0  0  0  0  0  0  0  0  0
  150.8530  142.9704  159.4283 H   0  0  0  0  0  0  0  0  0  0  0  0
  1  2  1  0  0  0  0
  1 28  1  0  0  0  0
  2  3  1  0  0  0  0
  2 29  1  0  0  0  0
  2 30  1  0  0  0  0
  3  4  1  0  0  0  0
  3 23  1  0  0  0  0
  3 31  1  0  0  0  0
  4  5  1  0  0  0  0
  4 32  1  0  0  0  0
  4 33  1  0  0  0  0
  5 22  1  0  0  0  0
  5  6  1  0  0  0  0
  6  7  2  0  0  0  0
  6 34  1  0  0  0  0
  7  8  1  0  0  0  0
  8 22  2  0  0  0  0
  8  9  1  0  0  0  0
  9 10  1  0  0  0  0
  9 19  2  0  0  0  0
 10 14  1  0  0  0  0
 10 11  1  0  0  0  0
 11 18  1  0  0  0  0
 11 12  1  0  0  0  0
 11 35  1  0  0  0  0
 12 13  1  0  0  0  0
 12 36  1  0  0  0  0
 12 37  1  0  0  0  0
 13 14  1  0  0  0  0
 13 38  1  0  0  0  0
 13 39  1  0  0  0  0
 14 15  1  0  0  0  0
 14 40  1  0  0  0  0
 15 16  1  0  0  0  0
 15 18  1  0  0  0  0
 15 41  1  0  0  0  0
 16 17  1  0  0  0  0
 16 42  1  0  0  0  0
 16 43  1  0  0  0  0
 17 44  1  0  0  0  0
 18 45  1  0  0  0  0
 18 46  1  0  0  0  0
 19 20  1  0  0  0  0
 20 21  2  0  0  0  0
 20 47  1  0  0  0  0
 21 22  1  0  0  0  0
 23 27  1  0  0  0  0
 23 24  1  0  0  0  0
 23 48  1  0  0  0  0
 24 25  1  0  0  0  0
 24 49  1  0  0  0  0
 24 50  1  0  0  0  0
 25 26  1  0  0  0  0
 25 51  1  0  0  0  0
 25 52  1  0  0  0  0
 26 27  1  0  0  0  0
 27 53  1  0  0  0  0
 27 54  1  0  0  0  0
M  END
> <s_m_source_file>
AV-unprocessed.smi

> <i_m_source_file_index>
227

> <i_lp_mmshare_version>
43012

> <i_f3d_flags>
0

> <s_epik_input>
W0NIMl0xT1tDSDJdW0NIMl1bQ0BIXTFbQ0BIXShbQ0gyXVtPSF0pW0NIMl1uKFtjSF1uMiljKGMyMyluW2NIXW5jM04oW0NASF00NSlbQ0BASF0oW0NIMl1bQ0gyXTQpW0NASF0oW0NIMl01KVtDSDJdW09IXQ==

> <s_epik_cmdline>
J2VwaWtfcHl0aG9uJywgJy1waCcsICc3LjAnLCAnLXRuJywgJzgnLCAnLW1hJywgJzIwMCcsICctbWV0YWxfYmluZGluZycsICctaW1hZScsICc8aW5maWxlLm1hZT4nLCAnLW9tYWUnLCAnPG91dGZpbGUubWFlPic=

> <r_lp_tautomer_probability>
1

> <r_epik_Ionization_Penalty>
0.0055791

> <r_epik_Ionization_Penalty_Charging>
0

> <r_epik_Ionization_Penalty_Neutral>
0.0055791

> <r_epik_State_Penalty>
0.00401299

> <r_epik_Charging_Adjusted_Penalty>
0.00401299

> <i_epik_Tot_Q>
0

> <i_epik_Tot_abs_Q>
0

> <r_epik_Metal_State_Penalty>
-0

> <b_epik_Metal_Only>
0

> <s_lp_Force_Field>
OPLS_2005

> <r_lp_Energy>
86.8427

> <b_lp_Chiralities_Consistent>
1

> <s_lp_Variant>
AV-unprocessed.smi:227-9

> <Gold.Version>
5.8.1

> <Gold.Id.Protein>
6NUR|6NUR_protein|mol2

> <Gold.PLP.Fitness>
46.4476

> <Gold.PLP.PLP>
-43.8378

> <Gold.PLP.part.hbond>
-1.5584

> <Gold.PLP.part.metal>
0.0000

> <Gold.PLP.part.buried>
-5.7826

> <Gold.PLP.part.nonpolar>
-36.8266

> <Gold.PLP.part.repulsive>
0.0093

> <Gold.PLP.ligand.clash>
0.0000

> <Gold.PLP.ligand.torsion>
0.3418

> <Gold.PLP.Chemscore.Hbond>
1.0000

> <Gold.PLP.Chemscore.CHOScore>
0.0000

> <Gold.PLP.Chemscore.Metal>
0.0000

> <Gold.Chemscore.Hbonds>
donor molecule, donor type, donor heavy atom, donor atom, acceptor molecule, acceptor atom, score
      P1  H  6896  6907       L1     7  1.00

> <Gold.PLP.Chemscore.Internal.Correction>
0.2935

> <Gold.Rescore>
     Score         DG    S(hbond)    S(metal)    S(lipo)     H(rot)  DE(clash)    DE(int)     intcor
      9.87     -11.32       0.95        0.00     101.55       3.61       0.02       1.43       ----

> <Gold.Chemscore.Fitness>
9.8713

> <Gold.Chemscore.DG>
-11.3158

> <Gold.Chemscore.ZeroCoef>
-5.4800

> <Gold.Chemscore.Hbond>
0.9548

> <Gold.Chemscore.Metal>
0.0000

> <Gold.Chemscore.Lipo>
101.5475

> <Gold.Chemscore.Internal_Hbond>
0.0000

> <Gold.Chemscore.DEClash>
0.0174

> <Gold.Chemscore.DEInternal>
1.4271

> <Gold.Chemscore.Rot>
3.6071

> <Gold.Chemscore.Internal.Correction>
   9.000000E+99

> <Gold.Chemscore.Hbonds>
donor molecule, donor type, donor heavy atom, donor atom, acceptor molecule, acceptor atom, score
      P1  H  6896  6907       L1     7  0.57

> <Gold.Chemscore.Hbond.Weighted>
-3.1889

> <Gold.Chemscore.Metal.Weighted>
-0.0000

> <Gold.Chemscore.Lipo.Weighted>
-11.8811

> <Gold.Chemscore.Internal_Hbond.Weighted>
0.0000

> <Gold.Chemscore.DEClash.Weighted>
0.0174

> <Gold.Chemscore.DEInternal.Weighted>
1.4271

> <Gold.Chemscore.Rot.Weighted>
9.2342

> <Gold.Chemscore.Internal.Correction.Weighted>
   9.000000E+99

> <Gold.Protein.RotatedTorsions>
[ 6907 6896 6895 6894 ] final  -37.62 input  -60.11 | X-H torsion
[ 7974 7965 7964 7962 ] final  101.05 input  175.53 | X-H torsion
[ 8008 7997 7996 7995 ] final  101.09 input   59.86 | X-H torsion
[ 10167 10162 10161 10158 ] final  -97.58 input  -65.29 | X-H torsion
[ 10718 10713 10712 10709 ] final   22.10 input   66.30 | X-H torsion
[ 10763 10752 10751 10750 ] final   85.96 input  -60.55 | X-H torsion
[ 11005 11000 10999 10996 ] final -143.57 input  -57.11 | X-H torsion

> <Gold.Protein.ActiveResidues>
 VAL166  LYS551  ARG553  GLY616  TRP617  ASP618  TYR619  PRO620  LYS621  CYS622 
 ASP623  PHE694  ASN695  SER759  ASP760  ASP761  ALA762  ILE779  LEU786  VAL792 
 PHE793  MET794  SER795  GLU796  ALA797  LYS798  CYS799  TRP800  GLU811  SER814 

> <Gold.Protein.RotatedAtoms>
  151.0124  134.9407  159.8014 H   0  0  0  0  0  0  0  0  0  0  0  0  # atno 6907 bound_to 6896
  152.5306  134.3010  159.9088 H   0  0  0  0  0  0  0  0  0  0  0  0  # atno 6908 bound_to 6896
  151.3016  133.4078  159.2674 H   0  0  0  0  0  0  0  0  0  0  0  0  # atno 6909 bound_to 6896
  145.3774  139.2386  143.3422 H   0  0  0  0  0  0  0  0  0  0  0  0  # atno 7974 bound_to 7965
  156.1266  140.3203  155.8287 H   0  0  0  0  0  0  0  0  0  0  0  0  # atno 8008 bound_to 7997
  155.4408  140.0525  157.3027 H   0  0  0  0  0  0  0  0  0  0  0  0  # atno 8009 bound_to 7997
  154.4867  140.2075  155.9652 H   0  0  0  0  0  0  0  0  0  0  0  0  # atno 8010 bound_to 7997
  140.2819  143.3276  152.0433 H   0  0  0  0  0  0  0  0  0  0  0  0  # atno 10167 bound_to 10162
  157.1476  130.6660  149.6001 H   0  0  0  0  0  0  0  0  0  0  0  0  # atno 10718 bound_to 10713
  153.1525  135.4598  154.9657 H   0  0  0  0  0  0  0  0  0  0  0  0  # atno 10763 bound_to 10752
  154.7836  135.3196  154.7939 H   0  0  0  0  0  0  0  0  0  0  0  0  # atno 10764 bound_to 10752
  153.8442  135.6927  153.4854 H   0  0  0  0  0  0  0  0  0  0  0  0  # atno 10765 bound_to 10752
  140.8112  134.2742  157.4940 H   0  0  0  0  0  0  0  0  0  0  0  0  # atno 11005 bound_to 11000
  146.2857  140.4436  142.8759 LP  0  0  0  0  0  0  0  0  0  0  0  0  # atno 17320 bound_to 7965
  144.8532  140.7032  143.6155 LP  0  0  0  0  0  0  0  0  0  0  0  0  # atno 17321 bound_to 7965
  139.4960  144.6586  151.6517 LP  0  0  0  0  0  0  0  0  0  0  0  0  # atno 17342 bound_to 10162
  140.5804  143.9955  150.6265 LP  0  0  0  0  0  0  0  0  0  0  0  0  # atno 17343 bound_to 10162
  155.9776  130.4755  150.6606 LP  0  0  0  0  0  0  0  0  0  0  0  0  # atno 17370 bound_to 10713
  157.4250  131.0842  151.1094 LP  0  0  0  0  0  0  0  0  0  0  0  0  # atno 17371 bound_to 10713
  139.8714  134.9484  156.3995 LP  0  0  0  0  0  0  0  0  0  0  0  0  # atno 17394 bound_to 11000
  140.9195  133.7654  155.9890 LP  0  0  0  0  0  0  0  0  0  0  0  0  # atno 17395 bound_to 11000

$$$$
