AV-unprocessed.smi:346|AV-procd|sdf|2392|dock4
  -GOLD-   2262022323D 1   1.00000     0.00000
 Structure written by MMmdl.
 33 34  0  0  0  0  0  0  0  0  1 V2000
  151.8517  145.6542  159.9484 C   0  0  0  0  0  0  0  0  0  0  0  0
  151.1959  144.4528  159.5828 O   0  0  0  0  0  0  0  0  0  0  0  0
  151.4426  144.0871  158.2360 C   0  0  0  0  0  0  0  0  0  0  0  0
  150.8078  142.7163  157.9735 C   0  0  0  0  0  0  0  0  0  0  0  0
  151.7192  141.6309  158.3000 N   0  0  0  0  0  0  0  0  0  0  0  0
  152.0025  140.5293  157.5607 C   0  0  0  0  0  0  0  0  0  0  0  0
  151.2394  140.2601  155.9860 S   0  0  0  0  0  0  0  0  0  0  0  0
  150.6672  138.5450  156.1857 C   0  0  0  0  0  0  0  0  0  0  0  0
  150.5844  137.7968  154.8572 C   0  0  0  0  0  0  0  0  0  0  0  0
  149.4905  137.9896  154.1152 N   0  0  0  0  0  0  0  0  0  0  0  0
  151.5002  137.0601  154.4982 O   0  0  0  0  0  0  0  0  0  0  0  0
  152.8849  139.6890  158.1052 N   0  0  0  0  0  0  0  0  0  0  0  0
  153.2033  140.3031  159.2998 C   0  0  0  0  0  0  0  0  0  0  0  0
  154.0874  139.9078  160.3289 C   0  0  0  0  0  0  0  0  0  0  0  0
  154.2548  140.7131  161.4747 C   0  0  0  0  0  0  0  0  0  0  0  0
  155.3369  140.2144  162.7223 Cl  0  0  0  0  0  0  0  0  0  0  0  0
  153.5422  141.9231  161.6059 C   0  0  0  0  0  0  0  0  0  0  0  0
  152.6561  142.3349  160.5917 C   0  0  0  0  0  0  0  0  0  0  0  0
  152.4918  141.5254  159.4518 C   0  0  0  0  0  0  0  0  0  0  0  0
  151.6278  145.8914  160.9884 H   0  0  0  0  0  0  0  0  0  0  0  0
  151.5168  146.4902  159.3331 H   0  0  0  0  0  0  0  0  0  0  0  0
  152.9338  145.5587  159.8499 H   0  0  0  0  0  0  0  0  0  0  0  0
  151.0205  144.8346  157.5625 H   0  0  0  0  0  0  0  0  0  0  0  0
  152.5172  144.0450  158.0508 H   0  0  0  0  0  0  0  0  0  0  0  0
  149.9027  142.6036  158.5709 H   0  0  0  0  0  0  0  0  0  0  0  0
  150.4982  142.6279  156.9319 H   0  0  0  0  0  0  0  0  0  0  0  0
  151.3464  138.0096  156.8502 H   0  0  0  0  0  0  0  0  0  0  0  0
  149.6839  138.5468  156.6581 H   0  0  0  0  0  0  0  0  0  0  0  0
  149.3950  137.5214  153.2258 H   0  0  0  0  0  0  0  0  0  0  0  0
  148.7651  138.6099  154.4445 H   0  0  0  0  0  0  0  0  0  0  0  0
  154.6373  138.9829  160.2358 H   0  0  0  0  0  0  0  0  0  0  0  0
  153.6749  142.5362  162.4856 H   0  0  0  0  0  0  0  0  0  0  0  0
  152.1104  143.2613  160.6898 H   0  0  0  0  0  0  0  0  0  0  0  0
  1  2  1  0  0  0  0
  1 20  1  0  0  0  0
  1 21  1  0  0  0  0
  1 22  1  0  0  0  0
  2  3  1  0  0  0  0
  3  4  1  0  0  0  0
  3 23  1  0  0  0  0
  3 24  1  0  0  0  0
  4  5  1  0  0  0  0
  4 25  1  0  0  0  0
  4 26  1  0  0  0  0
  5 19  1  0  0  0  0
  5  6  1  0  0  0  0
  6  7  1  0  0  0  0
  6 12  2  0  0  0  0
  7  8  1  0  0  0  0
  8  9  1  0  0  0  0
  8 27  1  0  0  0  0
  8 28  1  0  0  0  0
  9 10  1  0  0  0  0
  9 11  2  0  0  0  0
 10 29  1  0  0  0  0
 10 30  1  0  0  0  0
 12 13  1  0  0  0  0
 13 19  2  0  0  0  0
 13 14  1  0  0  0  0
 14 15  2  0  0  0  0
 14 31  1  0  0  0  0
 15 16  1  0  0  0  0
 15 17  1  0  0  0  0
 17 18  2  0  0  0  0
 17 32  1  0  0  0  0
 18 19  1  0  0  0  0
 18 33  1  0  0  0  0
M  END
> <s_m_source_file>
AV-unprocessed.smi

> <i_m_source_file_index>
346

> <i_lp_mmshare_version>
43012

> <i_f3d_flags>
0

> <s_epik_input>
W2NIXTFjKENsKVtjSF1bY0hdYyhjMTIpbihbQ0gyXVtDSDJdT1tDSDNdKWMobjIpU1tDSDJdQyg9TylbTkgyXQ==

> <s_epik_cmdline>
J2VwaWtfcHl0aG9uJywgJy1waCcsICc3LjAnLCAnLXRuJywgJzgnLCAnLW1hJywgJzIwMCcsICctbWV0YWxfYmluZGluZycsICctaW1hZScsICc8aW5maWxlLm1hZT4nLCAnLW9tYWUnLCAnPG91dGZpbGUubWFlPic=

> <r_epik_Ionization_Penalty>
0.00801462

> <r_epik_Ionization_Penalty_Charging>
0

> <r_epik_Ionization_Penalty_Neutral>
0.00801462

> <r_epik_State_Penalty>
0.00601782

> <r_epik_Charging_Adjusted_Penalty>
0.00601782

> <i_epik_Tot_Q>
0

> <i_epik_Tot_abs_Q>
0

> <r_epik_Metal_State_Penalty>
0.00593415

> <b_epik_Metal_Only>
0

> <s_lp_Force_Field>
OPLS_2005

> <r_lp_Energy>
4.29965

> <b_lp_Chiralities_Consistent>
1

> <s_lp_Variant>
AV-unprocessed.smi:346-1

> <Gold.Version>
5.8.1

> <Gold.Id.Protein>
6NUR|6NUR_protein|mol2

> <Gold.PLP.Fitness>
51.0499

> <Gold.PLP.PLP>
-43.8972

> <Gold.PLP.part.hbond>
-3.0000

> <Gold.PLP.part.metal>
0.0000

> <Gold.PLP.part.buried>
-5.2558

> <Gold.PLP.part.nonpolar>
-36.6035

> <Gold.PLP.part.repulsive>
0.2931

> <Gold.PLP.ligand.clash>
0.0000

> <Gold.PLP.ligand.torsion>
0.9242

> <Gold.PLP.Chemscore.Hbond>
2.9920

> <Gold.PLP.Chemscore.CHOScore>
0.0000

> <Gold.PLP.Chemscore.Metal>
0.0000

> <Gold.Chemscore.Hbonds>
donor molecule, donor type, donor heavy atom, donor atom, acceptor molecule, acceptor atom, score
      L1  H    10    29       P1  7948  1.00
      P1  H  7997  8010       L1    12  0.79
      P1  H 10752 10763       L1    11  1.00

> <Gold.PLP.Chemscore.Internal.Correction>
0.0250

> <Gold.Rescore>
     Score         DG    S(hbond)    S(metal)    S(lipo)     H(rot)  DE(clash)    DE(int)     intcor
     16.17     -17.31       2.02        0.00     102.13       2.68       0.00       1.14       ----

> <Gold.Chemscore.Fitness>
16.1740

> <Gold.Chemscore.DG>
-17.3118

> <Gold.Chemscore.ZeroCoef>
-5.4800

> <Gold.Chemscore.Hbond>
2.0201

> <Gold.Chemscore.Metal>
0.0000

> <Gold.Chemscore.Lipo>
102.1282

> <Gold.Chemscore.Internal_Hbond>
0.0000

> <Gold.Chemscore.DEClash>
0.0021

> <Gold.Chemscore.DEInternal>
1.1356

> <Gold.Chemscore.Rot>
2.6814

> <Gold.Chemscore.Internal.Correction>
   9.000000E+99

> <Gold.Chemscore.Hbonds>
donor molecule, donor type, donor heavy atom, donor atom, acceptor molecule, acceptor atom, score
      L1  H    10    29       P1  7948  0.94
      P1  H  7997  8010       L1    12  0.08
      P1  H 10752 10763       L1    11  0.94

> <Gold.Chemscore.Hbond.Weighted>
-6.7471

> <Gold.Chemscore.Metal.Weighted>
-0.0000

> <Gold.Chemscore.Lipo.Weighted>
-11.9490

> <Gold.Chemscore.Internal_Hbond.Weighted>
0.0000

> <Gold.Chemscore.DEClash.Weighted>
0.0021

> <Gold.Chemscore.DEInternal.Weighted>
1.1356

> <Gold.Chemscore.Rot.Weighted>
6.8644

> <Gold.Chemscore.Internal.Correction.Weighted>
   9.000000E+99

> <Gold.Protein.RotatedTorsions>
[ 6907 6896 6895 6894 ] final   69.53 input  -60.11 | X-H torsion
[ 7974 7965 7964 7962 ] final    5.80 input  175.53 | X-H torsion
[ 8008 7997 7996 7995 ] final   26.32 input   59.86 | X-H torsion
[ 10167 10162 10161 10158 ] final  -20.89 input  -65.29 | X-H torsion
[ 10718 10713 10712 10709 ] final  102.72 input   66.30 | X-H torsion
[ 10763 10752 10751 10750 ] final   40.01 input  -60.55 | X-H torsion
[ 11005 11000 10999 10996 ] final -132.14 input  -57.11 | X-H torsion

> <Gold.Protein.ActiveResidues>
 VAL166  LYS551  ARG553  GLY616  TRP617  ASP618  TYR619  PRO620  LYS621  CYS622 
 ASP623  PHE694  ASN695  SER759  ASP760  ASP761  ALA762  ILE779  LEU786  VAL792 
 PHE793  MET794  SER795  GLU796  ALA797  LYS798  CYS799  TRP800  GLU811  SER814 

> <Gold.Protein.RotatedAtoms>
  152.4692  134.5002  159.9722 H   0  0  0  0  0  0  0  0  0  0  0  0  # atno 6907 bound_to 6896
  151.5032  133.3494  159.2880 H   0  0  0  0  0  0  0  0  0  0  0  0  # atno 6908 bound_to 6896
  150.8692  134.8091  159.7204 H   0  0  0  0  0  0  0  0  0  0  0  0  # atno 6909 bound_to 6896
  146.2438  140.0329  142.8388 H   0  0  0  0  0  0  0  0  0  0  0  0  # atno 7974 bound_to 7965
  155.0254  140.3152  155.4778 H   0  0  0  0  0  0  0  0  0  0  0  0  # atno 8008 bound_to 7997
  156.2884  140.2190  156.5316 H   0  0  0  0  0  0  0  0  0  0  0  0  # atno 8009 bound_to 7997
  154.7416  140.0473  157.0804 H   0  0  0  0  0  0  0  0  0  0  0  0  # atno 8010 bound_to 7997
  140.7279  143.4679  151.0287 H   0  0  0  0  0  0  0  0  0  0  0  0  # atno 10167 bound_to 10162
  157.6794  131.0760  150.5446 H   0  0  0  0  0  0  0  0  0  0  0  0  # atno 10718 bound_to 10713
  152.9949  135.6204  154.2557 H   0  0  0  0  0  0  0  0  0  0  0  0  # atno 10763 bound_to 10752
  154.2294  135.2792  155.2897 H   0  0  0  0  0  0  0  0  0  0  0  0  # atno 10764 bound_to 10752
  154.5462  135.5746  153.6940 H   0  0  0  0  0  0  0  0  0  0  0  0  # atno 10765 bound_to 10752
  140.9197  134.1460  157.4324 H   0  0  0  0  0  0  0  0  0  0  0  0  # atno 11005 bound_to 11000
  145.1138  140.9421  143.4641 LP  0  0  0  0  0  0  0  0  0  0  0  0  # atno 17320 bound_to 7965
  145.0549  139.3151  143.5910 LP  0  0  0  0  0  0  0  0  0  0  0  0  # atno 17321 bound_to 7965
  139.8369  143.7615  152.3180 LP  0  0  0  0  0  0  0  0  0  0  0  0  # atno 17342 bound_to 10162
  139.7751  144.7464  151.0169 LP  0  0  0  0  0  0  0  0  0  0  0  0  # atno 17343 bound_to 10162
  156.5752  130.4290  149.6001 LP  0  0  0  0  0  0  0  0  0  0  0  0  # atno 17370 bound_to 10713
  156.2707  130.7015  151.1811 LP  0  0  0  0  0  0  0  0  0  0  0  0  # atno 17371 bound_to 10713
  139.8773  134.9967  156.5807 LP  0  0  0  0  0  0  0  0  0  0  0  0  # atno 17394 bound_to 11000
  140.8004  133.8510  155.8722 LP  0  0  0  0  0  0  0  0  0  0  0  0  # atno 17395 bound_to 11000

$$$$
