AV-unprocessed.smi:2336|AV-procd|sdf|9329|dock3
  -GOLD-   2272012553D 1   1.00000     0.00000
 Structure written by MMmdl.
 50 51  0  0  0  0  0  0  0  0  2 V2000
  147.0065  140.1028  155.7549 C   0  0  0  0  0  0  0  0  0  0  0  0
  147.6453  140.4306  154.3917 C   0  0  0  0  0  0  0  0  0  0  0  0
  146.7931  141.5080  153.6913 C   0  0  0  0  0  0  0  0  0  0  0  0
  147.8473  139.1750  153.4929 C   0  0  2  0  0  0  0  0  0  0  0  0
  146.5308  138.3735  153.2749 C   0  0  0  0  0  0  0  0  0  0  0  0
  146.6987  137.2145  152.4019 N   0  0  0  0  0  0  0  0  0  0  0  0
  145.7365  136.3465  152.0575 C   0  0  0  0  0  0  0  0  0  0  0  0
  144.5717  136.4342  152.4445 O   0  0  0  0  0  0  0  0  0  0  0  0
  146.2257  135.3693  151.2756 N   0  0  0  0  0  0  0  0  0  0  0  0
  145.5439  134.2571  150.7106 C   0  0  0  0  0  0  0  0  0  0  0  0
  144.2353  134.3166  150.1728 C   0  0  0  0  0  0  0  0  0  0  0  0
  143.6793  133.1449  149.6209 C   0  0  0  0  0  0  0  0  0  0  0  0
  144.3315  131.9643  149.5699 N   0  0  0  0  0  0  0  0  0  0  0  0
  145.5834  131.9145  150.0724 C   0  0  0  0  0  0  0  0  0  0  0  0
  146.2316  133.0269  150.6460 C   0  0  0  0  0  0  0  0  0  0  0  0
  147.4920  132.9106  151.1298 F   0  0  0  0  0  0  0  0  0  0  0  0
  148.9824  138.3524  154.0202 N   0  3  0  0  0  0  0  0  0  0  0  0
  148.6953  137.5877  155.2603 C   0  0  0  0  0  0  0  0  0  0  0  0
  149.8355  136.5886  155.5458 C   0  0  0  0  0  0  0  0  0  0  0  0
  151.1387  137.2498  155.6393 N   0  0  0  0  0  0  0  0  0  0  0  0
  151.2876  138.0577  156.8455 C   0  0  0  0  0  0  0  0  0  0  0  0
  151.4092  137.9972  154.4093 C   0  0  0  0  0  0  0  0  0  0  0  0
  150.3035  139.0271  154.1006 C   0  0  0  0  0  0  0  0  0  0  0  0
  146.0675  139.5614  155.6348 H   0  0  0  0  0  0  0  0  0  0  0  0
  146.7922  141.0126  156.3165 H   0  0  0  0  0  0  0  0  0  0  0  0
  147.6661  139.5037  156.3823 H   0  0  0  0  0  0  0  0  0  0  0  0
  148.6210  140.8713  154.5990 H   0  0  0  0  0  0  0  0  0  0  0  0
  145.8082  141.1227  153.4250 H   0  0  0  0  0  0  0  0  0  0  0  0
  147.2652  141.8780  152.7811 H   0  0  0  0  0  0  0  0  0  0  0  0
  146.6435  142.3723  154.3392 H   0  0  0  0  0  0  0  0  0  0  0  0
  148.1538  139.5527  152.5161 H   0  0  0  0  0  0  0  0  0  0  0  0
  146.0948  138.0974  154.2361 H   0  0  0  0  0  0  0  0  0  0  0  0
  145.7877  138.9976  152.7812 H   0  0  0  0  0  0  0  0  0  0  0  0
  147.6241  137.0625  152.0274 H   0  0  0  0  0  0  0  0  0  0  0  0
  147.2214  135.3872  151.1105 H   0  0  0  0  0  0  0  0  0  0  0  0
  143.6574  135.2277  150.1582 H   0  0  0  0  0  0  0  0  0  0  0  0
  142.6838  133.1593  149.2020 H   0  0  0  0  0  0  0  0  0  0  0  0
  146.0844  130.9594  150.0135 H   0  0  0  0  0  0  0  0  0  0  0  0
  148.5530  138.2488  156.1126 H   0  0  0  0  0  0  0  0  0  0  0  0
  147.7645  137.0332  155.1385 H   0  0  0  0  0  0  0  0  0  0  0  0
  149.6373  136.0377  156.4659 H   0  0  0  0  0  0  0  0  0  0  0  0
  149.8795  135.8476  154.7463 H   0  0  0  0  0  0  0  0  0  0  0  0
  152.2948  138.4724  156.8991 H   0  0  0  0  0  0  0  0  0  0  0  0
  151.1370  137.4420  157.7329 H   0  0  0  0  0  0  0  0  0  0  0  0
  150.5813  138.8861  156.8882 H   0  0  0  0  0  0  0  0  0  0  0  0
  152.3783  138.4914  154.4867 H   0  0  0  0  0  0  0  0  0  0  0  0
  151.4885  137.2891  153.5832 H   0  0  0  0  0  0  0  0  0  0  0  0
  150.5277  139.5148  153.1524 H   0  0  0  0  0  0  0  0  0  0  0  0
  150.2994  139.8095  154.8562 H   0  0  0  0  0  0  0  0  0  0  0  0
  149.1024  137.6346  153.3199 H   0  0  0  0  0  0  0  0  0  0  0  0
  1  2  1  0  0  0  0
  1 24  1  0  0  0  0
  1 25  1  0  0  0  0
  1 26  1  0  0  0  0
  2  3  1  0  0  0  0
  2  4  1  0  0  0  0
  2 27  1  0  0  0  0
  3 28  1  0  0  0  0
  3 29  1  0  0  0  0
  3 30  1  0  0  0  0
  4  5  1  0  0  0  0
  4 17  1  0  0  0  0
  4 31  1  0  0  0  0
  5  6  1  0  0  0  0
  5 32  1  0  0  0  0
  5 33  1  0  0  0  0
  6  7  1  0  0  0  0
  6 34  1  0  0  0  0
  7  8  2  0  0  0  0
  7  9  1  0  0  0  0
  9 10  1  0  0  0  0
  9 35  1  0  0  0  0
 10 15  1  0  0  0  0
 10 11  2  0  0  0  0
 11 12  1  0  0  0  0
 11 36  1  0  0  0  0
 12 13  2  0  0  0  0
 12 37  1  0  0  0  0
 13 14  1  0  0  0  0
 14 15  2  0  0  0  0
 14 38  1  0  0  0  0
 15 16  1  0  0  0  0
 17 23  1  0  0  0  0
 17 18  1  0  0  0  0
 17 50  1  0  0  0  0
 18 19  1  0  0  0  0
 18 39  1  0  0  0  0
 18 40  1  0  0  0  0
 19 20  1  0  0  0  0
 19 41  1  0  0  0  0
 19 42  1  0  0  0  0
 20 21  1  0  0  0  0
 20 22  1  0  0  0  0
 21 43  1  0  0  0  0
 21 44  1  0  0  0  0
 21 45  1  0  0  0  0
 22 23  1  0  0  0  0
 22 46  1  0  0  0  0
 22 47  1  0  0  0  0
 23 48  1  0  0  0  0
 23 49  1  0  0  0  0
M  CHG  1  17   1
M  END
> <s_m_source_file>
AV-unprocessed.smi

> <i_m_source_file_index>
2336

> <i_lp_mmshare_version>
43012

> <i_f3d_flags>
0

> <s_epik_input>
W0NIMl0xW0NIMl1OKFtDSDNdKVtDSDJdW0NIMl1OMVtDQEhdKFtDSF0oW0NIM10pW0NIM10pW0NIMl1bTkhdQyg9TylbTkhdYzJbY0hdW2NIXW5bY0hdYzJG

> <s_epik_cmdline>
J2VwaWtfcHl0aG9uJywgJy1waCcsICc3LjAnLCAnLXRuJywgJzgnLCAnLW1hJywgJzIwMCcsICctbWV0YWxfYmluZGluZycsICctaW1hZScsICc8aW5maWxlLm1hZT4nLCAnLW9tYWUnLCAnPG91dGZpbGUubWFlPic=

> <r_epik_Ionization_Penalty>
0.204575

> <r_epik_Ionization_Penalty_Charging>
0.20006

> <r_epik_Ionization_Penalty_Neutral>
0.00451444

> <r_epik_State_Penalty>
1.43207

> <r_epik_Charging_Adjusted_Penalty>
1.63213

> <i_epik_Tot_Q>
1

> <i_epik_Tot_abs_Q>
1

> <r_epik_Metal_State_Penalty>
1.43277

> <b_epik_Metal_Only>
0

> <s_lp_Force_Field>
OPLS_2005

> <r_lp_Energy>
38.6222

> <b_lp_Chiralities_Consistent>
1

> <s_lp_Variant>
AV-unprocessed.smi:2336-3

> <Gold.Version>
5.8.1

> <Gold.Id.Protein>
6NUR|6NUR_protein|mol2

> <Gold.PLP.Fitness>
47.1194

> <Gold.PLP.PLP>
-32.1400

> <Gold.PLP.part.hbond>
-3.8575

> <Gold.PLP.part.metal>
0.0000

> <Gold.PLP.part.buried>
-0.5285

> <Gold.PLP.part.nonpolar>
-28.6299

> <Gold.PLP.part.repulsive>
0.5015

> <Gold.PLP.ligand.clash>
0.0000

> <Gold.PLP.ligand.torsion>
0.5015

> <Gold.PLP.Chemscore.Hbond>
4.0765

> <Gold.PLP.Chemscore.CHOScore>
1.1781

> <Gold.PLP.Chemscore.Metal>
0.0000

> <Gold.Chemscore.Hbonds>
donor molecule, donor type, donor heavy atom, donor atom, acceptor molecule, acceptor atom, score
      L1  H     6    34       P1  7948  1.00
      L1  H     9    35       P1  7948  0.85
      L1  H    17    50       P1  7948  2.00
      P1  H 10785 10796       L1    13  0.21
      L1  C    12    37       P1 10186  1.00
      L1  C    14    38       P1 10747  0.08

> <Gold.PLP.Chemscore.Internal.Correction>
0.2186

> <Gold.Rescore>
     Score         DG    S(hbond)    S(metal)    S(lipo)     H(rot)  DE(clash)    DE(int)     intcor
     19.16     -21.09       2.65        0.00      94.27       1.67       1.39       0.54       ----

> <Gold.Chemscore.Fitness>
19.1617

> <Gold.Chemscore.DG>
-21.0904

> <Gold.Chemscore.ZeroCoef>
-5.4800

> <Gold.Chemscore.Hbond>
2.6544

> <Gold.Chemscore.Metal>
0.0000

> <Gold.Chemscore.Lipo>
94.2731

> <Gold.Chemscore.Internal_Hbond>
0.0000

> <Gold.Chemscore.DEClash>
1.3852

> <Gold.Chemscore.DEInternal>
0.5436

> <Gold.Chemscore.Rot>
1.6739

> <Gold.Chemscore.Internal.Correction>
   9.000000E+99

> <Gold.Chemscore.Hbonds>
donor molecule, donor type, donor heavy atom, donor atom, acceptor molecule, acceptor atom, score
      L1  H     6    34       P1  7948  0.94
      L1  H     9    35       P1  7948  0.60
      L1  H    17    50       P1  7948  0.96
      P1  H 10785 10796       L1    13  0.21

> <Gold.Chemscore.Hbond.Weighted>
-8.8656

> <Gold.Chemscore.Metal.Weighted>
-0.0000

> <Gold.Chemscore.Lipo.Weighted>
-11.0300

> <Gold.Chemscore.Internal_Hbond.Weighted>
0.0000

> <Gold.Chemscore.DEClash.Weighted>
1.3852

> <Gold.Chemscore.DEInternal.Weighted>
0.5436

> <Gold.Chemscore.Rot.Weighted>
4.2851

> <Gold.Chemscore.Internal.Correction.Weighted>
   9.000000E+99

> <Gold.Protein.RotatedTorsions>
[ 6907 6896 6895 6894 ] final -170.30 input  -60.11 | X-H torsion
[ 7974 7965 7964 7962 ] final  -38.82 input  175.53 | X-H torsion
[ 8008 7997 7996 7995 ] final  101.59 input   59.86 | X-H torsion
[ 10167 10162 10161 10158 ] final -147.92 input  -65.29 | X-H torsion
[ 10718 10713 10712 10709 ] final   77.95 input   66.30 | X-H torsion
[ 10763 10752 10751 10750 ] final  -31.98 input  -60.55 | X-H torsion
[ 11005 11000 10999 10996 ] final  -70.57 input  -57.11 | X-H torsion

> <Gold.Protein.ActiveResidues>
 VAL166  LYS551  ARG553  GLY616  TRP617  ASP618  TYR619  PRO620  LYS621  CYS622 
 ASP623  PHE694  ASN695  SER759  ASP760  ASP761  ALA762  ILE779  LEU786  VAL792 
 PHE793  MET794  SER795  GLU796  ALA797  LYS798  CYS799  TRP800  GLU811  SER814 

> <Gold.Protein.RotatedAtoms>
  151.5055  133.3495  159.2875 H   0  0  0  0  0  0  0  0  0  0  0  0  # atno 6907 bound_to 6896
  150.8746  134.8128  159.7191 H   0  0  0  0  0  0  0  0  0  0  0  0  # atno 6908 bound_to 6896
  152.4721  134.4944  159.9757 H   0  0  0  0  0  0  0  0  0  0  0  0  # atno 6909 bound_to 6896
  146.0452  140.6556  142.9068 H   0  0  0  0  0  0  0  0  0  0  0  0  # atno 7974 bound_to 7965
  156.1313  140.3195  155.8354 H   0  0  0  0  0  0  0  0  0  0  0  0  # atno 8008 bound_to 7997
  155.4326  140.0520  157.3034 H   0  0  0  0  0  0  0  0  0  0  0  0  # atno 8009 bound_to 7997
  154.4902  140.2089  155.9579 H   0  0  0  0  0  0  0  0  0  0  0  0  # atno 8010 bound_to 7997
  139.7578  143.8422  152.2601 H   0  0  0  0  0  0  0  0  0  0  0  0  # atno 10167 bound_to 10162
  157.6728  130.9845  150.1715 H   0  0  0  0  0  0  0  0  0  0  0  0  # atno 10718 bound_to 10713
  153.8063  135.6886  153.4848 H   0  0  0  0  0  0  0  0  0  0  0  0  # atno 10763 bound_to 10752
  153.1657  135.4562  154.9832 H   0  0  0  0  0  0  0  0  0  0  0  0  # atno 10764 bound_to 10752
  154.7986  135.3329  154.7547 H   0  0  0  0  0  0  0  0  0  0  0  0  # atno 10765 bound_to 10752
  141.1576  133.6793  156.6773 H   0  0  0  0  0  0  0  0  0  0  0  0  # atno 11005 bound_to 11000
  144.7094  140.3981  143.7092 LP  0  0  0  0  0  0  0  0  0  0  0  0  # atno 17320 bound_to 7965
  145.6818  139.1620  143.2696 LP  0  0  0  0  0  0  0  0  0  0  0  0  # atno 17321 bound_to 7965
  139.8419  144.7206  150.9320 LP  0  0  0  0  0  0  0  0  0  0  0  0  # atno 17342 bound_to 10162
  140.7804  143.3976  151.1204 LP  0  0  0  0  0  0  0  0  0  0  0  0  # atno 17343 bound_to 10162
  156.2468  130.3696  149.8276 LP  0  0  0  0  0  0  0  0  0  0  0  0  # atno 17370 bound_to 10713
  156.6060  130.8567  151.3443 LP  0  0  0  0  0  0  0  0  0  0  0  0  # atno 17371 bound_to 10713
  140.3129  134.8071  157.4191 LP  0  0  0  0  0  0  0  0  0  0  0  0  # atno 17394 bound_to 11000
  140.1163  134.5279  155.8222 LP  0  0  0  0  0  0  0  0  0  0  0  0  # atno 17395 bound_to 11000

$$$$
