AV-unprocessed.smi:101|AV-procd|sdf|916|dock8
  -GOLD-   2262017413D 1   1.00000     0.00000
 Structure written by MMmdl.
 44 46  0  0  0  0  0  0  0  0  1 V2000
  150.3347  133.3279  153.8112 C   0  0  0  0  0  0  0  0  0  0  0  0
  149.1926  134.3037  154.0423 C   0  0  0  0  0  0  0  0  0  0  0  0
  149.3883  135.5418  154.5640 C   0  0  0  0  0  0  0  0  0  0  0  0
  148.3644  136.4541  154.7870 N   0  0  0  0  0  0  0  0  0  0  0  0
  148.6187  137.8319  155.3680 C   0  0  1  0  0  0  0  0  0  0  0  0
  149.9740  137.9584  155.6925 O   0  0  0  0  0  0  0  0  0  0  0  0
  150.5850  138.9271  154.8475 C   0  0  2  0  0  0  0  0  0  0  0  0
  151.8272  139.5221  155.5251 C   0  0  0  0  0  0  0  0  0  0  0  0
  151.4436  140.5059  156.4730 O   0  0  0  0  0  0  0  0  0  0  0  0
  152.1142  140.6258  157.6339 C   0  0  0  0  0  0  0  0  0  0  0  0
  152.8865  139.7688  158.0683 O   0  0  0  0  0  0  0  0  0  0  0  0
  151.8226  141.9066  158.3400 C   0  0  0  0  0  0  0  0  0  0  0  0
  150.9781  142.8605  157.7254 C   0  0  0  0  0  0  0  0  0  0  0  0
  150.6869  144.0798  158.3674 C   0  0  0  0  0  0  0  0  0  0  0  0
  151.2367  144.3605  159.6318 C   0  0  0  0  0  0  0  0  0  0  0  0
  152.0783  143.4200  160.2539 C   0  0  0  0  0  0  0  0  0  0  0  0
  152.3704  142.1997  159.6138 C   0  0  0  0  0  0  0  0  0  0  0  0
  149.4542  139.9112  154.5527 C   0  0  1  0  0  0  0  0  0  0  0  0
  149.7047  140.7195  153.4181 O   0  0  0  0  0  0  0  0  0  0  0  0
  148.2581  138.9787  154.3904 C   0  0  1  0  0  0  0  0  0  0  0  0
  148.0949  138.5472  153.0469 O   0  0  0  0  0  0  0  0  0  0  0  0
  147.0422  136.1040  154.4460 C   0  0  0  0  0  0  0  0  0  0  0  0
  146.0916  136.8714  154.5927 O   0  0  0  0  0  0  0  0  0  0  0  0
  146.8401  134.8323  153.9138 N   0  0  0  0  0  0  0  0  0  0  0  0
  147.8363  133.8806  153.6828 C   0  0  0  0  0  0  0  0  0  0  0  0
  147.5335  132.7874  153.2076 O   0  0  0  0  0  0  0  0  0  0  0  0
  145.8940  134.5775  153.6706 H   0  0  0  0  0  0  0  0  0  0  0  0
  151.2960  133.7548  154.0979 H   0  0  0  0  0  0  0  0  0  0  0  0
  150.3936  133.0508  152.7581 H   0  0  0  0  0  0  0  0  0  0  0  0
  150.1842  132.4204  154.3970 H   0  0  0  0  0  0  0  0  0  0  0  0
  150.4008  135.8215  154.8114 H   0  0  0  0  0  0  0  0  0  0  0  0
  148.0627  137.8744  156.3065 H   0  0  0  0  0  0  0  0  0  0  0  0
  150.8830  138.4304  153.9228 H   0  0  0  0  0  0  0  0  0  0  0  0
  152.3934  138.7333  156.0220 H   0  0  0  0  0  0  0  0  0  0  0  0
  152.4799  139.9705  154.7747 H   0  0  0  0  0  0  0  0  0  0  0  0
  150.5443  142.6678  156.7547 H   0  0  0  0  0  0  0  0  0  0  0  0
  150.0408  144.8003  157.8883 H   0  0  0  0  0  0  0  0  0  0  0  0
  151.0129  145.2958  160.1235 H   0  0  0  0  0  0  0  0  0  0  0  0
  152.5015  143.6345  161.2242 H   0  0  0  0  0  0  0  0  0  0  0  0
  153.0202  141.5001  160.1191 H   0  0  0  0  0  0  0  0  0  0  0  0
  149.2815  140.5564  155.4149 H   0  0  0  0  0  0  0  0  0  0  0  0
  149.7131  140.1666  152.6516 H   0  0  0  0  0  0  0  0  0  0  0  0
  147.3310  139.4544  154.7119 H   0  0  0  0  0  0  0  0  0  0  0  0
  148.6458  137.7920  152.9077 H   0  0  0  0  0  0  0  0  0  0  0  0
  1  2  1  0  0  0  0
  1 28  1  0  0  0  0
  1 29  1  0  0  0  0
  1 30  1  0  0  0  0
  2 25  1  0  0  0  0
  2  3  2  0  0  0  0
  3  4  1  0  0  0  0
  3 31  1  0  0  0  0
  4  5  1  0  0  0  0
  4 22  1  0  0  0  0
  5 20  1  0  0  0  0
  5  6  1  0  0  0  0
  5 32  1  0  0  0  0
  6  7  1  0  0  0  0
  7  8  1  0  0  0  0
  7 18  1  0  0  0  0
  7 33  1  0  0  0  0
  8  9  1  0  0  0  0
  8 34  1  0  0  0  0
  8 35  1  0  0  0  0
  9 10  1  0  0  0  0
 10 11  2  0  0  0  0
 10 12  1  0  0  0  0
 12 17  1  0  0  0  0
 12 13  2  0  0  0  0
 13 14  1  0  0  0  0
 13 36  1  0  0  0  0
 14 15  2  0  0  0  0
 14 37  1  0  0  0  0
 15 16  1  0  0  0  0
 15 38  1  0  0  0  0
 16 17  2  0  0  0  0
 16 39  1  0  0  0  0
 17 40  1  0  0  0  0
 18 19  1  0  0  0  0
 18 20  1  0  0  0  0
 18 41  1  0  0  0  0
 19 42  1  0  0  0  0
 20 21  1  0  0  0  0
 20 43  1  0  0  0  0
 21 44  1  0  0  0  0
 22 23  2  0  0  0  0
 22 24  1  0  0  0  0
 24 27  1  0  0  0  0
 24 25  1  0  0  0  0
 25 26  2  0  0  0  0
M  END
> <s_m_source_file>
AV-unprocessed.smi

> <i_m_source_file_index>
101

> <i_lp_mmshare_version>
43012

> <i_f3d_flags>
0

> <s_epik_input>
Tz1jMVtuSF1jKD1PKW4oW2NIXWMxW0NIM10pW0NAQEhdMk9bQ0BIXShbQ0BASF0oW09IXSlbQ0BIXTJbT0hdKVtDSDJdT0MoPU8pYzNbY0hdW2NIXVtjSF1bY0hdW2NIXTM=

> <s_epik_cmdline>
J2VwaWtfcHl0aG9uJywgJy1waCcsICc3LjAnLCAnLXRuJywgJzgnLCAnLW1hJywgJzIwMCcsICctbWV0YWxfYmluZGluZycsICctaW1hZScsICc8aW5maWxlLm1hZT4nLCAnLW9tYWUnLCAnPG91dGZpbGUubWFlPic=

> <r_lp_tautomer_probability>
0.999537

> <r_epik_Ionization_Penalty>
0.00263537

> <r_epik_Ionization_Penalty_Charging>
0.00263428

> <r_epik_Ionization_Penalty_Neutral>
1.09111e-06

> <r_epik_State_Penalty>
0.00183335

> <r_epik_Charging_Adjusted_Penalty>
0.00446763

> <i_epik_Tot_Q>
0

> <i_epik_Tot_abs_Q>
0

> <r_epik_Metal_State_Penalty>
1.00528

> <b_epik_Metal_Only>
0

> <s_epik_Chemistry_Notes>
This compound has an ester and may undergo hydrolysis at high or low pH. This compound contains an acetal/aminal-like group ( X-CH(R)-Y where X, Y are N, S, or O) that may be acid/base labile, releasing an aldehyde.

> <s_lp_Force_Field>
OPLS_2005

> <r_lp_Energy>
40.9392

> <b_lp_Chiralities_Consistent>
1

> <s_lp_Variant>
AV-unprocessed.smi:101-4

> <Gold.Version>
5.8.1

> <Gold.Id.Protein>
6NUR|6NUR_protein|mol2

> <Gold.PLP.Fitness>
51.4324

> <Gold.PLP.PLP>
-40.8378

> <Gold.PLP.part.hbond>
-4.9863

> <Gold.PLP.part.metal>
0.0000

> <Gold.PLP.part.buried>
-2.7581

> <Gold.PLP.part.nonpolar>
-32.4268

> <Gold.PLP.part.repulsive>
0.1597

> <Gold.PLP.ligand.clash>
0.0000

> <Gold.PLP.ligand.torsion>
0.6733

> <Gold.PLP.Chemscore.Hbond>
3.9516

> <Gold.PLP.Chemscore.CHOScore>
0.0000

> <Gold.PLP.Chemscore.Metal>
0.0000

> <Gold.Chemscore.Hbonds>
donor molecule, donor type, donor heavy atom, donor atom, acceptor molecule, acceptor atom, score
      L1  H    19    42       P1  7957  0.90
      L1  H    21    44       P1  7948  0.93
      P1  H  7989  7998       L1    19  0.23
      P1  H  7997  8010       L1    11  0.96
      P1  H  8011  8017       L1    19  0.65

> <Gold.PLP.Chemscore.Internal.Correction>
0.0865

> <Gold.Rescore>
     Score         DG    S(hbond)    S(metal)    S(lipo)     H(rot)  DE(clash)    DE(int)     intcor
     16.60     -17.38       2.63        0.00      99.09       3.32       0.12       0.66       ----

> <Gold.Chemscore.Fitness>
16.6009

> <Gold.Chemscore.DG>
-17.3805

> <Gold.Chemscore.ZeroCoef>
-5.4800

> <Gold.Chemscore.Hbond>
2.6344

> <Gold.Chemscore.Metal>
0.0000

> <Gold.Chemscore.Lipo>
99.0907

> <Gold.Chemscore.Internal_Hbond>
0.0000

> <Gold.Chemscore.DEClash>
0.1231

> <Gold.Chemscore.DEInternal>
0.6565

> <Gold.Chemscore.Rot>
3.3172

> <Gold.Chemscore.Internal.Correction>
   9.000000E+99

> <Gold.Chemscore.Hbonds>
donor molecule, donor type, donor heavy atom, donor atom, acceptor molecule, acceptor atom, score
      L1  H    19    42       P1  7957  0.83
      L1  H    21    44       P1  7948  0.89
      P1  H  7989  7998       L1    19  0.01
      P1  H  7997  8010       L1    11  0.53
      P1  H  8011  8017       L1    19  0.05

> <Gold.Chemscore.Hbond.Weighted>
-8.7989

> <Gold.Chemscore.Metal.Weighted>
-0.0000

> <Gold.Chemscore.Lipo.Weighted>
-11.5936

> <Gold.Chemscore.Internal_Hbond.Weighted>
0.0000

> <Gold.Chemscore.DEClash.Weighted>
0.1231

> <Gold.Chemscore.DEInternal.Weighted>
0.6565

> <Gold.Chemscore.Rot.Weighted>
8.4920

> <Gold.Chemscore.Internal.Correction.Weighted>
   9.000000E+99

> <Gold.Protein.RotatedTorsions>
[ 6907 6896 6895 6894 ] final   44.73 input  -60.11 | X-H torsion
[ 7974 7965 7964 7962 ] final   42.50 input  175.53 | X-H torsion
[ 8008 7997 7996 7995 ] final   27.19 input   59.86 | X-H torsion
[ 10167 10162 10161 10158 ] final -163.20 input  -65.29 | X-H torsion
[ 10718 10713 10712 10709 ] final  122.25 input   66.30 | X-H torsion
[ 10763 10752 10751 10750 ] final -102.92 input  -60.55 | X-H torsion
[ 11005 11000 10999 10996 ] final  -79.49 input  -57.11 | X-H torsion

> <Gold.Protein.ActiveResidues>
 VAL166  LYS551  ARG553  GLY616  TRP617  ASP618  TYR619  PRO620  LYS621  CYS622 
 ASP623  PHE694  ASN695  SER759  ASP760  ASP761  ALA762  ILE779  LEU786  VAL792 
 PHE793  MET794  SER795  GLU796  ALA797  LYS798  CYS799  TRP800  GLU811  SER814 

> <Gold.Protein.RotatedAtoms>
  152.2361  134.8275  160.0466 H   0  0  0  0  0  0  0  0  0  0  0  0  # atno 6907 bound_to 6896
  151.9006  133.3532  159.3837 H   0  0  0  0  0  0  0  0  0  0  0  0  # atno 6908 bound_to 6896
  150.7039  134.4757  159.5491 H   0  0  0  0  0  0  0  0  0  0  0  0  # atno 6909 bound_to 6896
  146.0735  139.5293  142.9583 H   0  0  0  0  0  0  0  0  0  0  0  0  # atno 7974 bound_to 7965
  155.0391  140.3167  155.4731 H   0  0  0  0  0  0  0  0  0  0  0  0  # atno 8008 bound_to 7997
  156.2858  140.2166  156.5458 H   0  0  0  0  0  0  0  0  0  0  0  0  # atno 8009 bound_to 7997
  154.7305  140.0482  157.0710 H   0  0  0  0  0  0  0  0  0  0  0  0  # atno 8010 bound_to 7997
  139.6337  144.0390  152.2037 H   0  0  0  0  0  0  0  0  0  0  0  0  # atno 10167 bound_to 10162
  157.5757  131.1079  150.8284 H   0  0  0  0  0  0  0  0  0  0  0  0  # atno 10718 bound_to 10713
  154.7770  135.4842  153.9764 H   0  0  0  0  0  0  0  0  0  0  0  0  # atno 10763 bound_to 10752
  153.1442  135.6778  153.8988 H   0  0  0  0  0  0  0  0  0  0  0  0  # atno 10764 bound_to 10752
  153.8653  135.3150  155.3418 H   0  0  0  0  0  0  0  0  0  0  0  0  # atno 10765 bound_to 10752
  141.1667  133.7108  156.8131 H   0  0  0  0  0  0  0  0  0  0  0  0  # atno 11005 bound_to 11000
  145.6349  141.0296  143.1843 LP  0  0  0  0  0  0  0  0  0  0  0  0  # atno 17320 bound_to 7965
  144.7246  139.7917  143.7369 LP  0  0  0  0  0  0  0  0  0  0  0  0  # atno 17321 bound_to 7965
  140.0062  144.6257  150.7687 LP  0  0  0  0  0  0  0  0  0  0  0  0  # atno 17342 bound_to 10162
  140.7453  143.2874  151.3425 LP  0  0  0  0  0  0  0  0  0  0  0  0  # atno 17343 bound_to 10162
  156.8744  130.5157  149.5294 LP  0  0  0  0  0  0  0  0  0  0  0  0  # atno 17370 bound_to 10713
  156.0801  130.5814  150.9548 LP  0  0  0  0  0  0  0  0  0  0  0  0  # atno 17371 bound_to 10713
  140.2173  134.8783  157.3339 LP  0  0  0  0  0  0  0  0  0  0  0  0  # atno 17394 bound_to 11000
  140.2024  134.4238  155.7655 LP  0  0  0  0  0  0  0  0  0  0  0  0  # atno 17395 bound_to 11000

$$$$
