#       Name:                AV-unprocessed.smi:189
#       Creating user name   scv26
#       Creation time:       Thu Mar 26 19:30:28 2020


#       File generated by GOLD software.
#

@<TRIPOS>MOLECULE
AV-unprocessed.smi:189
    61    65     1
SMALL
NO_CHARGES


@<TRIPOS>ATOM
      1 ****        -2.8335   0.1306   3.5041 C.3            1 S1                 0.0000
      2 ****        -3.3182   0.1429   2.0416 C.3            1 S1                 0.0000
      3 ****        -3.8868   1.4770   1.5450 C.3            1 S1                 0.0000
      4 ****        -3.8780   1.3089   0.0181 C.3            1 S1                 0.0000
      5 ****        -3.4200   2.5494  -0.7690 C.3            1 S1                 0.0000
      6 ****        -3.3347   2.2721  -2.2859 C.3            1 S1                 0.0000
      7 ****        -2.8343   0.8515  -2.6355 C.3            1 S1                 0.0000
      8 ****        -2.0570   0.2070  -1.4794 C.3            1 S1                 0.0000
      9 ****        -2.9749   0.0790  -0.2353 C.3            1 S1                 0.0000
     10 ****        -2.3342  -0.2660   1.0383 N.3            1 S1                 0.0000
     11 ****        -1.0431   0.1234   1.1930 C.ar           1 S1                 0.0000
     12 ****        -0.7232   1.4199   1.4503 N.ar           1 S1                 0.0000
     13 ****         0.5574   1.7843   1.5632 C.ar           1 S1                 0.0000
     14 ****         1.6530   1.0310   1.4454 N.ar           1 S1                 0.0000
     15 ****         1.3345  -0.2671   1.1728 C.ar           1 S1                 0.0000
     16 ****         0.0229  -0.8003   1.0367 C.ar           1 S1                 0.0000
     17 ****         0.0848  -2.1600   0.7614 N.2            1 S1                 0.0000
     18 ****         1.3639  -2.4172   0.7334 C.2            1 S1                 0.0000
     19 ****         2.1871  -1.3359   0.9577 N.pl3          1 S1                 0.0000
     20 ****         3.6415  -1.3350   0.9654 C.3            1 S1                 0.0000
     21 ****         4.2612  -1.0377  -0.4205 C.3            1 S1                 0.0000
     22 ****         3.8976   0.2722  -0.8200 O.3            1 S1                 0.0000
     23 ****         3.8362  -2.0118  -1.5167 C.3            1 S1                 0.0000
     24 ****         5.0680  -2.0804  -2.4080 C.3            1 S1                 0.0000
     25 ****         6.1267  -2.0687  -1.4665 O.3            1 S1                 0.0000
     26 ****         5.7995  -1.1428  -0.4353 C.3            1 S1                 0.0000
     27 ****        -3.6635   0.3268   4.1826 H              1 S1                 0.0000
     28 ****        -2.0747   0.8882   3.6983 H              1 S1                 0.0000
     29 ****        -2.4141  -0.8401   3.7696 H              1 S1                 0.0000
     30 ****        -4.1173  -0.5976   1.9778 H              1 S1                 0.0000
     31 ****        -4.8850   1.6722   1.9378 H              1 S1                 0.0000
     32 ****        -3.2465   2.3057   1.8490 H              1 S1                 0.0000
     33 ****        -4.8875   1.0553  -0.3091 H              1 S1                 0.0000
     34 ****        -4.0871   3.3909  -0.5797 H              1 S1                 0.0000
     35 ****        -2.4369   2.8562  -0.4095 H              1 S1                 0.0000
     36 ****        -4.3138   2.4207  -2.7426 H              1 S1                 0.0000
     37 ****        -2.6786   3.0157  -2.7392 H              1 S1                 0.0000
     38 ****        -3.6892   0.2183  -2.8758 H              1 S1                 0.0000
     39 ****        -2.2203   0.8841  -3.5359 H              1 S1                 0.0000
     40 ****        -1.6798  -0.7745  -1.7685 H              1 S1                 0.0000
     41 ****        -1.1834   0.8291  -1.2827 H              1 S1                 0.0000
     42 ****        -3.6442  -0.7575  -0.4427 H              1 S1                 0.0000
     43 ****         0.7284   2.8296   1.7738 H              1 S1                 0.0000
     44 ****         1.7446  -3.4091   0.5386 H              1 S1                 0.0000
     45 ****         3.9840  -0.6045   1.6995 H              1 S1                 0.0000
     46 ****         3.9773  -2.3089   1.3240 H              1 S1                 0.0000
     47 ****         4.2959   0.4527  -1.6577 H              1 S1                 0.0000
     48 ****         3.6579  -3.0011  -1.0938 H              1 S1                 0.0000
     49 ****         2.9334  -1.7115  -2.0507 H              1 S1                 0.0000
     50 ****         5.0908  -2.9748  -3.0310 H              1 S1                 0.0000
     51 ****         5.1371  -1.2039  -3.0540 H              1 S1                 0.0000
     52 ****         6.2753  -0.1832  -0.6455 H              1 S1                 0.0000
     53 ****         6.2017  -1.5049   0.5114 H              1 S1                 0.0000
     54 ****        -2.1415  -1.2437   1.1222 LP             1 S1                 0.0000
     55 ****        -1.4474   2.1015   1.5552 LP             1 S1                 0.0000
     56 ****         2.5871   1.3741   1.5443 LP             1 S1                 0.0000
     57 ****        -0.6745  -2.7947   0.6179 LP             1 S1                 0.0000
     58 ****         4.2217   0.9332  -0.1432 LP             1 S1                 0.0000
     59 ****         2.9028   0.3366  -0.8989 LP             1 S1                 0.0000
     60 ****         6.9751  -1.7885  -1.9155 LP             1 S1                 0.0000
     61 ****         6.2420  -2.9822  -1.0763 LP             1 S1                 0.0000
@<TRIPOS>BOND
    1    1    2 1     
    2    1   27 1     
    3    1   28 1     
    4    1   29 1     
    5    2   10 1     
    6    2    3 1     
    7    2   30 1     
    8    3    4 1     
    9    3   31 1     
   10    3   32 1     
   11    4    9 1     
   12    4    5 1     
   13    4   33 1     
   14    5    6 1     
   15    5   34 1     
   16    5   35 1     
   17    6    7 1     
   18    6   36 1     
   19    6   37 1     
   20    7    8 1     
   21    7   38 1     
   22    7   39 1     
   23    8    9 1     
   24    8   40 1     
   25    8   41 1     
   26    9   10 1     
   27    9   42 1     
   28   10   11 1     
   29   11   16 ar    
   30   11   12 ar    
   31   12   13 ar    
   32   13   14 ar    
   33   13   43 1     
   34   14   15 ar    
   35   15   19 1     
   36   15   16 ar    
   37   16   17 1     
   38   17   18 2     
   39   18   19 1     
   40   18   44 1     
   41   19   20 1     
   42   20   21 1     
   43   20   45 1     
   44   20   46 1     
   45   21   26 1     
   46   21   22 1     
   47   21   23 1     
   48   22   47 1     
   49   23   24 1     
   50   23   48 1     
   51   23   49 1     
   52   24   25 1     
   53   24   50 1     
   54   24   51 1     
   55   25   26 1     
   56   26   52 1     
   57   26   53 1     
   58   10   54 1     
   59   12   55 1     
   60   14   56 1     
   61   17   57 1     
   62   22   58 1     
   63   22   59 1     
   64   25   60 1     
   65   25   61 1     
@<TRIPOS>SUBSTRUCTURE
      1 S1             1
@<TRIPOS>SET
LONE_PAIRS      STATIC     ATOMS    <user>   **** ""
8 54 55 56 57 58 59 60 61
DONOR_HYDROGENS      STATIC     ATOMS    <user>   **** ""
1 47
ATOM$BLUE        STATIC     ATOMS    COLORGROUP SYSTEM
8 54 55 56 57 58 59 60 61
ATOM$RED        STATIC     ATOMS    COLORGROUP SYSTEM
1 47
