AV-unprocessed.smi:287|AV-procd|sdf|2191|dock4
  -GOLD-   2262021583D 1   1.00000     0.00000
 Structure written by MMmdl.
 55 58  0  0  0  0  0  0  0  0  1 V2000
  154.3891  133.3360  157.6771 C   0  0  0  0  0  0  0  0  0  0  0  0
  153.3708  132.3235  157.2783 C   0  0  0  0  0  0  0  0  0  0  0  0
  153.3803  131.2603  156.4231 C   0  0  0  0  0  0  0  0  0  0  0  0
  152.0822  130.6684  156.4639 C   0  0  0  0  0  0  0  0  0  0  0  0
  151.6232  129.4454  155.6813 C   0  0  1  0  0  0  0  0  0  0  0  0
  152.7169  129.0294  154.6843 C   0  0  0  0  0  0  0  0  0  0  0  0
  151.4147  128.3155  156.5067 O   0  0  0  0  0  0  0  0  0  0  0  0
  150.2877  129.6768  154.9377 C   0  0  0  0  0  0  0  0  0  0  0  0
  150.0269  128.6721  153.9119 N   0  0  0  0  0  0  0  0  0  0  0  0
  148.8977  128.7317  153.1759 C   0  0  0  0  0  0  0  0  0  0  0  0
  148.4377  127.6407  152.5095 N   0  0  0  0  0  0  0  0  0  0  0  0
  147.3154  127.7239  151.7891 C   0  0  0  0  0  0  0  0  0  0  0  0
  146.5184  128.7784  151.6060 N   0  0  0  0  0  0  0  0  0  0  0  0
  146.9768  129.8776  152.2732 C   0  0  0  0  0  0  0  0  0  0  0  0
  148.1509  129.9335  153.0743 C   0  0  0  0  0  0  0  0  0  0  0  0
  148.3027  131.2098  153.6007 N   0  0  0  0  0  0  0  0  0  0  0  0
  147.2730  131.8662  153.1379 C   0  0  0  0  0  0  0  0  0  0  0  0
  146.4223  131.1412  152.3335 N   0  0  0  0  0  0  0  0  0  0  0  0
  145.1675  131.6191  151.6733 C   0  0  1  0  0  0  0  0  0  0  0  0
  144.9633  132.9585  151.9821 O   0  0  0  0  0  0  0  0  0  0  0  0
  144.2152  133.5716  150.9373 C   0  0  1  0  0  0  0  0  0  0  0  0
  144.7612  134.9903  150.6899 C   0  0  0  0  0  0  0  0  0  0  0  0
  144.3376  135.5128  149.4475 O   0  0  0  0  0  0  0  0  0  0  0  0
  144.2445  132.6150  149.7256 C   0  0  2  0  0  0  0  0  0  0  0  0
  142.9529  132.0713  149.5267 O   0  0  0  0  0  0  0  0  0  0  0  0
  145.2106  131.5122  150.1427 C   0  0  1  0  0  0  0  0  0  0  0  0
  146.4989  131.7293  149.5972 O   0  0  0  0  0  0  0  0  0  0  0  0
  151.3813  131.4259  157.3710 C   0  0  0  0  0  0  0  0  0  0  0  0
  149.9919  131.3667  157.9142 C   0  0  0  0  0  0  0  0  0  0  0  0
  152.1526  132.4345  157.8644 O   0  0  0  0  0  0  0  0  0  0  0  0
  144.3668  131.0222  152.1129 H   0  0  0  0  0  0  0  0  0  0  0  0
  143.1944  133.6697  151.3109 H   0  0  0  0  0  0  0  0  0  0  0  0
  144.5473  133.1041  148.7987 H   0  0  0  0  0  0  0  0  0  0  0  0
  144.8819  130.5180  149.8365 H   0  0  0  0  0  0  0  0  0  0  0  0
  155.3205  133.1880  157.1303 H   0  0  0  0  0  0  0  0  0  0  0  0
  154.6078  133.2656  158.7427 H   0  0  0  0  0  0  0  0  0  0  0  0
  154.0326  134.3452  157.4695 H   0  0  0  0  0  0  0  0  0  0  0  0
  154.2244  130.9437  155.8285 H   0  0  0  0  0  0  0  0  0  0  0  0
  152.9277  129.8296  153.9741 H   0  0  0  0  0  0  0  0  0  0  0  0
  152.4216  128.1508  154.1093 H   0  0  0  0  0  0  0  0  0  0  0  0
  153.6505  128.7917  155.1961 H   0  0  0  0  0  0  0  0  0  0  0  0
  150.4941  128.1029  156.4958 H   0  0  0  0  0  0  0  0  0  0  0  0
  149.4711  129.6211  155.6591 H   0  0  0  0  0  0  0  0  0  0  0  0
  150.2537  130.6780  154.5049 H   0  0  0  0  0  0  0  0  0  0  0  0
  150.7338  127.9598  153.7968 H   0  0  0  0  0  0  0  0  0  0  0  0
  147.0112  126.8162  151.2894 H   0  0  0  0  0  0  0  0  0  0  0  0
  147.1017  132.9058  153.3766 H   0  0  0  0  0  0  0  0  0  0  0  0
  144.4051  135.6620  151.4712 H   0  0  0  0  0  0  0  0  0  0  0  0
  145.8504  134.9960  150.7360 H   0  0  0  0  0  0  0  0  0  0  0  0
  144.9554  135.2493  148.7830 H   0  0  0  0  0  0  0  0  0  0  0  0
  142.3260  132.7782  149.5208 H   0  0  0  0  0  0  0  0  0  0  0  0
  147.1173  131.1900  150.0659 H   0  0  0  0  0  0  0  0  0  0  0  0
  149.7658  130.3676  158.2868 H   0  0  0  0  0  0  0  0  0  0  0  0
  149.2651  131.6127  157.1399 H   0  0  0  0  0  0  0  0  0  0  0  0
  149.8586  132.0696  158.7369 H   0  0  0  0  0  0  0  0  0  0  0  0
  1  2  1  0  0  0  0
  1 35  1  0  0  0  0
  1 36  1  0  0  0  0
  1 37  1  0  0  0  0
  2 30  1  0  0  0  0
  2  3  2  0  0  0  0
  3  4  1  0  0  0  0
  3 38  1  0  0  0  0
  4  5  1  0  0  0  0
  4 28  2  0  0  0  0
  5  6  1  0  0  0  0
  5  7  1  0  0  0  0
  5  8  1  0  0  0  0
  6 39  1  0  0  0  0
  6 40  1  0  0  0  0
  6 41  1  0  0  0  0
  7 42  1  0  0  0  0
  8  9  1  0  0  0  0
  8 43  1  0  0  0  0
  8 44  1  0  0  0  0
  9 10  1  0  0  0  0
  9 45  1  0  0  0  0
 10 15  1  0  0  0  0
 10 11  2  0  0  0  0
 11 12  1  0  0  0  0
 12 13  2  0  0  0  0
 12 46  1  0  0  0  0
 13 14  1  0  0  0  0
 14 18  1  0  0  0  0
 14 15  2  0  0  0  0
 15 16  1  0  0  0  0
 16 17  2  0  0  0  0
 17 18  1  0  0  0  0
 17 47  1  0  0  0  0
 18 19  1  0  0  0  0
 19 31  1  0  0  0  0
 19 26  1  0  0  0  0
 19 20  1  0  0  0  0
 20 21  1  0  0  0  0
 21 32  1  0  0  0  0
 21 22  1  0  0  0  0
 21 24  1  0  0  0  0
 22 23  1  0  0  0  0
 22 48  1  0  0  0  0
 22 49  1  0  0  0  0
 23 50  1  0  0  0  0
 24 33  1  0  0  0  0
 24 25  1  0  0  0  0
 24 26  1  0  0  0  0
 25 51  1  0  0  0  0
 26 34  1  0  0  0  0
 26 27  1  0  0  0  0
 27 52  1  0  0  0  0
 28 29  1  0  0  0  0
 28 30  1  0  0  0  0
 29 53  1  0  0  0  0
 29 54  1  0  0  0  0
 29 55  1  0  0  0  0
M  END
> <s_m_source_file>
AV-unprocessed.smi

> <i_m_source_file_index>
287

> <i_lp_mmshare_version>
43012

> <i_f3d_flags>
0

> <s_epik_input>
W0NIM11jMVtjSF1jKGMobzEpW0NIM10pW0NAQF0oW0NIM10pKFtPSF0pW0NIMl1bTkhdYyhuW2NIXW4yKWMoYzIzKW5bY0hdbjNbQ0BASF00T1tDQEhdKFtDSDJdW09IXSlbQ0BASF0oW09IXSlbQ0BIXTRbT0hd

> <s_epik_cmdline>
J2VwaWtfcHl0aG9uJywgJy1waCcsICc3LjAnLCAnLXRuJywgJzgnLCAnLW1hJywgJzIwMCcsICctbWV0YWxfYmluZGluZycsICctaW1hZScsICc8aW5maWxlLm1hZT4nLCAnLW9tYWUnLCAnPG91dGZpbGUubWFlPic=

> <r_lp_tautomer_probability>
1

> <r_epik_Ionization_Penalty>
0.000992612

> <r_epik_Ionization_Penalty_Charging>
0

> <r_epik_Ionization_Penalty_Neutral>
0.000992612

> <r_epik_State_Penalty>
-0

> <r_epik_Charging_Adjusted_Penalty>
0

> <i_epik_Tot_Q>
0

> <i_epik_Tot_abs_Q>
0

> <r_epik_Metal_State_Penalty>
-0

> <b_epik_Metal_Only>
0

> <s_epik_Chemistry_Notes>
This compound contains an acetal/aminal-like group ( X-CH(R)-Y where X, Y are N, S, or O) that may be acid/base labile, releasing an aldehyde.

> <s_lp_Force_Field>
OPLS_2005

> <r_lp_Energy>
44.0492

> <b_lp_Chiralities_Consistent>
1

> <s_lp_Variant>
AV-unprocessed.smi:287-15

> <Gold.Version>
5.8.1

> <Gold.Id.Protein>
6NUR|6NUR_protein|mol2

> <Gold.PLP.Fitness>
59.9903

> <Gold.PLP.PLP>
-46.8848

> <Gold.PLP.part.hbond>
-7.6921

> <Gold.PLP.part.metal>
0.0000

> <Gold.PLP.part.buried>
-4.4532

> <Gold.PLP.part.nonpolar>
-35.5282

> <Gold.PLP.part.repulsive>
0.4740

> <Gold.PLP.ligand.clash>
0.0000

> <Gold.PLP.ligand.torsion>
0.6115

> <Gold.PLP.Chemscore.Hbond>
4.7494

> <Gold.PLP.Chemscore.CHOScore>
0.0000

> <Gold.PLP.Chemscore.Metal>
0.0000

> <Gold.Chemscore.Hbonds>
donor molecule, donor type, donor heavy atom, donor atom, acceptor molecule, acceptor atom, score
      L1  H    23    50       P1  7921  1.00
      L1  H    25    51       P1 10186  0.83
      L1  H    27    52       P1 10747  0.85
      P1  H  6896  6909       L1    30  0.99
      P1  H 10785 10796       L1    25  0.83

> <Gold.PLP.Chemscore.Internal.Correction>
0.0802

> <Gold.Rescore>
     Score         DG    S(hbond)    S(metal)    S(lipo)     H(rot)  DE(clash)    DE(int)     intcor
     13.08     -17.19       4.73        0.00      80.36       5.27       2.28       1.83       ----

> <Gold.Chemscore.Fitness>
13.0847

> <Gold.Chemscore.DG>
-17.1881

> <Gold.Chemscore.ZeroCoef>
-5.4800

> <Gold.Chemscore.Hbond>
4.7275

> <Gold.Chemscore.Metal>
0.0000

> <Gold.Chemscore.Lipo>
80.3598

> <Gold.Chemscore.Internal_Hbond>
0.0000

> <Gold.Chemscore.DEClash>
2.2781

> <Gold.Chemscore.DEInternal>
1.8253

> <Gold.Chemscore.Rot>
5.2672

> <Gold.Chemscore.Internal.Correction>
   9.000000E+99

> <Gold.Chemscore.Hbonds>
donor molecule, donor type, donor heavy atom, donor atom, acceptor molecule, acceptor atom, score
      L1  H     9    45       P1 10737  0.02
      L1  H    23    50       P1  7921  1.00
      L1  H    25    51       P1 10186  0.82
      L1  H    27    52       P1 10747  0.83
      P1  H  6896  6909       L1    30  0.90
      P1  H 10785 10796       L1    25  0.54

> <Gold.Chemscore.Hbond.Weighted>
-15.7899

> <Gold.Chemscore.Metal.Weighted>
-0.0000

> <Gold.Chemscore.Lipo.Weighted>
-9.4021

> <Gold.Chemscore.Internal_Hbond.Weighted>
0.0000

> <Gold.Chemscore.DEClash.Weighted>
2.2781

> <Gold.Chemscore.DEInternal.Weighted>
1.8253

> <Gold.Chemscore.Rot.Weighted>
13.4839

> <Gold.Chemscore.Internal.Correction.Weighted>
   9.000000E+99

> <Gold.Protein.RotatedTorsions>
[ 6907 6896 6895 6894 ] final  -82.14 input  -60.11 | X-H torsion
[ 7974 7965 7964 7962 ] final  110.08 input  175.53 | X-H torsion
[ 8008 7997 7996 7995 ] final  -90.90 input   59.86 | X-H torsion
[ 10167 10162 10161 10158 ] final   -8.45 input  -65.29 | X-H torsion
[ 10718 10713 10712 10709 ] final -120.81 input   66.30 | X-H torsion
[ 10763 10752 10751 10750 ] final   60.14 input  -60.55 | X-H torsion
[ 11005 11000 10999 10996 ] final   88.10 input  -57.11 | X-H torsion

> <Gold.Protein.ActiveResidues>
 VAL166  LYS551  ARG553  GLY616  TRP617  ASP618  TYR619  PRO620  LYS621  CYS622 
 ASP623  PHE694  ASN695  SER759  ASP760  ASP761  ALA762  ILE779  LEU786  VAL792 
 PHE793  MET794  SER795  GLU796  ALA797  LYS798  CYS799  TRP800  GLU811  SER814 

> <Gold.Protein.RotatedAtoms>
  150.6901  134.3711  159.4992 H   0  0  0  0  0  0  0  0  0  0  0  0  # atno 6907 bound_to 6896
  152.1526  134.8973  160.0556 H   0  0  0  0  0  0  0  0  0  0  0  0  # atno 6908 bound_to 6896
  152.0065  133.3810  159.4239 H   0  0  0  0  0  0  0  0  0  0  0  0  # atno 6909 bound_to 6896
  145.2596  139.2707  143.4024 H   0  0  0  0  0  0  0  0  0  0  0  0  # atno 7974 bound_to 7965
  154.7041  140.0525  157.0487 H   0  0  0  0  0  0  0  0  0  0  0  0  # atno 8008 bound_to 7997
  155.0644  140.3193  155.4631 H   0  0  0  0  0  0  0  0  0  0  0  0  # atno 8009 bound_to 7997
  156.2769  140.2093  156.5771 H   0  0  0  0  0  0  0  0  0  0  0  0  # atno 8010 bound_to 7997
  140.7059  143.5967  150.8839 H   0  0  0  0  0  0  0  0  0  0  0  0  # atno 10167 bound_to 10162
  156.1287  130.6379  150.9586 H   0  0  0  0  0  0  0  0  0  0  0  0  # atno 10718 bound_to 10713
  152.9913  135.5547  154.5825 H   0  0  0  0  0  0  0  0  0  0  0  0  # atno 10763 bound_to 10752
  154.5204  135.2807  155.1270 H   0  0  0  0  0  0  0  0  0  0  0  0  # atno 10764 bound_to 10752
  154.2625  135.6378  153.5333 H   0  0  0  0  0  0  0  0  0  0  0  0  # atno 10765 bound_to 10752
  139.8904  134.8466  156.2953 H   0  0  0  0  0  0  0  0  0  0  0  0  # atno 11005 bound_to 11000
  146.3279  140.3009  142.8620 LP  0  0  0  0  0  0  0  0  0  0  0  0  # atno 17320 bound_to 7965
  144.9430  140.8099  143.5618 LP  0  0  0  0  0  0  0  0  0  0  0  0  # atno 17321 bound_to 7965
  139.9692  143.6076  152.2979 LP  0  0  0  0  0  0  0  0  0  0  0  0  # atno 17342 bound_to 10162
  139.6657  144.7662  151.1879 LP  0  0  0  0  0  0  0  0  0  0  0  0  # atno 17343 bound_to 10162
  157.6467  131.0903  150.8138 LP  0  0  0  0  0  0  0  0  0  0  0  0  # atno 17370 bound_to 10713
  156.8225  130.4989  149.5341 LP  0  0  0  0  0  0  0  0  0  0  0  0  # atno 17371 bound_to 10713
  140.9949  133.7186  156.0871 LP  0  0  0  0  0  0  0  0  0  0  0  0  # atno 17394 bound_to 11000
  140.7575  134.3976  157.5531 LP  0  0  0  0  0  0  0  0  0  0  0  0  # atno 17395 bound_to 11000

$$$$
