AV-unprocessed.smi:1174|AV-procd|sdf|4949|dock5
  -GOLD-   22720 3533D 1   1.00000     0.00000
 Structure written by MMmdl.
 41 42  0  0  0  0  0  0  0  0  1 V2000
  151.5838  140.7066  159.0493 C   0  0  0  0  0  0  0  0  0  0  0  0
  150.6012  141.2799  158.0192 C   0  0  1  0  0  0  0  0  0  0  0  0
  151.1042  142.6293  157.4612 C   0  0  0  0  0  0  0  0  0  0  0  0
  151.4200  143.5912  158.5019 N   0  0  0  0  0  0  0  0  0  0  0  0
  150.8386  144.8180  158.7435 C   0  0  0  0  0  0  0  0  0  0  0  0
  151.4696  145.3594  159.8266 C   0  0  0  0  0  0  0  0  0  0  0  0
  152.4347  144.3769  160.1826 C   0  0  0  0  0  0  0  0  0  0  0  0
  152.4073  143.3227  159.3839 N   0  0  0  0  0  0  0  0  0  0  0  0
  150.4205  140.2985  156.9502 N   0  0  0  0  0  0  0  0  0  0  0  0
  151.4000  139.6866  156.2650 C   0  0  0  0  0  0  0  0  0  0  0  0
  152.5953  139.8627  156.5011 O   0  0  0  0  0  0  0  0  0  0  0  0
  150.9490  138.7399  155.1362 C   0  0  1  0  0  0  0  0  0  0  0  0
  150.1807  137.5071  155.6744 C   0  0  0  0  0  0  0  0  0  0  0  0
  148.7068  137.8048  156.0184 C   0  0  0  0  0  0  0  0  0  0  0  0
  148.0102  138.5457  154.8655 C   0  0  0  0  0  0  0  0  0  0  0  0
  148.7626  139.7709  154.5456 N   0  0  0  0  0  0  0  0  0  0  0  0
  148.2836  141.0384  154.6002 C   0  0  0  0  0  0  0  0  0  0  0  0
  149.2146  141.9949  154.6712 N   0  0  0  0  0  0  0  0  0  0  0  0
  147.0893  141.3225  154.5283 O   0  0  0  0  0  0  0  0  0  0  0  0
  150.1143  139.4656  154.0519 C   0  0  0  0  0  0  0  0  0  0  0  0
  151.7164  141.3910  159.8876 H   0  0  0  0  0  0  0  0  0  0  0  0
  152.5647  140.5278  158.6075 H   0  0  0  0  0  0  0  0  0  0  0  0
  151.2221  139.7605  159.4537 H   0  0  0  0  0  0  0  0  0  0  0  0
  149.6529  141.4374  158.5363 H   0  0  0  0  0  0  0  0  0  0  0  0
  152.0081  142.4752  156.8700 H   0  0  0  0  0  0  0  0  0  0  0  0
  150.3664  143.0672  156.7872 H   0  0  0  0  0  0  0  0  0  0  0  0
  150.0295  145.1970  158.1363 H   0  0  0  0  0  0  0  0  0  0  0  0
  151.2674  146.3106  160.2963 H   0  0  0  0  0  0  0  0  0  0  0  0
  153.1509  144.3993  160.9905 H   0  0  0  0  0  0  0  0  0  0  0  0
  149.4680  140.0879  156.6901 H   0  0  0  0  0  0  0  0  0  0  0  0
  151.8552  138.3680  154.6550 H   0  0  0  0  0  0  0  0  0  0  0  0
  150.2076  136.7262  154.9134 H   0  0  0  0  0  0  0  0  0  0  0  0
  150.6871  137.0883  156.5452 H   0  0  0  0  0  0  0  0  0  0  0  0
  148.1837  136.8719  156.2306 H   0  0  0  0  0  0  0  0  0  0  0  0
  148.6422  138.4007  156.9290 H   0  0  0  0  0  0  0  0  0  0  0  0
  147.9840  137.9084  153.9805 H   0  0  0  0  0  0  0  0  0  0  0  0
  146.9661  138.7239  155.1219 H   0  0  0  0  0  0  0  0  0  0  0  0
  148.9368  142.9635  154.7285 H   0  0  0  0  0  0  0  0  0  0  0  0
  150.1918  141.7419  154.6806 H   0  0  0  0  0  0  0  0  0  0  0  0
  150.6498  140.3559  153.7175 H   0  0  0  0  0  0  0  0  0  0  0  0
  150.0291  138.8320  153.1681 H   0  0  0  0  0  0  0  0  0  0  0  0
  1  2  1  0  0  0  0
  1 21  1  0  0  0  0
  1 22  1  0  0  0  0
  1 23  1  0  0  0  0
  2  3  1  0  0  0  0
  2  9  1  0  0  0  0
  2 24  1  0  0  0  0
  3  4  1  0  0  0  0
  3 25  1  0  0  0  0
  3 26  1  0  0  0  0
  4  8  1  0  0  0  0
  4  5  1  0  0  0  0
  5  6  2  0  0  0  0
  5 27  1  0  0  0  0
  6  7  1  0  0  0  0
  6 28  1  0  0  0  0
  7  8  2  0  0  0  0
  7 29  1  0  0  0  0
  9 10  1  0  0  0  0
  9 30  1  0  0  0  0
 10 11  2  0  0  0  0
 10 12  1  0  0  0  0
 12 20  1  0  0  0  0
 12 13  1  0  0  0  0
 12 31  1  0  0  0  0
 13 14  1  0  0  0  0
 13 32  1  0  0  0  0
 13 33  1  0  0  0  0
 14 15  1  0  0  0  0
 14 34  1  0  0  0  0
 14 35  1  0  0  0  0
 15 16  1  0  0  0  0
 15 36  1  0  0  0  0
 15 37  1  0  0  0  0
 16 17  1  0  0  0  0
 16 20  1  0  0  0  0
 17 18  1  0  0  0  0
 17 19  2  0  0  0  0
 18 38  1  0  0  0  0
 18 39  1  0  0  0  0
 20 40  1  0  0  0  0
 20 41  1  0  0  0  0
M  END
> <s_m_source_file>
AV-unprocessed.smi

> <i_m_source_file_index>
1174

> <i_lp_mmshare_version>
43012

> <i_f3d_flags>
0

> <s_epik_input>
bjFbY0hdW2NIXVtjSF1uMVtDSDJdW0NAQEhdKFtDSDNdKVtOSF1DKD1PKVtDQEBIXTJbQ0gyXVtDSDJdW0NIMl1OKFtDSDJdMilDKD1PKVtOSDJd

> <s_epik_cmdline>
J2VwaWtfcHl0aG9uJywgJy1waCcsICc3LjAnLCAnLXRuJywgJzgnLCAnLW1hJywgJzIwMCcsICctbWV0YWxfYmluZGluZycsICctaW1hZScsICc8aW5maWxlLm1hZT4nLCAnLW9tYWUnLCAnPG91dGZpbGUubWFlPic=

> <r_lp_tautomer_probability>
1

> <r_epik_Ionization_Penalty>
0.000372452

> <r_epik_Ionization_Penalty_Charging>
0

> <r_epik_Ionization_Penalty_Neutral>
0.000372452

> <r_epik_State_Penalty>
-0

> <r_epik_Charging_Adjusted_Penalty>
0

> <i_epik_Tot_Q>
0

> <i_epik_Tot_abs_Q>
0

> <r_epik_Metal_State_Penalty>
-0

> <b_epik_Metal_Only>
0

> <s_lp_Force_Field>
OPLS_2005

> <r_lp_Energy>
22.2792

> <b_lp_Chiralities_Consistent>
1

> <s_lp_Variant>
AV-unprocessed.smi:1174-4

> <Gold.Version>
5.8.1

> <Gold.Id.Protein>
6NUR|6NUR_protein|mol2

> <Gold.PLP.Fitness>
42.0458

> <Gold.PLP.PLP>
-33.7905

> <Gold.PLP.part.hbond>
-2.0000

> <Gold.PLP.part.metal>
0.0000

> <Gold.PLP.part.buried>
-4.5834

> <Gold.PLP.part.nonpolar>
-27.8565

> <Gold.PLP.part.repulsive>
0.9655

> <Gold.PLP.ligand.clash>
0.0000

> <Gold.PLP.ligand.torsion>
0.3981

> <Gold.PLP.Chemscore.Hbond>
2.0000

> <Gold.PLP.Chemscore.CHOScore>
1.0013

> <Gold.PLP.Chemscore.Metal>
0.0000

> <Gold.Chemscore.Hbonds>
donor molecule, donor type, donor heavy atom, donor atom, acceptor molecule, acceptor atom, score
      L1  H    18    38       P1  8028  1.00
      P1  H  7997  8008       L1    11  1.00
      L1  C     5    27       P1  8028  0.10
      L1  C     5    27       P1  8029  0.90

> <Gold.PLP.Chemscore.Internal.Correction>
0.0475

> <Gold.Rescore>
     Score         DG    S(hbond)    S(metal)    S(lipo)     H(rot)  DE(clash)    DE(int)     intcor
     12.72     -16.34       1.97        0.00      76.37       1.82       0.11       3.50       ----

> <Gold.Chemscore.Fitness>
12.7239

> <Gold.Chemscore.DG>
-16.3362

> <Gold.Chemscore.ZeroCoef>
-5.4800

> <Gold.Chemscore.Hbond>
1.9706

> <Gold.Chemscore.Metal>
0.0000

> <Gold.Chemscore.Lipo>
76.3678

> <Gold.Chemscore.Internal_Hbond>
0.0000

> <Gold.Chemscore.DEClash>
0.1134

> <Gold.Chemscore.DEInternal>
3.4989

> <Gold.Chemscore.Rot>
1.8206

> <Gold.Chemscore.Internal.Correction>
   9.000000E+99

> <Gold.Chemscore.Hbonds>
donor molecule, donor type, donor heavy atom, donor atom, acceptor molecule, acceptor atom, score
      L1  H    18    38       P1  8028  0.95
      P1  H  7997  8008       L1    11  1.00

> <Gold.Chemscore.Hbond.Weighted>
-6.5818

> <Gold.Chemscore.Metal.Weighted>
-0.0000

> <Gold.Chemscore.Lipo.Weighted>
-8.9350

> <Gold.Chemscore.Internal_Hbond.Weighted>
0.0000

> <Gold.Chemscore.DEClash.Weighted>
0.1134

> <Gold.Chemscore.DEInternal.Weighted>
3.4989

> <Gold.Chemscore.Rot.Weighted>
4.6607

> <Gold.Chemscore.Internal.Correction.Weighted>
   9.000000E+99

> <Gold.Protein.RotatedTorsions>
[ 6907 6896 6895 6894 ] final  145.72 input  -60.11 | X-H torsion
[ 7974 7965 7964 7962 ] final -151.09 input  175.53 | X-H torsion
[ 8008 7997 7996 7995 ] final  -41.41 input   59.86 | X-H torsion
[ 10167 10162 10161 10158 ] final  112.92 input  -65.29 | X-H torsion
[ 10718 10713 10712 10709 ] final   37.03 input   66.30 | X-H torsion
[ 10763 10752 10751 10750 ] final   37.78 input  -60.55 | X-H torsion
[ 11005 11000 10999 10996 ] final  -61.89 input  -57.11 | X-H torsion

> <Gold.Protein.ActiveResidues>
 VAL166  LYS551  ARG553  GLY616  TRP617  ASP618  TYR619  PRO620  LYS621  CYS622 
 ASP623  PHE694  ASN695  SER759  ASP760  ASP761  ALA762  ILE779  LEU786  VAL792 
 PHE793  MET794  SER795  GLU796  ALA797  LYS798  CYS799  TRP800  GLU811  SER814 

> <Gold.Protein.RotatedAtoms>
  152.1772  133.4683  159.4939 H   0  0  0  0  0  0  0  0  0  0  0  0  # atno 6907 bound_to 6896
  150.6929  134.1878  159.4283 H   0  0  0  0  0  0  0  0  0  0  0  0  # atno 6908 bound_to 6896
  151.9788  135.0039  160.0607 H   0  0  0  0  0  0  0  0  0  0  0  0  # atno 6909 bound_to 6896
  144.7869  140.4844  143.5800 H   0  0  0  0  0  0  0  0  0  0  0  0  # atno 7974 bound_to 7965
  154.4004  140.1500  156.3186 H   0  0  0  0  0  0  0  0  0  0  0  0  # atno 8008 bound_to 7997
  155.8550  140.3456  155.5697 H   0  0  0  0  0  0  0  0  0  0  0  0  # atno 8009 bound_to 7997
  155.7943  140.0861  157.1982 H   0  0  0  0  0  0  0  0  0  0  0  0  # atno 8010 bound_to 7997
  139.6500  144.7128  151.2068 H   0  0  0  0  0  0  0  0  0  0  0  0  # atno 10167 bound_to 10162
  157.3420  130.7553  149.6918 H   0  0  0  0  0  0  0  0  0  0  0  0  # atno 10718 bound_to 10713
  153.0025  135.6268  154.2199 H   0  0  0  0  0  0  0  0  0  0  0  0  # atno 10763 bound_to 10752
  154.1942  135.2807  155.3014 H   0  0  0  0  0  0  0  0  0  0  0  0  # atno 10764 bound_to 10752
  154.5736  135.5669  153.7177 H   0  0  0  0  0  0  0  0  0  0  0  0  # atno 10765 bound_to 10752
  141.1340  133.6634  156.5445 H   0  0  0  0  0  0  0  0  0  0  0  0  # atno 11005 bound_to 11000
  145.5897  139.1494  143.3189 LP  0  0  0  0  0  0  0  0  0  0  0  0  # atno 17320 bound_to 7965
  146.2105  140.6023  142.9061 LP  0  0  0  0  0  0  0  0  0  0  0  0  # atno 17321 bound_to 7965
  140.7533  143.6167  150.8553 LP  0  0  0  0  0  0  0  0  0  0  0  0  # atno 17342 bound_to 10162
  139.9814  143.5947  152.2941 LP  0  0  0  0  0  0  0  0  0  0  0  0  # atno 17343 bound_to 10162
  155.9709  130.4165  150.4233 LP  0  0  0  0  0  0  0  0  0  0  0  0  # atno 17370 bound_to 10713
  157.2282  131.0498  151.2507 LP  0  0  0  0  0  0  0  0  0  0  0  0  # atno 17371 bound_to 10713
  140.4113  134.7269  157.4837 LP  0  0  0  0  0  0  0  0  0  0  0  0  # atno 17394 bound_to 11000
  140.0425  134.6247  155.8962 LP  0  0  0  0  0  0  0  0  0  0  0  0  # atno 17395 bound_to 11000

$$$$
