AV-unprocessed.smi:249|AV-procd|sdf|1903|dock9
  -GOLD-   2262020583D 1   1.00000     0.00000
 Structure written by MMmdl.
 64 67  0  0  0  0  0  0  0  0  2 V2000
  144.9199  132.8698  150.7295 C   0  0  0  0  0  0  0  0  0  0  0  0
  144.0016  133.8980  151.4072 C   0  0  0  0  0  0  0  0  0  0  0  0
  144.1221  133.9009  152.8954 N   0  3  1  0  0  0  0  0  0  0  0  0
  145.5208  133.7817  153.3952 C   0  0  0  0  0  0  0  0  0  0  0  0
  146.3205  135.0799  153.1768 C   0  0  0  0  0  0  0  0  0  0  0  0
  145.6173  136.2823  153.8434 C   0  0  1  0  0  0  0  0  0  0  0  0
  146.3480  137.5485  153.7011 N   0  0  0  0  0  0  0  0  0  0  0  0
  146.4577  138.1142  152.3615 C   0  0  0  0  0  0  0  0  0  0  0  0
  147.4549  137.7205  154.4626 C   0  0  0  0  0  0  0  0  0  0  0  0
  147.8281  136.6920  155.2644 N   0  0  0  0  0  0  0  0  0  0  0  0
  148.9102  136.8053  156.0403 C   0  0  0  0  0  0  0  0  0  0  0  0
  149.7416  137.8416  156.1674 N   0  0  0  0  0  0  0  0  0  0  0  0
  149.3634  138.8814  155.3700 C   0  0  0  0  0  0  0  0  0  0  0  0
  148.2436  138.9062  154.4920 C   0  0  0  0  0  0  0  0  0  0  0  0
  148.1867  140.1291  153.8334 N   0  0  0  0  0  0  0  0  0  0  0  0
  149.2118  140.7900  154.2972 C   0  0  0  0  0  0  0  0  0  0  0  0
  149.9616  140.1224  155.2390 N   0  0  0  0  0  0  0  0  0  0  0  0
  151.1487  140.6176  155.9125 C   0  0  0  0  0  0  0  0  0  0  0  0
  150.8891  141.7726  156.9151 C   0  0  1  0  0  0  0  0  0  0  0  0
  149.5464  141.5231  157.6403 C   0  0  0  0  0  0  0  0  0  0  0  0
  149.0290  142.7118  158.2041 O   0  0  0  0  0  0  0  0  0  0  0  0
  152.0608  142.0419  157.9050 C   0  0  2  0  0  0  0  0  0  0  0  0
  152.2152  141.0027  159.0047 C   0  0  0  0  0  0  0  0  0  0  0  0
  153.0703  141.7396  160.0242 C   0  0  0  0  0  0  0  0  0  0  0  0
  152.5729  143.0681  160.0012 O   0  0  0  0  0  0  0  0  0  0  0  0
  151.9473  143.3244  158.7468 C   0  0  0  0  0  0  0  0  0  0  0  0
  144.1496  136.3643  153.3673 C   0  0  0  0  0  0  0  0  0  0  0  0
  143.4189  135.0238  153.5879 C   0  0  1  0  0  0  0  0  0  0  0  0
  141.9182  135.1106  153.2560 C   0  0  0  0  0  0  0  0  0  0  0  0
  144.6899  132.7979  149.6663 H   0  0  0  0  0  0  0  0  0  0  0  0
  144.7894  131.8771  151.1616 H   0  0  0  0  0  0  0  0  0  0  0  0
  145.9721  133.1412  150.8073 H   0  0  0  0  0  0  0  0  0  0  0  0
  144.1835  134.8908  150.9965 H   0  0  0  0  0  0  0  0  0  0  0  0
  142.9852  133.6348  151.1211 H   0  0  0  0  0  0  0  0  0  0  0  0
  145.4867  133.5578  154.4622 H   0  0  0  0  0  0  0  0  0  0  0  0
  146.0347  132.9361  152.9409 H   0  0  0  0  0  0  0  0  0  0  0  0
  147.3224  134.9640  153.5914 H   0  0  0  0  0  0  0  0  0  0  0  0
  146.4510  135.2451  152.1077 H   0  0  0  0  0  0  0  0  0  0  0  0
  145.5954  136.0764  154.9147 H   0  0  0  0  0  0  0  0  0  0  0  0
  146.9774  139.0732  152.3822 H   0  0  0  0  0  0  0  0  0  0  0  0
  145.4648  138.2853  151.9458 H   0  0  0  0  0  0  0  0  0  0  0  0
  146.9954  137.4486  151.6867 H   0  0  0  0  0  0  0  0  0  0  0  0
  149.1424  135.9429  156.6476 H   0  0  0  0  0  0  0  0  0  0  0  0
  149.4421  141.7945  153.9730 H   0  0  0  0  0  0  0  0  0  0  0  0
  151.6010  139.7709  156.4302 H   0  0  0  0  0  0  0  0  0  0  0  0
  151.8685  140.9317  155.1556 H   0  0  0  0  0  0  0  0  0  0  0  0
  150.7438  142.6837  156.3339 H   0  0  0  0  0  0  0  0  0  0  0  0
  148.8043  141.1020  156.9623 H   0  0  0  0  0  0  0  0  0  0  0  0
  149.6770  140.7899  158.4369 H   0  0  0  0  0  0  0  0  0  0  0  0
  149.2506  143.4350  157.6372 H   0  0  0  0  0  0  0  0  0  0  0  0
  152.9984  142.0788  157.3483 H   0  0  0  0  0  0  0  0  0  0  0  0
  151.2454  140.7569  159.4397 H   0  0  0  0  0  0  0  0  0  0  0  0
  152.6835  140.0794  158.6625 H   0  0  0  0  0  0  0  0  0  0  0  0
  153.0099  141.3048  161.0219 H   0  0  0  0  0  0  0  0  0  0  0  0
  154.1163  141.7457  159.7144 H   0  0  0  0  0  0  0  0  0  0  0  0
  152.4263  144.1742  158.2625 H   0  0  0  0  0  0  0  0  0  0  0  0
  150.9060  143.5857  158.9382 H   0  0  0  0  0  0  0  0  0  0  0  0
  143.6261  137.1521  153.9093 H   0  0  0  0  0  0  0  0  0  0  0  0
  144.1030  136.6354  152.3126 H   0  0  0  0  0  0  0  0  0  0  0  0
  143.4715  134.7974  154.6541 H   0  0  0  0  0  0  0  0  0  0  0  0
  141.4154  135.7954  153.9395 H   0  0  0  0  0  0  0  0  0  0  0  0
  141.4329  134.1389  153.3526 H   0  0  0  0  0  0  0  0  0  0  0  0
  141.7384  135.4846  152.2481 H   0  0  0  0  0  0  0  0  0  0  0  0
  143.6490  133.0608  153.1968 H   0  0  0  0  0  0  0  0  0  0  0  0
  1  2  1  0  0  0  0
  1 30  1  0  0  0  0
  1 31  1  0  0  0  0
  1 32  1  0  0  0  0
  2  3  1  0  0  0  0
  2 33  1  0  0  0  0
  2 34  1  0  0  0  0
  3 28  1  0  0  0  0
  3  4  1  0  0  0  0
  3 64  1  0  0  0  0
  4  5  1  0  0  0  0
  4 35  1  0  0  0  0
  4 36  1  0  0  0  0
  5  6  1  0  0  0  0
  5 37  1  0  0  0  0
  5 38  1  0  0  0  0
  6  7  1  0  0  0  0
  6 27  1  0  0  0  0
  6 39  1  0  0  0  0
  7  8  1  0  0  0  0
  7  9  1  0  0  0  0
  8 40  1  0  0  0  0
  8 41  1  0  0  0  0
  8 42  1  0  0  0  0
  9 14  1  0  0  0  0
  9 10  2  0  0  0  0
 10 11  1  0  0  0  0
 11 12  2  0  0  0  0
 11 43  1  0  0  0  0
 12 13  1  0  0  0  0
 13 17  1  0  0  0  0
 13 14  2  0  0  0  0
 14 15  1  0  0  0  0
 15 16  2  0  0  0  0
 16 17  1  0  0  0  0
 16 44  1  0  0  0  0
 17 18  1  0  0  0  0
 18 19  1  0  0  0  0
 18 45  1  0  0  0  0
 18 46  1  0  0  0  0
 19 20  1  0  0  0  0
 19 22  1  0  0  0  0
 19 47  1  0  0  0  0
 20 21  1  0  0  0  0
 20 48  1  0  0  0  0
 20 49  1  0  0  0  0
 21 50  1  0  0  0  0
 22 26  1  0  0  0  0
 22 23  1  0  0  0  0
 22 51  1  0  0  0  0
 23 24  1  0  0  0  0
 23 52  1  0  0  0  0
 23 53  1  0  0  0  0
 24 25  1  0  0  0  0
 24 54  1  0  0  0  0
 24 55  1  0  0  0  0
 25 26  1  0  0  0  0
 26 56  1  0  0  0  0
 26 57  1  0  0  0  0
 27 28  1  0  0  0  0
 27 58  1  0  0  0  0
 27 59  1  0  0  0  0
 28 29  1  0  0  0  0
 28 60  1  0  0  0  0
 29 61  1  0  0  0  0
 29 62  1  0  0  0  0
 29 63  1  0  0  0  0
M  CHG  1   3   1
M  END
> <s_m_source_file>
AV-unprocessed.smi

> <i_m_source_file_index>
249

> <i_lp_mmshare_version>
43012

> <i_f3d_flags>
0

> <s_epik_input>
W0NIM11bQ0gyXU4xW0NIMl1bQ0gyXVtDQEhdKFtDSDJdW0NASF0xW0NIM10pTihbQ0gzXSljKG5bY0hdbjIpYyhjMjMpbltjSF1uM1tDSDJdW0NASF0oW0NIMl1bT0hdKVtDQEBIXTRbQ0gyXVtDSDJdT1tDSDJdNA==

> <s_epik_cmdline>
J2VwaWtfcHl0aG9uJywgJy1waCcsICc3LjAnLCAnLXRuJywgJzgnLCAnLW1hJywgJzIwMCcsICctbWV0YWxfYmluZGluZycsICctaW1hZScsICc8aW5maWxlLm1hZT4nLCAnLW9tYWUnLCAnPG91dGZpbGUubWFlPic=

> <r_lp_tautomer_probability>
1

> <r_epik_Ionization_Penalty>
0.00294688

> <r_epik_Ionization_Penalty_Charging>
0.00169971

> <r_epik_Ionization_Penalty_Neutral>
0.00124717

> <r_epik_State_Penalty>
-0

> <r_epik_Charging_Adjusted_Penalty>
0.00169971

> <i_epik_Tot_Q>
1

> <i_epik_Tot_abs_Q>
1

> <r_epik_Metal_State_Penalty>
-0

> <b_epik_Metal_Only>
0

> <s_lp_Force_Field>
OPLS_2005

> <r_lp_Energy>
55.2795

> <b_lp_Chiralities_Consistent>
1

> <s_lp_Variant>
AV-unprocessed.smi:249-6

> <Gold.Version>
5.8.1

> <Gold.Id.Protein>
6NUR|6NUR_protein|mol2

> <Gold.PLP.Fitness>
49.4197

> <Gold.PLP.PLP>
-41.5662

> <Gold.PLP.part.hbond>
-2.9313

> <Gold.PLP.part.metal>
0.0000

> <Gold.PLP.part.buried>
-6.9746

> <Gold.PLP.part.nonpolar>
-33.1436

> <Gold.PLP.part.repulsive>
0.9089

> <Gold.PLP.ligand.clash>
0.0000

> <Gold.PLP.ligand.torsion>
1.0390

> <Gold.PLP.Chemscore.Hbond>
3.0000

> <Gold.PLP.Chemscore.CHOScore>
0.0000

> <Gold.PLP.Chemscore.Metal>
0.0000

> <Gold.Chemscore.Hbonds>
donor molecule, donor type, donor heavy atom, donor atom, acceptor molecule, acceptor atom, score
      L1  H     3    64       P1 10957  0.85
      L1  H    21    50       P1  8028  0.15

> <Gold.PLP.Chemscore.Internal.Correction>
0.9316

> <Gold.Rescore>
     Score         DG    S(hbond)    S(metal)    S(lipo)     H(rot)  DE(clash)    DE(int)     intcor
     12.15     -15.07       1.75        0.00      95.46       2.90       0.19       2.73       ----

> <Gold.Chemscore.Fitness>
12.1459

> <Gold.Chemscore.DG>
-15.0671

> <Gold.Chemscore.ZeroCoef>
-5.4800

> <Gold.Chemscore.Hbond>
1.7497

> <Gold.Chemscore.Metal>
0.0000

> <Gold.Chemscore.Lipo>
95.4608

> <Gold.Chemscore.Internal_Hbond>
0.0000

> <Gold.Chemscore.DEClash>
0.1873

> <Gold.Chemscore.DEInternal>
2.7339

> <Gold.Chemscore.Rot>
2.9006

> <Gold.Chemscore.Internal.Correction>
   9.000000E+99

> <Gold.Chemscore.Hbonds>
donor molecule, donor type, donor heavy atom, donor atom, acceptor molecule, acceptor atom, score
      L1  H     3    64       P1 10957  0.28
      L1  H    21    50       P1  8028  0.08

> <Gold.Chemscore.Hbond.Weighted>
-5.8438

> <Gold.Chemscore.Metal.Weighted>
-0.0000

> <Gold.Chemscore.Lipo.Weighted>
-11.1689

> <Gold.Chemscore.Internal_Hbond.Weighted>
0.0000

> <Gold.Chemscore.DEClash.Weighted>
0.1873

> <Gold.Chemscore.DEInternal.Weighted>
2.7339

> <Gold.Chemscore.Rot.Weighted>
7.4256

> <Gold.Chemscore.Internal.Correction.Weighted>
   9.000000E+99

> <Gold.Protein.RotatedTorsions>
[ 6907 6896 6895 6894 ] final  -11.30 input  -60.11 | X-H torsion
[ 7974 7965 7964 7962 ] final   54.85 input  175.53 | X-H torsion
[ 8008 7997 7996 7995 ] final   22.69 input   59.86 | X-H torsion
[ 10167 10162 10161 10158 ] final   23.49 input  -65.29 | X-H torsion
[ 10718 10713 10712 10709 ] final  -70.09 input   66.30 | X-H torsion
[ 10763 10752 10751 10750 ] final  -65.23 input  -60.55 | X-H torsion
[ 11005 11000 10999 10996 ] final  -34.61 input  -57.11 | X-H torsion

> <Gold.Protein.ActiveResidues>
 VAL166  LYS551  ARG553  GLY616  TRP617  ASP618  TYR619  PRO620  LYS621  CYS622 
 ASP623  PHE694  ASN695  SER759  ASP760  ASP761  ALA762  ILE779  LEU786  VAL792 
 PHE793  MET794  SER795  GLU796  ALA797  LYS798  CYS799  TRP800  GLU811  SER814 

> <Gold.Protein.RotatedAtoms>
  151.3883  135.0951  159.9517 H   0  0  0  0  0  0  0  0  0  0  0  0  # atno 6907 bound_to 6896
  152.5087  133.9004  159.7449 H   0  0  0  0  0  0  0  0  0  0  0  0  # atno 6908 bound_to 6896
  150.9452  133.6555  159.2811 H   0  0  0  0  0  0  0  0  0  0  0  0  # atno 6909 bound_to 6896
  145.9566  139.4020  143.0273 H   0  0  0  0  0  0  0  0  0  0  0  0  # atno 7974 bound_to 7965
  154.9696  140.3088  155.4994 H   0  0  0  0  0  0  0  0  0  0  0  0  # atno 8008 bound_to 7997
  156.2967  140.2286  156.4727 H   0  0  0  0  0  0  0  0  0  0  0  0  # atno 8009 bound_to 7997
  154.7889  140.0441  157.1174 H   0  0  0  0  0  0  0  0  0  0  0  0  # atno 8010 bound_to 7997
  140.5264  143.9915  150.6443 H   0  0  0  0  0  0  0  0  0  0  0  0  # atno 10167 bound_to 10162
  156.0424  130.4325  150.2244 H   0  0  0  0  0  0  0  0  0  0  0  0  # atno 10718 bound_to 10713
  154.3419  135.6155  153.5600 H   0  0  0  0  0  0  0  0  0  0  0  0  # atno 10763 bound_to 10752
  152.9803  135.5771  154.4843 H   0  0  0  0  0  0  0  0  0  0  0  0  # atno 10764 bound_to 10752
  154.4549  135.2854  155.1732 H   0  0  0  0  0  0  0  0  0  0  0  0  # atno 10765 bound_to 10752
  140.9730  133.7098  156.1556 H   0  0  0  0  0  0  0  0  0  0  0  0  # atno 11005 bound_to 11000
  145.8098  140.9731  143.0955 LP  0  0  0  0  0  0  0  0  0  0  0  0  # atno 17320 bound_to 7965
  144.6806  139.9906  143.7484 LP  0  0  0  0  0  0  0  0  0  0  0  0  # atno 17321 bound_to 7965
  140.3278  143.3096  152.0718 LP  0  0  0  0  0  0  0  0  0  0  0  0  # atno 17342 bound_to 10162
  139.4940  144.6530  151.6635 LP  0  0  0  0  0  0  0  0  0  0  0  0  # atno 17343 bound_to 10162
  157.0337  131.0015  151.3304 LP  0  0  0  0  0  0  0  0  0  0  0  0  # atno 17370 bound_to 10713
  157.5259  130.8027  149.7861 LP  0  0  0  0  0  0  0  0  0  0  0  0  # atno 17371 bound_to 10713
  140.7300  134.4265  157.5567 LP  0  0  0  0  0  0  0  0  0  0  0  0  # atno 17394 bound_to 11000
  139.8919  134.8767  156.2294 LP  0  0  0  0  0  0  0  0  0  0  0  0  # atno 17395 bound_to 11000

$$$$
