AV-unprocessed.smi:1740|AV-procd|sdf|7015|dock7
  -GOLD-   22720 8233D 1   1.00000     0.00000
 Structure written by MMmdl.
 52 54  0  0  0  0  0  0  0  0  4 V2000
  152.6364  135.5438  156.2965 N   0  5  0  0  0  0  0  0  0  0  0  0
  151.3615  135.1072  156.3351 C   0  0  0  0  0  0  0  0  0  0  0  0
  150.7267  134.7141  157.3109 O   0  0  0  0  0  0  0  0  0  0  0  0
  150.6928  135.1368  154.9567 C   0  0  0  0  0  0  0  0  0  0  0  0
  150.2494  136.5123  154.6134 N   0  3  2  0  0  0  0  0  0  0  0  0
  151.3783  137.4427  154.3428 C   0  0  0  0  0  0  0  0  0  0  0  0
  150.8703  138.8166  153.8680 C   0  0  0  0  0  0  0  0  0  0  0  0
  149.8727  139.4391  154.8602 C   0  0  2  0  0  0  0  0  0  0  0  0
  150.5608  139.8658  156.0785 N   0  0  0  0  0  0  0  0  0  0  0  0
  150.7066  141.1361  156.4812 C   0  0  0  0  0  0  0  0  0  0  0  0
  150.2823  142.1053  155.8524 O   0  0  0  0  0  0  0  0  0  0  0  0
  151.3462  141.2054  157.6601 N   0  0  0  0  0  0  0  0  0  0  0  0
  151.5862  142.3721  158.4373 C   0  0  0  0  0  0  0  0  0  0  0  0
  150.9037  143.5818  158.1514 C   0  0  0  0  0  0  0  0  0  0  0  0
  151.2029  144.7469  158.8818 C   0  0  0  0  0  0  0  0  0  0  0  0
  152.1932  144.6889  159.8771 C   0  0  0  0  0  0  0  0  0  0  0  0
  152.8332  143.5258  160.1172 N   0  3  0  0  0  0  0  0  0  0  0  0
  152.5799  142.3664  159.4595 C   0  0  0  0  0  0  0  0  0  0  0  0
  153.3231  141.2224  159.8323 N   0  0  0  0  0  0  0  0  0  0  0  0
  154.0003  140.4208  158.8197 C   0  0  0  0  0  0  0  0  0  0  0  0
  154.9461  139.5122  159.5999 C   0  0  0  0  0  0  0  0  0  0  0  0
  155.3751  140.4044  160.7610 C   0  0  0  0  0  0  0  0  0  0  0  0
  154.1327  141.2542  161.0466 C   0  0  0  0  0  0  0  0  0  0  0  0
  148.7486  138.4284  155.1624 C   0  0  0  0  0  0  0  0  0  0  0  0
  149.3047  137.0669  155.6153 C   0  0  0  0  0  0  0  0  0  0  0  0
  152.9856  136.1125  157.0775 H   0  0  0  0  0  0  0  0  0  0  0  0
  151.4191  134.7773  154.2256 H   0  0  0  0  0  0  0  0  0  0  0  0
  149.8495  134.4450  154.9225 H   0  0  0  0  0  0  0  0  0  0  0  0
  151.9825  137.5537  155.2446 H   0  0  0  0  0  0  0  0  0  0  0  0
  152.0339  137.0254  153.5780 H   0  0  0  0  0  0  0  0  0  0  0  0
  151.7114  139.4910  153.7025 H   0  0  0  0  0  0  0  0  0  0  0  0
  150.3835  138.6978  152.8991 H   0  0  0  0  0  0  0  0  0  0  0  0
  149.4364  140.3235  154.3920 H   0  0  0  0  0  0  0  0  0  0  0  0
  150.9504  139.1365  156.6577 H   0  0  0  0  0  0  0  0  0  0  0  0
  151.5574  140.3264  158.1092 H   0  0  0  0  0  0  0  0  0  0  0  0
  150.1665  143.6359  157.3640 H   0  0  0  0  0  0  0  0  0  0  0  0
  150.6890  145.6735  158.6714 H   0  0  0  0  0  0  0  0  0  0  0  0
  152.4946  145.5317  160.4819 H   0  0  0  0  0  0  0  0  0  0  0  0
  153.2906  139.8489  158.2214 H   0  0  0  0  0  0  0  0  0  0  0  0
  154.5769  141.0620  158.1518 H   0  0  0  0  0  0  0  0  0  0  0  0
  154.4047  138.6438  159.9776 H   0  0  0  0  0  0  0  0  0  0  0  0
  155.7841  139.1559  159.0008 H   0  0  0  0  0  0  0  0  0  0  0  0
  155.7109  139.8396  161.6309 H   0  0  0  0  0  0  0  0  0  0  0  0
  156.1954  141.0489  160.4424 H   0  0  0  0  0  0  0  0  0  0  0  0
  154.4063  142.2703  161.3336 H   0  0  0  0  0  0  0  0  0  0  0  0
  153.5593  140.8122  161.8618 H   0  0  0  0  0  0  0  0  0  0  0  0
  148.0662  138.8232  155.9159 H   0  0  0  0  0  0  0  0  0  0  0  0
  148.1488  138.2838  154.2628 H   0  0  0  0  0  0  0  0  0  0  0  0
  148.4743  136.3742  155.7578 H   0  0  0  0  0  0  0  0  0  0  0  0
  149.8071  137.1608  156.5794 H   0  0  0  0  0  0  0  0  0  0  0  0
  149.7299  136.4161  153.7513 H   0  0  0  0  0  0  0  0  0  0  0  0
  153.5473  143.5169  160.8457 H   0  0  0  0  0  0  0  0  0  0  0  0
  1  2  1  0  0  0  0
  1 26  1  0  0  0  0
  2  3  2  0  0  0  0
  2  4  1  0  0  0  0
  4  5  1  0  0  0  0
  4 27  1  0  0  0  0
  4 28  1  0  0  0  0
  5 25  1  0  0  0  0
  5  6  1  0  0  0  0
  5 51  1  0  0  0  0
  6  7  1  0  0  0  0
  6 29  1  0  0  0  0
  6 30  1  0  0  0  0
  7  8  1  0  0  0  0
  7 31  1  0  0  0  0
  7 32  1  0  0  0  0
  8  9  1  0  0  0  0
  8 24  1  0  0  0  0
  8 33  1  0  0  0  0
  9 10  1  0  0  0  0
  9 34  1  0  0  0  0
 10 11  2  0  0  0  0
 10 12  1  0  0  0  0
 12 13  1  0  0  0  0
 12 35  1  0  0  0  0
 13 18  1  0  0  0  0
 13 14  2  0  0  0  0
 14 15  1  0  0  0  0
 14 36  1  0  0  0  0
 15 16  2  0  0  0  0
 15 37  1  0  0  0  0
 16 17  1  0  0  0  0
 16 38  1  0  0  0  0
 17 18  2  0  0  0  0
 17 52  1  0  0  0  0
 18 19  1  0  0  0  0
 19 23  1  0  0  0  0
 19 20  1  0  0  0  0
 20 21  1  0  0  0  0
 20 39  1  0  0  0  0
 20 40  1  0  0  0  0
 21 22  1  0  0  0  0
 21 41  1  0  0  0  0
 21 42  1  0  0  0  0
 22 23  1  0  0  0  0
 22 43  1  0  0  0  0
 22 44  1  0  0  0  0
 23 45  1  0  0  0  0
 23 46  1  0  0  0  0
 24 25  1  0  0  0  0
 24 47  1  0  0  0  0
 24 48  1  0  0  0  0
 25 49  1  0  0  0  0
 25 50  1  0  0  0  0
M  CHG  1   1  -1
M  CHG  1   5   1
M  CHG  1  17   1
M  END
> <s_m_source_file>
AV-unprocessed.smi

> <i_m_source_file_index>
1740

> <i_lp_mmshare_version>
43012

> <i_f3d_flags>
0

> <s_epik_input>
W05IMl1DKD1PKVtDSDJdTjFbQ0gyXVtDSDJdW0NIXShbQ0gyXVtDSDJdMSlbTkhdQyg9TylbTkhdYzJbY0hdW2NIXVtjSF1uYzJOM1tDSDJdW0NIMl1bQ0gyXVtDSDJdMw==

> <s_epik_cmdline>
J2VwaWtfcHl0aG9uJywgJy1waCcsICc3LjAnLCAnLXRuJywgJzgnLCAnLW1hJywgJzIwMCcsICctbWV0YWxfYmluZGluZycsICctaW1hZScsICc8aW5maWxlLm1hZT4nLCAnLW9tYWUnLCAnPG91dGZpbGUubWFlPic=

> <r_lp_tautomer_probability>
0.999994

> <r_epik_Ionization_Penalty>
6.97817

> <r_epik_Ionization_Penalty_Charging>
6.97815

> <r_epik_Ionization_Penalty_Neutral>
1.88285e-05

> <r_epik_State_Penalty>
7.80985

> <r_epik_Charging_Adjusted_Penalty>
14.788

> <i_epik_Tot_Q>
1

> <i_epik_Tot_abs_Q>
3

> <r_epik_Metal_State_Penalty>
3.85728

> <b_epik_Metal_Only>
1

> <s_lp_Force_Field>
OPLS_2005

> <r_lp_Energy>
44.1168

> <b_lp_Chiralities_Consistent>
1

> <s_lp_Variant>
AV-unprocessed.smi:1740-10

> <Gold.Version>
5.8.1

> <Gold.Id.Protein>
6NUR|6NUR_protein|mol2

> <Gold.PLP.Fitness>
54.5192

> <Gold.PLP.PLP>
-40.8060

> <Gold.PLP.part.hbond>
-3.0136

> <Gold.PLP.part.metal>
0.0000

> <Gold.PLP.part.buried>
-5.3750

> <Gold.PLP.part.nonpolar>
-33.1750

> <Gold.PLP.part.repulsive>
0.6346

> <Gold.PLP.ligand.clash>
0.0000

> <Gold.PLP.ligand.torsion>
0.5799

> <Gold.PLP.Chemscore.Hbond>
4.8000

> <Gold.PLP.Chemscore.CHOScore>
0.0000

> <Gold.PLP.Chemscore.Metal>
0.0000

> <Gold.Chemscore.Hbonds>
donor molecule, donor type, donor heavy atom, donor atom, acceptor molecule, acceptor atom, score
      L1  H     5    51       P1  7948  2.00
      P1  H  6896  6907       L1     3  0.36
      P1  H 10752 10765       L1     1  0.98

> <Gold.PLP.Chemscore.Internal.Correction>
0.4730

> <Gold.Rescore>
     Score         DG    S(hbond)    S(metal)    S(lipo)     H(rot)  DE(clash)    DE(int)     intcor
     15.79     -19.70       2.38        0.00     101.52       2.18       0.29       3.63       ----

> <Gold.Chemscore.Fitness>
15.7903

> <Gold.Chemscore.DG>
-19.7040

> <Gold.Chemscore.ZeroCoef>
-5.4800

> <Gold.Chemscore.Hbond>
2.3757

> <Gold.Chemscore.Metal>
0.0000

> <Gold.Chemscore.Lipo>
101.5232

> <Gold.Chemscore.Internal_Hbond>
0.0000

> <Gold.Chemscore.DEClash>
0.2872

> <Gold.Chemscore.DEInternal>
3.6265

> <Gold.Chemscore.Rot>
2.1832

> <Gold.Chemscore.Internal.Correction>
   9.000000E+99

> <Gold.Chemscore.Hbonds>
donor molecule, donor type, donor heavy atom, donor atom, acceptor molecule, acceptor atom, score
      L1  H     5    51       P1  7948  0.42
      P1  H  6896  6907       L1     3  0.35
      P1  H 10752 10765       L1     1  0.40

> <Gold.Chemscore.Hbond.Weighted>
-7.9349

> <Gold.Chemscore.Metal.Weighted>
-0.0000

> <Gold.Chemscore.Lipo.Weighted>
-11.8782

> <Gold.Chemscore.Internal_Hbond.Weighted>
0.0000

> <Gold.Chemscore.DEClash.Weighted>
0.2872

> <Gold.Chemscore.DEInternal.Weighted>
3.6265

> <Gold.Chemscore.Rot.Weighted>
5.5891

> <Gold.Chemscore.Internal.Correction.Weighted>
   9.000000E+99

> <Gold.Protein.RotatedTorsions>
[ 6907 6896 6895 6894 ] final  -97.71 input  -60.11 | X-H torsion
[ 7974 7965 7964 7962 ] final  -66.52 input  175.53 | X-H torsion
[ 8008 7997 7996 7995 ] final   -8.12 input   59.86 | X-H torsion
[ 10167 10162 10161 10158 ] final  -80.81 input  -65.29 | X-H torsion
[ 10718 10713 10712 10709 ] final -137.57 input   66.30 | X-H torsion
[ 10763 10752 10751 10750 ] final -148.84 input  -60.55 | X-H torsion
[ 11005 11000 10999 10996 ] final   -5.13 input  -57.11 | X-H torsion

> <Gold.Protein.ActiveResidues>
 VAL166  LYS551  ARG553  GLY616  TRP617  ASP618  TYR619  PRO620  LYS621  CYS622 
 ASP623  PHE694  ASN695  SER759  ASP760  ASP761  ALA762  ILE779  LEU786  VAL792 
 PHE793  MET794  SER795  GLU796  ALA797  LYS798  CYS799  TRP800  GLU811  SER814 

> <Gold.Protein.RotatedAtoms>
  150.7024  134.1306  159.4068 H   0  0  0  0  0  0  0  0  0  0  0  0  # atno 6907 bound_to 6896
  151.9292  135.0262  160.0537 H   0  0  0  0  0  0  0  0  0  0  0  0  # atno 6908 bound_to 6896
  152.2190  133.4934  159.5189 H   0  0  0  0  0  0  0  0  0  0  0  0  # atno 6909 bound_to 6896
  145.7407  140.8955  143.0531 H   0  0  0  0  0  0  0  0  0  0  0  0  # atno 7974 bound_to 7965
  154.5772  140.2389  155.8106 H   0  0  0  0  0  0  0  0  0  0  0  0  # atno 8008 bound_to 7997
  156.2152  140.3014  155.9779 H   0  0  0  0  0  0  0  0  0  0  0  0  # atno 8009 bound_to 7997
  155.2606  140.0414  157.2987 H   0  0  0  0  0  0  0  0  0  0  0  0  # atno 8010 bound_to 7997
  140.4470  143.2495  151.8544 H   0  0  0  0  0  0  0  0  0  0  0  0  # atno 10167 bound_to 10162
  156.2896  130.7367  151.1389 H   0  0  0  0  0  0  0  0  0  0  0  0  # atno 10718 bound_to 10713
  154.8211  135.3324  154.7036 H   0  0  0  0  0  0  0  0  0  0  0  0  # atno 10763 bound_to 10752
  153.7668  135.6928  153.4919 H   0  0  0  0  0  0  0  0  0  0  0  0  # atno 10764 bound_to 10752
  153.2072  135.4495  155.0285 H   0  0  0  0  0  0  0  0  0  0  0  0  # atno 10765 bound_to 10752
  140.6878  133.9097  155.8598 H   0  0  0  0  0  0  0  0  0  0  0  0  # atno 11005 bound_to 11000
  144.6871  139.9457  143.7476 LP  0  0  0  0  0  0  0  0  0  0  0  0  # atno 17320 bound_to 7965
  146.0450  139.3457  143.0674 LP  0  0  0  0  0  0  0  0  0  0  0  0  # atno 17321 bound_to 7965
  139.4793  144.5164  151.8862 LP  0  0  0  0  0  0  0  0  0  0  0  0  # atno 17342 bound_to 10162
  140.4252  144.2189  150.5887 LP  0  0  0  0  0  0  0  0  0  0  0  0  # atno 17343 bound_to 10162
  157.7338  131.0587  150.5555 LP  0  0  0  0  0  0  0  0  0  0  0  0  # atno 17370 bound_to 10713
  156.5670  130.4270  149.6037 LP  0  0  0  0  0  0  0  0  0  0  0  0  # atno 17371 bound_to 10713
  141.0265  134.0815  157.4062 LP  0  0  0  0  0  0  0  0  0  0  0  0  # atno 17394 bound_to 11000
  139.8932  135.0129  156.6887 LP  0  0  0  0  0  0  0  0  0  0  0  0  # atno 17395 bound_to 11000

$$$$
