AV-unprocessed.smi:2525|AV-procd|sdf|9927|dock8
  -GOLD-   2272013563D 1   1.00000     0.00000
 Structure written by MMmdl.
 44 45  0  0  0  0  0  0  0  0  1 V2000
  147.9426  136.9887  155.3251 C   0  0  0  0  0  0  0  0  0  0  0  0
  149.0822  137.7516  156.0153 C   0  0  0  0  0  0  0  0  0  0  0  0
  150.0134  138.5538  155.0792 C   0  0  0  0  0  0  0  0  0  0  0  0
  149.1398  139.5933  154.3088 C   0  0  0  0  0  0  0  0  0  0  0  0
  148.3898  140.6230  155.1716 C   0  0  0  0  0  0  0  0  0  0  0  0
  151.2878  139.1040  155.7852 C   0  0  2  0  0  0  0  0  0  0  0  0
  151.2356  140.5143  156.1495 N   0  0  0  0  0  0  0  0  0  0  0  0
  151.8290  141.0422  157.2300 C   0  0  0  0  0  0  0  0  0  0  0  0
  152.5769  140.4073  157.9730 O   0  0  0  0  0  0  0  0  0  0  0  0
  151.5043  142.5044  157.5349 C   0  0  0  0  0  0  0  0  0  0  0  0
  151.7403  142.7999  158.9375 N   0  0  0  0  0  0  0  0  0  0  0  0
  152.4697  143.8343  159.4873 C   0  0  0  0  0  0  0  0  0  0  0  0
  152.3799  143.6074  160.8309 C   0  0  0  0  0  0  0  0  0  0  0  0
  151.6120  142.4635  161.0404 N   0  0  0  0  0  0  0  0  0  0  0  0
  151.2318  141.9886  159.8962 N   0  0  0  0  0  0  0  0  0  0  0  0
  152.0709  138.8452  154.4934 C   0  0  1  0  0  0  0  0  0  0  0  0
  153.5598  138.5306  154.5607 C   0  0  0  0  0  0  0  0  0  0  0  0
  151.0346  137.7337  154.2348 C   0  0  1  0  0  0  0  0  0  0  0  0
  151.3794  136.5049  154.8685 O   0  0  0  0  0  0  0  0  0  0  0  0
  150.4513  135.4643  154.6136 C   0  0  0  0  0  0  0  0  0  0  0  0
  147.4474  136.3235  156.0324 H   0  0  0  0  0  0  0  0  0  0  0  0
  148.3094  136.3775  154.5004 H   0  0  0  0  0  0  0  0  0  0  0  0
  147.1811  137.6663  154.9417 H   0  0  0  0  0  0  0  0  0  0  0  0
  148.6592  138.4034  156.7806 H   0  0  0  0  0  0  0  0  0  0  0  0
  149.6690  137.0226  156.5750 H   0  0  0  0  0  0  0  0  0  0  0  0
  149.7467  140.1321  153.5804 H   0  0  0  0  0  0  0  0  0  0  0  0
  148.3774  139.1005  153.7067 H   0  0  0  0  0  0  0  0  0  0  0  0
  147.9560  141.4003  154.5422 H   0  0  0  0  0  0  0  0  0  0  0  0
  149.0330  141.1124  155.9002 H   0  0  0  0  0  0  0  0  0  0  0  0
  147.5653  140.1603  155.7137 H   0  0  0  0  0  0  0  0  0  0  0  0
  151.6367  138.4616  156.5977 H   0  0  0  0  0  0  0  0  0  0  0  0
  150.6437  141.1113  155.5900 H   0  0  0  0  0  0  0  0  0  0  0  0
  152.1276  143.1627  156.9281 H   0  0  0  0  0  0  0  0  0  0  0  0
  150.4645  142.7174  157.2818 H   0  0  0  0  0  0  0  0  0  0  0  0
  152.9667  144.5948  158.9032 H   0  0  0  0  0  0  0  0  0  0  0  0
  152.8009  144.1638  161.6553 H   0  0  0  0  0  0  0  0  0  0  0  0
  151.8961  139.6553  153.7818 H   0  0  0  0  0  0  0  0  0  0  0  0
  153.7699  137.7318  155.2723 H   0  0  0  0  0  0  0  0  0  0  0  0
  154.1306  139.4048  154.8734 H   0  0  0  0  0  0  0  0  0  0  0  0
  153.9419  138.2189  153.5886 H   0  0  0  0  0  0  0  0  0  0  0  0
  150.7630  137.6052  153.1875 H   0  0  0  0  0  0  0  0  0  0  0  0
  150.7962  134.5442  155.0848 H   0  0  0  0  0  0  0  0  0  0  0  0
  150.3409  135.2755  153.5457 H   0  0  0  0  0  0  0  0  0  0  0  0
  149.4717  135.7064  155.0278 H   0  0  0  0  0  0  0  0  0  0  0  0
  1  2  1  0  0  0  0
  1 21  1  0  0  0  0
  1 22  1  0  0  0  0
  1 23  1  0  0  0  0
  2  3  1  0  0  0  0
  2 24  1  0  0  0  0
  2 25  1  0  0  0  0
  3 18  1  0  0  0  0
  3  4  1  0  0  0  0
  3  6  1  0  0  0  0
  4  5  1  0  0  0  0
  4 26  1  0  0  0  0
  4 27  1  0  0  0  0
  5 28  1  0  0  0  0
  5 29  1  0  0  0  0
  5 30  1  0  0  0  0
  6  7  1  0  0  0  0
  6 16  1  0  0  0  0
  6 31  1  0  0  0  0
  7  8  1  0  0  0  0
  7 32  1  0  0  0  0
  8  9  2  0  0  0  0
  8 10  1  0  0  0  0
 10 11  1  0  0  0  0
 10 33  1  0  0  0  0
 10 34  1  0  0  0  0
 11 15  1  0  0  0  0
 11 12  1  0  0  0  0
 12 13  2  0  0  0  0
 12 35  1  0  0  0  0
 13 14  1  0  0  0  0
 13 36  1  0  0  0  0
 14 15  2  0  0  0  0
 16 17  1  0  0  0  0
 16 18  1  0  0  0  0
 16 37  1  0  0  0  0
 17 38  1  0  0  0  0
 17 39  1  0  0  0  0
 17 40  1  0  0  0  0
 18 19  1  0  0  0  0
 18 41  1  0  0  0  0
 19 20  1  0  0  0  0
 20 42  1  0  0  0  0
 20 43  1  0  0  0  0
 20 44  1  0  0  0  0
M  END
> <s_m_source_file>
AV-unprocessed.smi

> <i_m_source_file_index>
2525

> <i_lp_mmshare_version>
43012

> <i_f3d_flags>
0

> <s_epik_input>
W0NIM11PW0NAQEhdMVtDQEhdKFtDSDNdKVtDQEBIXShDMShbQ0gyXVtDSDNdKVtDSDJdW0NIM10pW05IXUMoPU8pW0NIMl1uMltjSF1bY0hdbm4y

> <s_epik_cmdline>
J2VwaWtfcHl0aG9uJywgJy1waCcsICc3LjAnLCAnLXRuJywgJzgnLCAnLW1hJywgJzIwMCcsICctbWV0YWxfYmluZGluZycsICctaW1hZScsICc8aW5maWxlLm1hZT4nLCAnLW9tYWUnLCAnPG91dGZpbGUubWFlPic=

> <r_lp_tautomer_probability>
1

> <r_epik_Ionization_Penalty>
1.18045e-06

> <r_epik_Ionization_Penalty_Charging>
0

> <r_epik_Ionization_Penalty_Neutral>
1.18045e-06

> <r_epik_State_Penalty>
-0

> <r_epik_Charging_Adjusted_Penalty>
0

> <i_epik_Tot_Q>
0

> <i_epik_Tot_abs_Q>
0

> <r_epik_Metal_State_Penalty>
-0

> <b_epik_Metal_Only>
0

> <s_lp_Force_Field>
OPLS_2005

> <r_lp_Energy>
28.7766

> <b_lp_Chiralities_Consistent>
1

> <s_lp_Variant>
AV-unprocessed.smi:2525-2

> <Gold.Version>
5.8.1

> <Gold.Id.Protein>
6NUR|6NUR_protein|mol2

> <Gold.PLP.Fitness>
38.3798

> <Gold.PLP.PLP>
-34.2978

> <Gold.PLP.part.hbond>
-3.8276

> <Gold.PLP.part.metal>
0.0000

> <Gold.PLP.part.buried>
-3.7526

> <Gold.PLP.part.nonpolar>
-27.0110

> <Gold.PLP.part.repulsive>
0.3452

> <Gold.PLP.ligand.clash>
0.0000

> <Gold.PLP.ligand.torsion>
0.8871

> <Gold.PLP.Chemscore.Hbond>
1.7218

> <Gold.PLP.Chemscore.CHOScore>
0.0000

> <Gold.PLP.Chemscore.Metal>
0.0000

> <Gold.Chemscore.Hbonds>
donor molecule, donor type, donor heavy atom, donor atom, acceptor molecule, acceptor atom, score
      P1  H  6933  6945       L1    14  0.29
      P1  H  7997  8010       L1     9  0.47
      P1  H 10752 10763       L1    19  0.95

> <Gold.PLP.Chemscore.Internal.Correction>
0.6908

> <Gold.Rescore>
     Score         DG    S(hbond)    S(metal)    S(lipo)     H(rot)  DE(clash)    DE(int)     intcor
     11.44     -13.98       1.06        0.00      85.66       1.98       0.12       2.41       ----

> <Gold.Chemscore.Fitness>
11.4423

> <Gold.Chemscore.DG>
-13.9769

> <Gold.Chemscore.ZeroCoef>
-5.4800

> <Gold.Chemscore.Hbond>
1.0620

> <Gold.Chemscore.Metal>
0.0000

> <Gold.Chemscore.Lipo>
85.6647

> <Gold.Chemscore.Internal_Hbond>
0.0000

> <Gold.Chemscore.DEClash>
0.1220

> <Gold.Chemscore.DEInternal>
2.4126

> <Gold.Chemscore.Rot>
1.9817

> <Gold.Chemscore.Internal.Correction>
   9.000000E+99

> <Gold.Chemscore.Hbonds>
donor molecule, donor type, donor heavy atom, donor atom, acceptor molecule, acceptor atom, score
      P1  H  6933  6945       L1    14  0.07
      P1  H  7997  8010       L1     9  0.23
      P1  H 10752 10763       L1    19  0.21

> <Gold.Chemscore.Hbond.Weighted>
-3.5472

> <Gold.Chemscore.Metal.Weighted>
-0.0000

> <Gold.Chemscore.Lipo.Weighted>
-10.0228

> <Gold.Chemscore.Internal_Hbond.Weighted>
0.0000

> <Gold.Chemscore.DEClash.Weighted>
0.1220

> <Gold.Chemscore.DEInternal.Weighted>
2.4126

> <Gold.Chemscore.Rot.Weighted>
5.0731

> <Gold.Chemscore.Internal.Correction.Weighted>
   9.000000E+99

> <Gold.Protein.RotatedTorsions>
[ 6907 6896 6895 6894 ] final  -31.74 input  -60.11 | X-H torsion
[ 7974 7965 7964 7962 ] final  128.02 input  175.53 | X-H torsion
[ 8008 7997 7996 7995 ] final   50.82 input   59.86 | X-H torsion
[ 10167 10162 10161 10158 ] final   76.47 input  -65.29 | X-H torsion
[ 10718 10713 10712 10709 ] final -120.24 input   66.30 | X-H torsion
[ 10763 10752 10751 10750 ] final   59.85 input  -60.55 | X-H torsion
[ 11005 11000 10999 10996 ] final  131.15 input  -57.11 | X-H torsion

> <Gold.Protein.ActiveResidues>
 VAL166  LYS551  ARG553  GLY616  TRP617  ASP618  TYR619  PRO620  LYS621  CYS622 
 ASP623  PHE694  ASN695  SER759  ASP760  ASP761  ALA762  ILE779  LEU786  VAL792 
 PHE793  MET794  SER795  GLU796  ALA797  LYS798  CYS799  TRP800  GLU811  SER814 

> <Gold.Protein.RotatedAtoms>
  151.0880  134.9899  159.8388 H   0  0  0  0  0  0  0  0  0  0  0  0  # atno 6907 bound_to 6896
  152.5426  134.2100  159.8756 H   0  0  0  0  0  0  0  0  0  0  0  0  # atno 6908 bound_to 6896
  151.2134  133.4499  159.2632 H   0  0  0  0  0  0  0  0  0  0  0  0  # atno 6909 bound_to 6896
  145.0441  139.3938  143.5087 H   0  0  0  0  0  0  0  0  0  0  0  0  # atno 7974 bound_to 7965
  155.4250  140.3448  155.4275 H   0  0  0  0  0  0  0  0  0  0  0  0  # atno 8008 bound_to 7997
  156.1370  140.1531  156.9010 H   0  0  0  0  0  0  0  0  0  0  0  0  # atno 8009 bound_to 7997
  154.4940  140.0833  156.7636 H   0  0  0  0  0  0  0  0  0  0  0  0  # atno 8010 bound_to 7997
  139.9919  144.5751  150.7811 H   0  0  0  0  0  0  0  0  0  0  0  0  # atno 10167 bound_to 10162
  156.1243  130.6347  150.9516 H   0  0  0  0  0  0  0  0  0  0  0  0  # atno 10718 bound_to 10713
  152.9905  135.5557  154.5779 H   0  0  0  0  0  0  0  0  0  0  0  0  # atno 10763 bound_to 10752
  154.5166  135.2805  155.1300 H   0  0  0  0  0  0  0  0  0  0  0  0  # atno 10764 bound_to 10752
  154.2670  135.6370  153.5348 H   0  0  0  0  0  0  0  0  0  0  0  0  # atno 10765 bound_to 10752
  139.9713  134.9576  156.9397 H   0  0  0  0  0  0  0  0  0  0  0  0  # atno 11005 bound_to 11000
  146.3512  140.0058  142.8672 LP  0  0  0  0  0  0  0  0  0  0  0  0  # atno 17320 bound_to 7965
  145.1610  140.9672  143.4377 LP  0  0  0  0  0  0  0  0  0  0  0  0  # atno 17321 bound_to 7965
  140.7451  143.2871  151.3433 LP  0  0  0  0  0  0  0  0  0  0  0  0  # atno 17342 bound_to 10162
  139.6334  144.0677  152.2495 LP  0  0  0  0  0  0  0  0  0  0  0  0  # atno 17343 bound_to 10162
  157.6425  131.0908  150.8222 LP  0  0  0  0  0  0  0  0  0  0  0  0  # atno 17370 bound_to 10713
  156.8314  130.5017  149.5331 LP  0  0  0  0  0  0  0  0  0  0  0  0  # atno 17371 bound_to 10713
  140.5286  134.0835  155.7310 LP  0  0  0  0  0  0  0  0  0  0  0  0  # atno 17394 bound_to 11000
  141.1393  133.9167  157.2363 LP  0  0  0  0  0  0  0  0  0  0  0  0  # atno 17395 bound_to 11000

$$$$
