#       Name:                AV-unprocessed.smi:3299
#       Creating user name   scv26
#       Creation time:       Fri Mar 27 18:58:16 2020


#       File generated by GOLD software.
#

@<TRIPOS>MOLECULE
AV-unprocessed.smi:3299
    39    40     1
SMALL
NO_CHARGES


@<TRIPOS>ATOM
      1 ****        -4.0083   4.2297  -0.0771 C.3            1 S1                 0.0000
      2 ****        -3.9535   2.7346  -0.0559 C.2            1 S1                 0.0000
      3 ****        -5.0190   1.8680  -0.0349 C.2            1 S1                 0.0000
      4 ****        -4.5056   0.2019  -0.0099 S.3            1 S1                 0.0000
      5 ****        -2.8386   0.7558  -0.0311 C.2            1 S1                 0.0000
      6 ****        -1.7455  -0.1498  -0.0144 N.am           1 S1                 0.0000
      7 ****        -0.4315   0.1338  -0.0461 C.2            1 S1                 0.0000
      8 ****         0.0504   1.2628  -0.1410 O.2            1 S1                 0.0000
      9 ****         0.3066  -0.9827   0.0364 N.am           1 S1                 0.0000
     10 ****         1.7668  -1.0355   0.0465 C.3            1 S1                 0.0000
     11 ****         2.2362  -2.3940  -0.5103 C.3            1 S1                 0.0000
     12 ****         1.8283  -2.6393  -1.9726 C.3            1 S1                 0.0000
     13 ****         2.3232  -3.8887  -2.4031 O.3            1 S1                 0.0000
     14 ****         2.3587  -0.7863   1.4242 C.3            1 S1                 0.0000
     15 ****         2.7001   0.6081   1.8948 C.3            1 S1                 0.0000
     16 ****         3.8037  -0.3774   1.5871 C.3            1 S1                 0.0000
     17 ****        -2.7144   2.0878  -0.0547 N.2            1 S1                 0.0000
     18 ****        -5.0368   4.5911  -0.0811 H              1 S1                 0.0000
     19 ****        -3.5148   4.6290  -0.9635 H              1 S1                 0.0000
     20 ****        -3.5133   4.6538   0.7970 H              1 S1                 0.0000
     21 ****        -6.0721   2.1083  -0.0310 H              1 S1                 0.0000
     22 ****        -1.9931  -1.1266   0.0443 H              1 S1                 0.0000
     23 ****        -0.1769  -1.8657   0.1109 H              1 S1                 0.0000
     24 ****         2.1473  -0.2610  -0.6226 H              1 S1                 0.0000
     25 ****         3.3233  -2.4517  -0.4378 H              1 S1                 0.0000
     26 ****         1.8500  -3.1989   0.1170 H              1 S1                 0.0000
     27 ****         0.7442  -2.6359  -2.0865 H              1 S1                 0.0000
     28 ****         2.2282  -1.8576  -2.6191 H              1 S1                 0.0000
     29 ****         2.0695  -4.0183  -3.3043 H              1 S1                 0.0000
     30 ****         1.9791  -1.4637   2.1870 H              1 S1                 0.0000
     31 ****         2.5567   1.4314   1.1980 H              1 S1                 0.0000
     32 ****         2.5100   0.8438   2.9399 H              1 S1                 0.0000
     33 ****         4.3521  -0.7979   2.4275 H              1 S1                 0.0000
     34 ****         4.3889  -0.2083   0.6851 H              1 S1                 0.0000
     35 ****        -0.5508   2.0596  -0.2017 LP             1 S1                 0.0000
     36 ****         1.0430   1.3830  -0.1573 LP             1 S1                 0.0000
     37 ****         1.9383  -4.6172  -1.8364 LP             1 S1                 0.0000
     38 ****         3.3204  -3.9001  -2.3286 LP             1 S1                 0.0000
     39 ****        -1.8361   2.5656  -0.0697 LP             1 S1                 0.0000
@<TRIPOS>BOND
    1    1    2 1     
    2    1   18 1     
    3    1   19 1     
    4    1   20 1     
    5    2   17 1     
    6    2    3 2     
    7    3    4 1     
    8    3   21 1     
    9    4    5 1     
   10    5    6 1     
   11    5   17 2     
   12    6    7 am    
   13    6   22 1     
   14    7    8 2     
   15    7    9 am    
   16    9   10 1     
   17    9   23 1     
   18   10   11 1     
   19   10   14 1     
   20   10   24 1     
   21   11   12 1     
   22   11   25 1     
   23   11   26 1     
   24   12   13 1     
   25   12   27 1     
   26   12   28 1     
   27   13   29 1     
   28   14   16 1     
   29   14   15 1     
   30   14   30 1     
   31   15   16 1     
   32   15   31 1     
   33   15   32 1     
   34   16   33 1     
   35   16   34 1     
   36    8   35 1     
   37    8   36 1     
   38   13   37 1     
   39   13   38 1     
   40   17   39 1     
@<TRIPOS>SUBSTRUCTURE
      1 S1             1
@<TRIPOS>SET
LONE_PAIRS      STATIC     ATOMS    <user>   **** ""
5 35 36 37 38 39
DONOR_HYDROGENS      STATIC     ATOMS    <user>   **** ""
3 22 23 29
ATOM$BLUE        STATIC     ATOMS    COLORGROUP SYSTEM
5 35 36 37 38 39
ATOM$RED        STATIC     ATOMS    COLORGROUP SYSTEM
3 22 23 29
