#       Name:                AV-unprocessed.smi:2088
#       Creating user name   scv26
#       Creation time:       Fri Mar 27 11:24:31 2020


#       File generated by GOLD software.
#

@<TRIPOS>MOLECULE
AV-unprocessed.smi:2088
    38    39     1
SMALL
NO_CHARGES


@<TRIPOS>ATOM
      1 ****        -0.1140   1.1564  -1.2355 O.2            1 S1                 0.0000
      2 ****         0.4990   0.4079  -0.4741 C.2            1 S1                 0.0000
      3 ****         2.0064   0.5830  -0.2792 C.3            1 S1                 0.0000
      4 ****         2.3034   1.8144   0.4306 N.pl3          1 S1                 0.0000
      5 ****         2.3942   3.0940  -0.0740 C.2            1 S1                 0.0000
      6 ****         2.6877   3.9222   0.9706 C.2            1 S1                 0.0000
      7 ****         2.7594   3.0499   2.0955 C.2            1 S1                 0.0000
      8 ****         3.0556   3.3996   3.5302 C.3            1 S1                 0.0000
      9 ****         3.2252   4.7154   3.6596 F              1 S1                 0.0000
     10 ****         2.0443   3.0191   4.3108 F              1 S1                 0.0000
     11 ****         4.1685   2.7827   3.9274 F              1 S1                 0.0000
     12 ****         2.5287   1.7866   1.7618 N.2            1 S1                 0.0000
     13 ****        -0.0866  -0.5816   0.2177 N.am           1 S1                 0.0000
     14 ****        -1.5076  -0.9074   0.1735 C.3            1 S1                 0.0000
     15 ****        -1.8727  -1.7036  -1.0910 C.3            1 S1                 0.0000
     16 ****        -3.3620  -2.0131  -1.2133 C.3            1 S1                 0.0000
     17 ****        -3.3468  -3.1910  -2.1607 C.3            1 S1                 0.0000
     18 ****        -2.0924  -3.9440  -1.7210 C.3            1 S1                 0.0000
     19 ****        -1.2521  -2.9857  -1.0801 O.3            1 S1                 0.0000
     20 ****         2.4307  -0.2626   0.2653 H              1 S1                 0.0000
     21 ****         2.4960   0.6144  -1.2532 H              1 S1                 0.0000
     22 ****         2.2411   3.3059  -1.1221 H              1 S1                 0.0000
     23 ****         2.8291   4.9922   0.9369 H              1 S1                 0.0000
     24 ****         0.4931  -1.1504   0.8176 H              1 S1                 0.0000
     25 ****        -1.7575  -1.4840   1.0644 H              1 S1                 0.0000
     26 ****        -2.0951   0.0107   0.2244 H              1 S1                 0.0000
     27 ****        -1.5474  -1.1743  -1.9884 H              1 S1                 0.0000
     28 ****        -3.7745  -2.3135  -0.2490 H              1 S1                 0.0000
     29 ****        -3.9425  -1.1698  -1.5884 H              1 S1                 0.0000
     30 ****        -4.2507  -3.7981  -2.1061 H              1 S1                 0.0000
     31 ****        -3.2332  -2.8401  -3.1872 H              1 S1                 0.0000
     32 ****        -2.3427  -4.7228  -1.0000 H              1 S1                 0.0000
     33 ****        -1.5833  -4.4135  -2.5631 H              1 S1                 0.0000
     34 ****         0.3733   1.8786  -1.7264 LP             1 S1                 0.0000
     35 ****        -1.0993   1.0422  -1.3631 LP             1 S1                 0.0000
     36 ****         2.5229   0.9885   2.3643 LP             1 S1                 0.0000
     37 ****        -1.0916  -3.2671  -0.1341 LP             1 S1                 0.0000
     38 ****        -0.3793  -2.9345  -1.5653 LP             1 S1                 0.0000
@<TRIPOS>BOND
    1    1    2 2     
    2    2    3 1     
    3    2   13 am    
    4    3    4 1     
    5    3   20 1     
    6    3   21 1     
    7    4   12 1     
    8    4    5 1     
    9    5    6 2     
   10    5   22 1     
   11    6    7 1     
   12    6   23 1     
   13    7    8 1     
   14    7   12 2     
   15    8    9 1     
   16    8   10 1     
   17    8   11 1     
   18   13   14 1     
   19   13   24 1     
   20   14   15 1     
   21   14   25 1     
   22   14   26 1     
   23   15   19 1     
   24   15   16 1     
   25   15   27 1     
   26   16   17 1     
   27   16   28 1     
   28   16   29 1     
   29   17   18 1     
   30   17   30 1     
   31   17   31 1     
   32   18   19 1     
   33   18   32 1     
   34   18   33 1     
   35    1   34 1     
   36    1   35 1     
   37   12   36 1     
   38   19   37 1     
   39   19   38 1     
@<TRIPOS>SUBSTRUCTURE
      1 S1             1
@<TRIPOS>SET
LONE_PAIRS      STATIC     ATOMS    <user>   **** ""
5 34 35 36 37 38
DONOR_HYDROGENS      STATIC     ATOMS    <user>   **** ""
1 24
ATOM$BLUE        STATIC     ATOMS    COLORGROUP SYSTEM
5 34 35 36 37 38
ATOM$RED        STATIC     ATOMS    COLORGROUP SYSTEM
1 24
