AV-unprocessed.smi:2030|AV-procd|sdf|8225|dock6
  -GOLD-   2272010493D 1   1.00000     0.00000
 Structure written by MMmdl.
 36 37  0  0  0  0  0  0  0  0  2 V2000
  145.8000  136.5256  154.6103 C   0  0  0  0  0  0  0  0  0  0  0  0
  146.3159  137.5834  153.7436 N   0  0  0  0  0  0  0  0  0  0  0  0
  147.2889  138.3781  154.3148 N   0  0  0  0  0  0  0  0  0  0  0  0
  147.6829  139.4850  153.7670 C   0  0  0  0  0  0  0  0  0  0  0  0
  148.7254  140.3142  154.4301 C   0  0  0  0  0  0  0  0  0  0  0  0
  149.0699  141.3995  153.9611 O   0  0  0  0  0  0  0  0  0  0  0  0
  149.2568  139.8054  155.5569 N   0  0  0  0  0  0  0  0  0  0  0  0
  150.2840  140.4521  156.3644 C   0  0  0  0  0  0  0  0  0  0  0  0
  149.7323  141.6825  157.1036 C   0  0  0  0  0  0  0  0  0  0  0  0
  150.7944  142.3773  157.9327 C   0  0  0  0  0  0  0  0  0  0  0  0
  151.4457  141.7380  159.0099 C   0  0  0  0  0  0  0  0  0  0  0  0
  152.4208  142.4463  159.7430 C   0  0  0  0  0  0  0  0  0  0  0  0
  152.7236  143.7762  159.3840 C   0  0  0  0  0  0  0  0  0  0  0  0
  152.0421  144.3658  158.2997 C   0  0  0  0  0  0  0  0  0  0  0  0
  151.1137  143.6549  157.6227 N   0  3  0  0  0  0  0  0  0  0  0  0
  147.0663  139.9625  152.4668 C   0  0  0  0  0  0  0  0  0  0  0  0
  146.5303  138.7938  151.6163 C   0  0  0  0  0  0  0  0  0  0  0  0
  145.8634  137.7125  152.4714 C   0  0  0  0  0  0  0  0  0  0  0  0
  144.9849  137.0026  151.9821 O   0  0  0  0  0  0  0  0  0  0  0  0
  146.0004  135.5437  154.1791 H   0  0  0  0  0  0  0  0  0  0  0  0
  144.7219  136.6276  154.7414 H   0  0  0  0  0  0  0  0  0  0  0  0
  146.2553  136.5496  155.6018 H   0  0  0  0  0  0  0  0  0  0  0  0
  148.9169  138.9094  155.8769 H   0  0  0  0  0  0  0  0  0  0  0  0
  150.7051  139.7348  157.0708 H   0  0  0  0  0  0  0  0  0  0  0  0
  151.0975  140.7501  155.7024 H   0  0  0  0  0  0  0  0  0  0  0  0
  149.3155  142.3920  156.3876 H   0  0  0  0  0  0  0  0  0  0  0  0
  148.9121  141.3942  157.7622 H   0  0  0  0  0  0  0  0  0  0  0  0
  151.2017  140.7190  159.2738 H   0  0  0  0  0  0  0  0  0  0  0  0
  152.9298  141.9749  160.5710 H   0  0  0  0  0  0  0  0  0  0  0  0
  153.4669  144.3359  159.9326 H   0  0  0  0  0  0  0  0  0  0  0  0
  152.2096  145.3764  157.9567 H   0  0  0  0  0  0  0  0  0  0  0  0
  146.2594  140.6622  152.6874 H   0  0  0  0  0  0  0  0  0  0  0  0
  147.7967  140.5131  151.8727 H   0  0  0  0  0  0  0  0  0  0  0  0
  145.8318  139.1612  150.8638 H   0  0  0  0  0  0  0  0  0  0  0  0
  147.3541  138.3238  151.0780 H   0  0  0  0  0  0  0  0  0  0  0  0
  150.6315  144.1020  156.8422 H   0  0  0  0  0  0  0  0  0  0  0  0
  1  2  1  0  0  0  0
  1 20  1  0  0  0  0
  1 21  1  0  0  0  0
  1 22  1  0  0  0  0
  2 18  1  0  0  0  0
  2  3  1  0  0  0  0
  3  4  2  0  0  0  0
  4  5  1  0  0  0  0
  4 16  1  0  0  0  0
  5  6  2  0  0  0  0
  5  7  1  0  0  0  0
  7  8  1  0  0  0  0
  7 23  1  0  0  0  0
  8  9  1  0  0  0  0
  8 24  1  0  0  0  0
  8 25  1  0  0  0  0
  9 10  1  0  0  0  0
  9 26  1  0  0  0  0
  9 27  1  0  0  0  0
 10 15  1  0  0  0  0
 10 11  2  0  0  0  0
 11 12  1  0  0  0  0
 11 28  1  0  0  0  0
 12 13  2  0  0  0  0
 12 29  1  0  0  0  0
 13 14  1  0  0  0  0
 13 30  1  0  0  0  0
 14 15  2  0  0  0  0
 14 31  1  0  0  0  0
 15 36  1  0  0  0  0
 16 17  1  0  0  0  0
 16 32  1  0  0  0  0
 16 33  1  0  0  0  0
 17 18  1  0  0  0  0
 17 34  1  0  0  0  0
 17 35  1  0  0  0  0
 18 19  2  0  0  0  0
M  CHG  1  15   1
M  END
> <s_m_source_file>
AV-unprocessed.smi

> <i_m_source_file_index>
2030

> <i_lp_mmshare_version>
43012

> <i_f3d_flags>
0

> <s_epik_input>
Tz1DMVtDSDJdW0NIMl1DKD1OTjFbQ0gzXSlDKD1PKVtOSF1bQ0gyXVtDSDJdYzJbY0hdW2NIXVtjSF1bY0hdbjI=

> <s_epik_cmdline>
J2VwaWtfcHl0aG9uJywgJy1waCcsICc3LjAnLCAnLXRuJywgJzgnLCAnLW1hJywgJzIwMCcsICctbWV0YWxfYmluZGluZycsICctaW1hZScsICc8aW5maWxlLm1hZT4nLCAnLW9tYWUnLCAnPG91dGZpbGUubWFlPic=

> <r_epik_Ionization_Penalty>
2.09642

> <r_epik_Ionization_Penalty_Charging>
2.0963

> <r_epik_Ionization_Penalty_Neutral>
0.00011851

> <r_epik_State_Penalty>
2.23213

> <r_epik_Charging_Adjusted_Penalty>
4.32843

> <i_epik_Tot_Q>
1

> <i_epik_Tot_abs_Q>
1

> <r_epik_Metal_State_Penalty>
2.41268

> <b_epik_Metal_Only>
0

> <s_epik_Chemistry_Notes>
This compound has an imine and may undergo hydrolysis.

> <s_lp_Force_Field>
OPLS_2005

> <r_lp_Energy>
21.0672

> <b_lp_Chiralities_Consistent>
1

> <s_lp_Variant>
AV-unprocessed.smi:2030-2

> <Gold.Version>
5.8.1

> <Gold.Id.Protein>
6NUR|6NUR_protein|mol2

> <Gold.PLP.Fitness>
43.7818

> <Gold.PLP.PLP>
-35.6314

> <Gold.PLP.part.hbond>
-2.7795

> <Gold.PLP.part.metal>
0.0000

> <Gold.PLP.part.buried>
-1.0038

> <Gold.PLP.part.nonpolar>
-34.6052

> <Gold.PLP.part.repulsive>
1.1386

> <Gold.PLP.ligand.clash>
0.0000

> <Gold.PLP.ligand.torsion>
0.0605

> <Gold.PLP.Chemscore.Hbond>
2.7520

> <Gold.PLP.Chemscore.CHOScore>
0.0000

> <Gold.PLP.Chemscore.Metal>
0.0000

> <Gold.Chemscore.Hbonds>
donor molecule, donor type, donor heavy atom, donor atom, acceptor molecule, acceptor atom, score
      L1  H    15    36       P1  8028  1.30
      P1  H  8011  8017       L1     6  0.71

> <Gold.PLP.Chemscore.Internal.Correction>
0.0154

> <Gold.Rescore>
     Score         DG    S(hbond)    S(metal)    S(lipo)     H(rot)  DE(clash)    DE(int)     intcor
     17.82     -18.20       1.76        0.00      91.54       1.52       0.31       0.06       ----

> <Gold.Chemscore.Fitness>
17.8197

> <Gold.Chemscore.DG>
-18.1991

> <Gold.Chemscore.ZeroCoef>
-5.4800

> <Gold.Chemscore.Hbond>
1.7631

> <Gold.Chemscore.Metal>
0.0000

> <Gold.Chemscore.Lipo>
91.5431

> <Gold.Chemscore.Internal_Hbond>
0.0000

> <Gold.Chemscore.DEClash>
0.3150

> <Gold.Chemscore.DEInternal>
0.0644

> <Gold.Chemscore.Rot>
1.5157

> <Gold.Chemscore.Internal.Correction>
   9.000000E+99

> <Gold.Chemscore.Hbonds>
donor molecule, donor type, donor heavy atom, donor atom, acceptor molecule, acceptor atom, score
      L1  H    15    36       P1  8028  0.63
      P1  H  8011  8017       L1     6  0.66

> <Gold.Chemscore.Hbond.Weighted>
-5.8887

> <Gold.Chemscore.Metal.Weighted>
-0.0000

> <Gold.Chemscore.Lipo.Weighted>
-10.7105

> <Gold.Chemscore.Internal_Hbond.Weighted>
0.0000

> <Gold.Chemscore.DEClash.Weighted>
0.3150

> <Gold.Chemscore.DEInternal.Weighted>
0.0644

> <Gold.Chemscore.Rot.Weighted>
3.8801

> <Gold.Chemscore.Internal.Correction.Weighted>
   9.000000E+99

> <Gold.Protein.RotatedTorsions>
[ 6907 6896 6895 6894 ] final -178.42 input  -60.11 | X-H torsion
[ 7974 7965 7964 7962 ] final  134.85 input  175.53 | X-H torsion
[ 8008 7997 7996 7995 ] final -115.46 input   59.86 | X-H torsion
[ 10167 10162 10161 10158 ] final  138.40 input  -65.29 | X-H torsion
[ 10718 10713 10712 10709 ] final -165.29 input   66.30 | X-H torsion
[ 10763 10752 10751 10750 ] final   70.89 input  -60.55 | X-H torsion
[ 11005 11000 10999 10996 ] final  -91.89 input  -57.11 | X-H torsion

> <Gold.Protein.ActiveResidues>
 VAL166  LYS551  ARG553  GLY616  TRP617  ASP618  TYR619  PRO620  LYS621  CYS622 
 ASP623  PHE694  ASN695  SER759  ASP760  ASP761  ALA762  ILE779  LEU786  VAL792 
 PHE793  MET794  SER795  GLU796  ALA797  LYS798  CYS799  TRP800  GLU811  SER814 

> <Gold.Protein.RotatedAtoms>
  151.6370  133.3328  159.3121 H   0  0  0  0  0  0  0  0  0  0  0  0  # atno 6907 bound_to 6896
  150.8027  134.7136  159.6627 H   0  0  0  0  0  0  0  0  0  0  0  0  # atno 6908 bound_to 6896
  152.4121  134.6111  160.0077 H   0  0  0  0  0  0  0  0  0  0  0  0  # atno 6909 bound_to 6896
  144.9723  139.4593  143.5427 H   0  0  0  0  0  0  0  0  0  0  0  0  # atno 7974 bound_to 7965
  155.0524  140.0393  157.2548 H   0  0  0  0  0  0  0  0  0  0  0  0  # atno 8008 bound_to 7997
  154.7126  140.2696  155.6591 H   0  0  0  0  0  0  0  0  0  0  0  0  # atno 8009 bound_to 7997
  156.2794  140.2718  156.1773 H   0  0  0  0  0  0  0  0  0  0  0  0  # atno 8010 bound_to 7997
  139.5112  144.6355  151.5706 H   0  0  0  0  0  0  0  0  0  0  0  0  # atno 10167 bound_to 10162
  156.6512  130.9008  151.3013 H   0  0  0  0  0  0  0  0  0  0  0  0  # atno 10718 bound_to 10713
  153.0367  135.5157  154.7511 H   0  0  0  0  0  0  0  0  0  0  0  0  # atno 10763 bound_to 10752
  154.6481  135.2921  155.0023 H   0  0  0  0  0  0  0  0  0  0  0  0  # atno 10764 bound_to 10752
  154.0917  135.6649  153.4906 H   0  0  0  0  0  0  0  0  0  0  0  0  # atno 10765 bound_to 10752
  141.1534  133.7785  156.9943 H   0  0  0  0  0  0  0  0  0  0  0  0  # atno 11005 bound_to 11000
  146.3385  139.8942  142.8804 LP  0  0  0  0  0  0  0  0  0  0  0  0  # atno 17320 bound_to 7965
  145.2541  141.0054  143.3864 LP  0  0  0  0  0  0  0  0  0  0  0  0  # atno 17321 bound_to 7965
  140.6103  143.9448  150.6448 LP  0  0  0  0  0  0  0  0  0  0  0  0  # atno 17342 bound_to 10162
  140.2688  143.3470  152.1256 LP  0  0  0  0  0  0  0  0  0  0  0  0  # atno 17343 bound_to 10162
  157.7140  130.9474  150.1189 LP  0  0  0  0  0  0  0  0  0  0  0  0  # atno 17370 bound_to 10713
  156.2082  130.3665  149.8702 LP  0  0  0  0  0  0  0  0  0  0  0  0  # atno 17371 bound_to 10713
  140.0982  134.9551  157.1882 LP  0  0  0  0  0  0  0  0  0  0  0  0  # atno 17394 bound_to 11000
  140.3354  134.2763  155.7221 LP  0  0  0  0  0  0  0  0  0  0  0  0  # atno 17395 bound_to 11000

$$$$
