AV-unprocessed.smi:229|AV-procd|sdf|1747|dock9
  -GOLD-   2262020263D 1   1.00000     0.00000
 Structure written by MMmdl.
 58 62  0  0  0  0  0  0  0  0  1 V2000
  146.8955  133.2887  153.0691 C   0  0  0  0  0  0  0  0  0  0  0  0
  148.4205  133.3913  153.2051 C   0  0  0  0  0  0  0  0  0  0  0  0
  148.9104  133.4410  154.6617 C   0  0  2  0  0  0  0  0  0  0  0  0
  149.3892  134.8416  155.0863 C   0  0  0  0  0  0  0  0  0  0  0  0
  149.9495  134.7899  156.4305 N   0  0  0  0  0  0  0  0  0  0  0  0
  150.0970  135.9941  157.0386 C   0  0  0  0  0  0  0  0  0  0  0  0
  149.7462  136.1446  158.3443 N   0  0  0  0  0  0  0  0  0  0  0  0
  149.8972  137.3246  158.9531 C   0  0  0  0  0  0  0  0  0  0  0  0
  150.3681  138.4678  158.4518 N   0  0  0  0  0  0  0  0  0  0  0  0
  150.7143  138.3267  157.1406 C   0  0  0  0  0  0  0  0  0  0  0  0
  150.6116  137.1377  156.3642 C   0  0  0  0  0  0  0  0  0  0  0  0
  151.0458  137.3826  155.0660 N   0  0  0  0  0  0  0  0  0  0  0  0
  151.3968  138.6395  155.0783 C   0  0  0  0  0  0  0  0  0  0  0  0
  151.2329  139.2818  156.2840 N   0  0  0  0  0  0  0  0  0  0  0  0
  151.5440  140.6702  156.5752 C   0  0  0  0  0  0  0  0  0  0  0  0
  150.3076  141.4632  157.0423 C   0  0  2  0  0  0  0  0  0  0  0  0
  149.5319  141.8798  155.9343 O   0  0  0  0  0  0  0  0  0  0  0  0
  150.6724  142.6659  157.9366 C   0  0  2  0  0  0  0  0  0  0  0  0
  151.6620  143.6776  157.3511 C   0  0  0  0  0  0  0  0  0  0  0  0
  152.2141  144.3108  158.6088 C   0  0  0  0  0  0  0  0  0  0  0  0
  152.2978  143.1113  159.5495 C   0  0  0  0  0  0  0  0  0  0  0  0
  151.2147  142.2578  159.1904 O   0  0  0  0  0  0  0  0  0  0  0  0
  151.0301  133.8170  156.5557 C   0  0  0  0  0  0  0  0  0  0  0  0
  150.5659  132.4189  156.0870 C   0  0  1  0  0  0  0  0  0  0  0  0
  151.7413  131.4500  156.0090 C   0  0  0  0  0  0  0  0  0  0  0  0
  151.6959  130.7383  157.3524 C   0  0  0  0  0  0  0  0  0  0  0  0
  150.3071  130.5477  157.5458 O   0  0  0  0  0  0  0  0  0  0  0  0
  149.6302  131.7177  157.1001 C   0  0  0  0  0  0  0  0  0  0  0  0
  149.9966  132.5198  154.7781 O   0  0  0  0  0  0  0  0  0  0  0  0
  146.6077  133.1930  152.0221 H   0  0  0  0  0  0  0  0  0  0  0  0
  146.3960  134.1725  153.4658 H   0  0  0  0  0  0  0  0  0  0  0  0
  146.5106  132.4175  153.5997 H   0  0  0  0  0  0  0  0  0  0  0  0
  148.8676  132.5264  152.7135 H   0  0  0  0  0  0  0  0  0  0  0  0
  148.7798  134.2667  152.6628 H   0  0  0  0  0  0  0  0  0  0  0  0
  148.0929  133.1269  155.3113 H   0  0  0  0  0  0  0  0  0  0  0  0
  150.1554  135.2023  154.3987 H   0  0  0  0  0  0  0  0  0  0  0  0
  148.5614  135.5467  155.0331 H   0  0  0  0  0  0  0  0  0  0  0  0
  149.5981  137.3576  159.9902 H   0  0  0  0  0  0  0  0  0  0  0  0
  151.7890  139.1360  154.2027 H   0  0  0  0  0  0  0  0  0  0  0  0
  152.3169  140.6911  157.3442 H   0  0  0  0  0  0  0  0  0  0  0  0
  151.9793  141.1254  155.6848 H   0  0  0  0  0  0  0  0  0  0  0  0
  149.6729  140.7965  157.6273 H   0  0  0  0  0  0  0  0  0  0  0  0
  149.6545  142.8089  155.8143 H   0  0  0  0  0  0  0  0  0  0  0  0
  149.7531  143.2036  158.1746 H   0  0  0  0  0  0  0  0  0  0  0  0
  152.4695  143.1861  156.8074 H   0  0  0  0  0  0  0  0  0  0  0  0
  151.1884  144.3964  156.6818 H   0  0  0  0  0  0  0  0  0  0  0  0
  153.1756  144.8022  158.4577 H   0  0  0  0  0  0  0  0  0  0  0  0
  151.5099  145.0470  158.9990 H   0  0  0  0  0  0  0  0  0  0  0  0
  153.2311  142.5696  159.3902 H   0  0  0  0  0  0  0  0  0  0  0  0
  152.2484  143.3993  160.5998 H   0  0  0  0  0  0  0  0  0  0  0  0
  151.8702  134.1527  155.9458 H   0  0  0  0  0  0  0  0  0  0  0  0
  151.3817  133.7693  157.5875 H   0  0  0  0  0  0  0  0  0  0  0  0
  151.5743  130.7193  155.2159 H   0  0  0  0  0  0  0  0  0  0  0  0
  152.6989  131.9341  155.8148 H   0  0  0  0  0  0  0  0  0  0  0  0
  152.2362  129.7915  157.3489 H   0  0  0  0  0  0  0  0  0  0  0  0
  152.0989  131.3677  158.1473 H   0  0  0  0  0  0  0  0  0  0  0  0
  149.4162  132.3586  157.9564 H   0  0  0  0  0  0  0  0  0  0  0  0
  148.6771  131.4210  156.6635 H   0  0  0  0  0  0  0  0  0  0  0  0
  1  2  1  0  0  0  0
  1 30  1  0  0  0  0
  1 31  1  0  0  0  0
  1 32  1  0  0  0  0
  2  3  1  0  0  0  0
  2 33  1  0  0  0  0
  2 34  1  0  0  0  0
  3 29  1  0  0  0  0
  3  4  1  0  0  0  0
  3 35  1  0  0  0  0
  4  5  1  0  0  0  0
  4 36  1  0  0  0  0
  4 37  1  0  0  0  0
  5  6  1  0  0  0  0
  5 23  1  0  0  0  0
  6 11  1  0  0  0  0
  6  7  2  0  0  0  0
  7  8  1  0  0  0  0
  8  9  2  0  0  0  0
  8 38  1  0  0  0  0
  9 10  1  0  0  0  0
 10 14  1  0  0  0  0
 10 11  2  0  0  0  0
 11 12  1  0  0  0  0
 12 13  2  0  0  0  0
 13 14  1  0  0  0  0
 13 39  1  0  0  0  0
 14 15  1  0  0  0  0
 15 16  1  0  0  0  0
 15 40  1  0  0  0  0
 15 41  1  0  0  0  0
 16 17  1  0  0  0  0
 16 18  1  0  0  0  0
 16 42  1  0  0  0  0
 17 43  1  0  0  0  0
 18 22  1  0  0  0  0
 18 19  1  0  0  0  0
 18 44  1  0  0  0  0
 19 20  1  0  0  0  0
 19 45  1  0  0  0  0
 19 46  1  0  0  0  0
 20 21  1  0  0  0  0
 20 47  1  0  0  0  0
 20 48  1  0  0  0  0
 21 22  1  0  0  0  0
 21 49  1  0  0  0  0
 21 50  1  0  0  0  0
 23 24  1  0  0  0  0
 23 51  1  0  0  0  0
 23 52  1  0  0  0  0
 24 28  1  0  0  0  0
 24 25  1  0  0  0  0
 24 29  1  0  0  0  0
 25 26  1  0  0  0  0
 25 53  1  0  0  0  0
 25 54  1  0  0  0  0
 26 27  1  0  0  0  0
 26 55  1  0  0  0  0
 26 56  1  0  0  0  0
 27 28  1  0  0  0  0
 28 57  1  0  0  0  0
 28 58  1  0  0  0  0
M  END
> <s_m_source_file>
AV-unprocessed.smi

> <i_m_source_file_index>
229

> <i_lp_mmshare_version>
43012

> <i_f3d_flags>
0

> <s_epik_input>
W0NIMl0xT1tDSDJdW0NIMl1bQ0BdMTJbQ0gyXU4oW0NIMl1bQ0BIXShPMilbQ0gyXVtDSDNdKWMobltjSF1uMyljKGMzNCluW2NIXW40W0NIMl1bQ0BIXShbT0hdKVtDQEBIXTVbQ0gyXVtDSDJdW0NIMl1PNQ==

> <s_epik_cmdline>
J2VwaWtfcHl0aG9uJywgJy1waCcsICc3LjAnLCAnLXRuJywgJzgnLCAnLW1hJywgJzIwMCcsICctbWV0YWxfYmluZGluZycsICctaW1hZScsICc8aW5maWxlLm1hZT4nLCAnLW9tYWUnLCAnPG91dGZpbGUubWFlPic=

> <r_lp_tautomer_probability>
1

> <r_epik_Ionization_Penalty>
0.00318402

> <r_epik_Ionization_Penalty_Charging>
0

> <r_epik_Ionization_Penalty_Neutral>
0.00318402

> <r_epik_State_Penalty>
0.00215642

> <r_epik_Charging_Adjusted_Penalty>
0.00215642

> <i_epik_Tot_Q>
0

> <i_epik_Tot_abs_Q>
0

> <r_epik_Metal_State_Penalty>
-0

> <b_epik_Metal_Only>
0

> <s_lp_Force_Field>
OPLS_2005

> <r_lp_Energy>
57.781

> <b_lp_Chiralities_Consistent>
1

> <s_lp_Variant>
AV-unprocessed.smi:229-1

> <Gold.Version>
5.8.1

> <Gold.Id.Protein>
6NUR|6NUR_protein|mol2

> <Gold.PLP.Fitness>
46.3677

> <Gold.PLP.PLP>
-43.1556

> <Gold.PLP.part.hbond>
-2.0000

> <Gold.PLP.part.metal>
0.0000

> <Gold.PLP.part.buried>
-5.2975

> <Gold.PLP.part.nonpolar>
-35.0309

> <Gold.PLP.part.repulsive>
0.1349

> <Gold.PLP.ligand.clash>
0.0000

> <Gold.PLP.ligand.torsion>
1.5708

> <Gold.PLP.Chemscore.Hbond>
2.0000

> <Gold.PLP.Chemscore.CHOScore>
0.0000

> <Gold.PLP.Chemscore.Metal>
0.0000

> <Gold.Chemscore.Hbonds>
donor molecule, donor type, donor heavy atom, donor atom, acceptor molecule, acceptor atom, score
      L1  H    17    43       P1  8028  0.91
      P1  H  6896  6908       L1     7  0.68

> <Gold.PLP.Chemscore.Internal.Correction>
0.3538

> <Gold.Rescore>
     Score         DG    S(hbond)    S(metal)    S(lipo)     H(rot)  DE(clash)    DE(int)     intcor
     15.78     -17.31       1.80        0.00     103.68       2.46       0.15       1.38       ----

> <Gold.Chemscore.Fitness>
15.7829

> <Gold.Chemscore.DG>
-17.3100

> <Gold.Chemscore.ZeroCoef>
-5.4800

> <Gold.Chemscore.Hbond>
1.7950

> <Gold.Chemscore.Metal>
0.0000

> <Gold.Chemscore.Lipo>
103.6757

> <Gold.Chemscore.Internal_Hbond>
0.0000

> <Gold.Chemscore.DEClash>
0.1510

> <Gold.Chemscore.DEInternal>
1.3761

> <Gold.Chemscore.Rot>
2.4591

> <Gold.Chemscore.Internal.Correction>
   9.000000E+99

> <Gold.Chemscore.Hbonds>
donor molecule, donor type, donor heavy atom, donor atom, acceptor molecule, acceptor atom, score
      L1  H    17    43       P1  8028  0.84
      P1  H  6896  6908       L1     7  0.17

> <Gold.Chemscore.Hbond.Weighted>
-5.9953

> <Gold.Chemscore.Metal.Weighted>
-0.0000

> <Gold.Chemscore.Lipo.Weighted>
-12.1301

> <Gold.Chemscore.Internal_Hbond.Weighted>
0.0000

> <Gold.Chemscore.DEClash.Weighted>
0.1510

> <Gold.Chemscore.DEInternal.Weighted>
1.3761

> <Gold.Chemscore.Rot.Weighted>
6.2953

> <Gold.Chemscore.Internal.Correction.Weighted>
   9.000000E+99

> <Gold.Protein.RotatedTorsions>
[ 6907 6896 6895 6894 ] final -169.35 input  -60.11 | X-H torsion
[ 7974 7965 7964 7962 ] final   58.22 input  175.53 | X-H torsion
[ 8008 7997 7996 7995 ] final  -54.94 input   59.86 | X-H torsion
[ 10167 10162 10161 10158 ] final -108.74 input  -65.29 | X-H torsion
[ 10718 10713 10712 10709 ] final  164.02 input   66.30 | X-H torsion
[ 10763 10752 10751 10750 ] final -179.84 input  -60.55 | X-H torsion
[ 11005 11000 10999 10996 ] final  156.60 input  -57.11 | X-H torsion

> <Gold.Protein.ActiveResidues>
 VAL166  LYS551  ARG553  GLY616  TRP617  ASP618  TYR619  PRO620  LYS621  CYS622 
 ASP623  PHE694  ASN695  SER759  ASP760  ASP761  ALA762  ILE779  LEU786  VAL792 
 PHE793  MET794  SER795  GLU796  ALA797  LYS798  CYS799  TRP800  GLU811  SER814 

> <Gold.Protein.RotatedAtoms>
  151.4902  133.3526  159.2851 H   0  0  0  0  0  0  0  0  0  0  0  0  # atno 6907 bound_to 6896
  150.8840  134.8237  159.7256 H   0  0  0  0  0  0  0  0  0  0  0  0  # atno 6908 bound_to 6896
  152.4781  134.4803  159.9715 H   0  0  0  0  0  0  0  0  0  0  0  0  # atno 6909 bound_to 6896
  145.9206  139.3726  143.0481 H   0  0  0  0  0  0  0  0  0  0  0  0  # atno 7974 bound_to 7965
  154.4179  140.1164  156.5397 H   0  0  0  0  0  0  0  0  0  0  0  0  # atno 8008 bound_to 7997
  155.6521  140.3496  155.4732 H   0  0  0  0  0  0  0  0  0  0  0  0  # atno 8009 bound_to 7997
  155.9784  140.1155  157.0739 H   0  0  0  0  0  0  0  0  0  0  0  0  # atno 8010 bound_to 7997
  140.1629  143.4106  152.1412 H   0  0  0  0  0  0  0  0  0  0  0  0  # atno 10167 bound_to 10162
  157.1002  131.0441  151.2501 H   0  0  0  0  0  0  0  0  0  0  0  0  # atno 10718 bound_to 10713
  154.5300  135.2799  155.1188 H   0  0  0  0  0  0  0  0  0  0  0  0  # atno 10763 bound_to 10752
  154.2712  135.6303  153.5315 H   0  0  0  0  0  0  0  0  0  0  0  0  # atno 10764 bound_to 10752
  152.9955  135.5629  154.5811 H   0  0  0  0  0  0  0  0  0  0  0  0  # atno 10765 bound_to 10752
  140.1690  134.8556  157.2667 H   0  0  0  0  0  0  0  0  0  0  0  0  # atno 11005 bound_to 11000
  145.8555  140.9505  143.0727 LP  0  0  0  0  0  0  0  0  0  0  0  0  # atno 17320 bound_to 7965
  144.6752  140.0462  143.7480 LP  0  0  0  0  0  0  0  0  0  0  0  0  # atno 17321 bound_to 7965
  139.5373  144.7222  151.4851 LP  0  0  0  0  0  0  0  0  0  0  0  0  # atno 17342 bound_to 10162
  140.6632  143.8455  150.6911 LP  0  0  0  0  0  0  0  0  0  0  0  0  # atno 17343 bound_to 10162
  157.4647  130.7674  149.7268 LP  0  0  0  0  0  0  0  0  0  0  0  0  # atno 17370 bound_to 10713
  155.9875  130.3966  150.3160 LP  0  0  0  0  0  0  0  0  0  0  0  0  # atno 17371 bound_to 10713
  140.2399  134.3808  155.7485 LP  0  0  0  0  0  0  0  0  0  0  0  0  # atno 17394 bound_to 11000
  141.2216  133.7260  156.8773 LP  0  0  0  0  0  0  0  0  0  0  0  0  # atno 17395 bound_to 11000

$$$$
