AV-unprocessed.smi:166|AV-procd|sdf|1388|dock1
  -GOLD-   2262019123D 1   1.00000     0.00000
 Structure written by MMmdl.
 54 58  0  0  0  0  0  0  0  0  1 V2000
  143.8455  134.3368  149.3546 O   0  0  0  0  0  0  0  0  0  0  0  0
  144.5606  134.0415  150.5426 C   0  0  1  0  0  0  0  0  0  0  0  0
  145.6027  132.9377  150.2422 C   0  0  0  0  0  0  0  0  0  0  0  0
  146.3039  132.4583  151.4243 N   0  0  0  0  0  0  0  0  0  0  0  0
  147.1092  133.1954  152.2634 C   0  0  0  0  0  0  0  0  0  0  0  0
  147.6292  132.5335  153.2604 N   0  0  0  0  0  0  0  0  0  0  0  0
  147.1332  131.2441  153.1085 C   0  0  0  0  0  0  0  0  0  0  0  0
  147.2961  130.0277  153.8302 C   0  0  0  0  0  0  0  0  0  0  0  0
  148.0623  129.9339  154.9467 N   0  0  0  0  0  0  0  0  0  0  0  0
  147.3955  129.3229  156.0962 C   0  0  0  0  0  0  0  0  0  0  0  0
  148.1624  129.6194  157.3949 C   0  0  0  0  0  0  0  0  0  0  0  0
  149.6345  129.1998  157.2697 C   0  0  0  0  0  0  0  0  0  0  0  0
  150.2819  129.8762  156.0504 C   0  0  1  0  0  0  0  0  0  0  0  0
  151.6087  129.3798  155.9402 O   0  0  0  0  0  0  0  0  0  0  0  0
  152.5366  130.2981  155.3777 C   0  0  0  0  0  0  0  0  0  0  0  0
  153.6945  129.5725  154.7170 C   0  0  0  0  0  0  0  0  0  0  0  0
  155.0014  129.3604  155.4531 C   0  0  0  0  0  0  0  0  0  0  0  0
  154.9443  130.3165  154.2926 C   0  0  0  0  0  0  0  0  0  0  0  0
  149.4699  129.5684  154.7751 C   0  0  0  0  0  0  0  0  0  0  0  0
  146.6463  128.9298  153.3581 N   0  0  0  0  0  0  0  0  0  0  0  0
  145.8835  129.0140  152.2644 C   0  0  0  0  0  0  0  0  0  0  0  0
  145.6391  130.0782  151.4979 N   0  0  0  0  0  0  0  0  0  0  0  0
  146.2959  131.1811  151.9586 C   0  0  0  0  0  0  0  0  0  0  0  0
  145.1938  135.3322  151.0497 C   0  0  0  0  0  0  0  0  0  0  0  0
  144.1070  135.9141  151.9434 C   0  0  0  0  0  0  0  0  0  0  0  0
  143.5883  134.7656  152.5906 O   0  0  0  0  0  0  0  0  0  0  0  0
  143.5449  133.6945  151.6527 C   0  0  0  0  0  0  0  0  0  0  0  0
  142.9244  134.3804  149.5613 H   0  0  0  0  0  0  0  0  0  0  0  0
  145.1236  132.0846  149.7598 H   0  0  0  0  0  0  0  0  0  0  0  0
  146.3450  133.3091  149.5346 H   0  0  0  0  0  0  0  0  0  0  0  0
  147.3060  134.2463  152.1083 H   0  0  0  0  0  0  0  0  0  0  0  0
  146.3693  129.6744  156.1970 H   0  0  0  0  0  0  0  0  0  0  0  0
  147.3412  128.2453  155.9354 H   0  0  0  0  0  0  0  0  0  0  0  0
  148.1035  130.6855  157.6182 H   0  0  0  0  0  0  0  0  0  0  0  0
  147.6949  129.1002  158.2318 H   0  0  0  0  0  0  0  0  0  0  0  0
  150.1781  129.4615  158.1779 H   0  0  0  0  0  0  0  0  0  0  0  0
  149.6981  128.1155  157.1684 H   0  0  0  0  0  0  0  0  0  0  0  0
  150.3012  130.9538  156.2260 H   0  0  0  0  0  0  0  0  0  0  0  0
  152.0554  130.9277  154.6297 H   0  0  0  0  0  0  0  0  0  0  0  0
  152.9345  130.9522  156.1545 H   0  0  0  0  0  0  0  0  0  0  0  0
  153.3818  128.7592  154.0649 H   0  0  0  0  0  0  0  0  0  0  0  0
  155.1035  129.7861  156.4496 H   0  0  0  0  0  0  0  0  0  0  0  0
  155.5152  128.4138  155.2986 H   0  0  0  0  0  0  0  0  0  0  0  0
  155.4203  130.0076  153.3643 H   0  0  0  0  0  0  0  0  0  0  0  0
  155.0088  131.3798  154.5148 H   0  0  0  0  0  0  0  0  0  0  0  0
  149.5376  128.5055  154.5392 H   0  0  0  0  0  0  0  0  0  0  0  0
  149.8854  130.1149  153.9281 H   0  0  0  0  0  0  0  0  0  0  0  0
  145.4002  128.0975  151.9594 H   0  0  0  0  0  0  0  0  0  0  0  0
  146.0704  135.1106  151.6601 H   0  0  0  0  0  0  0  0  0  0  0  0
  145.5063  136.0124  150.2564 H   0  0  0  0  0  0  0  0  0  0  0  0
  144.4906  136.6415  152.6589 H   0  0  0  0  0  0  0  0  0  0  0  0
  143.3232  136.3893  151.3514 H   0  0  0  0  0  0  0  0  0  0  0  0
  142.5315  133.5818  151.2638 H   0  0  0  0  0  0  0  0  0  0  0  0
  143.7961  132.7738  152.1779 H   0  0  0  0  0  0  0  0  0  0  0  0
  1  2  1  0  0  0  0
  1 28  1  0  0  0  0
  2 27  1  0  0  0  0
  2  3  1  0  0  0  0
  2 24  1  0  0  0  0
  3  4  1  0  0  0  0
  3 29  1  0  0  0  0
  3 30  1  0  0  0  0
  4 23  1  0  0  0  0
  4  5  1  0  0  0  0
  5  6  2  0  0  0  0
  5 31  1  0  0  0  0
  6  7  1  0  0  0  0
  7 23  2  0  0  0  0
  7  8  1  0  0  0  0
  8  9  1  0  0  0  0
  8 20  2  0  0  0  0
  9 19  1  0  0  0  0
  9 10  1  0  0  0  0
 10 11  1  0  0  0  0
 10 32  1  0  0  0  0
 10 33  1  0  0  0  0
 11 12  1  0  0  0  0
 11 34  1  0  0  0  0
 11 35  1  0  0  0  0
 12 13  1  0  0  0  0
 12 36  1  0  0  0  0
 12 37  1  0  0  0  0
 13 14  1  0  0  0  0
 13 19  1  0  0  0  0
 13 38  1  0  0  0  0
 14 15  1  0  0  0  0
 15 16  1  0  0  0  0
 15 39  1  0  0  0  0
 15 40  1  0  0  0  0
 16 18  1  0  0  0  0
 16 17  1  0  0  0  0
 16 41  1  0  0  0  0
 17 18  1  0  0  0  0
 17 42  1  0  0  0  0
 17 43  1  0  0  0  0
 18 44  1  0  0  0  0
 18 45  1  0  0  0  0
 19 46  1  0  0  0  0
 19 47  1  0  0  0  0
 20 21  1  0  0  0  0
 21 22  2  0  0  0  0
 21 48  1  0  0  0  0
 22 23  1  0  0  0  0
 24 25  1  0  0  0  0
 24 49  1  0  0  0  0
 24 50  1  0  0  0  0
 25 26  1  0  0  0  0
 25 51  1  0  0  0  0
 25 52  1  0  0  0  0
 26 27  1  0  0  0  0
 27 53  1  0  0  0  0
 27 54  1  0  0  0  0
M  END
> <s_m_source_file>
AV-unprocessed.smi

> <i_m_source_file_index>
166

> <i_lp_mmshare_version>
43012

> <i_f3d_flags>
0

> <s_epik_input>
W0NIMl0xT1tDSDJdW0NIMl1bQ0BAXTEoW09IXSlbQ0gyXW4oW2NIXW4yKWMoYzIzKW5bY0hdbmMzTjRbQ0gyXVtDSDJdW0NIMl1bQ0BIXShbQ0gyXTQpT1tDSDJdW0NIXTVbQ0gyXVtDSDJdNQ==

> <s_epik_cmdline>
J2VwaWtfcHl0aG9uJywgJy1waCcsICc3LjAnLCAnLXRuJywgJzgnLCAnLW1hJywgJzIwMCcsICctbWV0YWxfYmluZGluZycsICctaW1hZScsICc8aW5maWxlLm1hZT4nLCAnLW9tYWUnLCAnPG91dGZpbGUubWFlPic=

> <r_lp_tautomer_probability>
1

> <r_epik_Ionization_Penalty>
0.00342552

> <r_epik_Ionization_Penalty_Charging>
0

> <r_epik_Ionization_Penalty_Neutral>
0.00342552

> <r_epik_State_Penalty>
0.0022204

> <r_epik_Charging_Adjusted_Penalty>
0.0022204

> <i_epik_Tot_Q>
0

> <i_epik_Tot_abs_Q>
0

> <r_epik_Metal_State_Penalty>
-0

> <b_epik_Metal_Only>
0

> <s_lp_Force_Field>
OPLS_2005

> <r_lp_Energy>
44.5811

> <b_lp_Chiralities_Consistent>
1

> <s_lp_Variant>
AV-unprocessed.smi:166-1

> <Gold.Version>
5.8.1

> <Gold.Id.Protein>
6NUR|6NUR_protein|mol2

> <Gold.PLP.Fitness>
44.9556

> <Gold.PLP.PLP>
-40.3851

> <Gold.PLP.part.hbond>
-2.0000

> <Gold.PLP.part.metal>
0.0000

> <Gold.PLP.part.buried>
-6.5318

> <Gold.PLP.part.nonpolar>
-33.3202

> <Gold.PLP.part.repulsive>
0.5285

> <Gold.PLP.ligand.clash>
0.0000

> <Gold.PLP.ligand.torsion>
1.2968

> <Gold.PLP.Chemscore.Hbond>
1.0000

> <Gold.PLP.Chemscore.CHOScore>
1.0000

> <Gold.PLP.Chemscore.Metal>
0.0000

> <Gold.Chemscore.Hbonds>
donor molecule, donor type, donor heavy atom, donor atom, acceptor molecule, acceptor atom, score
      L1  H     1    28       P1 10186  1.00
      L1  C     5    31       P1  7948  0.97

> <Gold.PLP.Chemscore.Internal.Correction>
1.1640

> <Gold.Rescore>
     Score         DG    S(hbond)    S(metal)    S(lipo)     H(rot)  DE(clash)    DE(int)     intcor
      9.70     -11.10       1.00        0.00      78.23       2.68       0.06       1.34       ----

> <Gold.Chemscore.Fitness>
9.7014

> <Gold.Chemscore.DG>
-11.1041

> <Gold.Chemscore.ZeroCoef>
-5.4800

> <Gold.Chemscore.Hbond>
0.9988

> <Gold.Chemscore.Metal>
0.0000

> <Gold.Chemscore.Lipo>
78.2325

> <Gold.Chemscore.Internal_Hbond>
0.0000

> <Gold.Chemscore.DEClash>
0.0629

> <Gold.Chemscore.DEInternal>
1.3398

> <Gold.Chemscore.Rot>
2.6817

> <Gold.Chemscore.Internal.Correction>
   9.000000E+99

> <Gold.Chemscore.Hbonds>
donor molecule, donor type, donor heavy atom, donor atom, acceptor molecule, acceptor atom, score
      L1  H     1    28       P1 10186  0.99

> <Gold.Chemscore.Hbond.Weighted>
-3.3360

> <Gold.Chemscore.Metal.Weighted>
-0.0000

> <Gold.Chemscore.Lipo.Weighted>
-9.1532

> <Gold.Chemscore.Internal_Hbond.Weighted>
0.0000

> <Gold.Chemscore.DEClash.Weighted>
0.0629

> <Gold.Chemscore.DEInternal.Weighted>
1.3398

> <Gold.Chemscore.Rot.Weighted>
6.8651

> <Gold.Chemscore.Internal.Correction.Weighted>
   9.000000E+99

> <Gold.Protein.RotatedTorsions>
[ 6907 6896 6895 6894 ] final -169.07 input  -60.11 | X-H torsion
[ 7974 7965 7964 7962 ] final   63.77 input  175.53 | X-H torsion
[ 8008 7997 7996 7995 ] final -166.04 input   59.86 | X-H torsion
[ 10167 10162 10161 10158 ] final   73.07 input  -65.29 | X-H torsion
[ 10718 10713 10712 10709 ] final  -48.39 input   66.30 | X-H torsion
[ 10763 10752 10751 10750 ] final   62.49 input  -60.55 | X-H torsion
[ 11005 11000 10999 10996 ] final -151.69 input  -57.11 | X-H torsion

> <Gold.Protein.ActiveResidues>
 VAL166  LYS551  ARG553  GLY616  TRP617  ASP618  TYR619  PRO620  LYS621  CYS622 
 ASP623  PHE694  ASN695  SER759  ASP760  ASP761  ALA762  ILE779  LEU786  VAL792 
 PHE793  MET794  SER795  GLU796  ALA797  LYS798  CYS799  TRP800  GLU811  SER814 

> <Gold.Protein.RotatedAtoms>
  151.4857  133.3536  159.2845 H   0  0  0  0  0  0  0  0  0  0  0  0  # atno 6907 bound_to 6896
  150.8867  134.8268  159.7275 H   0  0  0  0  0  0  0  0  0  0  0  0  # atno 6908 bound_to 6896
  152.4797  134.4762  159.9703 H   0  0  0  0  0  0  0  0  0  0  0  0  # atno 6909 bound_to 6896
  145.8579  139.3296  143.0836 H   0  0  0  0  0  0  0  0  0  0  0  0  # atno 7974 bound_to 7965
  155.8582  140.0974  157.1630 H   0  0  0  0  0  0  0  0  0  0  0  0  # atno 8008 bound_to 7997
  154.3989  140.1370  156.3990 H   0  0  0  0  0  0  0  0  0  0  0  0  # atno 8009 bound_to 7997
  155.7886  140.3456  155.5339 H   0  0  0  0  0  0  0  0  0  0  0  0  # atno 8010 bound_to 7997
  140.0284  144.5485  150.7526 H   0  0  0  0  0  0  0  0  0  0  0  0  # atno 10167 bound_to 10162
  156.1992  130.4155  149.9264 H   0  0  0  0  0  0  0  0  0  0  0  0  # atno 10718 bound_to 10713
  152.9985  135.5463  154.6202 H   0  0  0  0  0  0  0  0  0  0  0  0  # atno 10763 bound_to 10752
  154.5503  135.2826  155.1017 H   0  0  0  0  0  0  0  0  0  0  0  0  # atno 10764 bound_to 10752
  154.2259  135.6442  153.5212 H   0  0  0  0  0  0  0  0  0  0  0  0  # atno 10765 bound_to 10752
  140.7269  134.3665  157.5174 H   0  0  0  0  0  0  0  0  0  0  0  0  # atno 11005 bound_to 11000
  145.9282  140.9067  143.0370 LP  0  0  0  0  0  0  0  0  0  0  0  0  # atno 17320 bound_to 7965
  144.6727  140.1382  143.7439 LP  0  0  0  0  0  0  0  0  0  0  0  0  # atno 17321 bound_to 7965
  140.7312  143.2692  151.3943 LP  0  0  0  0  0  0  0  0  0  0  0  0  # atno 17342 bound_to 10162
  139.6092  144.1133  152.2281 LP  0  0  0  0  0  0  0  0  0  0  0  0  # atno 17343 bound_to 10162
  156.6979  130.8921  151.3596 LP  0  0  0  0  0  0  0  0  0  0  0  0  # atno 17370 bound_to 10713
  157.6976  130.9298  150.0689 LP  0  0  0  0  0  0  0  0  0  0  0  0  # atno 17371 bound_to 10713
  139.8835  134.8992  156.2761 LP  0  0  0  0  0  0  0  0  0  0  0  0  # atno 17394 bound_to 11000
  140.9955  133.7183  156.0879 LP  0  0  0  0  0  0  0  0  0  0  0  0  # atno 17395 bound_to 11000

$$$$
