#       Name:                AV-unprocessed.smi:1818
#       Creating user name   scv26
#       Creation time:       Fri Mar 27 09:04:51 2020


#       File generated by GOLD software.
#

@<TRIPOS>MOLECULE
AV-unprocessed.smi:1818
    40    41     1
SMALL
NO_CHARGES


@<TRIPOS>ATOM
      1 ****        -1.7483   2.6701  -0.2271 N.1            1 S1                 0.0000
      2 ****        -1.3709   1.5765  -0.1993 C.1            1 S1                 0.0000
      3 ****        -0.8902   0.1810  -0.1628 C.3            1 S1                 0.0000
      4 ****         0.5756   0.1498  -0.1329 N.am           1 S1                 0.0000
      5 ****         1.4196   0.7553  -0.9856 C.2            1 S1                 0.0000
      6 ****         1.0539   1.4176  -1.9557 O.2            1 S1                 0.0000
      7 ****         2.9107   0.5970  -0.6913 C.3            1 S1                 0.0000
      8 ****         3.4009   1.7113   0.0975 N.pl3          1 S1                 0.0000
      9 ****         3.4353   1.8093   1.4829 C.2            1 S1                 0.0000
     10 ****         3.9719   3.0427   1.7763 C.2            1 S1                 0.0000
     11 ****         4.2718   3.7165   0.5947 N.2            1 S1                 0.0000
     12 ****         3.9048   2.8675  -0.3564 C.2            1 S1                 0.0000
     13 ****        -1.3923  -0.4401   1.1644 C.3            1 S1                 0.0000
     14 ****        -1.4636  -1.9771   1.2092 C.3            1 S1                 0.0000
     15 ****        -2.8172  -2.5184   0.7145 C.3            1 S1                 0.0000
     16 ****        -3.0388  -2.4222  -0.8031 C.3            1 S1                 0.0000
     17 ****        -2.8624  -1.0132  -1.3959 C.3            1 S1                 0.0000
     18 ****        -1.3894  -0.5721  -1.4238 C.3            1 S1                 0.0000
     19 ****         0.9879  -0.3709   0.6273 H              1 S1                 0.0000
     20 ****         3.1010  -0.3325  -0.1528 H              1 S1                 0.0000
     21 ****         3.4701   0.5489  -1.6267 H              1 S1                 0.0000
     22 ****         3.0833   1.0175   2.1277 H              1 S1                 0.0000
     23 ****         4.1620   3.4943   2.7388 H              1 S1                 0.0000
     24 ****         4.0028   3.0926  -1.4086 H              1 S1                 0.0000
     25 ****        -0.7524  -0.0940   1.9779 H              1 S1                 0.0000
     26 ****        -2.3775  -0.0393   1.4082 H              1 S1                 0.0000
     27 ****        -0.6325  -2.4295   0.6672 H              1 S1                 0.0000
     28 ****        -1.3453  -2.2891   2.2473 H              1 S1                 0.0000
     29 ****        -2.9007  -3.5663   1.0040 H              1 S1                 0.0000
     30 ****        -3.6284  -2.0069   1.2340 H              1 S1                 0.0000
     31 ****        -2.3722  -3.1191  -1.3127 H              1 S1                 0.0000
     32 ****        -4.0485  -2.7703  -1.0236 H              1 S1                 0.0000
     33 ****        -3.2268  -1.0400  -2.4233 H              1 S1                 0.0000
     34 ****        -3.4852  -0.2831  -0.8780 H              1 S1                 0.0000
     35 ****        -1.2501   0.0772  -2.2892 H              1 S1                 0.0000
     36 ****        -0.7600  -1.4410  -1.6228 H              1 S1                 0.0000
     37 ****        -2.0744   3.6151  -0.2511 LP             1 S1                 0.0000
     38 ****         0.0785   1.5293  -2.1458 LP             1 S1                 0.0000
     39 ****         1.7321   1.8443  -2.5541 LP             1 S1                 0.0000
     40 ****         4.6706   4.6273   0.4882 LP             1 S1                 0.0000
@<TRIPOS>BOND
    1    1    2 3     
    2    2    3 1     
    3    3   18 1     
    4    3    4 1     
    5    3   13 1     
    6    4    5 am    
    7    4   19 1     
    8    5    6 2     
    9    5    7 1     
   10    7    8 1     
   11    7   20 1     
   12    7   21 1     
   13    8   12 1     
   14    8    9 1     
   15    9   10 2     
   16    9   22 1     
   17   10   11 1     
   18   10   23 1     
   19   11   12 2     
   20   12   24 1     
   21   13   14 1     
   22   13   25 1     
   23   13   26 1     
   24   14   15 1     
   25   14   27 1     
   26   14   28 1     
   27   15   16 1     
   28   15   29 1     
   29   15   30 1     
   30   16   17 1     
   31   16   31 1     
   32   16   32 1     
   33   17   18 1     
   34   17   33 1     
   35   17   34 1     
   36   18   35 1     
   37   18   36 1     
   38    1   37 1     
   39    6   38 1     
   40    6   39 1     
   41   11   40 1     
@<TRIPOS>SUBSTRUCTURE
      1 S1             1
@<TRIPOS>SET
LONE_PAIRS      STATIC     ATOMS    <user>   **** ""
4 37 38 39 40
DONOR_HYDROGENS      STATIC     ATOMS    <user>   **** ""
1 19
ATOM$BLUE        STATIC     ATOMS    COLORGROUP SYSTEM
4 37 38 39 40
ATOM$RED        STATIC     ATOMS    COLORGROUP SYSTEM
1 19
