AV-unprocessed.smi:671|AV-procd|sdf|3274|dock3
  -GOLD-   22720 0233D 1   1.00000     0.00000
 Structure written by MMmdl.
 49 50  0  0  0  0  0  0  0  0  1 V2000
  152.6955  138.3879  154.7930 C   0  0  0  0  0  0  0  0  0  0  0  0
  151.7959  139.4318  155.3905 C   0  0  0  0  0  0  0  0  0  0  0  0
  152.2861  140.2779  156.2811 N   0  0  0  0  0  0  0  0  0  0  0  0
  151.2421  141.0581  156.6261 N   0  0  0  0  0  0  0  0  0  0  0  0
  151.4320  142.1058  157.6103 C   0  0  0  0  0  0  0  0  0  0  0  0
  150.0921  140.7097  155.9451 C   0  0  0  0  0  0  0  0  0  0  0  0
  148.7942  141.4215  156.1525 C   0  0  0  0  0  0  0  0  0  0  0  0
  150.4112  139.6542  155.1337 C   0  0  0  0  0  0  0  0  0  0  0  0
  149.5127  138.8837  154.1974 C   0  0  0  0  0  0  0  0  0  0  0  0
  148.5005  137.9984  154.9504 C   0  0  1  0  0  0  0  0  0  0  0  0
  147.3553  138.8232  155.5565 C   0  0  0  0  0  0  0  0  0  0  0  0
  147.9629  136.9687  154.0545 N   0  0  0  0  0  0  0  0  0  0  0  0
  146.8441  136.2357  154.1939 C   0  0  0  0  0  0  0  0  0  0  0  0
  146.1075  136.3563  155.1708 O   0  0  0  0  0  0  0  0  0  0  0  0
  146.6153  135.3648  153.1976 N   0  0  0  0  0  0  0  0  0  0  0  0
  145.4592  134.4798  153.1001 C   0  0  2  0  0  0  0  0  0  0  0  0
  145.8796  133.0119  152.8763 C   0  0  0  0  0  0  0  0  0  0  0  0
  145.3469  132.6164  151.4975 C   0  0  0  0  0  0  0  0  0  0  0  0
  144.1480  133.5325  151.2753 C   0  0  0  0  0  0  0  0  0  0  0  0
  144.5828  134.8645  151.8907 C   0  0  1  0  0  0  0  0  0  0  0  0
  143.4144  135.7954  152.2414 C   0  0  0  0  0  0  0  0  0  0  0  0
  152.2339  137.4013  154.8423 H   0  0  0  0  0  0  0  0  0  0  0  0
  153.6509  138.3293  155.3162 H   0  0  0  0  0  0  0  0  0  0  0  0
  152.9029  138.6062  153.7454 H   0  0  0  0  0  0  0  0  0  0  0  0
  150.6832  142.0099  158.3971 H   0  0  0  0  0  0  0  0  0  0  0  0
  151.3258  143.0799  157.1327 H   0  0  0  0  0  0  0  0  0  0  0  0
  152.4242  142.0383  158.0591 H   0  0  0  0  0  0  0  0  0  0  0  0
  148.0826  141.1816  155.3625 H   0  0  0  0  0  0  0  0  0  0  0  0
  148.9354  142.5025  156.1530 H   0  0  0  0  0  0  0  0  0  0  0  0
  148.3468  141.1363  157.1048 H   0  0  0  0  0  0  0  0  0  0  0  0
  148.9712  139.5676  153.5431 H   0  0  0  0  0  0  0  0  0  0  0  0
  150.1065  138.2582  153.5298 H   0  0  0  0  0  0  0  0  0  0  0  0
  149.0468  137.5256  155.7677 H   0  0  0  0  0  0  0  0  0  0  0  0
  147.7387  139.5879  156.2325 H   0  0  0  0  0  0  0  0  0  0  0  0
  146.6743  138.1920  156.1282 H   0  0  0  0  0  0  0  0  0  0  0  0
  146.7735  139.3247  154.7822 H   0  0  0  0  0  0  0  0  0  0  0  0
  148.5397  136.7479  153.2555 H   0  0  0  0  0  0  0  0  0  0  0  0
  147.2821  135.3266  152.4408 H   0  0  0  0  0  0  0  0  0  0  0  0
  144.8709  134.5433  154.0179 H   0  0  0  0  0  0  0  0  0  0  0  0
  146.9569  132.8545  152.9467 H   0  0  0  0  0  0  0  0  0  0  0  0
  145.4166  132.3859  153.6402 H   0  0  0  0  0  0  0  0  0  0  0  0
  146.1054  132.8170  150.7398 H   0  0  0  0  0  0  0  0  0  0  0  0
  145.0853  131.5598  151.4356 H   0  0  0  0  0  0  0  0  0  0  0  0
  143.8818  133.6242  150.2221 H   0  0  0  0  0  0  0  0  0  0  0  0
  143.2815  133.1357  151.8065 H   0  0  0  0  0  0  0  0  0  0  0  0
  145.2066  135.3671  151.1487 H   0  0  0  0  0  0  0  0  0  0  0  0
  142.7486  135.3394  152.9746 H   0  0  0  0  0  0  0  0  0  0  0  0
  142.8245  136.0315  151.3555 H   0  0  0  0  0  0  0  0  0  0  0  0
  143.7769  136.7352  152.6590 H   0  0  0  0  0  0  0  0  0  0  0  0
  1  2  1  0  0  0  0
  1 22  1  0  0  0  0
  1 23  1  0  0  0  0
  1 24  1  0  0  0  0
  2  8  1  0  0  0  0
  2  3  2  0  0  0  0
  3  4  1  0  0  0  0
  4  5  1  0  0  0  0
  4  6  1  0  0  0  0
  5 25  1  0  0  0  0
  5 26  1  0  0  0  0
  5 27  1  0  0  0  0
  6  7  1  0  0  0  0
  6  8  2  0  0  0  0
  7 28  1  0  0  0  0
  7 29  1  0  0  0  0
  7 30  1  0  0  0  0
  8  9  1  0  0  0  0
  9 10  1  0  0  0  0
  9 31  1  0  0  0  0
  9 32  1  0  0  0  0
 10 11  1  0  0  0  0
 10 12  1  0  0  0  0
 10 33  1  0  0  0  0
 11 34  1  0  0  0  0
 11 35  1  0  0  0  0
 11 36  1  0  0  0  0
 12 13  1  0  0  0  0
 12 37  1  0  0  0  0
 13 14  2  0  0  0  0
 13 15  1  0  0  0  0
 15 16  1  0  0  0  0
 15 38  1  0  0  0  0
 16 20  1  0  0  0  0
 16 17  1  0  0  0  0
 16 39  1  0  0  0  0
 17 18  1  0  0  0  0
 17 40  1  0  0  0  0
 17 41  1  0  0  0  0
 18 19  1  0  0  0  0
 18 42  1  0  0  0  0
 18 43  1  0  0  0  0
 19 20  1  0  0  0  0
 19 44  1  0  0  0  0
 19 45  1  0  0  0  0
 20 21  1  0  0  0  0
 20 46  1  0  0  0  0
 21 47  1  0  0  0  0
 21 48  1  0  0  0  0
 21 49  1  0  0  0  0
M  END
> <s_m_source_file>
AV-unprocessed.smi

> <i_m_source_file_index>
671

> <i_lp_mmshare_version>
43012

> <i_f3d_flags>
0

> <s_epik_input>
W0NIM11jMW5uKFtDSDNdKWMoW0NIM10pYzFbQ0gyXVtDQEhdKFtDSDNdKVtOSF1DKD1PKVtOSF1bQ0BASF0yW0NIMl1bQ0gyXVtDSDJdW0NASF0yW0NIM10=

> <s_epik_cmdline>
J2VwaWtfcHl0aG9uJywgJy1waCcsICc3LjAnLCAnLXRuJywgJzgnLCAnLW1hJywgJzIwMCcsICctbWV0YWxfYmluZGluZycsICctaW1hZScsICc8aW5maWxlLm1hZT4nLCAnLW9tYWUnLCAnPG91dGZpbGUubWFlPic=

> <r_lp_tautomer_probability>
1

> <r_epik_Ionization_Penalty>
0.0126855

> <r_epik_Ionization_Penalty_Charging>
0

> <r_epik_Ionization_Penalty_Neutral>
0.0126855

> <r_epik_State_Penalty>
0.00977547

> <r_epik_Charging_Adjusted_Penalty>
0.00977547

> <i_epik_Tot_Q>
0

> <i_epik_Tot_abs_Q>
0

> <r_epik_Metal_State_Penalty>
0.00957132

> <b_epik_Metal_Only>
0

> <s_lp_Force_Field>
OPLS_2005

> <r_lp_Energy>
23.179

> <b_lp_Chiralities_Consistent>
1

> <s_lp_Variant>
AV-unprocessed.smi:671-2

> <Gold.Version>
5.8.1

> <Gold.Id.Protein>
6NUR|6NUR_protein|mol2

> <Gold.PLP.Fitness>
38.3201

> <Gold.PLP.PLP>
-31.0239

> <Gold.PLP.part.hbond>
-2.9106

> <Gold.PLP.part.metal>
0.0000

> <Gold.PLP.part.buried>
-2.6142

> <Gold.PLP.part.nonpolar>
-25.9464

> <Gold.PLP.part.repulsive>
0.0319

> <Gold.PLP.ligand.clash>
0.0000

> <Gold.PLP.ligand.torsion>
0.5906

> <Gold.PLP.Chemscore.Hbond>
2.8073

> <Gold.PLP.Chemscore.CHOScore>
0.0000

> <Gold.PLP.Chemscore.Metal>
0.0000

> <Gold.Chemscore.Hbonds>
donor molecule, donor type, donor heavy atom, donor atom, acceptor molecule, acceptor atom, score
      L1  H    12    37       P1  7948  1.00
      L1  H    15    38       P1  7948  0.82
      P1  H  7997  8010       L1     3  0.94

> <Gold.PLP.Chemscore.Internal.Correction>
0.0558

> <Gold.Rescore>
     Score         DG    S(hbond)    S(metal)    S(lipo)     H(rot)  DE(clash)    DE(int)     intcor
     18.13     -20.34       2.80        0.00      78.68       1.45       0.03       2.18       ----

> <Gold.Chemscore.Fitness>
18.1277

> <Gold.Chemscore.DG>
-20.3375

> <Gold.Chemscore.ZeroCoef>
-5.4800

> <Gold.Chemscore.Hbond>
2.8035

> <Gold.Chemscore.Metal>
0.0000

> <Gold.Chemscore.Lipo>
78.6801

> <Gold.Chemscore.Internal_Hbond>
0.0000

> <Gold.Chemscore.DEClash>
0.0349

> <Gold.Chemscore.DEInternal>
2.1750

> <Gold.Chemscore.Rot>
1.4499

> <Gold.Chemscore.Internal.Correction>
   9.000000E+99

> <Gold.Chemscore.Hbonds>
donor molecule, donor type, donor heavy atom, donor atom, acceptor molecule, acceptor atom, score
      L1  H    12    37       P1  7948  0.93
      L1  H    15    38       P1  7948  0.80
      P1  H  7997  8010       L1     3  0.68

> <Gold.Chemscore.Hbond.Weighted>
-9.3638

> <Gold.Chemscore.Metal.Weighted>
-0.0000

> <Gold.Chemscore.Lipo.Weighted>
-9.2056

> <Gold.Chemscore.Internal_Hbond.Weighted>
0.0000

> <Gold.Chemscore.DEClash.Weighted>
0.0349

> <Gold.Chemscore.DEInternal.Weighted>
2.1750

> <Gold.Chemscore.Rot.Weighted>
3.7118

> <Gold.Chemscore.Internal.Correction.Weighted>
   9.000000E+99

> <Gold.Protein.RotatedTorsions>
[ 6907 6896 6895 6894 ] final  -51.01 input  -60.11 | X-H torsion
[ 7974 7965 7964 7962 ] final -119.75 input  175.53 | X-H torsion
[ 8008 7997 7996 7995 ] final   74.01 input   59.86 | X-H torsion
[ 10167 10162 10161 10158 ] final -121.33 input  -65.29 | X-H torsion
[ 10718 10713 10712 10709 ] final  -59.80 input   66.30 | X-H torsion
[ 10763 10752 10751 10750 ] final  155.27 input  -60.55 | X-H torsion
[ 11005 11000 10999 10996 ] final   50.64 input  -57.11 | X-H torsion

> <Gold.Protein.ActiveResidues>
 VAL166  LYS551  ARG553  GLY616  TRP617  ASP618  TYR619  PRO620  LYS621  CYS622 
 ASP623  PHE694  ASN695  SER759  ASP760  ASP761  ALA762  ILE779  LEU786  VAL792 
 PHE793  MET794  SER795  GLU796  ALA797  LYS798  CYS799  TRP800  GLU811  SER814 

> <Gold.Protein.RotatedAtoms>
  150.8652  134.8014  159.7113 H   0  0  0  0  0  0  0  0  0  0  0  0  # atno 6907 bound_to 6896
  152.4676  134.5035  159.9742 H   0  0  0  0  0  0  0  0  0  0  0  0  # atno 6908 bound_to 6896
  151.5132  133.3442  159.2924 H   0  0  0  0  0  0  0  0  0  0  0  0  # atno 6909 bound_to 6896
  145.0591  140.8276  143.4163 H   0  0  0  0  0  0  0  0  0  0  0  0  # atno 7974 bound_to 7965
  155.7920  140.3479  155.5355 H   0  0  0  0  0  0  0  0  0  0  0  0  # atno 8008 bound_to 7997
  155.8624  140.0973  157.1625 H   0  0  0  0  0  0  0  0  0  0  0  0  # atno 8009 bound_to 7997
  154.4012  140.1356  156.3964 H   0  0  0  0  0  0  0  0  0  0  0  0  # atno 8010 bound_to 7997
  140.0261  143.5295  152.2198 H   0  0  0  0  0  0  0  0  0  0  0  0  # atno 10167 bound_to 10162
  156.1035  130.4183  150.0766 H   0  0  0  0  0  0  0  0  0  0  0  0  # atno 10718 bound_to 10713
  154.1657  135.2807  155.3095 H   0  0  0  0  0  0  0  0  0  0  0  0  # atno 10763 bound_to 10752
  154.6113  135.5498  153.7479 H   0  0  0  0  0  0  0  0  0  0  0  0  # atno 10764 bound_to 10752
  153.0179  135.6416  154.1799 H   0  0  0  0  0  0  0  0  0  0  0  0  # atno 10765 bound_to 10752
  140.1000  134.5094  155.8771 H   0  0  0  0  0  0  0  0  0  0  0  0  # atno 11005 bound_to 11000
  145.1431  139.2560  143.5479 LP  0  0  0  0  0  0  0  0  0  0  0  0  # atno 17320 bound_to 7965
  146.3523  140.1114  142.8604 LP  0  0  0  0  0  0  0  0  0  0  0  0  # atno 17321 bound_to 7965
  139.6107  144.7608  151.2959 LP  0  0  0  0  0  0  0  0  0  0  0  0  # atno 17342 bound_to 10162
  140.7322  143.6831  150.7985 LP  0  0  0  0  0  0  0  0  0  0  0  0  # atno 17343 bound_to 10162
  156.8747  130.9536  151.3606 LP  0  0  0  0  0  0  0  0  0  0  0  0  # atno 17370 bound_to 10713
  157.6209  130.8654  149.9107 LP  0  0  0  0  0  0  0  0  0  0  0  0  # atno 17371 bound_to 10713
  141.2103  133.6693  156.6499 LP  0  0  0  0  0  0  0  0  0  0  0  0  # atno 17394 bound_to 11000
  140.3233  134.7990  157.4269 LP  0  0  0  0  0  0  0  0  0  0  0  0  # atno 17395 bound_to 11000

$$$$
