AV-unprocessed.smi:1381|AV-procd|sdf|5618|dock8
  -GOLD-   22720 5233D 1   1.00000     0.00000
 Structure written by MMmdl.
 42 43  0  0  0  0  0  0  0  0  3 V2000
  151.5389  145.3885  160.1011 C   0  0  0  0  0  0  0  0  0  0  0  0
  151.1864  144.1671  159.3234 C   0  0  0  0  0  0  0  0  0  0  0  0
  151.4086  143.7931  158.0283 C   0  0  0  0  0  0  0  0  0  0  0  0
  150.8053  142.5091  157.9566 C   0  0  0  0  0  0  0  0  0  0  0  0
  150.8249  141.7686  156.7452 N   0  0  0  0  0  0  0  0  0  0  0  0
  150.4917  140.4817  156.5367 C   0  0  0  0  0  0  0  0  0  0  0  0
  150.0880  139.7810  157.4726 O   0  0  0  0  0  0  0  0  0  0  0  0
  150.6586  140.1131  155.2368 N   0  5  0  0  0  0  0  0  0  0  0  0
  150.0014  138.9701  154.6080 C   0  0  0  0  0  0  0  0  0  0  0  0
  148.9534  139.4705  153.5951 C   0  0  0  0  0  0  0  0  0  0  0  0
  147.9156  138.4443  153.3098 N   0  3  1  0  0  0  0  0  0  0  0  0
  147.3669  137.8209  154.5370 C   0  0  0  0  0  0  0  0  0  0  0  0
  146.4002  136.6795  154.1739 C   0  0  1  0  0  0  0  0  0  0  0  0
  145.7426  136.0669  155.4155 C   0  0  0  0  0  0  0  0  0  0  0  0
  145.3649  137.1803  153.3316 O   0  0  0  0  0  0  0  0  0  0  0  0
  145.8170  137.7952  152.1249 C   0  0  2  0  0  0  0  0  0  0  0  0
  146.3668  136.7707  151.1165 C   0  0  0  0  0  0  0  0  0  0  0  0
  146.8071  138.9307  152.4465 C   0  0  0  0  0  0  0  0  0  0  0  0
  150.2642  142.1340  159.1062 N   0  0  0  0  0  0  0  0  0  0  0  0
  150.5057  143.1944  159.9876 O   0  0  0  0  0  0  0  0  0  0  0  0
  152.0576  146.1138  159.4739 H   0  0  0  0  0  0  0  0  0  0  0  0
  152.1906  145.1383  160.9382 H   0  0  0  0  0  0  0  0  0  0  0  0
  150.6428  145.8653  160.4988 H   0  0  0  0  0  0  0  0  0  0  0  0
  151.9205  144.3491  157.2573 H   0  0  0  0  0  0  0  0  0  0  0  0
  151.1378  142.2756  155.9308 H   0  0  0  0  0  0  0  0  0  0  0  0
  150.7130  138.3262  154.0898 H   0  0  0  0  0  0  0  0  0  0  0  0
  149.5066  138.3354  155.3443 H   0  0  0  0  0  0  0  0  0  0  0  0
  148.4808  140.3599  154.0156 H   0  0  0  0  0  0  0  0  0  0  0  0
  149.4270  139.7921  152.6658 H   0  0  0  0  0  0  0  0  0  0  0  0
  148.1816  137.4252  155.1454 H   0  0  0  0  0  0  0  0  0  0  0  0
  146.8581  138.5796  155.1340 H   0  0  0  0  0  0  0  0  0  0  0  0
  146.9452  135.8895  153.6566 H   0  0  0  0  0  0  0  0  0  0  0  0
  146.4908  135.6602  156.0963 H   0  0  0  0  0  0  0  0  0  0  0  0
  145.0694  135.2549  155.1392 H   0  0  0  0  0  0  0  0  0  0  0  0
  145.1609  136.8095  155.9623 H   0  0  0  0  0  0  0  0  0  0  0  0
  144.9350  138.2446  151.6673 H   0  0  0  0  0  0  0  0  0  0  0  0
  146.5761  137.2477  150.1586 H   0  0  0  0  0  0  0  0  0  0  0  0
  145.6439  135.9749  150.9367 H   0  0  0  0  0  0  0  0  0  0  0  0
  147.2942  136.3106  151.4565 H   0  0  0  0  0  0  0  0  0  0  0  0
  146.2831  139.7370  152.9622 H   0  0  0  0  0  0  0  0  0  0  0  0
  147.1954  139.3547  151.5197 H   0  0  0  0  0  0  0  0  0  0  0  0
  148.3875  137.7071  152.8054 H   0  0  0  0  0  0  0  0  0  0  0  0
  1  2  1  0  0  0  0
  1 21  1  0  0  0  0
  1 22  1  0  0  0  0
  1 23  1  0  0  0  0
  2 20  1  0  0  0  0
  2  3  2  0  0  0  0
  3  4  1  0  0  0  0
  3 24  1  0  0  0  0
  4  5  1  0  0  0  0
  4 19  2  0  0  0  0
  5  6  1  0  0  0  0
  5 25  1  0  0  0  0
  6  7  2  0  0  0  0
  6  8  1  0  0  0  0
  8  9  1  0  0  0  0
  9 10  1  0  0  0  0
  9 26  1  0  0  0  0
  9 27  1  0  0  0  0
 10 11  1  0  0  0  0
 10 28  1  0  0  0  0
 10 29  1  0  0  0  0
 11 18  1  0  0  0  0
 11 12  1  0  0  0  0
 11 42  1  0  0  0  0
 12 13  1  0  0  0  0
 12 30  1  0  0  0  0
 12 31  1  0  0  0  0
 13 14  1  0  0  0  0
 13 15  1  0  0  0  0
 13 32  1  0  0  0  0
 14 33  1  0  0  0  0
 14 34  1  0  0  0  0
 14 35  1  0  0  0  0
 15 16  1  0  0  0  0
 16 17  1  0  0  0  0
 16 18  1  0  0  0  0
 16 36  1  0  0  0  0
 17 37  1  0  0  0  0
 17 38  1  0  0  0  0
 17 39  1  0  0  0  0
 18 40  1  0  0  0  0
 18 41  1  0  0  0  0
 19 20  1  0  0  0  0
M  CHG  1   8  -1
M  CHG  1  11   1
M  END
> <s_m_source_file>
AV-unprocessed.smi

> <i_m_source_file_index>
1381

> <i_lp_mmshare_version>
43012

> <i_f3d_flags>
0

> <s_epik_input>
W0NIM11jMVtjSF1jKG5vMSlbTkhdQyg9TylbTkhdW0NIMl1bQ0gyXU4yW0NIMl1bQ0BASF0oW0NIM10pT1tDQEBIXShbQ0gzXSlbQ0gyXTI=

> <s_epik_cmdline>
J2VwaWtfcHl0aG9uJywgJy1waCcsICc3LjAnLCAnLXRuJywgJzgnLCAnLW1hJywgJzIwMCcsICctbWV0YWxfYmluZGluZycsICctaW1hZScsICc8aW5maWxlLm1hZT4nLCAnLW9tYWUnLCAnPG91dGZpbGUubWFlPic=

> <r_epik_Ionization_Penalty>
6.8073

> <r_epik_Ionization_Penalty_Charging>
6.80729

> <r_epik_Ionization_Penalty_Neutral>
5.65391e-06

> <r_epik_State_Penalty>
7.47323

> <r_epik_Charging_Adjusted_Penalty>
14.2805

> <i_epik_Tot_Q>
0

> <i_epik_Tot_abs_Q>
2

> <r_epik_Metal_State_Penalty>
3.40035

> <b_epik_Metal_Only>
1

> <s_lp_Force_Field>
OPLS_2005

> <r_lp_Energy>
14.8512

> <b_lp_Chiralities_Consistent>
1

> <s_lp_Variant>
AV-unprocessed.smi:1381-17

> <Gold.Version>
5.8.1

> <Gold.Id.Protein>
6NUR|6NUR_protein|mol2

> <Gold.PLP.Fitness>
39.7221

> <Gold.PLP.PLP>
-31.3311

> <Gold.PLP.part.hbond>
-3.2583

> <Gold.PLP.part.metal>
0.0000

> <Gold.PLP.part.buried>
2.5589

> <Gold.PLP.part.nonpolar>
-31.9616

> <Gold.PLP.part.repulsive>
0.4289

> <Gold.PLP.ligand.clash>
0.0000

> <Gold.PLP.ligand.torsion>
0.3256

> <Gold.PLP.Chemscore.Hbond>
3.0000

> <Gold.PLP.Chemscore.CHOScore>
0.0000

> <Gold.PLP.Chemscore.Metal>
0.0000

> <Gold.Chemscore.Hbonds>
donor molecule, donor type, donor heavy atom, donor atom, acceptor molecule, acceptor atom, score
      L1  H    11    42       P1  7948  2.00
      P1  H  7989  7998       L1     8  0.67

> <Gold.PLP.Chemscore.Internal.Correction>
0.0421

> <Gold.Rescore>
     Score         DG    S(hbond)    S(metal)    S(lipo)     H(rot)  DE(clash)    DE(int)     intcor
     13.57     -16.85       1.89        0.00      77.90       1.58       1.72       1.57       ----

> <Gold.Chemscore.Fitness>
13.5656

> <Gold.Chemscore.DG>
-16.8486

> <Gold.Chemscore.ZeroCoef>
-5.4800

> <Gold.Chemscore.Hbond>
1.8854

> <Gold.Chemscore.Metal>
0.0000

> <Gold.Chemscore.Lipo>
77.8987

> <Gold.Chemscore.Internal_Hbond>
0.0000

> <Gold.Chemscore.DEClash>
1.7160

> <Gold.Chemscore.DEInternal>
1.5669

> <Gold.Chemscore.Rot>
1.5792

> <Gold.Chemscore.Internal.Correction>
   9.000000E+99

> <Gold.Chemscore.Hbonds>
donor molecule, donor type, donor heavy atom, donor atom, acceptor molecule, acceptor atom, score
      L1  H    11    42       P1  7948  1.00
      P1  H  7989  7998       L1     8  0.13

> <Gold.Chemscore.Hbond.Weighted>
-6.2973

> <Gold.Chemscore.Metal.Weighted>
-0.0000

> <Gold.Chemscore.Lipo.Weighted>
-9.1141

> <Gold.Chemscore.Internal_Hbond.Weighted>
0.0000

> <Gold.Chemscore.DEClash.Weighted>
1.7160

> <Gold.Chemscore.DEInternal.Weighted>
1.5669

> <Gold.Chemscore.Rot.Weighted>
4.0428

> <Gold.Chemscore.Internal.Correction.Weighted>
   9.000000E+99

> <Gold.Protein.RotatedTorsions>
[ 6907 6896 6895 6894 ] final  125.10 input  -60.11 | X-H torsion
[ 7974 7965 7964 7962 ] final  -59.73 input  175.53 | X-H torsion
[ 8008 7997 7996 7995 ] final -152.46 input   59.86 | X-H torsion
[ 10167 10162 10161 10158 ] final  160.49 input  -65.29 | X-H torsion
[ 10718 10713 10712 10709 ] final -143.56 input   66.30 | X-H torsion
[ 10763 10752 10751 10750 ] final  -83.38 input  -60.55 | X-H torsion
[ 11005 11000 10999 10996 ] final   72.31 input  -57.11 | X-H torsion

> <Gold.Protein.ActiveResidues>
 VAL166  LYS551  ARG553  GLY616  TRP617  ASP618  TYR619  PRO620  LYS621  CYS622 
 ASP623  PHE694  ASN695  SER759  ASP760  ASP761  ALA762  ILE779  LEU786  VAL792 
 PHE793  MET794  SER795  GLU796  ALA797  LYS798  CYS799  TRP800  GLU811  SER814 

> <Gold.Protein.RotatedAtoms>
  152.4021  133.6834  159.6325 H   0  0  0  0  0  0  0  0  0  0  0  0  # atno 6907 bound_to 6896
  150.7911  133.8773  159.3284 H   0  0  0  0  0  0  0  0  0  0  0  0  # atno 6908 bound_to 6896
  151.6536  135.1000  160.0217 H   0  0  0  0  0  0  0  0  0  0  0  0  # atno 6909 bound_to 6896
  145.8240  140.8522  143.0118 H   0  0  0  0  0  0  0  0  0  0  0  0  # atno 7974 bound_to 7965
  155.6555  140.0717  157.2572 H   0  0  0  0  0  0  0  0  0  0  0  0  # atno 8008 bound_to 7997
  154.4153  140.1725  156.1771 H   0  0  0  0  0  0  0  0  0  0  0  0  # atno 8009 bound_to 7997
  155.9741  140.3359  155.6605 H   0  0  0  0  0  0  0  0  0  0  0  0  # atno 8010 bound_to 7997
  139.4840  144.4629  151.8681 H   0  0  0  0  0  0  0  0  0  0  0  0  # atno 10167 bound_to 10162
  156.3594  130.7730  151.1896 H   0  0  0  0  0  0  0  0  0  0  0  0  # atno 10718 bound_to 10713
  154.5870  135.5558  153.7241 H   0  0  0  0  0  0  0  0  0  0  0  0  # atno 10763 bound_to 10752
  153.0102  135.6334  154.1903 H   0  0  0  0  0  0  0  0  0  0  0  0  # atno 10764 bound_to 10752
  154.1844  135.2885  155.3022 H   0  0  0  0  0  0  0  0  0  0  0  0  # atno 10765 bound_to 10752
  139.9498  134.7248  156.0891 H   0  0  0  0  0  0  0  0  0  0  0  0  # atno 11005 bound_to 11000
  144.6745  140.0575  143.7477 LP  0  0  0  0  0  0  0  0  0  0  0  0  # atno 17320 bound_to 7965
  145.9644  139.2824  143.1136 LP  0  0  0  0  0  0  0  0  0  0  0  0  # atno 17321 bound_to 7965
  140.4092  144.2391  150.5889 LP  0  0  0  0  0  0  0  0  0  0  0  0  # atno 17342 bound_to 10162
  140.4982  143.2326  151.8718 LP  0  0  0  0  0  0  0  0  0  0  0  0  # atno 17343 bound_to 10162
  157.7471  131.0404  150.4597 LP  0  0  0  0  0  0  0  0  0  0  0  0  # atno 17370 bound_to 10713
  156.4806  130.4073  149.6464 LP  0  0  0  0  0  0  0  0  0  0  0  0  # atno 17371 bound_to 10713
  141.1158  133.6628  156.3089 LP  0  0  0  0  0  0  0  0  0  0  0  0  # atno 17394 bound_to 11000
  140.5747  134.5805  157.5466 LP  0  0  0  0  0  0  0  0  0  0  0  0  # atno 17395 bound_to 11000

$$$$
