AV-unprocessed.smi:119|AV-procd|sdf|1136|dock6
  -GOLD-   2262018263D 1   1.00000     0.00000
 Structure written by MMmdl.
 51 54  0  0  0  0  0  0  0  0  1 V2000
  153.9649  137.5544  158.1730 C   0  0  0  0  0  0  0  0  0  0  0  0
  153.2240  138.8369  157.7731 C   0  0  1  0  0  0  0  0  0  0  0  0
  152.0751  138.5319  156.7945 C   0  0  0  0  0  0  0  0  0  0  0  0
  151.4510  139.7765  156.1366 C   0  0  0  0  0  0  0  0  0  0  0  0
  150.6441  140.5727  157.0708 N   0  0  0  0  0  0  0  0  0  0  0  0
  149.3254  140.3445  157.3073 C   0  0  0  0  0  0  0  0  0  0  0  0
  148.6863  141.0056  158.1302 O   0  0  0  0  0  0  0  0  0  0  0  0
  148.5994  139.2260  156.5265 C   0  0  0  0  0  0  0  0  0  0  0  0
  148.6978  137.8956  157.1676 N   0  0  0  0  0  0  0  0  0  0  0  0
  149.4619  136.8905  156.5259 C   0  0  0  0  0  0  0  0  0  0  0  0
  150.0310  137.1069  155.4548 O   0  0  0  0  0  0  0  0  0  0  0  0
  149.5242  135.6101  157.2196 C   0  0  0  0  0  0  0  0  0  0  0  0
  150.2125  134.5922  156.6751 F   0  0  0  0  0  0  0  0  0  0  0  0
  148.8966  135.4249  158.3996 C   0  0  0  0  0  0  0  0  0  0  0  0
  148.1613  136.4187  159.0243 N   0  0  0  0  0  0  0  0  0  0  0  0
  147.4877  136.2322  160.3700 C   0  0  1  0  0  0  0  0  0  0  0  0
  147.4441  134.7963  160.9001 C   0  0  0  0  0  0  0  0  0  0  0  0
  147.2361  135.0718  162.3710 C   0  0  0  0  0  0  0  0  0  0  0  0
  148.1427  136.2841  162.5838 C   0  0  0  0  0  0  0  0  0  0  0  0
  148.2015  136.9571  161.3265 O   0  0  0  0  0  0  0  0  0  0  0  0
  148.0532  137.6870  158.4103 C   0  0  0  0  0  0  0  0  0  0  0  0
  147.4129  138.5928  158.9493 O   0  0  0  0  0  0  0  0  0  0  0  0
  151.3173  141.6226  157.7535 C   0  0  0  0  0  0  0  0  0  0  0  0
  151.0349  142.9638  157.4085 C   0  0  0  0  0  0  0  0  0  0  0  0
  151.6881  144.0208  158.0701 C   0  0  0  0  0  0  0  0  0  0  0  0
  152.6281  143.7443  159.0804 C   0  0  0  0  0  0  0  0  0  0  0  0
  152.9146  142.4109  159.4290 C   0  0  0  0  0  0  0  0  0  0  0  0
  152.2673  141.3481  158.7676 C   0  0  0  0  0  0  0  0  0  0  0  0
  152.6412  139.6937  159.2635 S   0  0  0  0  0  0  0  0  0  0  0  0
  154.3829  137.0520  157.3002 H   0  0  0  0  0  0  0  0  0  0  0  0
  153.2987  136.8525  158.6757 H   0  0  0  0  0  0  0  0  0  0  0  0
  154.7905  137.7742  158.8506 H   0  0  0  0  0  0  0  0  0  0  0  0
  153.9418  139.4949  157.2819 H   0  0  0  0  0  0  0  0  0  0  0  0
  152.4643  137.9002  155.9954 H   0  0  0  0  0  0  0  0  0  0  0  0
  151.3123  137.9356  157.2955 H   0  0  0  0  0  0  0  0  0  0  0  0
  152.2456  140.4027  155.7280 H   0  0  0  0  0  0  0  0  0  0  0  0
  150.8680  139.4812  155.2649 H   0  0  0  0  0  0  0  0  0  0  0  0
  147.5544  139.5108  156.3998 H   0  0  0  0  0  0  0  0  0  0  0  0
  148.9886  139.1759  155.5100 H   0  0  0  0  0  0  0  0  0  0  0  0
  148.9818  134.4444  158.8378 H   0  0  0  0  0  0  0  0  0  0  0  0
  146.4838  136.6464  160.2531 H   0  0  0  0  0  0  0  0  0  0  0  0
  146.6512  134.2132  160.4313 H   0  0  0  0  0  0  0  0  0  0  0  0
  148.4056  134.2984  160.7799 H   0  0  0  0  0  0  0  0  0  0  0  0
  146.1952  135.3374  162.5612 H   0  0  0  0  0  0  0  0  0  0  0  0
  147.4968  134.2267  163.0088 H   0  0  0  0  0  0  0  0  0  0  0  0
  147.7711  136.9424  163.3697 H   0  0  0  0  0  0  0  0  0  0  0  0
  149.1510  135.9685  162.8546 H   0  0  0  0  0  0  0  0  0  0  0  0
  150.3137  143.1847  156.6348 H   0  0  0  0  0  0  0  0  0  0  0  0
  151.4660  145.0436  157.8035 H   0  0  0  0  0  0  0  0  0  0  0  0
  153.1276  144.5549  159.5898 H   0  0  0  0  0  0  0  0  0  0  0  0
  153.6335  142.2053  160.2087 H   0  0  0  0  0  0  0  0  0  0  0  0
  1  2  1  0  0  0  0
  1 30  1  0  0  0  0
  1 31  1  0  0  0  0
  1 32  1  0  0  0  0
  2 29  1  0  0  0  0
  2  3  1  0  0  0  0
  2 33  1  0  0  0  0
  3  4  1  0  0  0  0
  3 34  1  0  0  0  0
  3 35  1  0  0  0  0
  4  5  1  0  0  0  0
  4 36  1  0  0  0  0
  4 37  1  0  0  0  0
  5  6  1  0  0  0  0
  5 23  1  0  0  0  0
  6  7  2  0  0  0  0
  6  8  1  0  0  0  0
  8  9  1  0  0  0  0
  8 38  1  0  0  0  0
  8 39  1  0  0  0  0
  9 21  1  0  0  0  0
  9 10  1  0  0  0  0
 10 11  2  0  0  0  0
 10 12  1  0  0  0  0
 12 13  1  0  0  0  0
 12 14  2  0  0  0  0
 14 15  1  0  0  0  0
 14 40  1  0  0  0  0
 15 16  1  0  0  0  0
 15 21  1  0  0  0  0
 16 20  1  0  0  0  0
 16 17  1  0  0  0  0
 16 41  1  0  0  0  0
 17 18  1  0  0  0  0
 17 42  1  0  0  0  0
 17 43  1  0  0  0  0
 18 19  1  0  0  0  0
 18 44  1  0  0  0  0
 18 45  1  0  0  0  0
 19 20  1  0  0  0  0
 19 46  1  0  0  0  0
 19 47  1  0  0  0  0
 21 22  2  0  0  0  0
 23 28  2  0  0  0  0
 23 24  1  0  0  0  0
 24 25  2  0  0  0  0
 24 48  1  0  0  0  0
 25 26  1  0  0  0  0
 25 49  1  0  0  0  0
 26 27  2  0  0  0  0
 26 50  1  0  0  0  0
 27 28  1  0  0  0  0
 27 51  1  0  0  0  0
 28 29  1  0  0  0  0
M  END
> <s_m_source_file>
AV-unprocessed.smi

> <i_m_source_file_index>
119

> <i_lp_mmshare_version>
43012

> <i_f3d_flags>
0

> <s_epik_input>
W2NIXTFbY0hdW2NIXVtjSF1jKGMxMilTW0NASF0oW0NIM10pW0NIMl1bQ0gyXU4yQyg9TylbQ0gyXW4zYyg9TyljKEYpW2NIXW4oYzM9TylbQ0BASF00W0NIMl1bQ0gyXVtDSDJdTzQ=

> <s_epik_cmdline>
J2VwaWtfcHl0aG9uJywgJy1waCcsICc3LjAnLCAnLXRuJywgJzgnLCAnLW1hJywgJzIwMCcsICctbWV0YWxfYmluZGluZycsICctaW1hZScsICc8aW5maWxlLm1hZT4nLCAnLW9tYWUnLCAnPG91dGZpbGUubWFlPic=

> <r_lp_tautomer_probability>
1

> <r_epik_Ionization_Penalty>
1.68882e-06

> <r_epik_Ionization_Penalty_Charging>
3.67303e-09

> <r_epik_Ionization_Penalty_Neutral>
1.68515e-06

> <r_epik_State_Penalty>
-0

> <r_epik_Charging_Adjusted_Penalty>
3.67303e-09

> <i_epik_Tot_Q>
0

> <i_epik_Tot_abs_Q>
0

> <r_epik_Metal_State_Penalty>
-0

> <b_epik_Metal_Only>
0

> <s_epik_Chemistry_Notes>
This compound contains an acetal/aminal-like group ( X-CH(R)-Y where X, Y are N, S, or O) that may be acid/base labile, releasing an aldehyde.

> <s_lp_Force_Field>
OPLS_2005

> <r_lp_Energy>
51.7973

> <b_lp_Chiralities_Consistent>
1

> <s_lp_Variant>
AV-unprocessed.smi:119-4

> <Gold.Version>
5.8.1

> <Gold.Id.Protein>
6NUR|6NUR_protein|mol2

> <Gold.PLP.Fitness>
48.7761

> <Gold.PLP.PLP>
-45.5475

> <Gold.PLP.part.hbond>
-2.9052

> <Gold.PLP.part.metal>
0.0000

> <Gold.PLP.part.buried>
-4.7079

> <Gold.PLP.part.nonpolar>
-38.0085

> <Gold.PLP.part.repulsive>
0.1147

> <Gold.PLP.ligand.clash>
0.0000

> <Gold.PLP.ligand.torsion>
0.6454

> <Gold.PLP.Chemscore.Hbond>
1.5020

> <Gold.PLP.Chemscore.CHOScore>
0.0000

> <Gold.PLP.Chemscore.Metal>
0.0000

> <Gold.Chemscore.Hbonds>
donor molecule, donor type, donor heavy atom, donor atom, acceptor molecule, acceptor atom, score
      P1  H  6931  6943       L1    20  0.75
      P1  H  6934  6947       L1    22  0.18

> <Gold.PLP.Chemscore.Internal.Correction>
0.0134

> <Gold.Rescore>
     Score         DG    S(hbond)    S(metal)    S(lipo)     H(rot)  DE(clash)    DE(int)     intcor
     13.65     -18.25       0.88        0.00     117.29       1.53       0.04       4.56       ----

> <Gold.Chemscore.Fitness>
13.6509

> <Gold.Chemscore.DG>
-18.2500

> <Gold.Chemscore.ZeroCoef>
-5.4800

> <Gold.Chemscore.Hbond>
0.8846

> <Gold.Chemscore.Metal>
0.0000

> <Gold.Chemscore.Lipo>
117.2944

> <Gold.Chemscore.Internal_Hbond>
0.0000

> <Gold.Chemscore.DEClash>
0.0398

> <Gold.Chemscore.DEInternal>
4.5593

> <Gold.Chemscore.Rot>
1.5266

> <Gold.Chemscore.Internal.Correction>
   9.000000E+99

> <Gold.Chemscore.Hbonds>
donor molecule, donor type, donor heavy atom, donor atom, acceptor molecule, acceptor atom, score
      P1  H  6931  6943       L1    20  0.09
      P1  H  6934  6947       L1    22  0.18

> <Gold.Chemscore.Hbond.Weighted>
-2.9546

> <Gold.Chemscore.Metal.Weighted>
-0.0000

> <Gold.Chemscore.Lipo.Weighted>
-13.7234

> <Gold.Chemscore.Internal_Hbond.Weighted>
0.0000

> <Gold.Chemscore.DEClash.Weighted>
0.0398

> <Gold.Chemscore.DEInternal.Weighted>
4.5593

> <Gold.Chemscore.Rot.Weighted>
3.9081

> <Gold.Chemscore.Internal.Correction.Weighted>
   9.000000E+99

> <Gold.Protein.RotatedTorsions>
[ 6907 6896 6895 6894 ] final   54.37 input  -60.11 | X-H torsion
[ 7974 7965 7964 7962 ] final  148.01 input  175.53 | X-H torsion
[ 8008 7997 7996 7995 ] final  -86.97 input   59.86 | X-H torsion
[ 10167 10162 10161 10158 ] final   41.90 input  -65.29 | X-H torsion
[ 10718 10713 10712 10709 ] final  -65.87 input   66.30 | X-H torsion
[ 10763 10752 10751 10750 ] final   74.24 input  -60.55 | X-H torsion
[ 11005 11000 10999 10996 ] final  -18.98 input  -57.11 | X-H torsion

> <Gold.Protein.ActiveResidues>
 VAL166  LYS551  ARG553  GLY616  TRP617  ASP618  TYR619  PRO620  LYS621  CYS622 
 ASP623  PHE694  ASN695  SER759  ASP760  ASP761  ALA762  ILE779  LEU786  VAL792 
 PHE793  MET794  SER795  GLU796  ALA797  LYS798  CYS799  TRP800  GLU811  SER814 

> <Gold.Protein.RotatedAtoms>
  152.3432  134.7107  160.0257 H   0  0  0  0  0  0  0  0  0  0  0  0  # atno 6907 bound_to 6896
  151.7485  133.3320  159.3393 H   0  0  0  0  0  0  0  0  0  0  0  0  # atno 6908 bound_to 6896
  150.7492  134.6146  159.6149 H   0  0  0  0  0  0  0  0  0  0  0  0  # atno 6909 bound_to 6896
  144.8547  139.6100  143.5958 H   0  0  0  0  0  0  0  0  0  0  0  0  # atno 7974 bound_to 7965
  154.6579  140.0571  157.0030 H   0  0  0  0  0  0  0  0  0  0  0  0  # atno 8008 bound_to 7997
  155.1272  140.3253  155.4464 H   0  0  0  0  0  0  0  0  0  0  0  0  # atno 8009 bound_to 7997
  156.2605  140.1987  156.6392 H   0  0  0  0  0  0  0  0  0  0  0  0  # atno 8010 bound_to 7997
  140.3598  144.2243  150.6139 H   0  0  0  0  0  0  0  0  0  0  0  0  # atno 10167 bound_to 10162
  156.0645  130.4253  150.1626 H   0  0  0  0  0  0  0  0  0  0  0  0  # atno 10718 bound_to 10713
  153.0574  135.5033  154.8013 H   0  0  0  0  0  0  0  0  0  0  0  0  # atno 10763 bound_to 10752
  154.6828  135.2971  154.9591 H   0  0  0  0  0  0  0  0  0  0  0  0  # atno 10764 bound_to 10752
  154.0371  135.6722  153.4839 H   0  0  0  0  0  0  0  0  0  0  0  0  # atno 10765 bound_to 10752
  140.8322  133.7988  155.9770 H   0  0  0  0  0  0  0  0  0  0  0  0  # atno 11005 bound_to 11000
  146.2813  139.6885  142.9227 LP  0  0  0  0  0  0  0  0  0  0  0  0  # atno 17320 bound_to 7965
  145.4430  141.0423  143.2847 LP  0  0  0  0  0  0  0  0  0  0  0  0  # atno 17321 bound_to 7965
  140.5138  143.2283  151.8494 LP  0  0  0  0  0  0  0  0  0  0  0  0  # atno 17342 bound_to 10162
  139.4815  144.4918  151.9175 LP  0  0  0  0  0  0  0  0  0  0  0  0  # atno 17343 bound_to 10162
  156.9689  130.9828  151.3463 LP  0  0  0  0  0  0  0  0  0  0  0  0  # atno 17370 bound_to 10713
  157.5677  130.8289  149.8349 LP  0  0  0  0  0  0  0  0  0  0  0  0  # atno 17371 bound_to 10713
  140.8986  134.2406  157.5054 LP  0  0  0  0  0  0  0  0  0  0  0  0  # atno 17394 bound_to 11000
  139.8704  134.9696  156.4671 LP  0  0  0  0  0  0  0  0  0  0  0  0  # atno 17395 bound_to 11000

$$$$
