AV-unprocessed.smi:240|AV-procd|sdf|1834|dock7
  -GOLD-   2262020443D 1   1.00000     0.00000
 Structure written by MMmdl.
 55 59  0  0  0  0  0  0  0  0  1 V2000
  148.4548  142.8049  157.5191 O   0  0  0  0  0  0  0  0  0  0  0  0
  149.5081  142.3316  158.3331 C   0  0  2  0  0  0  0  0  0  0  0  0
  150.1893  143.5224  159.0341 C   0  0  0  0  0  0  0  0  0  0  0  0
  151.6946  143.2916  158.8879 C   0  0  0  0  0  0  0  0  0  0  0  0
  151.8255  142.5487  157.5610 C   0  0  0  0  0  0  0  0  0  0  0  0
  150.6331  141.5833  157.5712 C   0  0  2  0  0  0  0  0  0  0  0  0
  150.3060  140.8759  156.2171 C   0  0  2  0  0  0  0  0  0  0  0  0
  149.9025  141.8418  155.0717 C   0  0  0  0  0  0  0  0  0  0  0  0
  149.6441  141.1143  153.8764 O   0  0  0  0  0  0  0  0  0  0  0  0
  148.5704  140.1974  154.0336 C   0  0  0  0  0  0  0  0  0  0  0  0
  148.9591  139.1584  155.0927 C   0  0  0  0  0  0  0  0  0  0  0  0
  149.2943  139.8172  156.3494 N   0  0  0  0  0  0  0  0  0  0  0  0
  149.4673  138.9067  157.3341 C   0  0  0  0  0  0  0  0  0  0  0  0
  150.7284  138.7471  157.8049 N   0  0  0  0  0  0  0  0  0  0  0  0
  150.9719  137.8622  158.7759 C   0  0  0  0  0  0  0  0  0  0  0  0
  150.1138  137.0577  159.4067 N   0  0  0  0  0  0  0  0  0  0  0  0
  148.8411  137.2282  158.9464 C   0  0  0  0  0  0  0  0  0  0  0  0
  148.4312  138.1239  157.9190 C   0  0  0  0  0  0  0  0  0  0  0  0
  147.0600  138.0194  157.7198 N   0  0  0  0  0  0  0  0  0  0  0  0
  146.6824  137.1089  158.5748 C   0  0  0  0  0  0  0  0  0  0  0  0
  147.6857  136.5879  159.3609 N   0  0  0  0  0  0  0  0  0  0  0  0
  147.5496  135.5702  160.3928 C   0  0  0  0  0  0  0  0  0  0  0  0
  146.8260  136.0673  161.6686 C   0  0  2  0  0  0  0  0  0  0  0  0
  147.5860  137.1091  162.2532 O   0  0  0  0  0  0  0  0  0  0  0  0
  146.6312  134.9545  162.7014 C   0  0  0  0  0  0  0  0  0  0  0  0
  145.1311  134.6879  162.6662 C   0  0  0  0  0  0  0  0  0  0  0  0
  144.5930  135.9744  162.4193 O   0  0  0  0  0  0  0  0  0  0  0  0
  145.3924  136.5726  161.4095 C   0  0  0  0  0  0  0  0  0  0  0  0
  148.7894  143.5026  156.9757 H   0  0  0  0  0  0  0  0  0  0  0  0
  149.0718  141.6628  159.0762 H   0  0  0  0  0  0  0  0  0  0  0  0
  149.9294  144.4592  158.5380 H   0  0  0  0  0  0  0  0  0  0  0  0
  149.8874  143.6167  160.0776 H   0  0  0  0  0  0  0  0  0  0  0  0
  152.2653  144.2206  158.9076 H   0  0  0  0  0  0  0  0  0  0  0  0
  152.0544  142.6604  159.7018 H   0  0  0  0  0  0  0  0  0  0  0  0
  151.7471  143.2711  156.7496 H   0  0  0  0  0  0  0  0  0  0  0  0
  152.7814  142.0334  157.4628 H   0  0  0  0  0  0  0  0  0  0  0  0
  150.9511  140.7933  158.2533 H   0  0  0  0  0  0  0  0  0  0  0  0
  151.2262  140.3967  155.8828 H   0  0  0  0  0  0  0  0  0  0  0  0
  149.0290  142.4429  155.3209 H   0  0  0  0  0  0  0  0  0  0  0  0
  150.7105  142.5376  154.8507 H   0  0  0  0  0  0  0  0  0  0  0  0
  147.6575  140.7244  154.3158 H   0  0  0  0  0  0  0  0  0  0  0  0
  148.3770  139.7075  153.0793 H   0  0  0  0  0  0  0  0  0  0  0  0
  148.1339  138.4607  155.2428 H   0  0  0  0  0  0  0  0  0  0  0  0
  149.8143  138.5765  154.7456 H   0  0  0  0  0  0  0  0  0  0  0  0
  152.0015  137.7885  159.0934 H   0  0  0  0  0  0  0  0  0  0  0  0
  145.6525  136.7936  158.6564 H   0  0  0  0  0  0  0  0  0  0  0  0
  147.0128  134.7226  159.9643 H   0  0  0  0  0  0  0  0  0  0  0  0
  148.5457  135.2035  160.6439 H   0  0  0  0  0  0  0  0  0  0  0  0
  147.1775  137.3561  163.0687 H   0  0  0  0  0  0  0  0  0  0  0  0
  147.2154  134.0579  162.4914 H   0  0  0  0  0  0  0  0  0  0  0  0
  146.9065  135.2949  163.7011 H   0  0  0  0  0  0  0  0  0  0  0  0
  144.8706  134.0150  161.8474 H   0  0  0  0  0  0  0  0  0  0  0  0
  144.7553  134.2641  163.5975 H   0  0  0  0  0  0  0  0  0  0  0  0
  145.3021  137.6595  161.4190 H   0  0  0  0  0  0  0  0  0  0  0  0
  145.0188  136.2194  160.4480 H   0  0  0  0  0  0  0  0  0  0  0  0
  1  2  1  0  0  0  0
  1 29  1  0  0  0  0
  2  6  1  0  0  0  0
  2  3  1  0  0  0  0
  2 30  1  0  0  0  0
  3  4  1  0  0  0  0
  3 31  1  0  0  0  0
  3 32  1  0  0  0  0
  4  5  1  0  0  0  0
  4 33  1  0  0  0  0
  4 34  1  0  0  0  0
  5  6  1  0  0  0  0
  5 35  1  0  0  0  0
  5 36  1  0  0  0  0
  6  7  1  0  0  0  0
  6 37  1  0  0  0  0
  7 12  1  0  0  0  0
  7  8  1  0  0  0  0
  7 38  1  0  0  0  0
  8  9  1  0  0  0  0
  8 39  1  0  0  0  0
  8 40  1  0  0  0  0
  9 10  1  0  0  0  0
 10 11  1  0  0  0  0
 10 41  1  0  0  0  0
 10 42  1  0  0  0  0
 11 12  1  0  0  0  0
 11 43  1  0  0  0  0
 11 44  1  0  0  0  0
 12 13  1  0  0  0  0
 13 18  1  0  0  0  0
 13 14  2  0  0  0  0
 14 15  1  0  0  0  0
 15 16  2  0  0  0  0
 15 45  1  0  0  0  0
 16 17  1  0  0  0  0
 17 21  1  0  0  0  0
 17 18  2  0  0  0  0
 18 19  1  0  0  0  0
 19 20  2  0  0  0  0
 20 21  1  0  0  0  0
 20 46  1  0  0  0  0
 21 22  1  0  0  0  0
 22 23  1  0  0  0  0
 22 47  1  0  0  0  0
 22 48  1  0  0  0  0
 23 28  1  0  0  0  0
 23 24  1  0  0  0  0
 23 25  1  0  0  0  0
 24 49  1  0  0  0  0
 25 26  1  0  0  0  0
 25 50  1  0  0  0  0
 25 51  1  0  0  0  0
 26 27  1  0  0  0  0
 26 52  1  0  0  0  0
 26 53  1  0  0  0  0
 27 28  1  0  0  0  0
 28 54  1  0  0  0  0
 28 55  1  0  0  0  0
M  END
> <s_m_source_file>
AV-unprocessed.smi

> <i_m_source_file_index>
240

> <i_lp_mmshare_version>
43012

> <i_f3d_flags>
0

> <s_epik_input>
W09IXVtDQEBIXTFbQ0gyXVtDSDJdW0NIMl1bQ0BIXTFbQ0BASF0yW0NIMl1PW0NIMl1bQ0gyXU4yYyhuW2NIXW4zKWMoYzM0KW5bY0hdbjRbQ0gyXVtDQEBdNShbT0hdKVtDSDJdW0NIMl1PW0NIMl01

> <s_epik_cmdline>
J2VwaWtfcHl0aG9uJywgJy1waCcsICc3LjAnLCAnLXRuJywgJzgnLCAnLW1hJywgJzIwMCcsICctbWV0YWxfYmluZGluZycsICctaW1hZScsICc8aW5maWxlLm1hZT4nLCAnLW9tYWUnLCAnPG91dGZpbGUubWFlPic=

> <r_lp_tautomer_probability>
1

> <r_epik_Ionization_Penalty>
0.000130618

> <r_epik_Ionization_Penalty_Charging>
0

> <r_epik_Ionization_Penalty_Neutral>
0.000130618

> <r_epik_State_Penalty>
-0

> <r_epik_Charging_Adjusted_Penalty>
0

> <i_epik_Tot_Q>
0

> <i_epik_Tot_abs_Q>
0

> <r_epik_Metal_State_Penalty>
-0

> <b_epik_Metal_Only>
0

> <s_lp_Force_Field>
OPLS_2005

> <r_lp_Energy>
66.7643

> <b_lp_Chiralities_Consistent>
1

> <s_lp_Variant>
AV-unprocessed.smi:240-11

> <Gold.Version>
5.8.1

> <Gold.Id.Protein>
6NUR|6NUR_protein|mol2

> <Gold.PLP.Fitness>
48.6374

> <Gold.PLP.PLP>
-38.4705

> <Gold.PLP.part.hbond>
-5.1058

> <Gold.PLP.part.metal>
0.0000

> <Gold.PLP.part.buried>
-3.7813

> <Gold.PLP.part.nonpolar>
-29.9350

> <Gold.PLP.part.repulsive>
1.2472

> <Gold.PLP.ligand.clash>
0.0000

> <Gold.PLP.ligand.torsion>
0.5476

> <Gold.PLP.Chemscore.Hbond>
3.6728

> <Gold.PLP.Chemscore.CHOScore>
0.0000

> <Gold.PLP.Chemscore.Metal>
0.0000

> <Gold.Chemscore.Hbonds>
donor molecule, donor type, donor heavy atom, donor atom, acceptor molecule, acceptor atom, score
      L1  H     1    29       P1  8028  1.00
      P1  H  6896  6909       L1    16  0.44
      P1  H  6931  6943       L1    24  0.94
      P1  H  6934  6947       L1    24  0.13
      P1  H  7989  7998       L1     9  0.23
      P1  H  8011  8017       L1     9  0.86

> <Gold.PLP.Chemscore.Internal.Correction>
0.2435

> <Gold.Rescore>
     Score         DG    S(hbond)    S(metal)    S(lipo)     H(rot)  DE(clash)    DE(int)     intcor
     12.59     -15.96       2.05        0.00      96.73       3.00       0.58       2.79       ----

> <Gold.Chemscore.Fitness>
12.5938

> <Gold.Chemscore.DG>
-15.9610

> <Gold.Chemscore.ZeroCoef>
-5.4800

> <Gold.Chemscore.Hbond>
2.0518

> <Gold.Chemscore.Metal>
0.0000

> <Gold.Chemscore.Lipo>
96.7336

> <Gold.Chemscore.Internal_Hbond>
0.0000

> <Gold.Chemscore.DEClash>
0.5789

> <Gold.Chemscore.DEInternal>
2.7883

> <Gold.Chemscore.Rot>
3.0039

> <Gold.Chemscore.Internal.Correction>
   9.000000E+99

> <Gold.Chemscore.Hbonds>
donor molecule, donor type, donor heavy atom, donor atom, acceptor molecule, acceptor atom, score
      L1  H     1    29       P1  8028  0.45
      P1  H  6896  6909       L1    16  0.32
      P1  H  6931  6943       L1    24  0.59
      P1  H  6934  6947       L1    24  0.02
      P1  H  7989  7998       L1     9  0.02
      P1  H  8011  8017       L1     9  0.48

> <Gold.Chemscore.Hbond.Weighted>
-6.8531

> <Gold.Chemscore.Metal.Weighted>
-0.0000

> <Gold.Chemscore.Lipo.Weighted>
-11.3178

> <Gold.Chemscore.Internal_Hbond.Weighted>
0.0000

> <Gold.Chemscore.DEClash.Weighted>
0.5789

> <Gold.Chemscore.DEInternal.Weighted>
2.7883

> <Gold.Chemscore.Rot.Weighted>
7.6899

> <Gold.Chemscore.Internal.Correction.Weighted>
   9.000000E+99

> <Gold.Protein.RotatedTorsions>
[ 6907 6896 6895 6894 ] final   90.24 input  -60.11 | X-H torsion
[ 7974 7965 7964 7962 ] final   71.37 input  175.53 | X-H torsion
[ 8008 7997 7996 7995 ] final  -21.68 input   59.86 | X-H torsion
[ 10167 10162 10161 10158 ] final  -93.99 input  -65.29 | X-H torsion
[ 10718 10713 10712 10709 ] final  136.27 input   66.30 | X-H torsion
[ 10763 10752 10751 10750 ] final   48.25 input  -60.55 | X-H torsion
[ 11005 11000 10999 10996 ] final   17.90 input  -57.11 | X-H torsion

> <Gold.Protein.ActiveResidues>
 VAL166  LYS551  ARG553  GLY616  TRP617  ASP618  TYR619  PRO620  LYS621  CYS622 
 ASP623  PHE694  ASN695  SER759  ASP760  ASP761  ALA762  ILE779  LEU786  VAL792 
 PHE793  MET794  SER795  GLU796  ALA797  LYS798  CYS799  TRP800  GLU811  SER814 

> <Gold.Protein.RotatedAtoms>
  152.5443  134.1843  159.8647 H   0  0  0  0  0  0  0  0  0  0  0  0  # atno 6907 bound_to 6896
  151.1843  133.4699  159.2602 H   0  0  0  0  0  0  0  0  0  0  0  0  # atno 6908 bound_to 6896
  151.1147  135.0058  159.8566 H   0  0  0  0  0  0  0  0  0  0  0  0  # atno 6909 bound_to 6896
  145.7667  139.2824  143.1345 H   0  0  0  0  0  0  0  0  0  0  0  0  # atno 7974 bound_to 7965
  154.4691  140.2028  156.0042 H   0  0  0  0  0  0  0  0  0  0  0  0  # atno 8008 bound_to 7997
  156.0979  140.3248  155.7873 H   0  0  0  0  0  0  0  0  0  0  0  0  # atno 8009 bound_to 7997
  155.4847  140.0541  157.2953 H   0  0  0  0  0  0  0  0  0  0  0  0  # atno 8010 bound_to 7997
  140.3190  143.3060  152.0066 H   0  0  0  0  0  0  0  0  0  0  0  0  # atno 10167 bound_to 10162
  157.4484  131.1064  151.0062 H   0  0  0  0  0  0  0  0  0  0  0  0  # atno 10718 bound_to 10713
  152.9793  135.5950  154.3895 H   0  0  0  0  0  0  0  0  0  0  0  0  # atno 10763 bound_to 10752
  154.3552  135.2767  155.2352 H   0  0  0  0  0  0  0  0  0  0  0  0  # atno 10764 bound_to 10752
  154.4374  135.6021  153.6162 H   0  0  0  0  0  0  0  0  0  0  0  0  # atno 10765 bound_to 10752
  140.4308  134.1422  155.7680 H   0  0  0  0  0  0  0  0  0  0  0  0  # atno 11005 bound_to 11000
  146.0210  140.8347  142.9923 LP  0  0  0  0  0  0  0  0  0  0  0  0  # atno 17320 bound_to 7965
  144.6820  140.2629  143.7316 LP  0  0  0  0  0  0  0  0  0  0  0  0  # atno 17321 bound_to 7965
  139.4878  144.6325  151.7040 LP  0  0  0  0  0  0  0  0  0  0  0  0  # atno 17342 bound_to 10162
  140.5500  144.0440  150.6123 LP  0  0  0  0  0  0  0  0  0  0  0  0  # atno 17343 bound_to 10162
  157.0901  130.5939  149.5438 LP  0  0  0  0  0  0  0  0  0  0  0  0  # atno 17370 bound_to 10713
  155.9977  130.5049  150.7543 LP  0  0  0  0  0  0  0  0  0  0  0  0  # atno 17371 bound_to 10713
  141.1746  133.8540  157.1462 LP  0  0  0  0  0  0  0  0  0  0  0  0  # atno 17394 bound_to 11000
  140.0135  134.9977  157.0446 LP  0  0  0  0  0  0  0  0  0  0  0  0  # atno 17395 bound_to 11000

$$$$
