#       Name:                AV-unprocessed.smi:782
#       Creating user name   scv26
#       Creation time:       Fri Mar 27 01:13:59 2020


#       File generated by GOLD software.
#

@<TRIPOS>MOLECULE
AV-unprocessed.smi:782
    46    46     1
SMALL
NO_CHARGES


@<TRIPOS>ATOM
      1 ****        -2.3246  -5.8014   3.0101 C.3            1 S1                 0.0000
      2 ****        -3.1946  -4.7107   2.3700 C.3            1 S1                 0.0000
      3 ****        -2.8215  -4.4018   0.9088 C.3            1 S1                 0.0000
      4 ****        -1.4491  -3.9237   0.7761 N.am           1 S1                 0.0000
      5 ****        -1.0437  -2.6650   1.0026 C.2            1 S1                 0.0000
      6 ****        -1.8109  -1.7617   1.3396 O.2            1 S1                 0.0000
      7 ****         0.4581  -2.4087   0.8244 C.3            1 S1                 0.0000
      8 ****         0.7970  -0.9951   0.8391 N.pl3          1 S1                 0.0000
      9 ****         0.7604  -0.0987  -0.2111 C.2            1 S1                 0.0000
     10 ****         1.1661   1.0977   0.3090 C.2            1 S1                 0.0000
     11 ****         1.3119   2.3555  -0.3293 N.am           1 S1                 0.0000
     12 ****         1.1362   2.6459  -1.6329 C.2            1 S1                 0.0000
     13 ****         0.8115   1.8053  -2.4727 O.2            1 S1                 0.0000
     14 ****         1.3658   4.1102  -2.0840 C.3            1 S1                 0.0000
     15 ****         1.6861   5.0562  -0.9019 C.3            1 S1                 0.0000
     16 ****         0.0938   4.6178  -2.7948 C.3            1 S1                 0.0000
     17 ****         2.5426   4.1381  -3.0805 C.3            1 S1                 0.0000
     18 ****         1.4277   0.8536   1.6823 C.2            1 S1                 0.0000
     19 ****         1.2072  -0.4143   1.9946 N.2            1 S1                 0.0000
     20 ****        -2.6572  -6.0144   4.0261 H              1 S1                 0.0000
     21 ****        -1.2787  -5.4984   3.0636 H              1 S1                 0.0000
     22 ****        -2.3771  -6.7304   2.4419 H              1 S1                 0.0000
     23 ****        -4.2381  -5.0245   2.4078 H              1 S1                 0.0000
     24 ****        -3.1328  -3.8007   2.9682 H              1 S1                 0.0000
     25 ****        -2.9281  -5.3016   0.3025 H              1 S1                 0.0000
     26 ****        -3.5136  -3.6687   0.4913 H              1 S1                 0.0000
     27 ****        -0.7546  -4.6043   0.5044 H              1 S1                 0.0000
     28 ****         1.0090  -2.9193   1.6157 H              1 S1                 0.0000
     29 ****         0.7910  -2.8322  -0.1241 H              1 S1                 0.0000
     30 ****         0.4546  -0.3929  -1.2041 H              1 S1                 0.0000
     31 ****         1.5916   3.1207   0.2673 H              1 S1                 0.0000
     32 ****         1.8300   6.0801  -1.2489 H              1 S1                 0.0000
     33 ****         2.6011   4.7647  -0.3841 H              1 S1                 0.0000
     34 ****         0.8773   5.0779  -0.1700 H              1 S1                 0.0000
     35 ****        -0.7699   4.5983  -2.1286 H              1 S1                 0.0000
     36 ****        -0.1523   4.0160  -3.6709 H              1 S1                 0.0000
     37 ****         0.2172   5.6458  -3.1371 H              1 S1                 0.0000
     38 ****         2.7352   5.1510  -3.4355 H              1 S1                 0.0000
     39 ****         2.3472   3.5208  -3.9586 H              1 S1                 0.0000
     40 ****         3.4626   3.7744  -2.6207 H              1 S1                 0.0000
     41 ****         1.7662   1.5377   2.4463 H              1 S1                 0.0000
     42 ****        -2.7858  -1.9512   1.4561 LP             1 S1                 0.0000
     43 ****        -1.4586  -0.8390   1.4965 LP             1 S1                 0.0000
     44 ****         0.6654   0.8549  -2.1983 LP             1 S1                 0.0000
     45 ****         0.6939   2.0733  -3.4290 LP             1 S1                 0.0000
     46 ****         1.3188  -0.8492   2.8881 LP             1 S1                 0.0000
@<TRIPOS>BOND
    1    1    2 1     
    2    1   20 1     
    3    1   21 1     
    4    1   22 1     
    5    2    3 1     
    6    2   23 1     
    7    2   24 1     
    8    3    4 1     
    9    3   25 1     
   10    3   26 1     
   11    4    5 am    
   12    4   27 1     
   13    5    6 2     
   14    5    7 1     
   15    7    8 1     
   16    7   28 1     
   17    7   29 1     
   18    8   19 1     
   19    8    9 1     
   20    9   10 2     
   21    9   30 1     
   22   10   11 1     
   23   10   18 1     
   24   11   12 am    
   25   11   31 1     
   26   12   13 2     
   27   12   14 1     
   28   14   15 1     
   29   14   16 1     
   30   14   17 1     
   31   15   32 1     
   32   15   33 1     
   33   15   34 1     
   34   16   35 1     
   35   16   36 1     
   36   16   37 1     
   37   17   38 1     
   38   17   39 1     
   39   17   40 1     
   40   18   19 2     
   41   18   41 1     
   42    6   42 1     
   43    6   43 1     
   44   13   44 1     
   45   13   45 1     
   46   19   46 1     
@<TRIPOS>SUBSTRUCTURE
      1 S1             1
@<TRIPOS>SET
LONE_PAIRS      STATIC     ATOMS    <user>   **** ""
5 42 43 44 45 46
DONOR_HYDROGENS      STATIC     ATOMS    <user>   **** ""
2 27 31
ATOM$BLUE        STATIC     ATOMS    COLORGROUP SYSTEM
5 42 43 44 45 46
ATOM$RED        STATIC     ATOMS    COLORGROUP SYSTEM
2 27 31
