AV-unprocessed.smi:1155|AV-procd|sdf|4904|dock1
  -GOLD-   22720 3483D 1   1.00000     0.00000
 Structure written by MMmdl.
 38 40  0  0  0  0  0  0  0  0  1 V2000
  146.2565  134.0873  151.0133 C   0  0  0  0  0  0  0  0  0  0  0  0
  145.2407  134.9288  151.6513 N   0  0  0  0  0  0  0  0  0  0  0  0
  145.6172  136.2270  152.0473 C   0  0  0  0  0  0  0  0  0  0  0  0
  144.7542  137.0780  152.6451 C   0  0  0  0  0  0  0  0  0  0  0  0
  145.0532  138.3872  153.0510 N   0  0  0  0  0  0  0  0  0  0  0  0
  146.0479  138.8258  153.8451 C   0  0  0  0  0  0  0  0  0  0  0  0
  146.8749  138.1180  154.4192 O   0  0  0  0  0  0  0  0  0  0  0  0
  146.0170  140.1634  153.9510 N   0  0  0  0  0  0  0  0  0  0  0  0
  146.9161  140.9996  154.7444 C   0  0  0  0  0  0  0  0  0  0  0  0
  146.4469  142.4391  154.8986 C   0  0  0  0  0  0  0  0  0  0  0  0
  144.9835  142.8001  154.8052 C   0  0  0  0  0  0  0  0  0  0  0  0
  145.9408  143.2274  153.7150 C   0  0  0  0  0  0  0  0  0  0  0  0
  148.3651  140.9468  154.2840 C   0  0  0  0  0  0  0  0  0  0  0  0
  149.2725  139.8116  154.6914 C   0  0  0  0  0  0  0  0  0  0  0  0
  149.5026  141.2003  155.2448 C   0  0  0  0  0  0  0  0  0  0  0  0
  143.4042  136.5999  152.8551 C   0  0  0  0  0  0  0  0  0  0  0  0
  143.0347  135.3615  152.4748 C   0  0  0  0  0  0  0  0  0  0  0  0
  143.9780  134.4442  151.8314 C   0  0  0  0  0  0  0  0  0  0  0  0
  143.6534  133.3111  151.4752 O   0  0  0  0  0  0  0  0  0  0  0  0
  147.2393  134.5589  150.9830 H   0  0  0  0  0  0  0  0  0  0  0  0
  145.9711  133.8594  149.9853 H   0  0  0  0  0  0  0  0  0  0  0  0
  146.3694  133.1449  151.5512 H   0  0  0  0  0  0  0  0  0  0  0  0
  146.6419  136.4680  151.8138 H   0  0  0  0  0  0  0  0  0  0  0  0
  144.4246  139.0923  152.6949 H   0  0  0  0  0  0  0  0  0  0  0  0
  145.2955  140.6517  153.4412 H   0  0  0  0  0  0  0  0  0  0  0  0
  146.8881  140.5545  155.7400 H   0  0  0  0  0  0  0  0  0  0  0  0
  147.0142  143.0070  155.6336 H   0  0  0  0  0  0  0  0  0  0  0  0
  144.2761  142.0086  154.5670 H   0  0  0  0  0  0  0  0  0  0  0  0
  144.6132  143.5689  155.4805 H   0  0  0  0  0  0  0  0  0  0  0  0
  146.2082  144.2809  153.6633 H   0  0  0  0  0  0  0  0  0  0  0  0
  145.8706  142.7162  152.7571 H   0  0  0  0  0  0  0  0  0  0  0  0
  148.5165  141.3281  153.2758 H   0  0  0  0  0  0  0  0  0  0  0  0
  148.8716  139.0603  155.3690 H   0  0  0  0  0  0  0  0  0  0  0  0
  149.9755  139.4419  153.9479 H   0  0  0  0  0  0  0  0  0  0  0  0
  150.3609  141.7551  154.8715 H   0  0  0  0  0  0  0  0  0  0  0  0
  149.2592  141.3666  156.2923 H   0  0  0  0  0  0  0  0  0  0  0  0
  142.6768  137.2435  153.3280 H   0  0  0  0  0  0  0  0  0  0  0  0
  142.0199  135.0350  152.6481 H   0  0  0  0  0  0  0  0  0  0  0  0
  1  2  1  0  0  0  0
  1 20  1  0  0  0  0
  1 21  1  0  0  0  0
  1 22  1  0  0  0  0
  2 18  1  0  0  0  0
  2  3  1  0  0  0  0
  3  4  2  0  0  0  0
  3 23  1  0  0  0  0
  4  5  1  0  0  0  0
  4 16  1  0  0  0  0
  5  6  1  0  0  0  0
  5 24  1  0  0  0  0
  6  7  2  0  0  0  0
  6  8  1  0  0  0  0
  8  9  1  0  0  0  0
  8 25  1  0  0  0  0
  9 10  1  0  0  0  0
  9 13  1  0  0  0  0
  9 26  1  0  0  0  0
 10 12  1  0  0  0  0
 10 11  1  0  0  0  0
 10 27  1  0  0  0  0
 11 12  1  0  0  0  0
 11 28  1  0  0  0  0
 11 29  1  0  0  0  0
 12 30  1  0  0  0  0
 12 31  1  0  0  0  0
 13 15  1  0  0  0  0
 13 14  1  0  0  0  0
 13 32  1  0  0  0  0
 14 15  1  0  0  0  0
 14 33  1  0  0  0  0
 14 34  1  0  0  0  0
 15 35  1  0  0  0  0
 15 36  1  0  0  0  0
 16 17  2  0  0  0  0
 16 37  1  0  0  0  0
 17 18  1  0  0  0  0
 17 38  1  0  0  0  0
 18 19  2  0  0  0  0
M  END
> <s_m_source_file>
AV-unprocessed.smi

> <i_m_source_file_index>
1155

> <i_lp_mmshare_version>
43012

> <i_f3d_flags>
0

> <s_epik_input>
Tz1jMVtjSF1bY0hdYyhbY0hdbjFbQ0gzXSlbTkhdQyg9TylbTkhdW0NIXShbQ0hdMltDSDJdW0NIMl0yKVtDSF0zW0NIMl1bQ0gyXTM=

> <s_epik_cmdline>
J2VwaWtfcHl0aG9uJywgJy1waCcsICc3LjAnLCAnLXRuJywgJzgnLCAnLW1hJywgJzIwMCcsICctbWV0YWxfYmluZGluZycsICctaW1hZScsICc8aW5maWxlLm1hZT4nLCAnLW9tYWUnLCAnPG91dGZpbGUubWFlPic=

> <r_lp_tautomer_probability>
1

> <r_epik_Ionization_Penalty>
2.79104e-05

> <r_epik_Ionization_Penalty_Charging>
6.05378e-06

> <r_epik_Ionization_Penalty_Neutral>
2.18566e-05

> <r_epik_State_Penalty>
-0

> <r_epik_Charging_Adjusted_Penalty>
6.05378e-06

> <i_epik_Tot_Q>
0

> <i_epik_Tot_abs_Q>
0

> <r_epik_Metal_State_Penalty>
-0

> <b_epik_Metal_Only>
0

> <s_lp_Force_Field>
OPLS_2005

> <r_lp_Energy>
36.9075

> <b_lp_Chiralities_Consistent>
1

> <s_lp_Variant>
AV-unprocessed.smi:1155-1

> <Gold.Version>
5.8.1

> <Gold.Id.Protein>
6NUR|6NUR_protein|mol2

> <Gold.PLP.Fitness>
43.4499

> <Gold.PLP.PLP>
-35.7025

> <Gold.PLP.part.hbond>
-2.0000

> <Gold.PLP.part.metal>
0.0000

> <Gold.PLP.part.buried>
-4.8300

> <Gold.PLP.part.nonpolar>
-28.9017

> <Gold.PLP.part.repulsive>
0.3117

> <Gold.PLP.ligand.clash>
0.0000

> <Gold.PLP.ligand.torsion>
1.6300

> <Gold.PLP.Chemscore.Hbond>
1.9440

> <Gold.PLP.Chemscore.CHOScore>
1.0000

> <Gold.PLP.Chemscore.Metal>
0.0000

> <Gold.Chemscore.Hbonds>
donor molecule, donor type, donor heavy atom, donor atom, acceptor molecule, acceptor atom, score
      L1  H     5    24       P1 10175  1.00
      L1  H     8    25       P1 10175  0.93
      L1  C     3    23       P1  7948  1.00

> <Gold.PLP.Chemscore.Internal.Correction>
2.1754

> <Gold.Rescore>
     Score         DG    S(hbond)    S(metal)    S(lipo)     H(rot)  DE(clash)    DE(int)     intcor
     14.91     -16.51       1.96        0.00      67.91       1.35       0.03       1.57       ----

> <Gold.Chemscore.Fitness>
14.9099

> <Gold.Chemscore.DG>
-16.5119

> <Gold.Chemscore.ZeroCoef>
-5.4800

> <Gold.Chemscore.Hbond>
1.9588

> <Gold.Chemscore.Metal>
0.0000

> <Gold.Chemscore.Lipo>
67.9106

> <Gold.Chemscore.Internal_Hbond>
0.0000

> <Gold.Chemscore.DEClash>
0.0310

> <Gold.Chemscore.DEInternal>
1.5711

> <Gold.Chemscore.Rot>
1.3500

> <Gold.Chemscore.Internal.Correction>
   9.000000E+99

> <Gold.Chemscore.Hbonds>
donor molecule, donor type, donor heavy atom, donor atom, acceptor molecule, acceptor atom, score
      L1  H     5    24       P1 10175  0.97
      L1  H     8    25       P1 10175  0.83

> <Gold.Chemscore.Hbond.Weighted>
-6.5424

> <Gold.Chemscore.Metal.Weighted>
-0.0000

> <Gold.Chemscore.Lipo.Weighted>
-7.9455

> <Gold.Chemscore.Internal_Hbond.Weighted>
0.0000

> <Gold.Chemscore.DEClash.Weighted>
0.0310

> <Gold.Chemscore.DEInternal.Weighted>
1.5711

> <Gold.Chemscore.Rot.Weighted>
3.4560

> <Gold.Chemscore.Internal.Correction.Weighted>
   9.000000E+99

> <Gold.Protein.RotatedTorsions>
[ 6907 6896 6895 6894 ] final   98.31 input  -60.11 | X-H torsion
[ 7974 7965 7964 7962 ] final   46.99 input  175.53 | X-H torsion
[ 8008 7997 7996 7995 ] final   91.61 input   59.86 | X-H torsion
[ 10167 10162 10161 10158 ] final -137.21 input  -65.29 | X-H torsion
[ 10718 10713 10712 10709 ] final   51.44 input   66.30 | X-H torsion
[ 10763 10752 10751 10750 ] final -138.52 input  -60.55 | X-H torsion
[ 11005 11000 10999 10996 ] final   25.53 input  -57.11 | X-H torsion

> <Gold.Protein.ActiveResidues>
 VAL166  LYS551  ARG553  GLY616  TRP617  ASP618  TYR619  PRO620  LYS621  CYS622 
 ASP623  PHE694  ASN695  SER759  ASP760  ASP761  ALA762  ILE779  LEU786  VAL792 
 PHE793  MET794  SER795  GLU796  ALA797  LYS798  CYS799  TRP800  GLU811  SER814 

> <Gold.Protein.RotatedAtoms>
  152.5411  134.0599  159.8147 H   0  0  0  0  0  0  0  0  0  0  0  0  # atno 6907 bound_to 6896
  151.0729  133.5444  159.2633 H   0  0  0  0  0  0  0  0  0  0  0  0  # atno 6908 bound_to 6896
  151.2301  135.0559  159.9038 H   0  0  0  0  0  0  0  0  0  0  0  0  # atno 6909 bound_to 6896
  146.0339  139.4796  142.9820 H   0  0  0  0  0  0  0  0  0  0  0  0  # atno 7974 bound_to 7965
  156.0258  140.3335  155.7087 H   0  0  0  0  0  0  0  0  0  0  0  0  # atno 8008 bound_to 7997
  155.5957  140.0650  157.2764 H   0  0  0  0  0  0  0  0  0  0  0  0  # atno 8009 bound_to 7997
  154.4333  140.1819  156.1108 H   0  0  0  0  0  0  0  0  0  0  0  0  # atno 8010 bound_to 7997
  139.8600  143.7089  152.2651 H   0  0  0  0  0  0  0  0  0  0  0  0  # atno 10167 bound_to 10162
  157.4981  130.8419  149.8282 H   0  0  0  0  0  0  0  0  0  0  0  0  # atno 10718 bound_to 10713
  154.8635  135.3610  154.5397 H   0  0  0  0  0  0  0  0  0  0  0  0  # atno 10763 bound_to 10752
  153.6020  135.7012  153.5385 H   0  0  0  0  0  0  0  0  0  0  0  0  # atno 10764 bound_to 10752
  153.3283  135.4131  155.1435 H   0  0  0  0  0  0  0  0  0  0  0  0  # atno 10765 bound_to 10752
  140.3468  134.2272  155.7684 H   0  0  0  0  0  0  0  0  0  0  0  0  # atno 11005 bound_to 11000
  145.6996  141.0140  143.1511 LP  0  0  0  0  0  0  0  0  0  0  0  0  # atno 17320 bound_to 7965
  144.7043  139.8629  143.7435 LP  0  0  0  0  0  0  0  0  0  0  0  0  # atno 17321 bound_to 7965
  139.7383  144.7566  151.0693 LP  0  0  0  0  0  0  0  0  0  0  0  0  # atno 17342 bound_to 10162
  140.7776  143.5003  150.9779 LP  0  0  0  0  0  0  0  0  0  0  0  0  # atno 17343 bound_to 10162
  156.0212  130.3795  150.1956 LP  0  0  0  0  0  0  0  0  0  0  0  0  # atno 17370 bound_to 10713
  157.0145  130.9961  151.3357 LP  0  0  0  0  0  0  0  0  0  0  0  0  # atno 17371 bound_to 10713
  141.2023  133.7940  157.0396 LP  0  0  0  0  0  0  0  0  0  0  0  0  # atno 17394 bound_to 11000
  140.0735  134.9688  157.1507 LP  0  0  0  0  0  0  0  0  0  0  0  0  # atno 17395 bound_to 11000

$$$$
