#       Name:                AV-unprocessed.smi:3018
#       Creating user name   scv26
#       Creation time:       Fri Mar 27 16:42:37 2020


#       File generated by GOLD software.
#

@<TRIPOS>MOLECULE
AV-unprocessed.smi:3018
    52    53     1
SMALL
NO_CHARGES


@<TRIPOS>ATOM
      1 ****        -2.9944  -1.2817  -1.4021 C.3            1 S1                 0.0000
      2 ****        -1.4738  -1.2569  -1.6006 C.3            1 S1                 0.0000
      3 ****        -0.7430  -0.4690  -0.4976 C.3            1 S1                 0.0000
      4 ****        -0.8804  -1.1923   0.7244 O.3            1 S1                 0.0000
      5 ****        -0.6267  -0.4649   1.9235 C.3            1 S1                 0.0000
      6 ****        -0.2574  -1.4855   3.0137 C.3            1 S1                 0.0000
      7 ****        -0.0547  -0.8031   4.3764 C.3            1 S1                 0.0000
      8 ****        -1.2978   0.0037   4.7840 C.3            1 S1                 0.0000
      9 ****        -1.6790   1.0223   3.6980 C.3            1 S1                 0.0000
     10 ****        -1.8776   0.3380   2.3356 C.3            1 S1                 0.0000
     11 ****         0.7464  -0.2990  -0.8329 C.2            1 S1                 0.0000
     12 ****         1.4356  -1.2824  -1.1035 O.2            1 S1                 0.0000
     13 ****         1.2216   0.9562  -0.8076 N.am           1 S1                 0.0000
     14 ****         2.5821   1.3585  -1.1566 C.3            1 S1                 0.0000
     15 ****         2.6365   2.0972  -2.5092 C.3            1 S1                 0.0000
     16 ****         2.3678   1.1876  -3.6805 C.2            1 S1                 0.0000
     17 ****         1.2286   0.9757  -4.2268 N.2            1 S1                 0.0000
     18 ****         1.5185   0.0921  -5.1955 N.am           1 S1                 0.0000
     19 ****         2.8188  -0.2090  -5.2198 C.2            1 S1                 0.0000
     20 ****         3.3194  -0.9946  -6.0217 O.2            1 S1                 0.0000
     21 ****         3.4006   0.5004  -4.2364 N.pl3          1 S1                -1.0000
     22 ****         0.7892  -0.2615  -5.7971 H              1 S1                 0.0000
     23 ****        -3.4813  -1.8342  -2.2059 H              1 S1                 0.0000
     24 ****        -3.4069  -0.2725  -1.3950 H              1 S1                 0.0000
     25 ****        -3.2622  -1.7605  -0.4598 H              1 S1                 0.0000
     26 ****        -1.0986  -2.2806  -1.6410 H              1 S1                 0.0000
     27 ****        -1.2572  -0.8132  -2.5739 H              1 S1                 0.0000
     28 ****        -1.2088   0.5140  -0.4136 H              1 S1                 0.0000
     29 ****         0.2172   0.2147   1.7985 H              1 S1                 0.0000
     30 ****        -1.0443  -2.2365   3.0963 H              1 S1                 0.0000
     31 ****         0.6500  -2.0191   2.7286 H              1 S1                 0.0000
     32 ****         0.1686  -1.5511   5.1375 H              1 S1                 0.0000
     33 ****         0.8114  -0.1415   4.3283 H              1 S1                 0.0000
     34 ****        -2.1334  -0.6757   4.9564 H              1 S1                 0.0000
     35 ****        -1.1161   0.5168   5.7288 H              1 S1                 0.0000
     36 ****        -2.5894   1.5485   3.9860 H              1 S1                 0.0000
     37 ****        -0.8971   1.7783   3.6157 H              1 S1                 0.0000
     38 ****        -2.1151   1.0923   1.5860 H              1 S1                 0.0000
     39 ****        -2.7394  -0.3289   2.3853 H              1 S1                 0.0000
     40 ****         0.5788   1.6966  -0.5681 H              1 S1                 0.0000
     41 ****         2.9298   2.0297  -0.3713 H              1 S1                 0.0000
     42 ****         3.2707   0.5114  -1.1521 H              1 S1                 0.0000
     43 ****         1.9223   2.9215  -2.5100 H              1 S1                 0.0000
     44 ****         3.6191   2.5565  -2.6251 H              1 S1                 0.0000
     45 ****        -0.2433  -1.9625   0.6953 LP             1 S1                 0.0000
     46 ****        -1.8180  -1.5368   0.7702 LP             1 S1                 0.0000
     47 ****         1.0262  -2.1947  -1.1054 LP             1 S1                 0.0000
     48 ****         2.4050  -1.1689  -1.3214 LP             1 S1                 0.0000
     49 ****         0.3412   1.3713  -3.9900 LP             1 S1                 0.0000
     50 ****         2.7448  -1.4469  -6.7037 LP             1 S1                 0.0000
     51 ****         4.3014  -1.1814  -5.9920 LP             1 S1                 0.0000
     52 ****         4.3658   0.5182  -3.9755 LP             1 S1                 0.0000
@<TRIPOS>BOND
    1    1    2 1     
    2    1   23 1     
    3    1   24 1     
    4    1   25 1     
    5    2    3 1     
    6    2   26 1     
    7    2   27 1     
    8    3    4 1     
    9    3   11 1     
   10    3   28 1     
   11    4    5 1     
   12    5   10 1     
   13    5    6 1     
   14    5   29 1     
   15    6    7 1     
   16    6   30 1     
   17    6   31 1     
   18    7    8 1     
   19    7   32 1     
   20    7   33 1     
   21    8    9 1     
   22    8   34 1     
   23    8   35 1     
   24    9   10 1     
   25    9   36 1     
   26    9   37 1     
   27   10   38 1     
   28   10   39 1     
   29   11   12 2     
   30   11   13 am    
   31   13   14 1     
   32   13   40 1     
   33   14   15 1     
   34   14   41 1     
   35   14   42 1     
   36   15   16 1     
   37   15   43 1     
   38   15   44 1     
   39   16   21 1     
   40   16   17 2     
   41   17   18 1     
   42   18   22 1     
   43   18   19 am    
   44   19   20 2     
   45   19   21 1     
   46    4   45 1     
   47    4   46 1     
   48   12   47 1     
   49   12   48 1     
   50   17   49 1     
   51   20   50 1     
   52   20   51 1     
   53   21   52 1     
@<TRIPOS>SUBSTRUCTURE
      1 S1             1
@<TRIPOS>SET
LONE_PAIRS      STATIC     ATOMS    <user>   **** ""
8 45 46 47 48 49 50 51 52
DONOR_HYDROGENS      STATIC     ATOMS    <user>   **** ""
2 40 22
ATOM$BLUE        STATIC     ATOMS    COLORGROUP SYSTEM
8 45 46 47 48 49 50 51 52
ATOM$RED        STATIC     ATOMS    COLORGROUP SYSTEM
2 40 22
