AV-unprocessed.smi:689|AV-procd|sdf|3358|dock6
  -GOLD-   22720 0333D 1   1.00000     0.00000
 Structure written by MMmdl.
 33 34  0  0  0  0  0  0  0  0  2 V2000
  153.0135  138.9151  155.0611 C   0  0  0  0  0  0  0  0  0  0  0  0
  151.6036  139.4092  154.9071 C   0  0  0  0  0  0  0  0  0  0  0  0
  150.8758  138.9940  153.8836 N   0  0  0  0  0  0  0  0  0  0  0  0
  149.6294  139.6118  154.0242 O   0  0  0  0  0  0  0  0  0  0  0  0
  149.6558  140.3829  155.1408 C   0  0  0  0  0  0  0  0  0  0  0  0
  148.4055  141.1254  155.4700 C   0  0  0  0  0  0  0  0  0  0  0  0
  150.8799  140.3051  155.7460 C   0  0  0  0  0  0  0  0  0  0  0  0
  151.3529  140.9922  157.0026 C   0  0  0  0  0  0  0  0  0  0  0  0
  152.1787  140.0176  157.8480 C   0  0  0  0  0  0  0  0  0  0  0  0
  151.6233  139.0408  158.3512 O   0  0  0  0  0  0  0  0  0  0  0  0
  153.4789  140.3824  157.9127 N   0  5  0  0  0  0  0  0  0  0  0  0
  154.4436  139.8680  159.1027 S   0  0  0  0  0  0  0  0  0  0  0  0
  153.8026  138.8489  159.9485 O   0  0  0  0  0  0  0  0  0  0  0  0
  155.8140  139.5978  158.6408 O   0  0  0  0  0  0  0  0  0  0  0  0
  154.5460  141.3909  160.1368 C   0  0  0  0  0  0  0  0  0  0  0  0
  153.1829  141.8155  160.6470 C   0  0  0  0  0  0  0  0  0  0  0  0
  152.7522  143.2639  160.6077 C   0  0  0  0  0  0  0  0  0  0  0  0
  153.0509  142.6042  161.9305 C   0  0  0  0  0  0  0  0  0  0  0  0
  153.6757  139.7149  155.3923 H   0  0  0  0  0  0  0  0  0  0  0  0
  153.4099  138.5275  154.1222 H   0  0  0  0  0  0  0  0  0  0  0  0
  153.0656  138.1148  155.7997 H   0  0  0  0  0  0  0  0  0  0  0  0
  148.3258  141.2966  156.5435 H   0  0  0  0  0  0  0  0  0  0  0  0
  147.5251  140.5657  155.1537 H   0  0  0  0  0  0  0  0  0  0  0  0
  148.3900  142.0940  154.9707 H   0  0  0  0  0  0  0  0  0  0  0  0
  151.9353  141.8868  156.7753 H   0  0  0  0  0  0  0  0  0  0  0  0
  150.5091  141.3388  157.6000 H   0  0  0  0  0  0  0  0  0  0  0  0
  155.2191  141.1914  160.9708 H   0  0  0  0  0  0  0  0  0  0  0  0
  154.9763  142.1920  159.5363 H   0  0  0  0  0  0  0  0  0  0  0  0
  152.4042  141.0750  160.4734 H   0  0  0  0  0  0  0  0  0  0  0  0
  153.4672  143.9979  160.2412 H   0  0  0  0  0  0  0  0  0  0  0  0
  151.7101  143.4708  160.3726 H   0  0  0  0  0  0  0  0  0  0  0  0
  152.2097  142.3682  162.5790 H   0  0  0  0  0  0  0  0  0  0  0  0
  153.9644  142.9009  162.4420 H   0  0  0  0  0  0  0  0  0  0  0  0
  1  2  1  0  0  0  0
  1 19  1  0  0  0  0
  1 20  1  0  0  0  0
  1 21  1  0  0  0  0
  2  7  1  0  0  0  0
  2  3  2  0  0  0  0
  3  4  1  0  0  0  0
  4  5  1  0  0  0  0
  5  6  1  0  0  0  0
  5  7  2  0  0  0  0
  6 22  1  0  0  0  0
  6 23  1  0  0  0  0
  6 24  1  0  0  0  0
  7  8  1  0  0  0  0
  8  9  1  0  0  0  0
  8 25  1  0  0  0  0
  8 26  1  0  0  0  0
  9 10  2  0  0  0  0
  9 11  1  0  0  0  0
 11 12  1  0  0  0  0
 12 13  2  0  0  0  0
 12 14  2  0  0  0  0
 12 15  1  0  0  0  0
 15 16  1  0  0  0  0
 15 27  1  0  0  0  0
 15 28  1  0  0  0  0
 16 18  1  0  0  0  0
 16 17  1  0  0  0  0
 16 29  1  0  0  0  0
 17 18  1  0  0  0  0
 17 30  1  0  0  0  0
 17 31  1  0  0  0  0
 18 32  1  0  0  0  0
 18 33  1  0  0  0  0
M  CHG  1  11  -1
M  END
> <s_m_source_file>
AV-unprocessed.smi

> <i_m_source_file_index>
689

> <i_lp_mmshare_version>
43012

> <i_f3d_flags>
0

> <s_epik_input>
W0NIM11jMW5vYyhbQ0gzXSljMVtDSDJdQyg9TylbTkhdUyg9TykoPU8pW0NIMl1bQ0hdMltDSDJdW0NIMl0y

> <s_epik_cmdline>
J2VwaWtfcHl0aG9uJywgJy1waCcsICc3LjAnLCAnLXRuJywgJzgnLCAnLW1hJywgJzIwMCcsICctbWV0YWxfYmluZGluZycsICctaW1hZScsICc8aW5maWxlLm1hZT4nLCAnLW9tYWUnLCAnPG91dGZpbGUubWFlPic=

> <r_epik_Ionization_Penalty>
0.0117783

> <r_epik_Ionization_Penalty_Charging>
0.0117783

> <r_epik_Ionization_Penalty_Neutral>
2.69026e-10

> <r_epik_State_Penalty>
0.00908283

> <r_epik_Charging_Adjusted_Penalty>
0.0208612

> <i_epik_Tot_Q>
-1

> <i_epik_Tot_abs_Q>
1

> <r_epik_Metal_State_Penalty>
0.00890557

> <b_epik_Metal_Only>
0

> <s_lp_Force_Field>
OPLS_2005

> <r_lp_Energy>
1.25467

> <b_lp_Chiralities_Consistent>
1

> <s_lp_Variant>
AV-unprocessed.smi:689-1

> <Gold.Version>
5.8.1

> <Gold.Id.Protein>
6NUR|6NUR_protein|mol2

> <Gold.PLP.Fitness>
38.6658

> <Gold.PLP.PLP>
-34.1767

> <Gold.PLP.part.hbond>
-2.2509

> <Gold.PLP.part.metal>
0.0000

> <Gold.PLP.part.buried>
-1.7972

> <Gold.PLP.part.nonpolar>
-29.9792

> <Gold.PLP.part.repulsive>
1.3355

> <Gold.PLP.ligand.clash>
0.0000

> <Gold.PLP.ligand.torsion>
1.3848

> <Gold.PLP.Chemscore.Hbond>
1.8819

> <Gold.PLP.Chemscore.CHOScore>
0.0000

> <Gold.PLP.Chemscore.Metal>
0.0000

> <Gold.Chemscore.Hbonds>
donor molecule, donor type, donor heavy atom, donor atom, acceptor molecule, acceptor atom, score
      P1  H  7997  8008       L1    14  0.35
      P1  H  7997  8009       L1    11  1.00

> <Gold.PLP.Chemscore.Internal.Correction>
1.6129

> <Gold.Rescore>
     Score         DG    S(hbond)    S(metal)    S(lipo)     H(rot)  DE(clash)    DE(int)     intcor
     10.13     -13.45       0.77        0.00      81.12       1.61       0.35       2.97       ----

> <Gold.Chemscore.Fitness>
10.1292

> <Gold.Chemscore.DG>
-13.4484

> <Gold.Chemscore.ZeroCoef>
-5.4800

> <Gold.Chemscore.Hbond>
0.7748

> <Gold.Chemscore.Metal>
0.0000

> <Gold.Chemscore.Lipo>
81.1239

> <Gold.Chemscore.Internal_Hbond>
0.0000

> <Gold.Chemscore.DEClash>
0.3503

> <Gold.Chemscore.DEInternal>
2.9689

> <Gold.Chemscore.Rot>
1.6058

> <Gold.Chemscore.Internal.Correction>
   9.000000E+99

> <Gold.Chemscore.Hbonds>
donor molecule, donor type, donor heavy atom, donor atom, acceptor molecule, acceptor atom, score
      P1  H  7997  8008       L1    14  0.31
      P1  H  7997  8009       L1    11  0.07

> <Gold.Chemscore.Hbond.Weighted>
-2.5877

> <Gold.Chemscore.Metal.Weighted>
-0.0000

> <Gold.Chemscore.Lipo.Weighted>
-9.4915

> <Gold.Chemscore.Internal_Hbond.Weighted>
0.0000

> <Gold.Chemscore.DEClash.Weighted>
0.3503

> <Gold.Chemscore.DEInternal.Weighted>
2.9689

> <Gold.Chemscore.Rot.Weighted>
4.1108

> <Gold.Chemscore.Internal.Correction.Weighted>
   9.000000E+99

> <Gold.Protein.RotatedTorsions>
[ 6907 6896 6895 6894 ] final   42.12 input  -60.11 | X-H torsion
[ 7974 7965 7964 7962 ] final -104.21 input  175.53 | X-H torsion
[ 8008 7997 7996 7995 ] final  172.93 input   59.86 | X-H torsion
[ 10167 10162 10161 10158 ] final  153.23 input  -65.29 | X-H torsion
[ 10718 10713 10712 10709 ] final   75.02 input   66.30 | X-H torsion
[ 10763 10752 10751 10750 ] final  -76.32 input  -60.55 | X-H torsion
[ 11005 11000 10999 10996 ] final  174.50 input  -57.11 | X-H torsion

> <Gold.Protein.ActiveResidues>
 VAL166  LYS551  ARG553  GLY616  TRP617  ASP618  TYR619  PRO620  LYS621  CYS622 
 ASP623  PHE694  ASN695  SER759  ASP760  ASP761  ALA762  ILE779  LEU786  VAL792 
 PHE793  MET794  SER795  GLU796  ALA797  LYS798  CYS799  TRP800  GLU811  SER814 

> <Gold.Protein.RotatedAtoms>
  152.2039  134.8563  160.0504 H   0  0  0  0  0  0  0  0  0  0  0  0  # atno 6907 bound_to 6896
  151.9406  133.3632  159.3972 H   0  0  0  0  0  0  0  0  0  0  0  0  # atno 6908 bound_to 6896
  150.6961  134.4368  159.5317 H   0  0  0  0  0  0  0  0  0  0  0  0  # atno 6909 bound_to 6896
  145.2460  140.9221  143.3122 H   0  0  0  0  0  0  0  0  0  0  0  0  # atno 7974 bound_to 7965
  156.1126  140.1473  156.9317 H   0  0  0  0  0  0  0  0  0  0  0  0  # atno 8008 bound_to 7997
  154.4778  140.0889  156.7346 H   0  0  0  0  0  0  0  0  0  0  0  0  # atno 8009 bound_to 7997
  155.4570  140.3437  155.4310 H   0  0  0  0  0  0  0  0  0  0  0  0  # atno 8010 bound_to 7997
  139.4828  144.5291  151.7752 H   0  0  0  0  0  0  0  0  0  0  0  0  # atno 10167 bound_to 10162
  157.6617  130.9706  150.1294 H   0  0  0  0  0  0  0  0  0  0  0  0  # atno 10718 bound_to 10713
  154.4982  135.5802  153.6511 H   0  0  0  0  0  0  0  0  0  0  0  0  # atno 10763 bound_to 10752
  152.9874  135.6129  154.3037 H   0  0  0  0  0  0  0  0  0  0  0  0  # atno 10764 bound_to 10752
  154.2942  135.2848  155.2620 H   0  0  0  0  0  0  0  0  0  0  0  0  # atno 10765 bound_to 10752
  140.3520  134.7186  157.4274 H   0  0  0  0  0  0  0  0  0  0  0  0  # atno 11005 bound_to 11000
  144.9546  139.4045  143.6386 LP  0  0  0  0  0  0  0  0  0  0  0  0  # atno 17320 bound_to 7965
  146.3315  139.8570  142.8863 LP  0  0  0  0  0  0  0  0  0  0  0  0  # atno 17321 bound_to 7965
  140.4815  144.1443  150.5933 LP  0  0  0  0  0  0  0  0  0  0  0  0  # atno 17342 bound_to 10162
  140.4273  143.2584  151.9640 LP  0  0  0  0  0  0  0  0  0  0  0  0  # atno 17343 bound_to 10162
  156.2145  130.3669  149.8630 LP  0  0  0  0  0  0  0  0  0  0  0  0  # atno 17370 bound_to 10713
  156.6500  130.8740  151.3529 LP  0  0  0  0  0  0  0  0  0  0  0  0  # atno 17371 bound_to 10713
  140.0695  134.5882  155.8658 LP  0  0  0  0  0  0  0  0  0  0  0  0  # atno 17394 bound_to 11000
  141.2009  133.6615  156.5922 LP  0  0  0  0  0  0  0  0  0  0  0  0  # atno 17395 bound_to 11000

$$$$
