AV-unprocessed.smi:3156|AV-procd|sdf|12031|dock6
  -GOLD-   2272017453D 1   1.00000     0.00000
 Structure written by MMmdl.
 41 42  0  0  0  0  0  0  0  0  2 V2000
  153.3736  139.6789  159.6327 C   0  0  0  0  0  0  0  0  0  0  0  0
  152.4082  140.8793  159.5867 C   0  0  2  0  0  0  0  0  0  0  0  0
  151.8557  141.0297  158.2194 N   0  3  0  0  0  0  0  0  0  0  0  0
  151.6819  139.7714  157.4628 C   0  0  0  0  0  0  0  0  0  0  0  0
  151.0722  140.0318  156.0770 C   0  0  1  0  0  0  0  0  0  0  0  0
  150.4765  138.7580  155.4411 C   0  0  0  0  0  0  0  0  0  0  0  0
  149.7906  139.0880  154.1106 C   0  0  0  0  0  0  0  0  0  0  0  0
  148.7780  140.2188  154.3180 C   0  0  0  0  0  0  0  0  0  0  0  0
  149.4492  141.4153  155.0103 C   0  0  0  0  0  0  0  0  0  0  0  0
  150.0362  140.9975  156.2394 O   0  0  0  0  0  0  0  0  0  0  0  0
  153.0903  142.2037  160.0288 C   0  0  2  0  0  0  0  0  0  0  0  0
  153.4555  142.2303  161.5247 C   0  0  0  0  0  0  0  0  0  0  0  0
  152.2729  143.3700  159.7104 N   0  0  0  0  0  0  0  0  0  0  0  0
  151.8814  144.3909  160.5523 C   0  0  0  0  0  0  0  0  0  0  0  0
  151.1083  145.2487  159.8239 C   0  0  0  0  0  0  0  0  0  0  0  0
  151.0708  144.6560  158.5313 C   0  0  0  0  0  0  0  0  0  0  0  0
  151.7641  143.5309  158.4674 N   0  0  0  0  0  0  0  0  0  0  0  0
  153.7347  139.4914  160.6433 H   0  0  0  0  0  0  0  0  0  0  0  0
  154.2413  139.8430  158.9931 H   0  0  0  0  0  0  0  0  0  0  0  0
  152.8909  138.7591  159.3041 H   0  0  0  0  0  0  0  0  0  0  0  0
  151.5795  140.6787  160.2682 H   0  0  0  0  0  0  0  0  0  0  0  0
  150.9397  141.4463  158.3105 H   0  0  0  0  0  0  0  0  0  0  0  0
  152.6322  139.2479  157.3609 H   0  0  0  0  0  0  0  0  0  0  0  0
  151.0183  139.1183  158.0313 H   0  0  0  0  0  0  0  0  0  0  0  0
  151.8408  140.4509  155.4244 H   0  0  0  0  0  0  0  0  0  0  0  0
  151.2532  138.0104  155.2784 H   0  0  0  0  0  0  0  0  0  0  0  0
  149.7512  138.3112  156.1223 H   0  0  0  0  0  0  0  0  0  0  0  0
  150.5375  139.3936  153.3770 H   0  0  0  0  0  0  0  0  0  0  0  0
  149.2964  138.2039  153.7068 H   0  0  0  0  0  0  0  0  0  0  0  0
  148.3520  140.5246  153.3621 H   0  0  0  0  0  0  0  0  0  0  0  0
  147.9493  139.8617  154.9308 H   0  0  0  0  0  0  0  0  0  0  0  0
  150.2072  141.8637  154.3660 H   0  0  0  0  0  0  0  0  0  0  0  0
  148.7108  142.1900  155.2178 H   0  0  0  0  0  0  0  0  0  0  0  0
  154.0180  142.3084  159.4635 H   0  0  0  0  0  0  0  0  0  0  0  0
  154.2100  141.4844  161.7720 H   0  0  0  0  0  0  0  0  0  0  0  0
  152.5827  142.0456  162.1519 H   0  0  0  0  0  0  0  0  0  0  0  0
  153.8659  143.2001  161.8084 H   0  0  0  0  0  0  0  0  0  0  0  0
  152.1818  144.4230  161.5896 H   0  0  0  0  0  0  0  0  0  0  0  0
  150.6352  146.1580  160.1642 H   0  0  0  0  0  0  0  0  0  0  0  0
  150.5621  145.0055  157.6450 H   0  0  0  0  0  0  0  0  0  0  0  0
  152.4442  141.6610  157.6952 H   0  0  0  0  0  0  0  0  0  0  0  0
  1  2  1  0  0  0  0
  1 18  1  0  0  0  0
  1 19  1  0  0  0  0
  1 20  1  0  0  0  0
  2  3  1  0  0  0  0
  2 11  1  0  0  0  0
  2 21  1  0  0  0  0
  3  4  1  0  0  0  0
  3 22  1  0  0  0  0
  3 41  1  0  0  0  0
  4  5  1  0  0  0  0
  4 23  1  0  0  0  0
  4 24  1  0  0  0  0
  5 10  1  0  0  0  0
  5  6  1  0  0  0  0
  5 25  1  0  0  0  0
  6  7  1  0  0  0  0
  6 26  1  0  0  0  0
  6 27  1  0  0  0  0
  7  8  1  0  0  0  0
  7 28  1  0  0  0  0
  7 29  1  0  0  0  0
  8  9  1  0  0  0  0
  8 30  1  0  0  0  0
  8 31  1  0  0  0  0
  9 10  1  0  0  0  0
  9 32  1  0  0  0  0
  9 33  1  0  0  0  0
 11 12  1  0  0  0  0
 11 13  1  0  0  0  0
 11 34  1  0  0  0  0
 12 35  1  0  0  0  0
 12 36  1  0  0  0  0
 12 37  1  0  0  0  0
 13 17  1  0  0  0  0
 13 14  1  0  0  0  0
 14 15  2  0  0  0  0
 14 38  1  0  0  0  0
 15 16  1  0  0  0  0
 15 39  1  0  0  0  0
 16 17  2  0  0  0  0
 16 40  1  0  0  0  0
M  CHG  1   3   1
M  END
> <s_m_source_file>
AV-unprocessed.smi

> <i_m_source_file_index>
3156

> <i_lp_mmshare_version>
43012

> <i_f3d_flags>
0

> <s_epik_input>
bjFbY0hdW2NIXVtjSF1uMVtDQEBIXShbQ0gzXSlbQ0BIXShbQ0gzXSlbTkhdW0NIMl1bQ0BASF0yW0NIMl1bQ0gyXVtDSDJdW0NIMl1PMg==

> <s_epik_cmdline>
J2VwaWtfcHl0aG9uJywgJy1waCcsICc3LjAnLCAnLXRuJywgJzgnLCAnLW1hJywgJzIwMCcsICctbWV0YWxfYmluZGluZycsICctaW1hZScsICc8aW5maWxlLm1hZT4nLCAnLW9tYWUnLCAnPG91dGZpbGUubWFlPic=

> <r_lp_tautomer_probability>
1

> <r_epik_Ionization_Penalty>
0.00658015

> <r_epik_Ionization_Penalty_Charging>
0.00656881

> <r_epik_Ionization_Penalty_Neutral>
1.13431e-05

> <r_epik_State_Penalty>
0.0048654

> <r_epik_Charging_Adjusted_Penalty>
0.0114342

> <i_epik_Tot_Q>
1

> <i_epik_Tot_abs_Q>
1

> <r_epik_Metal_State_Penalty>
-0

> <b_epik_Metal_Only>
0

> <s_lp_Force_Field>
OPLS_2005

> <r_lp_Energy>
18.0883

> <b_lp_Chiralities_Consistent>
1

> <s_lp_Variant>
AV-unprocessed.smi:3156-3

> <Gold.Version>
5.8.1

> <Gold.Id.Protein>
6NUR|6NUR_protein|mol2

> <Gold.PLP.Fitness>
42.5996

> <Gold.PLP.PLP>
-40.8816

> <Gold.PLP.part.hbond>
0.0000

> <Gold.PLP.part.metal>
0.0000

> <Gold.PLP.part.buried>
-4.2472

> <Gold.PLP.part.nonpolar>
-36.8475

> <Gold.PLP.part.repulsive>
0.1970

> <Gold.PLP.ligand.clash>
0.0000

> <Gold.PLP.ligand.torsion>
0.6732

> <Gold.PLP.Chemscore.Hbond>
0.0000

> <Gold.PLP.Chemscore.CHOScore>
0.9929

> <Gold.PLP.Chemscore.Metal>
0.0000

> <Gold.Chemscore.Hbonds>
donor molecule, donor type, donor heavy atom, donor atom, acceptor molecule, acceptor atom, score
      L1  C    16    40       P1  8028  0.77
      L1  C    16    40       P1  8029  0.07

> <Gold.PLP.Chemscore.Internal.Correction>
0.0858

> <Gold.Rescore>
     Score         DG    S(hbond)    S(metal)    S(lipo)     H(rot)  DE(clash)    DE(int)     intcor
     12.36     -14.55       0.00        0.00     112.36       1.59       0.07       2.12       ----

> <Gold.Chemscore.Fitness>
12.3602

> <Gold.Chemscore.DG>
-14.5456

> <Gold.Chemscore.ZeroCoef>
-5.4800

> <Gold.Chemscore.Hbond>
0.0000

> <Gold.Chemscore.Metal>
0.0000

> <Gold.Chemscore.Lipo>
112.3573

> <Gold.Chemscore.Internal_Hbond>
0.0000

> <Gold.Chemscore.DEClash>
0.0686

> <Gold.Chemscore.DEInternal>
2.1168

> <Gold.Chemscore.Rot>
1.5938

> <Gold.Chemscore.Internal.Correction>
   9.000000E+99

> <Gold.Chemscore.Hbond.Weighted>
-0.0000

> <Gold.Chemscore.Metal.Weighted>
-0.0000

> <Gold.Chemscore.Lipo.Weighted>
-13.1458

> <Gold.Chemscore.Internal_Hbond.Weighted>
0.0000

> <Gold.Chemscore.DEClash.Weighted>
0.0686

> <Gold.Chemscore.DEInternal.Weighted>
2.1168

> <Gold.Chemscore.Rot.Weighted>
4.0802

> <Gold.Chemscore.Internal.Correction.Weighted>
   9.000000E+99

> <Gold.Protein.RotatedTorsions>
[ 6907 6896 6895 6894 ] final  139.31 input  -60.11 | X-H torsion
[ 7974 7965 7964 7962 ] final  -78.96 input  175.53 | X-H torsion
[ 8008 7997 7996 7995 ] final   75.41 input   59.86 | X-H torsion
[ 10167 10162 10161 10158 ] final  -79.67 input  -65.29 | X-H torsion
[ 10718 10713 10712 10709 ] final   81.59 input   66.30 | X-H torsion
[ 10763 10752 10751 10750 ] final -113.04 input  -60.55 | X-H torsion
[ 11005 11000 10999 10996 ] final  -46.81 input  -57.11 | X-H torsion

> <Gold.Protein.ActiveResidues>
 VAL166  LYS551  ARG553  GLY616  TRP617  ASP618  TYR619  PRO620  LYS621  CYS622 
 ASP623  PHE694  ASN695  SER759  ASP760  ASP761  ALA762  ILE779  LEU786  VAL792 
 PHE793  MET794  SER795  GLU796  ALA797  LYS798  CYS799  TRP800  GLU811  SER814 

> <Gold.Protein.RotatedAtoms>
  152.2564  133.5259  159.5355 H   0  0  0  0  0  0  0  0  0  0  0  0  # atno 6907 bound_to 6896
  150.7110  134.0889  159.3933 H   0  0  0  0  0  0  0  0  0  0  0  0  # atno 6908 bound_to 6896
  151.8808  135.0454  160.0539 H   0  0  0  0  0  0  0  0  0  0  0  0  # atno 6909 bound_to 6896
  145.5796  140.9451  143.1351 H   0  0  0  0  0  0  0  0  0  0  0  0  # atno 7974 bound_to 7965
  155.8125  140.3472  155.5466 H   0  0  0  0  0  0  0  0  0  0  0  0  # atno 8008 bound_to 7997
  155.8426  140.0944  157.1745 H   0  0  0  0  0  0  0  0  0  0  0  0  # atno 8009 bound_to 7997
  154.4005  140.1391  156.3734 H   0  0  0  0  0  0  0  0  0  0  0  0  # atno 8010 bound_to 7997
  140.4572  143.2464  151.8402 H   0  0  0  0  0  0  0  0  0  0  0  0  # atno 10167 bound_to 10162
  157.6836  131.0010  150.2248 H   0  0  0  0  0  0  0  0  0  0  0  0  # atno 10718 bound_to 10713
  154.8378  135.4469  154.1287 H   0  0  0  0  0  0  0  0  0  0  0  0  # atno 10763 bound_to 10752
  153.2503  135.6926  153.7692 H   0  0  0  0  0  0  0  0  0  0  0  0  # atno 10764 bound_to 10752
  153.7007  135.3372  155.3200 H   0  0  0  0  0  0  0  0  0  0  0  0  # atno 10765 bound_to 10752
  141.0602  133.6712  156.3207 H   0  0  0  0  0  0  0  0  0  0  0  0  # atno 11005 bound_to 11000
  144.7400  139.7476  143.7314 LP  0  0  0  0  0  0  0  0  0  0  0  0  # atno 17320 bound_to 7965
  146.1726  139.4883  142.9918 LP  0  0  0  0  0  0  0  0  0  0  0  0  # atno 17321 bound_to 7965
  139.4802  144.5051  151.9009 LP  0  0  0  0  0  0  0  0  0  0  0  0  # atno 17342 bound_to 10162
  140.4137  144.2335  150.5888 LP  0  0  0  0  0  0  0  0  0  0  0  0  # atno 17343 bound_to 10162
  156.2893  130.3743  149.7858 LP  0  0  0  0  0  0  0  0  0  0  0  0  # atno 17370 bound_to 10713
  156.5522  130.8347  151.3303 LP  0  0  0  0  0  0  0  0  0  0  0  0  # atno 17371 bound_to 10713
  140.5884  134.5675  157.5494 LP  0  0  0  0  0  0  0  0  0  0  0  0  # atno 17394 bound_to 11000
  139.9425  134.7760  156.0642 LP  0  0  0  0  0  0  0  0  0  0  0  0  # atno 17395 bound_to 11000

$$$$
