AV-unprocessed.smi:1507|AV-procd|sdf|6083|dock1
  -GOLD-   22720 6203D 1   1.00000     0.00000
 Structure written by MMmdl.
 33 34  0  0  0  0  0  0  0  0  2 V2000
  149.9902  134.9092  154.5687 N   0  5  0  0  0  0  0  0  0  0  0  0
  150.6983  136.0506  155.4642 S   0  0  0  0  0  0  0  0  0  0  0  0
  149.7811  136.6950  156.4169 O   0  0  0  0  0  0  0  0  0  0  0  0
  152.0423  135.6685  155.9241 O   0  0  0  0  0  0  0  0  0  0  0  0
  150.9446  137.1878  154.1903 N   0  0  0  0  0  0  0  0  0  0  0  0
  150.4113  138.5478  154.2695 C   0  0  0  0  0  0  0  0  0  0  0  0
  150.9401  139.3039  155.4715 C   0  0  0  0  0  0  0  0  0  0  0  0
  150.1303  140.2258  156.1618 C   0  0  0  0  0  0  0  0  0  0  0  0
  150.6682  140.9073  157.2705 C   0  0  0  0  0  0  0  0  0  0  0  0
  152.0052  140.6493  157.6588 C   0  0  0  0  0  0  0  0  0  0  0  0
  152.5645  141.3196  158.7688 N   0  0  0  0  0  0  0  0  0  0  0  0
  151.7486  142.3883  159.3402 C   0  0  0  0  0  0  0  0  0  0  0  0
  152.5806  143.2311  160.3224 C   0  0  0  0  0  0  0  0  0  0  0  0
  153.1604  142.3876  161.3120 O   0  0  0  0  0  0  0  0  0  0  0  0
  154.0410  141.4276  160.7383 C   0  0  0  0  0  0  0  0  0  0  0  0
  153.2590  140.5186  159.7755 C   0  0  0  0  0  0  0  0  0  0  0  0
  152.7829  139.7676  156.9819 N   0  0  0  0  0  0  0  0  0  0  0  0
  152.2617  139.1154  155.9211 C   0  0  0  0  0  0  0  0  0  0  0  0
  149.5044  135.3685  153.7891 H   0  0  0  0  0  0  0  0  0  0  0  0
  151.0010  136.7831  153.2564 H   0  0  0  0  0  0  0  0  0  0  0  0
  150.6689  139.0949  153.3621 H   0  0  0  0  0  0  0  0  0  0  0  0
  149.3227  138.5016  154.3087 H   0  0  0  0  0  0  0  0  0  0  0  0
  149.1139  140.4124  155.8467 H   0  0  0  0  0  0  0  0  0  0  0  0
  150.0578  141.6265  157.7958 H   0  0  0  0  0  0  0  0  0  0  0  0
  151.3415  143.0423  158.5706 H   0  0  0  0  0  0  0  0  0  0  0  0
  150.8990  141.9423  159.8589 H   0  0  0  0  0  0  0  0  0  0  0  0
  153.3615  143.7827  159.7963 H   0  0  0  0  0  0  0  0  0  0  0  0
  151.9461  143.9690  160.8135 H   0  0  0  0  0  0  0  0  0  0  0  0
  154.8587  141.9315  160.2201 H   0  0  0  0  0  0  0  0  0  0  0  0
  154.4877  140.8337  161.5358 H   0  0  0  0  0  0  0  0  0  0  0  0
  152.5310  139.9254  160.3311 H   0  0  0  0  0  0  0  0  0  0  0  0
  153.9493  139.8240  159.2950 H   0  0  0  0  0  0  0  0  0  0  0  0
  152.9205  138.4243  155.4162 H   0  0  0  0  0  0  0  0  0  0  0  0
  1  2  1  0  0  0  0
  1 19  1  0  0  0  0
  2  3  2  0  0  0  0
  2  4  2  0  0  0  0
  2  5  1  0  0  0  0
  5  6  1  0  0  0  0
  5 20  1  0  0  0  0
  6  7  1  0  0  0  0
  6 21  1  0  0  0  0
  6 22  1  0  0  0  0
  7 18  1  0  0  0  0
  7  8  2  0  0  0  0
  8  9  1  0  0  0  0
  8 23  1  0  0  0  0
  9 10  2  0  0  0  0
  9 24  1  0  0  0  0
 10 11  1  0  0  0  0
 10 17  1  0  0  0  0
 11 16  1  0  0  0  0
 11 12  1  0  0  0  0
 12 13  1  0  0  0  0
 12 25  1  0  0  0  0
 12 26  1  0  0  0  0
 13 14  1  0  0  0  0
 13 27  1  0  0  0  0
 13 28  1  0  0  0  0
 14 15  1  0  0  0  0
 15 16  1  0  0  0  0
 15 29  1  0  0  0  0
 15 30  1  0  0  0  0
 16 31  1  0  0  0  0
 16 32  1  0  0  0  0
 17 18  2  0  0  0  0
 18 33  1  0  0  0  0
M  CHG  1   1  -1
M  END
> <s_m_source_file>
AV-unprocessed.smi

> <i_m_source_file_index>
1507

> <i_lp_mmshare_version>
43012

> <i_f3d_flags>
0

> <s_epik_input>
W05IMl1TKD1PKSg9TylbTkhdW0NIMl1jMVtjSF1bY0hdYyhuW2NIXTEpTjJbQ0gyXVtDSDJdT1tDSDJdW0NIMl0y

> <s_epik_cmdline>
J2VwaWtfcHl0aG9uJywgJy1waCcsICc3LjAnLCAnLXRuJywgJzgnLCAnLW1hJywgJzIwMCcsICctbWV0YWxfYmluZGluZycsICctaW1hZScsICc8aW5maWxlLm1hZT4nLCAnLW9tYWUnLCAnPG91dGZpbGUubWFlPic=

> <r_lp_tautomer_probability>
1

> <r_epik_Ionization_Penalty>
2.76303

> <r_epik_Ionization_Penalty_Charging>
2.75358

> <r_epik_Ionization_Penalty_Neutral>
0.00945218

> <r_epik_State_Penalty>
2.93489

> <r_epik_Charging_Adjusted_Penalty>
5.68847

> <i_epik_Tot_Q>
-1

> <i_epik_Tot_abs_Q>
1

> <r_epik_Metal_State_Penalty>
0.838637

> <b_epik_Metal_Only>
1

> <s_lp_Force_Field>
OPLS_2005

> <r_lp_Energy>
17.9143

> <b_lp_Chiralities_Consistent>
1

> <s_lp_Variant>
AV-unprocessed.smi:1507-4

> <Gold.Version>
5.8.1

> <Gold.Id.Protein>
6NUR|6NUR_protein|mol2

> <Gold.PLP.Fitness>
45.7156

> <Gold.PLP.PLP>
-34.4316

> <Gold.PLP.part.hbond>
-4.7168

> <Gold.PLP.part.metal>
0.0000

> <Gold.PLP.part.buried>
-5.3625

> <Gold.PLP.part.nonpolar>
-24.9813

> <Gold.PLP.part.repulsive>
0.1792

> <Gold.PLP.ligand.clash>
0.0000

> <Gold.PLP.ligand.torsion>
1.0636

> <Gold.PLP.Chemscore.Hbond>
4.0000

> <Gold.PLP.Chemscore.CHOScore>
0.0000

> <Gold.PLP.Chemscore.Metal>
0.0000

> <Gold.Chemscore.Hbonds>
donor molecule, donor type, donor heavy atom, donor atom, acceptor molecule, acceptor atom, score
      L1  H     1    19       P1  7948  0.64
      L1  H     5    20       P1  7949  1.00
      P1  H  7997  8010       L1    17  1.00
      P1  H 10752 10763       L1     4  0.76

> <Gold.PLP.Chemscore.Internal.Correction>
1.4112

> <Gold.Rescore>
     Score         DG    S(hbond)    S(metal)    S(lipo)     H(rot)  DE(clash)    DE(int)     intcor
     17.13     -18.27       2.73        0.00      72.58       1.88       0.00       1.14       ----

> <Gold.Chemscore.Fitness>
17.1338

> <Gold.Chemscore.DG>
-18.2711

> <Gold.Chemscore.ZeroCoef>
-5.4800

> <Gold.Chemscore.Hbond>
2.7294

> <Gold.Chemscore.Metal>
0.0000

> <Gold.Chemscore.Lipo>
72.5767

> <Gold.Chemscore.Internal_Hbond>
0.0000

> <Gold.Chemscore.DEClash>
0.0000

> <Gold.Chemscore.DEInternal>
1.1373

> <Gold.Chemscore.Rot>
1.8814

> <Gold.Chemscore.Internal.Correction>
   9.000000E+99

> <Gold.Chemscore.Hbonds>
donor molecule, donor type, donor heavy atom, donor atom, acceptor molecule, acceptor atom, score
      L1  H     1    19       P1  7948  0.13
      L1  H     5    20       P1  7949  0.25
      P1  H  7997  8010       L1    17  0.73
      P1  H 10752 10763       L1     4  0.69

> <Gold.Chemscore.Hbond.Weighted>
-9.1161

> <Gold.Chemscore.Metal.Weighted>
-0.0000

> <Gold.Chemscore.Lipo.Weighted>
-8.4915

> <Gold.Chemscore.Internal_Hbond.Weighted>
0.0000

> <Gold.Chemscore.DEClash.Weighted>
0.0000

> <Gold.Chemscore.DEInternal.Weighted>
1.1373

> <Gold.Chemscore.Rot.Weighted>
4.8165

> <Gold.Chemscore.Internal.Correction.Weighted>
   9.000000E+99

> <Gold.Protein.RotatedTorsions>
[ 6907 6896 6895 6894 ] final -119.72 input  -60.11 | X-H torsion
[ 7974 7965 7964 7962 ] final   60.48 input  175.53 | X-H torsion
[ 8008 7997 7996 7995 ] final   53.82 input   59.86 | X-H torsion
[ 10167 10162 10161 10158 ] final   -9.55 input  -65.29 | X-H torsion
[ 10718 10713 10712 10709 ] final -119.00 input   66.30 | X-H torsion
[ 10763 10752 10751 10750 ] final   78.07 input  -60.55 | X-H torsion
[ 11005 11000 10999 10996 ] final   95.95 input  -57.11 | X-H torsion

> <Gold.Protein.ActiveResidues>
 VAL166  LYS551  ARG553  GLY616  TRP617  ASP618  TYR619  PRO620  LYS621  CYS622 
 ASP623  PHE694  ASN695  SER759  ASP760  ASP761  ALA762  ILE779  LEU786  VAL792 
 PHE793  MET794  SER795  GLU796  ALA797  LYS798  CYS799  TRP800  GLU811  SER814 

> <Gold.Protein.RotatedAtoms>
  150.8330  133.8060  159.3090 H   0  0  0  0  0  0  0  0  0  0  0  0  # atno 6907 bound_to 6896
  151.5785  135.1058  160.0021 H   0  0  0  0  0  0  0  0  0  0  0  0  # atno 6908 bound_to 6896
  152.4406  133.7400  159.6692 H   0  0  0  0  0  0  0  0  0  0  0  0  # atno 6909 bound_to 6896
  145.8955  139.3542  143.0624 H   0  0  0  0  0  0  0  0  0  0  0  0  # atno 7974 bound_to 7965
  155.4746  140.3466  155.4330 H   0  0  0  0  0  0  0  0  0  0  0  0  # atno 8008 bound_to 7997
  156.1079  140.1453  156.9408 H   0  0  0  0  0  0  0  0  0  0  0  0  # atno 8009 bound_to 7997
  154.4736  140.0892  156.7185 H   0  0  0  0  0  0  0  0  0  0  0  0  # atno 8010 bound_to 7997
  140.7090  143.5846  150.8957 H   0  0  0  0  0  0  0  0  0  0  0  0  # atno 10167 bound_to 10162
  156.1148  130.6277  150.9362 H   0  0  0  0  0  0  0  0  0  0  0  0  # atno 10718 bound_to 10713
  153.0846  135.4890  154.8571 H   0  0  0  0  0  0  0  0  0  0  0  0  # atno 10763 bound_to 10752
  154.7194  135.3036  154.9073 H   0  0  0  0  0  0  0  0  0  0  0  0  # atno 10764 bound_to 10752
  153.9742  135.6797  153.4801 H   0  0  0  0  0  0  0  0  0  0  0  0  # atno 10765 bound_to 10752
  139.8785  134.8925  156.4086 H   0  0  0  0  0  0  0  0  0  0  0  0  # atno 11005 bound_to 11000
  145.8856  140.9336  143.0579 LP  0  0  0  0  0  0  0  0  0  0  0  0  # atno 17320 bound_to 7965
  144.6732  140.0837  143.7468 LP  0  0  0  0  0  0  0  0  0  0  0  0  # atno 17321 bound_to 7965
  139.9571  143.6205  152.3013 LP  0  0  0  0  0  0  0  0  0  0  0  0  # atno 17342 bound_to 10162
  139.6745  144.7659  151.1722 LP  0  0  0  0  0  0  0  0  0  0  0  0  # atno 17343 bound_to 10162
  157.6331  131.0919  150.8402 LP  0  0  0  0  0  0  0  0  0  0  0  0  # atno 17370 bound_to 10713
  156.8507  130.5079  149.5312 LP  0  0  0  0  0  0  0  0  0  0  0  0  # atno 17371 bound_to 10713
  140.9216  133.7641  155.9914 LP  0  0  0  0  0  0  0  0  0  0  0  0  # atno 17394 bound_to 11000
  140.8433  134.3041  157.5305 LP  0  0  0  0  0  0  0  0  0  0  0  0  # atno 17395 bound_to 11000

$$$$
