AV-unprocessed.smi:1670|AV-procd|sdf|6694|dock2
  -GOLD-   22720 7423D 1   1.00000     0.00000
 Structure written by MMmdl.
 41 42  0  0  0  0  0  0  0  0  1 V2000
  149.3481  133.5903  156.1253 C   0  0  0  0  0  0  0  0  0  0  0  0
  149.3503  134.9206  155.3602 C   0  0  1  0  0  0  0  0  0  0  0  0
  150.7848  135.4619  155.1777 C   0  0  0  0  0  0  0  0  0  0  0  0
  150.8258  136.9086  155.0519 N   0  0  0  0  0  0  0  0  0  0  0  0
  149.9643  137.7313  154.3574 C   0  0  0  0  0  0  0  0  0  0  0  0
  150.4129  139.0117  154.5111 C   0  0  0  0  0  0  0  0  0  0  0  0
  151.5692  138.8690  155.3282 C   0  0  0  0  0  0  0  0  0  0  0  0
  151.8108  137.6098  155.6551 N   0  0  0  0  0  0  0  0  0  0  0  0
  148.6974  134.7264  154.0660 N   0  0  0  0  0  0  0  0  0  0  0  0
  147.5532  134.0568  153.8632 C   0  0  0  0  0  0  0  0  0  0  0  0
  146.9271  133.4793  154.7520 O   0  0  0  0  0  0  0  0  0  0  0  0
  147.1679  134.1173  152.5790 N   0  0  0  0  0  0  0  0  0  0  0  0
  145.9452  133.5660  151.9927 C   0  0  2  0  0  0  0  0  0  0  0  0
  146.2062  132.2762  151.1844 C   0  0  0  0  0  0  0  0  0  0  0  0
  144.8897  131.6856  150.6537 C   0  0  0  0  0  0  0  0  0  0  0  0
  144.1131  132.7222  149.8215 C   0  0  1  0  0  0  0  0  0  0  0  0
  142.8828  132.1665  149.4081 O   0  0  0  0  0  0  0  0  0  0  0  0
  143.8502  134.0057  150.6304 C   0  0  0  0  0  0  0  0  0  0  0  0
  145.1631  134.6046  151.1601 C   0  0  0  0  0  0  0  0  0  0  0  0
  149.8011  133.7049  157.1105 H   0  0  0  0  0  0  0  0  0  0  0  0
  149.9064  132.8216  155.5897 H   0  0  0  0  0  0  0  0  0  0  0  0
  148.3320  133.2232  156.2728 H   0  0  0  0  0  0  0  0  0  0  0  0
  148.7809  135.6350  155.9576 H   0  0  0  0  0  0  0  0  0  0  0  0
  151.3983  135.1883  156.0366 H   0  0  0  0  0  0  0  0  0  0  0  0
  151.2582  135.0108  154.3037 H   0  0  0  0  0  0  0  0  0  0  0  0
  149.1179  137.3399  153.8126 H   0  0  0  0  0  0  0  0  0  0  0  0
  149.9825  139.9124  154.0995 H   0  0  0  0  0  0  0  0  0  0  0  0
  152.2350  139.6376  155.6922 H   0  0  0  0  0  0  0  0  0  0  0  0
  149.1323  135.1693  153.2700 H   0  0  0  0  0  0  0  0  0  0  0  0
  147.7695  134.6212  151.9441 H   0  0  0  0  0  0  0  0  0  0  0  0
  145.3208  133.2950  152.8451 H   0  0  0  0  0  0  0  0  0  0  0  0
  146.8684  132.4783  150.3420 H   0  0  0  0  0  0  0  0  0  0  0  0
  146.7153  131.5394  151.8070 H   0  0  0  0  0  0  0  0  0  0  0  0
  145.0990  130.8011  150.0510 H   0  0  0  0  0  0  0  0  0  0  0  0
  144.2791  131.3510  151.4938 H   0  0  0  0  0  0  0  0  0  0  0  0
  144.6864  132.9703  148.9272 H   0  0  0  0  0  0  0  0  0  0  0  0
  142.2048  132.8127  149.5328 H   0  0  0  0  0  0  0  0  0  0  0  0
  143.3334  134.7403  150.0118 H   0  0  0  0  0  0  0  0  0  0  0  0
  143.1885  133.7865  151.4699 H   0  0  0  0  0  0  0  0  0  0  0  0
  144.9473  135.4856  151.7656 H   0  0  0  0  0  0  0  0  0  0  0  0
  145.7608  134.9483  150.3155 H   0  0  0  0  0  0  0  0  0  0  0  0
  1  2  1  0  0  0  0
  1 20  1  0  0  0  0
  1 21  1  0  0  0  0
  1 22  1  0  0  0  0
  2  3  1  0  0  0  0
  2  9  1  0  0  0  0
  2 23  1  0  0  0  0
  3  4  1  0  0  0  0
  3 24  1  0  0  0  0
  3 25  1  0  0  0  0
  4  8  1  0  0  0  0
  4  5  1  0  0  0  0
  5  6  2  0  0  0  0
  5 26  1  0  0  0  0
  6  7  1  0  0  0  0
  6 27  1  0  0  0  0
  7  8  2  0  0  0  0
  7 28  1  0  0  0  0
  9 10  1  0  0  0  0
  9 29  1  0  0  0  0
 10 11  2  0  0  0  0
 10 12  1  0  0  0  0
 12 13  1  0  0  0  0
 12 30  1  0  0  0  0
 13 19  1  0  0  0  0
 13 14  1  0  0  0  0
 13 31  1  0  0  0  0
 14 15  1  0  0  0  0
 14 32  1  0  0  0  0
 14 33  1  0  0  0  0
 15 16  1  0  0  0  0
 15 34  1  0  0  0  0
 15 35  1  0  0  0  0
 16 17  1  0  0  0  0
 16 18  1  0  0  0  0
 16 36  1  0  0  0  0
 17 37  1  0  0  0  0
 18 19  1  0  0  0  0
 18 38  1  0  0  0  0
 18 39  1  0  0  0  0
 19 40  1  0  0  0  0
 19 41  1  0  0  0  0
M  END
> <s_m_source_file>
AV-unprocessed.smi

> <i_m_source_file_index>
1670

> <i_lp_mmshare_version>
43012

> <i_f3d_flags>
0

> <s_epik_input>
bjFbY0hdW2NIXVtjSF1uMVtDSDJdW0NAQEhdKFtDSDNdKVtOSF1DKD1PKVtOSF1bQ0BASF0yW0NIMl1bQ0gyXVtDQEBIXShbT0hdKVtDSDJdW0NIMl0y

> <s_epik_cmdline>
J2VwaWtfcHl0aG9uJywgJy1waCcsICc3LjAnLCAnLXRuJywgJzgnLCAnLW1hJywgJzIwMCcsICctbWV0YWxfYmluZGluZycsICctaW1hZScsICc8aW5maWxlLm1hZT4nLCAnLW9tYWUnLCAnPG91dGZpbGUubWFlPic=

> <r_lp_tautomer_probability>
1

> <r_epik_Ionization_Penalty>
7.33369e-05

> <r_epik_Ionization_Penalty_Charging>
0

> <r_epik_Ionization_Penalty_Neutral>
7.33369e-05

> <r_epik_State_Penalty>
-0

> <r_epik_Charging_Adjusted_Penalty>
0

> <i_epik_Tot_Q>
0

> <i_epik_Tot_abs_Q>
0

> <r_epik_Metal_State_Penalty>
-0

> <b_epik_Metal_Only>
0

> <s_lp_Force_Field>
OPLS_2005

> <r_lp_Energy>
5.2693

> <b_lp_Chiralities_Consistent>
1

> <s_lp_Variant>
AV-unprocessed.smi:1670-2

> <Gold.Version>
5.8.1

> <Gold.Id.Protein>
6NUR|6NUR_protein|mol2

> <Gold.PLP.Fitness>
45.4487

> <Gold.PLP.PLP>
-33.2548

> <Gold.PLP.part.hbond>
-4.8546

> <Gold.PLP.part.metal>
0.0000

> <Gold.PLP.part.buried>
-2.5108

> <Gold.PLP.part.nonpolar>
-26.7338

> <Gold.PLP.part.repulsive>
0.0800

> <Gold.PLP.ligand.clash>
0.0000

> <Gold.PLP.ligand.torsion>
0.8766

> <Gold.PLP.Chemscore.Hbond>
3.6275

> <Gold.PLP.Chemscore.CHOScore>
1.0000

> <Gold.PLP.Chemscore.Metal>
0.0000

> <Gold.Chemscore.Hbonds>
donor molecule, donor type, donor heavy atom, donor atom, acceptor molecule, acceptor atom, score
      L1  H     9    29       P1  7948  0.94
      L1  H    12    30       P1  7948  0.86
      L1  H    17    37       P1 10186  1.00
      P1  H 10785 10796       L1    17  0.70
      L1  C     5    26       P1  7948  1.00

> <Gold.PLP.Chemscore.Internal.Correction>
0.0646

> <Gold.Rescore>
     Score         DG    S(hbond)    S(metal)    S(lipo)     H(rot)  DE(clash)    DE(int)     intcor
     16.82     -19.32       3.47        0.00      67.97       2.22       0.22       2.28       ----

> <Gold.Chemscore.Fitness>
16.8178

> <Gold.Chemscore.DG>
-19.3171

> <Gold.Chemscore.ZeroCoef>
-5.4800

> <Gold.Chemscore.Hbond>
3.4651

> <Gold.Chemscore.Metal>
0.0000

> <Gold.Chemscore.Lipo>
67.9732

> <Gold.Chemscore.Internal_Hbond>
0.0000

> <Gold.Chemscore.DEClash>
0.2213

> <Gold.Chemscore.DEInternal>
2.2780

> <Gold.Chemscore.Rot>
2.2224

> <Gold.Chemscore.Internal.Correction>
   9.000000E+99

> <Gold.Chemscore.Hbonds>
donor molecule, donor type, donor heavy atom, donor atom, acceptor molecule, acceptor atom, score
      L1  H     9    29       P1  7948  0.20
      L1  H    12    30       P1  7948  0.33
      L1  H    17    37       P1 10186  0.97
      P1  H 10785 10796       L1    17  0.51

> <Gold.Chemscore.Hbond.Weighted>
-11.5735

> <Gold.Chemscore.Metal.Weighted>
-0.0000

> <Gold.Chemscore.Lipo.Weighted>
-7.9529

> <Gold.Chemscore.Internal_Hbond.Weighted>
0.0000

> <Gold.Chemscore.DEClash.Weighted>
0.2213

> <Gold.Chemscore.DEInternal.Weighted>
2.2780

> <Gold.Chemscore.Rot.Weighted>
5.6893

> <Gold.Chemscore.Internal.Correction.Weighted>
   9.000000E+99

> <Gold.Protein.RotatedTorsions>
[ 6907 6896 6895 6894 ] final   34.92 input  -60.11 | X-H torsion
[ 7974 7965 7964 7962 ] final   -5.07 input  175.53 | X-H torsion
[ 8008 7997 7996 7995 ] final  133.46 input   59.86 | X-H torsion
[ 10167 10162 10161 10158 ] final   33.41 input  -65.29 | X-H torsion
[ 10718 10713 10712 10709 ] final -141.78 input   66.30 | X-H torsion
[ 10763 10752 10751 10750 ] final   19.87 input  -60.55 | X-H torsion
[ 11005 11000 10999 10996 ] final -119.63 input  -57.11 | X-H torsion

> <Gold.Protein.ActiveResidues>
 VAL166  LYS551  ARG553  GLY616  TRP617  ASP618  TYR619  PRO620  LYS621  CYS622 
 ASP623  PHE694  ASN695  SER759  ASP760  ASP761  ALA762  ILE779  LEU786  VAL792 
 PHE793  MET794  SER795  GLU796  ALA797  LYS798  CYS799  TRP800  GLU811  SER814 

> <Gold.Protein.RotatedAtoms>
  152.1090  134.9288  160.0567 H   0  0  0  0  0  0  0  0  0  0  0  0  # atno 6907 bound_to 6896
  152.0473  133.3998  159.4370 H   0  0  0  0  0  0  0  0  0  0  0  0  # atno 6908 bound_to 6896
  150.6842  134.3268  159.4854 H   0  0  0  0  0  0  0  0  0  0  0  0  # atno 6909 bound_to 6896
  146.2360  140.1966  142.8333 H   0  0  0  0  0  0  0  0  0  0  0  0  # atno 7974 bound_to 7965
  156.2992  140.2521  156.3256 H   0  0  0  0  0  0  0  0  0  0  0  0  # atno 8008 bound_to 7997
  154.9193  140.0401  157.2008 H   0  0  0  0  0  0  0  0  0  0  0  0  # atno 8009 bound_to 7997
  154.8327  140.2878  155.5716 H   0  0  0  0  0  0  0  0  0  0  0  0  # atno 8010 bound_to 7997
  140.4410  144.1187  150.6174 H   0  0  0  0  0  0  0  0  0  0  0  0  # atno 10167 bound_to 10162
  156.3381  130.7622  151.1754 H   0  0  0  0  0  0  0  0  0  0  0  0  # atno 10718 bound_to 10713
  153.1125  135.6700  153.9475 H   0  0  0  0  0  0  0  0  0  0  0  0  # atno 10763 bound_to 10752
  153.9014  135.3035  155.3450 H   0  0  0  0  0  0  0  0  0  0  0  0  # atno 10764 bound_to 10752
  154.7544  135.5019  153.9425 H   0  0  0  0  0  0  0  0  0  0  0  0  # atno 10765 bound_to 10752
  141.0202  134.0136  157.3293 H   0  0  0  0  0  0  0  0  0  0  0  0  # atno 11005 bound_to 11000
  144.9815  140.8464  143.5394 LP  0  0  0  0  0  0  0  0  0  0  0  0  # atno 17320 bound_to 7965
  145.1960  139.2276  143.5218 LP  0  0  0  0  0  0  0  0  0  0  0  0  # atno 17321 bound_to 7965
  140.4318  143.2565  151.9585 LP  0  0  0  0  0  0  0  0  0  0  0  0  # atno 17342 bound_to 10162
  139.4789  144.5736  151.8047 LP  0  0  0  0  0  0  0  0  0  0  0  0  # atno 17343 bound_to 10162
  157.7442  131.0462  150.4882 LP  0  0  0  0  0  0  0  0  0  0  0  0  # atno 17370 bound_to 10713
  156.5058  130.4128  149.6328 LP  0  0  0  0  0  0  0  0  0  0  0  0  # atno 17371 bound_to 10713
  139.9141  135.0194  156.7812 LP  0  0  0  0  0  0  0  0  0  0  0  0  # atno 17394 bound_to 11000
  140.6586  133.9666  155.7793 LP  0  0  0  0  0  0  0  0  0  0  0  0  # atno 17395 bound_to 11000

$$$$
