AV-unprocessed.smi:1207|AV-procd|sdf|5056|dock2
  -GOLD-   22720 4 93D 1   1.00000     0.00000
 Structure written by MMmdl.
 52 54  0  0  0  0  0  0  0  0  2 V2000
  152.8738  143.1037  161.3695 C   0  0  0  0  0  0  0  0  0  0  0  0
  152.3424  142.6612  160.0166 C   0  0  0  0  0  0  0  0  0  0  0  0
  152.7933  141.4319  159.4842 C   0  0  0  0  0  0  0  0  0  0  0  0
  152.2940  141.0576  158.2423 C   0  0  0  0  0  0  0  0  0  0  0  0
  152.5403  139.9281  157.4581 N   0  3  0  0  0  0  0  0  0  0  0  0
  151.8150  140.0066  156.3079 C   0  0  0  0  0  0  0  0  0  0  0  0
  151.1085  141.1686  156.3482 N   0  0  0  0  0  0  0  0  0  0  0  0
  150.1783  141.7434  155.3679 C   0  0  0  0  0  0  0  0  0  0  0  0
  149.3096  140.6772  154.6733 C   0  0  1  0  0  0  0  0  0  0  0  0
  150.0941  140.0010  153.7101 O   0  0  0  0  0  0  0  0  0  0  0  0
  148.7705  139.6430  155.6816 C   0  0  0  0  0  0  0  0  0  0  0  0
  148.6063  138.2814  155.1658 N   0  0  0  0  0  0  0  0  0  0  0  0
  147.5650  138.2118  154.1397 C   0  0  0  0  0  0  0  0  0  0  0  0
  148.3247  137.3510  156.2602 C   0  0  0  0  0  0  0  0  0  0  0  0
  149.5359  137.0543  157.1074 C   0  0  0  0  0  0  0  0  0  0  0  0
  150.8937  136.9456  156.6921 C   0  0  0  0  0  0  0  0  0  0  0  0
  151.4617  137.1010  155.3107 C   0  0  0  0  0  0  0  0  0  0  0  0
  151.7003  136.6759  157.7050 N   0  0  0  0  0  0  0  0  0  0  0  0
  150.8821  136.6008  158.8366 O   0  0  0  0  0  0  0  0  0  0  0  0
  149.5998  136.8289  158.4550 C   0  0  0  0  0  0  0  0  0  0  0  0
  148.5658  136.7961  159.5290 C   0  0  0  0  0  0  0  0  0  0  0  0
  151.3754  141.8572  157.5354 C   0  0  0  0  0  0  0  0  0  0  0  0
  150.9181  143.0691  158.0461 C   0  0  0  0  0  0  0  0  0  0  0  0
  151.4167  143.4690  159.3065 C   0  0  0  0  0  0  0  0  0  0  0  0
  150.9398  144.7891  159.8875 C   0  0  0  0  0  0  0  0  0  0  0  0
  153.5484  142.3608  161.7959 H   0  0  0  0  0  0  0  0  0  0  0  0
  152.0559  143.2531  162.0747 H   0  0  0  0  0  0  0  0  0  0  0  0
  153.4256  144.0392  161.2749 H   0  0  0  0  0  0  0  0  0  0  0  0
  153.4980  140.8118  160.0186 H   0  0  0  0  0  0  0  0  0  0  0  0
  151.8051  139.2815  155.5068 H   0  0  0  0  0  0  0  0  0  0  0  0
  149.5495  142.4624  155.8951 H   0  0  0  0  0  0  0  0  0  0  0  0
  150.7559  142.3133  154.6391 H   0  0  0  0  0  0  0  0  0  0  0  0
  148.4924  141.1796  154.1587 H   0  0  0  0  0  0  0  0  0  0  0  0
  149.6750  140.0956  152.8680 H   0  0  0  0  0  0  0  0  0  0  0  0
  149.4512  139.6287  156.5343 H   0  0  0  0  0  0  0  0  0  0  0  0
  147.8142  139.9903  156.0756 H   0  0  0  0  0  0  0  0  0  0  0  0
  147.4448  137.1947  153.7661 H   0  0  0  0  0  0  0  0  0  0  0  0
  147.8098  138.8286  153.2768 H   0  0  0  0  0  0  0  0  0  0  0  0
  146.6022  138.5402  154.5328 H   0  0  0  0  0  0  0  0  0  0  0  0
  147.5484  137.7750  156.8984 H   0  0  0  0  0  0  0  0  0  0  0  0
  147.8946  136.4333  155.8569 H   0  0  0  0  0  0  0  0  0  0  0  0
  151.0621  137.9904  154.8231 H   0  0  0  0  0  0  0  0  0  0  0  0
  151.2127  136.2408  154.6891 H   0  0  0  0  0  0  0  0  0  0  0  0
  152.5483  137.1956  155.3282 H   0  0  0  0  0  0  0  0  0  0  0  0
  147.5795  136.5882  159.1139 H   0  0  0  0  0  0  0  0  0  0  0  0
  148.5194  137.7544  160.0460 H   0  0  0  0  0  0  0  0  0  0  0  0
  148.7914  136.0235  160.2642 H   0  0  0  0  0  0  0  0  0  0  0  0
  150.2140  143.6833  157.5041 H   0  0  0  0  0  0  0  0  0  0  0  0
  150.2452  145.2938  159.2152 H   0  0  0  0  0  0  0  0  0  0  0  0
  151.7827  145.4590  160.0595 H   0  0  0  0  0  0  0  0  0  0  0  0
  150.4266  144.6261  160.8355 H   0  0  0  0  0  0  0  0  0  0  0  0
  153.1583  139.1602  157.6868 H   0  0  0  0  0  0  0  0  0  0  0  0
  1  2  1  0  0  0  0
  1 26  1  0  0  0  0
  1 27  1  0  0  0  0
  1 28  1  0  0  0  0
  2 24  1  0  0  0  0
  2  3  2  0  0  0  0
  3  4  1  0  0  0  0
  3 29  1  0  0  0  0
  4 22  2  0  0  0  0
  4  5  1  0  0  0  0
  5  6  2  0  0  0  0
  5 52  1  0  0  0  0
  6  7  1  0  0  0  0
  6 30  1  0  0  0  0
  7  8  1  0  0  0  0
  7 22  1  0  0  0  0
  8  9  1  0  0  0  0
  8 31  1  0  0  0  0
  8 32  1  0  0  0  0
  9 10  1  0  0  0  0
  9 11  1  0  0  0  0
  9 33  1  0  0  0  0
 10 34  1  0  0  0  0
 11 12  1  0  0  0  0
 11 35  1  0  0  0  0
 11 36  1  0  0  0  0
 12 13  1  0  0  0  0
 12 14  1  0  0  0  0
 13 37  1  0  0  0  0
 13 38  1  0  0  0  0
 13 39  1  0  0  0  0
 14 15  1  0  0  0  0
 14 40  1  0  0  0  0
 14 41  1  0  0  0  0
 15 20  2  0  0  0  0
 15 16  1  0  0  0  0
 16 17  1  0  0  0  0
 16 18  2  0  0  0  0
 17 42  1  0  0  0  0
 17 43  1  0  0  0  0
 17 44  1  0  0  0  0
 18 19  1  0  0  0  0
 19 20  1  0  0  0  0
 20 21  1  0  0  0  0
 21 45  1  0  0  0  0
 21 46  1  0  0  0  0
 21 47  1  0  0  0  0
 22 23  1  0  0  0  0
 23 24  2  0  0  0  0
 23 48  1  0  0  0  0
 24 25  1  0  0  0  0
 25 49  1  0  0  0  0
 25 50  1  0  0  0  0
 25 51  1  0  0  0  0
M  CHG  1   5   1
M  END
> <s_m_source_file>
AV-unprocessed.smi

> <i_m_source_file_index>
1207

> <i_lp_mmshare_version>
43012

> <i_f3d_flags>
0

> <s_epik_input>
W0NIM11jKFtjSF0xKWMoW0NIM10pW2NIXWMoYzEyKW4oW2NIXW4yKVtDSDJdW0NASF0oW09IXSlbQ0gyXU4oW0NIM10pW0NIMl1jM2MoW0NIM10pbm9jM1tDSDNd

> <s_epik_cmdline>
J2VwaWtfcHl0aG9uJywgJy1waCcsICc3LjAnLCAnLXRuJywgJzgnLCAnLW1hJywgJzIwMCcsICctbWV0YWxfYmluZGluZycsICctaW1hZScsICc8aW5maWxlLm1hZT4nLCAnLW9tYWUnLCAnPG91dGZpbGUubWFlPic=

> <r_epik_Ionization_Penalty>
1.48114

> <r_epik_Ionization_Penalty_Charging>
1.21121

> <r_epik_Ionization_Penalty_Neutral>
0.269933

> <r_epik_State_Penalty>
1.53013

> <r_epik_Charging_Adjusted_Penalty>
2.74134

> <i_epik_Tot_Q>
1

> <i_epik_Tot_abs_Q>
1

> <r_epik_Metal_State_Penalty>
1.60462

> <b_epik_Metal_Only>
0

> <s_lp_Force_Field>
OPLS_2005

> <r_lp_Energy>
20.0432

> <b_lp_Chiralities_Consistent>
1

> <s_lp_Variant>
AV-unprocessed.smi:1207-8

> <Gold.Version>
5.8.1

> <Gold.Id.Protein>
6NUR|6NUR_protein|mol2

> <Gold.PLP.Fitness>
48.8643

> <Gold.PLP.PLP>
-42.8474

> <Gold.PLP.part.hbond>
-3.4218

> <Gold.PLP.part.metal>
0.0000

> <Gold.PLP.part.buried>
-6.6681

> <Gold.PLP.part.nonpolar>
-32.8835

> <Gold.PLP.part.repulsive>
0.1663

> <Gold.PLP.ligand.clash>
0.0000

> <Gold.PLP.ligand.torsion>
1.3871

> <Gold.PLP.Chemscore.Hbond>
2.8480

> <Gold.PLP.Chemscore.CHOScore>
0.0000

> <Gold.PLP.Chemscore.Metal>
0.0000

> <Gold.Chemscore.Hbonds>
donor molecule, donor type, donor heavy atom, donor atom, acceptor molecule, acceptor atom, score
      L1  H    10    34       P1  7957  1.00
      P1  H  6896  6908       L1    19  0.99
      P1  H  7989  7998       L1    10  0.80

> <Gold.PLP.Chemscore.Internal.Correction>
0.2471

> <Gold.Rescore>
     Score         DG    S(hbond)    S(metal)    S(lipo)     H(rot)  DE(clash)    DE(int)     intcor
     16.58     -19.45       1.88        0.00     119.37       2.46       1.30       1.56       ----

> <Gold.Chemscore.Fitness>
16.5841

> <Gold.Chemscore.DG>
-19.4523

> <Gold.Chemscore.ZeroCoef>
-5.4800

> <Gold.Chemscore.Hbond>
1.8838

> <Gold.Chemscore.Metal>
0.0000

> <Gold.Chemscore.Lipo>
119.3707

> <Gold.Chemscore.Internal_Hbond>
0.0000

> <Gold.Chemscore.DEClash>
1.3034

> <Gold.Chemscore.DEInternal>
1.5647

> <Gold.Chemscore.Rot>
2.4555

> <Gold.Chemscore.Internal.Correction>
   9.000000E+99

> <Gold.Chemscore.Hbonds>
donor molecule, donor type, donor heavy atom, donor atom, acceptor molecule, acceptor atom, score
      L1  H    10    34       P1  7957  0.98
      P1  H  6896  6908       L1    19  0.76
      P1  H  7989  7998       L1    10  0.21

> <Gold.Chemscore.Hbond.Weighted>
-6.2919

> <Gold.Chemscore.Metal.Weighted>
-0.0000

> <Gold.Chemscore.Lipo.Weighted>
-13.9664

> <Gold.Chemscore.Internal_Hbond.Weighted>
0.0000

> <Gold.Chemscore.DEClash.Weighted>
1.3034

> <Gold.Chemscore.DEInternal.Weighted>
1.5647

> <Gold.Chemscore.Rot.Weighted>
6.2861

> <Gold.Chemscore.Internal.Correction.Weighted>
   9.000000E+99

> <Gold.Protein.RotatedTorsions>
[ 6907 6896 6895 6894 ] final -141.49 input  -60.11 | X-H torsion
[ 7974 7965 7964 7962 ] final  128.72 input  175.53 | X-H torsion
[ 8008 7997 7996 7995 ] final  176.93 input   59.86 | X-H torsion
[ 10167 10162 10161 10158 ] final  -40.20 input  -65.29 | X-H torsion
[ 10718 10713 10712 10709 ] final   39.87 input   66.30 | X-H torsion
[ 10763 10752 10751 10750 ] final  111.64 input  -60.55 | X-H torsion
[ 11005 11000 10999 10996 ] final  112.17 input  -57.11 | X-H torsion

> <Gold.Protein.ActiveResidues>
 VAL166  LYS551  ARG553  GLY616  TRP617  ASP618  TYR619  PRO620  LYS621  CYS622 
 ASP623  PHE694  ASN695  SER759  ASP760  ASP761  ALA762  ILE779  LEU786  VAL792 
 PHE793  MET794  SER795  GLU796  ALA797  LYS798  CYS799  TRP800  GLU811  SER814 

> <Gold.Protein.RotatedAtoms>
  151.0744  133.5440  159.2624 H   0  0  0  0  0  0  0  0  0  0  0  0  # atno 6907 bound_to 6896
  151.2367  135.0573  159.9019 H   0  0  0  0  0  0  0  0  0  0  0  0  # atno 6908 bound_to 6896
  152.5416  134.0525  159.8170 H   0  0  0  0  0  0  0  0  0  0  0  0  # atno 6909 bound_to 6896
  145.0365  139.4000  143.5123 H   0  0  0  0  0  0  0  0  0  0  0  0  # atno 7974 bound_to 7965
  156.0712  140.1371  156.9826 H   0  0  0  0  0  0  0  0  0  0  0  0  # atno 8008 bound_to 7997
  154.4533  140.0971  156.6733 H   0  0  0  0  0  0  0  0  0  0  0  0  # atno 8009 bound_to 7997
  155.5225  140.3456  155.4412 H   0  0  0  0  0  0  0  0  0  0  0  0  # atno 8010 bound_to 7997
  140.7041  143.3167  151.2891 H   0  0  0  0  0  0  0  0  0  0  0  0  # atno 10167 bound_to 10162
  157.3756  130.7725  149.7152 H   0  0  0  0  0  0  0  0  0  0  0  0  # atno 10718 bound_to 10713
  153.4662  135.3711  155.2366 H   0  0  0  0  0  0  0  0  0  0  0  0  # atno 10763 bound_to 10752
  154.8757  135.3920  154.3866 H   0  0  0  0  0  0  0  0  0  0  0  0  # atno 10764 bound_to 10752
  153.4447  135.7084  153.6211 H   0  0  0  0  0  0  0  0  0  0  0  0  # atno 10765 bound_to 10752
  139.8921  134.9524  156.6545 H   0  0  0  0  0  0  0  0  0  0  0  0  # atno 11005 bound_to 11000
  146.3505  139.9943  142.8682 LP  0  0  0  0  0  0  0  0  0  0  0  0  # atno 17320 bound_to 7965
  145.1703  140.9717  143.4326 LP  0  0  0  0  0  0  0  0  0  0  0  0  # atno 17321 bound_to 7965
  139.6608  144.0192  152.2691 LP  0  0  0  0  0  0  0  0  0  0  0  0  # atno 17342 bound_to 10162
  139.9759  144.6462  150.7946 LP  0  0  0  0  0  0  0  0  0  0  0  0  # atno 17343 bound_to 10162
  155.9764  130.4075  150.3779 LP  0  0  0  0  0  0  0  0  0  0  0  0  # atno 17370 bound_to 10713
  157.1875  131.0407  151.2717 LP  0  0  0  0  0  0  0  0  0  0  0  0  # atno 17371 bound_to 10713
  140.7495  133.8909  155.8336 LP  0  0  0  0  0  0  0  0  0  0  0  0  # atno 17394 bound_to 11000
  141.0012  134.1147  157.4315 LP  0  0  0  0  0  0  0  0  0  0  0  0  # atno 17395 bound_to 11000

$$$$
