AV-unprocessed.smi:1244|AV-procd|sdf|5221|dock7
  -GOLD-   22720 4323D 1   1.00000     0.00000
 Structure written by MMmdl.
 54 56  0  0  0  0  0  0  0  0  1 V2000
  150.5645  141.8385  157.1716 C   0  0  0  0  0  0  0  0  0  0  0  0
  150.2134  140.3409  157.1942 C   0  0  2  0  0  0  0  0  0  0  0  0
  151.0759  139.4958  156.2354 C   0  0  0  0  0  0  0  0  0  0  0  0
  150.7182  139.6876  154.8338 N   0  0  0  0  0  0  0  0  0  0  0  0
  151.5593  138.8678  153.9630 C   0  0  0  0  0  0  0  0  0  0  0  0
  151.6682  137.3872  154.3755 C   0  0  0  0  0  0  0  0  0  0  0  0
  150.4415  136.6553  154.0831 N   0  0  0  0  0  0  0  0  0  0  0  0
  149.7580  135.9159  154.9678 C   0  0  0  0  0  0  0  0  0  0  0  0
  150.0867  135.7896  156.1475 O   0  0  0  0  0  0  0  0  0  0  0  0
  148.6969  135.3252  154.3928 N   0  0  0  0  0  0  0  0  0  0  0  0
  147.7454  134.4542  154.9954 C   0  0  0  0  0  0  0  0  0  0  0  0
  147.6812  134.2906  156.4009 C   0  0  0  0  0  0  0  0  0  0  0  0
  146.7371  133.4073  156.9514 C   0  0  0  0  0  0  0  0  0  0  0  0
  145.8840  132.7173  156.0747 C   0  0  0  0  0  0  0  0  0  0  0  0
  145.9189  132.8761  154.7368 N   0  0  0  0  0  0  0  0  0  0  0  0
  146.8137  133.7364  154.1907 C   0  0  0  0  0  0  0  0  0  0  0  0
  146.7888  133.8708  152.7831 N   0  0  0  0  0  0  0  0  0  0  0  0
  147.1498  132.7456  151.9268 C   0  0  0  0  0  0  0  0  0  0  0  0
  146.6442  133.1268  150.5385 C   0  0  0  0  0  0  0  0  0  0  0  0
  145.3596  133.8845  150.8588 C   0  0  0  0  0  0  0  0  0  0  0  0
  145.6805  134.6009  152.1749 C   0  0  0  0  0  0  0  0  0  0  0  0
  149.2950  139.4095  154.6660 C   0  0  0  0  0  0  0  0  0  0  0  0
  148.4245  140.2919  155.5792 C   0  0  1  0  0  0  0  0  0  0  0  0
  146.9374  139.9376  155.4738 C   0  0  0  0  0  0  0  0  0  0  0  0
  148.8264  140.1166  156.9365 O   0  0  0  0  0  0  0  0  0  0  0  0
  151.5958  141.9992  157.4864 H   0  0  0  0  0  0  0  0  0  0  0  0
  149.9213  142.3989  157.8505 H   0  0  0  0  0  0  0  0  0  0  0  0
  150.4575  142.2704  156.1767 H   0  0  0  0  0  0  0  0  0  0  0  0
  150.3968  139.9869  158.2091 H   0  0  0  0  0  0  0  0  0  0  0  0
  152.1292  139.7343  156.3887 H   0  0  0  0  0  0  0  0  0  0  0  0
  150.9596  138.4427  156.4962 H   0  0  0  0  0  0  0  0  0  0  0  0
  151.1497  138.9047  152.9526 H   0  0  0  0  0  0  0  0  0  0  0  0
  152.5571  139.3042  153.8964 H   0  0  0  0  0  0  0  0  0  0  0  0
  152.4735  136.8926  153.8342 H   0  0  0  0  0  0  0  0  0  0  0  0
  151.9069  137.3032  155.4371 H   0  0  0  0  0  0  0  0  0  0  0  0
  150.0989  136.7014  153.1347 H   0  0  0  0  0  0  0  0  0  0  0  0
  148.6158  135.4295  153.3922 H   0  0  0  0  0  0  0  0  0  0  0  0
  148.3364  134.8341  157.0647 H   0  0  0  0  0  0  0  0  0  0  0  0
  146.6706  133.2613  158.0194 H   0  0  0  0  0  0  0  0  0  0  0  0
  145.1482  132.0257  156.4574 H   0  0  0  0  0  0  0  0  0  0  0  0
  148.2259  132.5693  151.9336 H   0  0  0  0  0  0  0  0  0  0  0  0
  146.6499  131.8333  152.2548 H   0  0  0  0  0  0  0  0  0  0  0  0
  147.3577  133.7916  150.0493 H   0  0  0  0  0  0  0  0  0  0  0  0
  146.4837  132.2632  149.8925 H   0  0  0  0  0  0  0  0  0  0  0  0
  145.0585  134.5691  150.0654 H   0  0  0  0  0  0  0  0  0  0  0  0
  144.5468  133.1742  151.0165 H   0  0  0  0  0  0  0  0  0  0  0  0
  144.8079  134.6452  152.8282 H   0  0  0  0  0  0  0  0  0  0  0  0
  146.0043  135.6216  151.9705 H   0  0  0  0  0  0  0  0  0  0  0  0
  148.9952  139.5829  153.6333 H   0  0  0  0  0  0  0  0  0  0  0  0
  149.0977  138.3575  154.8770 H   0  0  0  0  0  0  0  0  0  0  0  0
  148.5478  141.3383  155.2984 H   0  0  0  0  0  0  0  0  0  0  0  0
  146.5745  140.0661  154.4538 H   0  0  0  0  0  0  0  0  0  0  0  0
  146.3382  140.5768  156.1225 H   0  0  0  0  0  0  0  0  0  0  0  0
  146.7564  138.9028  155.7663 H   0  0  0  0  0  0  0  0  0  0  0  0
  1  2  1  0  0  0  0
  1 26  1  0  0  0  0
  1 27  1  0  0  0  0
  1 28  1  0  0  0  0
  2 25  1  0  0  0  0
  2  3  1  0  0  0  0
  2 29  1  0  0  0  0
  3  4  1  0  0  0  0
  3 30  1  0  0  0  0
  3 31  1  0  0  0  0
  4  5  1  0  0  0  0
  4 22  1  0  0  0  0
  5  6  1  0  0  0  0
  5 32  1  0  0  0  0
  5 33  1  0  0  0  0
  6  7  1  0  0  0  0
  6 34  1  0  0  0  0
  6 35  1  0  0  0  0
  7  8  1  0  0  0  0
  7 36  1  0  0  0  0
  8  9  2  0  0  0  0
  8 10  1  0  0  0  0
 10 11  1  0  0  0  0
 10 37  1  0  0  0  0
 11 16  1  0  0  0  0
 11 12  2  0  0  0  0
 12 13  1  0  0  0  0
 12 38  1  0  0  0  0
 13 14  2  0  0  0  0
 13 39  1  0  0  0  0
 14 15  1  0  0  0  0
 14 40  1  0  0  0  0
 15 16  2  0  0  0  0
 16 17  1  0  0  0  0
 17 21  1  0  0  0  0
 17 18  1  0  0  0  0
 18 19  1  0  0  0  0
 18 41  1  0  0  0  0
 18 42  1  0  0  0  0
 19 20  1  0  0  0  0
 19 43  1  0  0  0  0
 19 44  1  0  0  0  0
 20 21  1  0  0  0  0
 20 45  1  0  0  0  0
 20 46  1  0  0  0  0
 21 47  1  0  0  0  0
 21 48  1  0  0  0  0
 22 23  1  0  0  0  0
 22 49  1  0  0  0  0
 22 50  1  0  0  0  0
 23 24  1  0  0  0  0
 23 25  1  0  0  0  0
 23 51  1  0  0  0  0
 24 52  1  0  0  0  0
 24 53  1  0  0  0  0
 24 54  1  0  0  0  0
M  END
> <s_m_source_file>
AV-unprocessed.smi

> <i_m_source_file_index>
1244

> <i_lp_mmshare_version>
43012

> <i_f3d_flags>
0

> <s_epik_input>
W0NIM11bQ0BASF0xW0NIMl1OKFtDSDJdW0NASF0oTzEpW0NIM10pW0NIMl1bQ0gyXVtOSF1DKD1PKVtOSF1jMltjSF1bY0hdW2NIXW5jMk4zW0NIMl1bQ0gyXVtDSDJdW0NIMl0z

> <s_epik_cmdline>
J2VwaWtfcHl0aG9uJywgJy1waCcsICc3LjAnLCAnLXRuJywgJzgnLCAnLW1hJywgJzIwMCcsICctbWV0YWxfYmluZGluZycsICctaW1hZScsICc8aW5maWxlLm1hZT4nLCAnLW9tYWUnLCAnPG91dGZpbGUubWFlPic=

> <r_lp_tautomer_probability>
1

> <r_epik_Ionization_Penalty>
0.363951

> <r_epik_Ionization_Penalty_Charging>
0

> <r_epik_Ionization_Penalty_Neutral>
0.363951

> <r_epik_State_Penalty>
0.349372

> <r_epik_Charging_Adjusted_Penalty>
0.349372

> <i_epik_Tot_Q>
0

> <i_epik_Tot_abs_Q>
0

> <r_epik_Metal_State_Penalty>
0.333054

> <b_epik_Metal_Only>
0

> <s_lp_Force_Field>
OPLS_2005

> <r_lp_Energy>
51.1959

> <b_lp_Chiralities_Consistent>
1

> <s_lp_Variant>
AV-unprocessed.smi:1244-1

> <Gold.Version>
5.8.1

> <Gold.Id.Protein>
6NUR|6NUR_protein|mol2

> <Gold.PLP.Fitness>
42.2955

> <Gold.PLP.PLP>
-32.2666

> <Gold.PLP.part.hbond>
-3.0000

> <Gold.PLP.part.metal>
0.0000

> <Gold.PLP.part.buried>
-3.6735

> <Gold.PLP.part.nonpolar>
-26.2093

> <Gold.PLP.part.repulsive>
0.3505

> <Gold.PLP.ligand.clash>
0.0000

> <Gold.PLP.ligand.torsion>
0.3437

> <Gold.PLP.Chemscore.Hbond>
2.6088

> <Gold.PLP.Chemscore.CHOScore>
0.8458

> <Gold.PLP.Chemscore.Metal>
0.0000

> <Gold.Chemscore.Hbonds>
donor molecule, donor type, donor heavy atom, donor atom, acceptor molecule, acceptor atom, score
      L1  H     7    36       P1  7948  0.50
      L1  H    10    37       P1  7948  1.00

> <Gold.PLP.Chemscore.Internal.Correction>
0.3527

> <Gold.Rescore>
     Score         DG    S(hbond)    S(metal)    S(lipo)     H(rot)  DE(clash)    DE(int)     intcor
     13.48     -16.19       1.53        0.00      81.73       1.55       0.03       2.67       ----

> <Gold.Chemscore.Fitness>
13.4821

> <Gold.Chemscore.DG>
-16.1899

> <Gold.Chemscore.ZeroCoef>
-5.4800

> <Gold.Chemscore.Hbond>
1.5299

> <Gold.Chemscore.Metal>
0.0000

> <Gold.Chemscore.Lipo>
81.7341

> <Gold.Chemscore.Internal_Hbond>
0.0000

> <Gold.Chemscore.DEClash>
0.0339

> <Gold.Chemscore.DEInternal>
2.6739

> <Gold.Chemscore.Rot>
1.5479

> <Gold.Chemscore.Internal.Correction>
   9.000000E+99

> <Gold.Chemscore.Hbonds>
donor molecule, donor type, donor heavy atom, donor atom, acceptor molecule, acceptor atom, score
      L1  H     7    36       P1  7948  0.02
      L1  H    10    37       P1  7948  0.92

> <Gold.Chemscore.Hbond.Weighted>
-5.1097

> <Gold.Chemscore.Metal.Weighted>
-0.0000

> <Gold.Chemscore.Lipo.Weighted>
-9.5629

> <Gold.Chemscore.Internal_Hbond.Weighted>
0.0000

> <Gold.Chemscore.DEClash.Weighted>
0.0339

> <Gold.Chemscore.DEInternal.Weighted>
2.6739

> <Gold.Chemscore.Rot.Weighted>
3.9627

> <Gold.Chemscore.Internal.Correction.Weighted>
   9.000000E+99

> <Gold.Protein.RotatedTorsions>
[ 6907 6896 6895 6894 ] final   36.91 input  -60.11 | X-H torsion
[ 7974 7965 7964 7962 ] final  -78.76 input  175.53 | X-H torsion
[ 8008 7997 7996 7995 ] final   33.82 input   59.86 | X-H torsion
[ 10167 10162 10161 10158 ] final   -5.28 input  -65.29 | X-H torsion
[ 10718 10713 10712 10709 ] final   30.60 input   66.30 | X-H torsion
[ 10763 10752 10751 10750 ] final  -62.95 input  -60.55 | X-H torsion
[ 11005 11000 10999 10996 ] final  115.89 input  -57.11 | X-H torsion

> <Gold.Protein.ActiveResidues>
 VAL166  LYS551  ARG553  GLY616  TRP617  ASP618  TYR619  PRO620  LYS621  CYS622 
 ASP623  PHE694  ASN695  SER759  ASP760  ASP761  ALA762  ILE779  LEU786  VAL792 
 PHE793  MET794  SER795  GLU796  ALA797  LYS798  CYS799  TRP800  GLU811  SER814 

> <Gold.Protein.RotatedAtoms>
  152.1361  134.9098  160.0556 H   0  0  0  0  0  0  0  0  0  0  0  0  # atno 6907 bound_to 6896
  152.0184  133.3884  159.4256 H   0  0  0  0  0  0  0  0  0  0  0  0  # atno 6908 bound_to 6896
  150.6860  134.3575  159.4979 H   0  0  0  0  0  0  0  0  0  0  0  0  # atno 6909 bound_to 6896
  145.5822  140.9446  143.1338 H   0  0  0  0  0  0  0  0  0  0  0  0  # atno 7974 bound_to 7965
  155.1448  140.3269  155.4444 H   0  0  0  0  0  0  0  0  0  0  0  0  # atno 8008 bound_to 7997
  156.2593  140.1987  156.6512 H   0  0  0  0  0  0  0  0  0  0  0  0  # atno 8009 bound_to 7997
  154.6516  140.0558  156.9948 H   0  0  0  0  0  0  0  0  0  0  0  0  # atno 8010 bound_to 7997
  140.6957  143.6327  150.8508 H   0  0  0  0  0  0  0  0  0  0  0  0  # atno 10167 bound_to 10162
  157.2616  130.7164  149.6457 H   0  0  0  0  0  0  0  0  0  0  0  0  # atno 10718 bound_to 10713
  154.3076  135.6222  153.5451 H   0  0  0  0  0  0  0  0  0  0  0  0  # atno 10763 bound_to 10752
  152.9833  135.5693  154.5213 H   0  0  0  0  0  0  0  0  0  0  0  0  # atno 10764 bound_to 10752
  154.4856  135.2865  155.1513 H   0  0  0  0  0  0  0  0  0  0  0  0  # atno 10765 bound_to 10752
  139.9024  134.9590  156.7114 H   0  0  0  0  0  0  0  0  0  0  0  0  # atno 11005 bound_to 11000
  144.7389  139.7506  143.7318 LP  0  0  0  0  0  0  0  0  0  0  0  0  # atno 17320 bound_to 7965
  146.1708  139.4858  142.9929 LP  0  0  0  0  0  0  0  0  0  0  0  0  # atno 17321 bound_to 7965
  140.0045  143.5709  152.2863 LP  0  0  0  0  0  0  0  0  0  0  0  0  # atno 17342 bound_to 10162
  139.6410  144.7654  151.2339 LP  0  0  0  0  0  0  0  0  0  0  0  0  # atno 17343 bound_to 10162
  155.9664  130.4395  150.5263 LP  0  0  0  0  0  0  0  0  0  0  0  0  # atno 17370 bound_to 10713
  157.3169  131.0674  151.1960 LP  0  0  0  0  0  0  0  0  0  0  0  0  # atno 17371 bound_to 10713
  140.7072  133.9254  155.8061 LP  0  0  0  0  0  0  0  0  0  0  0  0  # atno 17394 bound_to 11000
  141.0327  134.0733  157.3995 LP  0  0  0  0  0  0  0  0  0  0  0  0  # atno 17395 bound_to 11000

$$$$
