AV-unprocessed.smi:3345|AV-procd|sdf|12906|dock9
  -GOLD-   2272019323D 1   1.00000     0.00000
 Structure written by MMmdl.
 41 42  0  0  0  0  0  0  0  0  2 V2000
  148.6968  134.8552  156.4499 C   0  0  0  0  0  0  0  0  0  0  0  0
  148.4691  134.8563  154.9325 C   0  0  1  0  0  0  0  0  0  0  0  0
  146.9651  134.9243  154.5816 C   0  0  0  0  0  0  0  0  0  0  0  0
  146.6982  134.7922  153.1259 N   0  3  0  0  0  0  0  0  0  0  0  0
  146.6621  133.3877  152.6525 C   0  0  0  0  0  0  0  0  0  0  0  0
  146.4727  133.3514  151.1275 C   0  0  0  0  0  0  0  0  0  0  0  0
  145.2722  134.0329  150.7845 O   0  0  0  0  0  0  0  0  0  0  0  0
  145.3069  135.4025  151.1671 C   0  0  0  0  0  0  0  0  0  0  0  0
  145.4801  135.5153  152.6915 C   0  0  0  0  0  0  0  0  0  0  0  0
  149.1876  135.9809  154.3332 N   0  0  0  0  0  0  0  0  0  0  0  0
  149.2314  137.2341  154.8147 C   0  0  0  0  0  0  0  0  0  0  0  0
  148.5817  137.6060  155.7920 O   0  0  0  0  0  0  0  0  0  0  0  0
  150.1994  138.1938  154.1093 C   0  0  1  0  0  0  0  0  0  0  0  0
  149.9622  139.6679  154.4949 C   0  0  0  0  0  0  0  0  0  0  0  0
  151.5714  137.7687  154.3606 N   0  0  0  0  0  0  0  0  0  0  0  0
  152.1313  136.5630  154.2387 C   0  0  0  0  0  0  0  0  0  0  0  0
  153.4008  136.5178  154.6175 N   0  0  0  0  0  0  0  0  0  0  0  0
  153.5761  137.8212  154.9861 C   0  0  0  0  0  0  0  0  0  0  0  0
  152.5048  138.6063  154.8784 N   0  0  0  0  0  0  0  0  0  0  0  0
  148.1892  134.0129  156.9210 H   0  0  0  0  0  0  0  0  0  0  0  0
  148.3220  135.7696  156.9111 H   0  0  0  0  0  0  0  0  0  0  0  0
  149.7580  134.7735  156.6876 H   0  0  0  0  0  0  0  0  0  0  0  0
  148.8732  133.9166  154.5535 H   0  0  0  0  0  0  0  0  0  0  0  0
  146.4036  134.1689  155.1334 H   0  0  0  0  0  0  0  0  0  0  0  0
  146.5853  135.8907  154.9171 H   0  0  0  0  0  0  0  0  0  0  0  0
  147.5843  132.8714  152.9156 H   0  0  0  0  0  0  0  0  0  0  0  0
  145.8473  132.8538  153.1438 H   0  0  0  0  0  0  0  0  0  0  0  0
  147.3246  133.8054  150.6181 H   0  0  0  0  0  0  0  0  0  0  0  0
  146.4054  132.3200  150.7810 H   0  0  0  0  0  0  0  0  0  0  0  0
  146.1153  135.9148  150.6454 H   0  0  0  0  0  0  0  0  0  0  0  0
  144.3772  135.8802  150.8579 H   0  0  0  0  0  0  0  0  0  0  0  0
  144.6074  135.1029  153.2005 H   0  0  0  0  0  0  0  0  0  0  0  0
  145.5515  136.5665  152.9730 H   0  0  0  0  0  0  0  0  0  0  0  0
  149.7412  135.7754  153.5139 H   0  0  0  0  0  0  0  0  0  0  0  0
  150.0272  138.1083  153.0350 H   0  0  0  0  0  0  0  0  0  0  0  0
  148.9442  139.9768  154.2551 H   0  0  0  0  0  0  0  0  0  0  0  0
  150.6392  140.3251  153.9488 H   0  0  0  0  0  0  0  0  0  0  0  0
  150.1179  139.8464  155.5598 H   0  0  0  0  0  0  0  0  0  0  0  0
  151.5966  135.6980  153.8743 H   0  0  0  0  0  0  0  0  0  0  0  0
  154.5144  138.1972  155.3667 H   0  0  0  0  0  0  0  0  0  0  0  0
  147.4722  135.2382  152.6544 H   0  0  0  0  0  0  0  0  0  0  0  0
  1  2  1  0  0  0  0
  1 20  1  0  0  0  0
  1 21  1  0  0  0  0
  1 22  1  0  0  0  0
  2  3  1  0  0  0  0
  2 10  1  0  0  0  0
  2 23  1  0  0  0  0
  3  4  1  0  0  0  0
  3 24  1  0  0  0  0
  3 25  1  0  0  0  0
  4  9  1  0  0  0  0
  4  5  1  0  0  0  0
  4 41  1  0  0  0  0
  5  6  1  0  0  0  0
  5 26  1  0  0  0  0
  5 27  1  0  0  0  0
  6  7  1  0  0  0  0
  6 28  1  0  0  0  0
  6 29  1  0  0  0  0
  7  8  1  0  0  0  0
  8  9  1  0  0  0  0
  8 30  1  0  0  0  0
  8 31  1  0  0  0  0
  9 32  1  0  0  0  0
  9 33  1  0  0  0  0
 10 11  1  0  0  0  0
 10 34  1  0  0  0  0
 11 12  2  0  0  0  0
 11 13  1  0  0  0  0
 13 14  1  0  0  0  0
 13 15  1  0  0  0  0
 13 35  1  0  0  0  0
 14 36  1  0  0  0  0
 14 37  1  0  0  0  0
 14 38  1  0  0  0  0
 15 19  1  0  0  0  0
 15 16  1  0  0  0  0
 16 17  2  0  0  0  0
 16 39  1  0  0  0  0
 17 18  1  0  0  0  0
 18 19  2  0  0  0  0
 18 40  1  0  0  0  0
M  CHG  1   4   1
M  END
> <s_m_source_file>
AV-unprocessed.smi

> <i_m_source_file_index>
3345

> <i_lp_mmshare_version>
43012

> <i_f3d_flags>
0

> <s_epik_input>
W0NIMl0xW0NIMl1PW0NIMl1bQ0gyXU4xW0NIMl1bQ0BASF0oW0NIM10pW05IXUMoPU8pW0NASF0oW0NIM10pbjJbY0hdbltjSF1uMg==

> <s_epik_cmdline>
J2VwaWtfcHl0aG9uJywgJy1waCcsICc3LjAnLCAnLXRuJywgJzgnLCAnLW1hJywgJzIwMCcsICctbWV0YWxfYmluZGluZycsICctaW1hZScsICc8aW5maWxlLm1hZT4nLCAnLW9tYWUnLCAnPG91dGZpbGUubWFlPic=

> <r_lp_tautomer_probability>
1

> <r_epik_Ionization_Penalty>
0.71326

> <r_epik_Ionization_Penalty_Charging>
0.713252

> <r_epik_Ionization_Penalty_Neutral>
8.27671e-06

> <r_epik_State_Penalty>
0.737017

> <r_epik_Charging_Adjusted_Penalty>
1.45027

> <i_epik_Tot_Q>
1

> <i_epik_Tot_abs_Q>
1

> <r_epik_Metal_State_Penalty>
0.73702

> <b_epik_Metal_Only>
0

> <s_lp_Force_Field>
OPLS_2005

> <r_lp_Energy>
25.9196

> <b_lp_Chiralities_Consistent>
1

> <s_lp_Variant>
AV-unprocessed.smi:3345-8

> <Gold.Version>
5.8.1

> <Gold.Id.Protein>
6NUR|6NUR_protein|mol2

> <Gold.PLP.Fitness>
40.0046

> <Gold.PLP.PLP>
-27.7645

> <Gold.PLP.part.hbond>
-3.9381

> <Gold.PLP.part.metal>
0.0000

> <Gold.PLP.part.buried>
-3.4228

> <Gold.PLP.part.nonpolar>
-21.4883

> <Gold.PLP.part.repulsive>
0.2688

> <Gold.PLP.ligand.clash>
0.0000

> <Gold.PLP.ligand.torsion>
0.8945

> <Gold.PLP.Chemscore.Hbond>
3.6240

> <Gold.PLP.Chemscore.CHOScore>
1.0000

> <Gold.PLP.Chemscore.Metal>
0.0000

> <Gold.Chemscore.Hbonds>
donor molecule, donor type, donor heavy atom, donor atom, acceptor molecule, acceptor atom, score
      L1  H     4    41       P1  7948  2.00
      L1  H    10    34       P1  7948  0.25
      L1  C    16    39       P1  7949  0.59

> <Gold.PLP.Chemscore.Internal.Correction>
0.1572

> <Gold.Rescore>
     Score         DG    S(hbond)    S(metal)    S(lipo)     H(rot)  DE(clash)    DE(int)     intcor
      6.58     -10.15       2.01        0.00      39.83       2.61       0.49       3.08       ----

> <Gold.Chemscore.Fitness>
6.5802

> <Gold.Chemscore.DG>
-10.1468

> <Gold.Chemscore.ZeroCoef>
-5.4800

> <Gold.Chemscore.Hbond>
2.0055

> <Gold.Chemscore.Metal>
0.0000

> <Gold.Chemscore.Lipo>
39.8253

> <Gold.Chemscore.Internal_Hbond>
0.0000

> <Gold.Chemscore.DEClash>
0.4908

> <Gold.Chemscore.DEInternal>
3.0758

> <Gold.Chemscore.Rot>
2.6138

> <Gold.Chemscore.Internal.Correction>
   9.000000E+99

> <Gold.Chemscore.Hbonds>
donor molecule, donor type, donor heavy atom, donor atom, acceptor molecule, acceptor atom, score
      L1  H     4    41       P1  7948  1.00
      L1  H    10    34       P1  7948  0.03

> <Gold.Chemscore.Hbond.Weighted>
-6.6984

> <Gold.Chemscore.Metal.Weighted>
-0.0000

> <Gold.Chemscore.Lipo.Weighted>
-4.6596

> <Gold.Chemscore.Internal_Hbond.Weighted>
0.0000

> <Gold.Chemscore.DEClash.Weighted>
0.4908

> <Gold.Chemscore.DEInternal.Weighted>
3.0758

> <Gold.Chemscore.Rot.Weighted>
6.6912

> <Gold.Chemscore.Internal.Correction.Weighted>
   9.000000E+99

> <Gold.Protein.RotatedTorsions>
[ 6907 6896 6895 6894 ] final   12.55 input  -60.11 | X-H torsion
[ 7974 7965 7964 7962 ] final    4.38 input  175.53 | X-H torsion
[ 8008 7997 7996 7995 ] final   50.64 input   59.86 | X-H torsion
[ 10167 10162 10161 10158 ] final  -74.57 input  -65.29 | X-H torsion
[ 10718 10713 10712 10709 ] final  -99.98 input   66.30 | X-H torsion
[ 10763 10752 10751 10750 ] final  111.08 input  -60.55 | X-H torsion
[ 11005 11000 10999 10996 ] final    8.71 input  -57.11 | X-H torsion

> <Gold.Protein.ActiveResidues>
 VAL166  LYS551  ARG553  GLY616  TRP617  ASP618  TYR619  PRO620  LYS621  CYS622 
 ASP623  PHE694  ASN695  SER759  ASP760  ASP761  ALA762  ILE779  LEU786  VAL792 
 PHE793  MET794  SER795  GLU796  ALA797  LYS798  CYS799  TRP800  GLU811  SER814 

> <Gold.Protein.RotatedAtoms>
  151.7721  135.0783  160.0361 H   0  0  0  0  0  0  0  0  0  0  0  0  # atno 6907 bound_to 6896
  152.3281  133.5923  159.5799 H   0  0  0  0  0  0  0  0  0  0  0  0  # atno 6908 bound_to 6896
  150.7407  133.9825  159.3623 H   0  0  0  0  0  0  0  0  0  0  0  0  # atno 6909 bound_to 6896
  146.2444  140.0543  142.8373 H   0  0  0  0  0  0  0  0  0  0  0  0  # atno 7974 bound_to 7965
  155.4221  140.3447  155.4272 H   0  0  0  0  0  0  0  0  0  0  0  0  # atno 8008 bound_to 7997
  156.1386  140.1535  156.8986 H   0  0  0  0  0  0  0  0  0  0  0  0  # atno 8009 bound_to 7997
  154.4952  140.0830  156.7662 H   0  0  0  0  0  0  0  0  0  0  0  0  # atno 8010 bound_to 7997
  140.5015  143.2360  151.7744 H   0  0  0  0  0  0  0  0  0  0  0  0  # atno 10167 bound_to 10162
  156.0149  130.5307  150.6750 H   0  0  0  0  0  0  0  0  0  0  0  0  # atno 10718 bound_to 10713
  153.4582  135.3728  155.2323 H   0  0  0  0  0  0  0  0  0  0  0  0  # atno 10763 bound_to 10752
  154.8757  135.3902  154.3956 H   0  0  0  0  0  0  0  0  0  0  0  0  # atno 10764 bound_to 10752
  153.4526  135.7086  153.6164 H   0  0  0  0  0  0  0  0  0  0  0  0  # atno 10765 bound_to 10752
  140.5339  134.0440  155.7882 H   0  0  0  0  0  0  0  0  0  0  0  0  # atno 11005 bound_to 11000
  145.0956  140.9313  143.4743 LP  0  0  0  0  0  0  0  0  0  0  0  0  # atno 17320 bound_to 7965
  145.0725  139.3020  143.5825 LP  0  0  0  0  0  0  0  0  0  0  0  0  # atno 17321 bound_to 7965
  139.4873  144.4515  151.9648 LP  0  0  0  0  0  0  0  0  0  0  0  0  # atno 17342 bound_to 10162
  140.3604  144.2980  150.5934 LP  0  0  0  0  0  0  0  0  0  0  0  0  # atno 17343 bound_to 10162
  157.4464  131.0867  151.0891 LP  0  0  0  0  0  0  0  0  0  0  0  0  # atno 17370 bound_to 10713
  157.1419  130.6147  149.5557 LP  0  0  0  0  0  0  0  0  0  0  0  0  # atno 17371 bound_to 10713
  141.1266  133.9373  157.2623 LP  0  0  0  0  0  0  0  0  0  0  0  0  # atno 17394 bound_to 11000
  139.9539  135.0169  156.9074 LP  0  0  0  0  0  0  0  0  0  0  0  0  # atno 17395 bound_to 11000

$$$$
