AV-unprocessed.smi:169|AV-procd|sdf|1405|dock9
  -GOLD-   2262019163D 1   1.00000     0.00000
 Structure written by MMmdl.
 56 60  0  0  0  0  0  0  0  0  2 V2000
  146.5059  127.2422  152.5793 C   0  0  0  0  0  0  0  0  0  0  0  0
  147.4243  128.3519  152.0368 C   0  0  0  0  0  0  0  0  0  0  0  0
  146.8700  129.7227  152.1920 N   0  3  1  0  0  0  0  0  0  0  0  0
  145.7820  130.0293  151.2291 C   0  0  0  0  0  0  0  0  0  0  0  0
  145.8246  131.4853  150.7239 C   0  0  0  0  0  0  0  0  0  0  0  0
  145.9928  132.5814  151.8004 C   0  0  2  0  0  0  0  0  0  0  0  0
  147.4663  132.8690  152.1576 C   0  0  0  0  0  0  0  0  0  0  0  0
  147.6485  132.3603  153.5913 C   0  0  0  0  0  0  0  0  0  0  0  0
  146.3710  131.5667  153.8828 C   0  0  2  0  0  0  0  0  0  0  0  0
  146.5214  130.0540  153.6019 C   0  0  0  0  0  0  0  0  0  0  0  0
  145.3478  132.2026  153.0576 N   0  0  0  0  0  0  0  0  0  0  0  0
  144.5399  133.0753  153.7141 C   0  0  0  0  0  0  0  0  0  0  0  0
  143.9797  132.7431  154.9074 N   0  0  0  0  0  0  0  0  0  0  0  0
  143.1782  133.6052  155.5398 C   0  0  0  0  0  0  0  0  0  0  0  0
  142.8073  134.8298  155.1620 N   0  0  0  0  0  0  0  0  0  0  0  0
  143.3624  135.1687  153.9638 C   0  0  0  0  0  0  0  0  0  0  0  0
  144.2344  134.3591  153.1830 C   0  0  0  0  0  0  0  0  0  0  0  0
  144.6113  135.0393  152.0314 N   0  0  0  0  0  0  0  0  0  0  0  0
  143.9940  136.1855  152.1247 C   0  0  0  0  0  0  0  0  0  0  0  0
  143.2114  136.3432  153.2472 N   0  0  0  0  0  0  0  0  0  0  0  0
  142.4175  137.5127  153.5932 C   0  0  0  0  0  0  0  0  0  0  0  0
  140.9266  137.2100  153.8522 C   0  0  0  0  0  0  0  0  0  0  0  0
  140.7113  136.6913  155.2852 C   0  0  0  0  0  0  0  0  0  0  0  0
  139.3564  136.3657  155.5221 O   0  0  0  0  0  0  0  0  0  0  0  0
  139.9345  138.3004  153.4221 C   0  0  0  0  0  0  0  0  0  0  0  0
  139.1270  137.3539  152.6914 O   0  0  0  0  0  0  0  0  0  0  0  0
  140.2096  136.4019  152.7619 C   0  0  0  0  0  0  0  0  0  0  0  0
  146.9542  126.2627  152.4126 H   0  0  0  0  0  0  0  0  0  0  0  0
  145.5340  127.2428  152.0859 H   0  0  0  0  0  0  0  0  0  0  0  0
  146.3393  127.3420  153.6518 H   0  0  0  0  0  0  0  0  0  0  0  0
  148.3922  128.3020  152.5371 H   0  0  0  0  0  0  0  0  0  0  0  0
  147.6281  128.1731  150.9804 H   0  0  0  0  0  0  0  0  0  0  0  0
  145.8568  129.3782  150.3568 H   0  0  0  0  0  0  0  0  0  0  0  0
  144.8136  129.8066  151.6805 H   0  0  0  0  0  0  0  0  0  0  0  0
  146.6024  131.5936  149.9670 H   0  0  0  0  0  0  0  0  0  0  0  0
  144.8889  131.6687  150.1945 H   0  0  0  0  0  0  0  0  0  0  0  0
  145.5651  133.4917  151.3794 H   0  0  0  0  0  0  0  0  0  0  0  0
  148.1576  132.3745  151.4746 H   0  0  0  0  0  0  0  0  0  0  0  0
  147.6763  133.9382  152.1088 H   0  0  0  0  0  0  0  0  0  0  0  0
  148.5582  131.7732  153.7216 H   0  0  0  0  0  0  0  0  0  0  0  0
  147.7097  133.2121  154.2701 H   0  0  0  0  0  0  0  0  0  0  0  0
  146.1400  131.6769  154.9435 H   0  0  0  0  0  0  0  0  0  0  0  0
  145.6017  129.5403  153.8847 H   0  0  0  0  0  0  0  0  0  0  0  0
  147.2987  129.6645  154.2606 H   0  0  0  0  0  0  0  0  0  0  0  0
  142.7758  133.2656  156.4830 H   0  0  0  0  0  0  0  0  0  0  0  0
  144.0855  136.9509  151.3675 H   0  0  0  0  0  0  0  0  0  0  0  0
  142.8720  137.9753  154.4703 H   0  0  0  0  0  0  0  0  0  0  0  0
  142.5238  138.2448  152.7919 H   0  0  0  0  0  0  0  0  0  0  0  0
  141.3325  135.8210  155.4970 H   0  0  0  0  0  0  0  0  0  0  0  0
  141.0019  137.4499  156.0129 H   0  0  0  0  0  0  0  0  0  0  0  0
  139.2159  135.4656  155.2697 H   0  0  0  0  0  0  0  0  0  0  0  0
  139.3974  138.7659  154.2492 H   0  0  0  0  0  0  0  0  0  0  0  0
  140.3569  139.0561  152.7586 H   0  0  0  0  0  0  0  0  0  0  0  0
  140.7586  136.3426  151.8206 H   0  0  0  0  0  0  0  0  0  0  0  0
  139.8797  135.4131  153.0826 H   0  0  0  0  0  0  0  0  0  0  0  0
  147.6345  130.3351  151.9452 H   0  0  0  0  0  0  0  0  0  0  0  0
  1  2  1  0  0  0  0
  1 28  1  0  0  0  0
  1 29  1  0  0  0  0
  1 30  1  0  0  0  0
  2  3  1  0  0  0  0
  2 31  1  0  0  0  0
  2 32  1  0  0  0  0
  3 10  1  0  0  0  0
  3  4  1  0  0  0  0
  3 56  1  0  0  0  0
  4  5  1  0  0  0  0
  4 33  1  0  0  0  0
  4 34  1  0  0  0  0
  5  6  1  0  0  0  0
  5 35  1  0  0  0  0
  5 36  1  0  0  0  0
  6 11  1  0  0  0  0
  6  7  1  0  0  0  0
  6 37  1  0  0  0  0
  7  8  1  0  0  0  0
  7 38  1  0  0  0  0
  7 39  1  0  0  0  0
  8  9  1  0  0  0  0
  8 40  1  0  0  0  0
  8 41  1  0  0  0  0
  9 10  1  0  0  0  0
  9 11  1  0  0  0  0
  9 42  1  0  0  0  0
 10 43  1  0  0  0  0
 10 44  1  0  0  0  0
 11 12  1  0  0  0  0
 12 17  1  0  0  0  0
 12 13  2  0  0  0  0
 13 14  1  0  0  0  0
 14 15  2  0  0  0  0
 14 45  1  0  0  0  0
 15 16  1  0  0  0  0
 16 20  1  0  0  0  0
 16 17  2  0  0  0  0
 17 18  1  0  0  0  0
 18 19  2  0  0  0  0
 19 20  1  0  0  0  0
 19 46  1  0  0  0  0
 20 21  1  0  0  0  0
 21 22  1  0  0  0  0
 21 47  1  0  0  0  0
 21 48  1  0  0  0  0
 22 27  1  0  0  0  0
 22 23  1  0  0  0  0
 22 25  1  0  0  0  0
 23 24  1  0  0  0  0
 23 49  1  0  0  0  0
 23 50  1  0  0  0  0
 24 51  1  0  0  0  0
 25 26  1  0  0  0  0
 25 52  1  0  0  0  0
 25 53  1  0  0  0  0
 26 27  1  0  0  0  0
 27 54  1  0  0  0  0
 27 55  1  0  0  0  0
M  CHG  1   3   1
M  END
> <s_m_source_file>
AV-unprocessed.smi

> <i_m_source_file_index>
169

> <i_lp_mmshare_version>
43012

> <i_f3d_flags>
0

> <s_epik_input>
W0NASF0xMltDSDJdW0NIMl1OKFtDSDJdW0NIM10pW0NIMl1bQ0BIXShbQ0gyXVtDSDJdMSlOMmMobltjSF1uMyljKGMzNCluW2NIXW40W0NIMl1DNShbQ0gyXVtPSF0pW0NIMl1PW0NIMl01

> <s_epik_cmdline>
J2VwaWtfcHl0aG9uJywgJy1waCcsICc3LjAnLCAnLXRuJywgJzgnLCAnLW1hJywgJzIwMCcsICctbWV0YWxfYmluZGluZycsICctaW1hZScsICc8aW5maWxlLm1hZT4nLCAnLW9tYWUnLCAnPG91dGZpbGUubWFlPic=

> <r_lp_tautomer_probability>
1

> <r_epik_Ionization_Penalty>
0.00274162

> <r_epik_Ionization_Penalty_Charging>
0.00243722

> <r_epik_Ionization_Penalty_Neutral>
0.000304399

> <r_epik_State_Penalty>
-0

> <r_epik_Charging_Adjusted_Penalty>
0.00243722

> <i_epik_Tot_Q>
1

> <i_epik_Tot_abs_Q>
1

> <r_epik_Metal_State_Penalty>
-0

> <b_epik_Metal_Only>
0

> <s_lp_Force_Field>
OPLS_2005

> <r_lp_Energy>
77.4951

> <b_lp_Chiralities_Consistent>
1

> <s_lp_Variant>
AV-unprocessed.smi:169-8

> <Gold.Version>
5.8.1

> <Gold.Id.Protein>
6NUR|6NUR_protein|mol2

> <Gold.PLP.Fitness>
40.5648

> <Gold.PLP.PLP>
-32.4557

> <Gold.PLP.part.hbond>
-2.0000

> <Gold.PLP.part.metal>
0.0000

> <Gold.PLP.part.buried>
-3.1085

> <Gold.PLP.part.nonpolar>
-28.1990

> <Gold.PLP.part.repulsive>
0.5433

> <Gold.PLP.ligand.clash>
0.0000

> <Gold.PLP.ligand.torsion>
0.6911

> <Gold.PLP.Chemscore.Hbond>
2.0000

> <Gold.PLP.Chemscore.CHOScore>
0.9899

> <Gold.PLP.Chemscore.Metal>
0.0000

> <Gold.Chemscore.Hbonds>
donor molecule, donor type, donor heavy atom, donor atom, acceptor molecule, acceptor atom, score
      L1  H     3    56       P1 10747  0.50
      L1  H    24    51       P1 11000  0.12
      L1  C    19    46       P1 10171  1.00

> <Gold.PLP.Chemscore.Internal.Correction>
0.5215

> <Gold.Rescore>
     Score         DG    S(hbond)    S(metal)    S(lipo)     H(rot)  DE(clash)    DE(int)     intcor
     10.46     -15.58       1.97        0.00      87.44       2.62       1.80       3.32       ----

> <Gold.Chemscore.Fitness>
10.4559

> <Gold.Chemscore.DG>
-15.5791

> <Gold.Chemscore.ZeroCoef>
-5.4800

> <Gold.Chemscore.Hbond>
1.9695

> <Gold.Chemscore.Metal>
0.0000

> <Gold.Chemscore.Lipo>
87.4448

> <Gold.Chemscore.Internal_Hbond>
0.0000

> <Gold.Chemscore.DEClash>
1.8049

> <Gold.Chemscore.DEInternal>
3.3183

> <Gold.Chemscore.Rot>
2.6212

> <Gold.Chemscore.Internal.Correction>
   9.000000E+99

> <Gold.Chemscore.Hbonds>
donor molecule, donor type, donor heavy atom, donor atom, acceptor molecule, acceptor atom, score
      L1  H     3    56       P1 10747  0.50
      L1  H    24    51       P1 11000  0.04

> <Gold.Chemscore.Hbond.Weighted>
-6.5783

> <Gold.Chemscore.Metal.Weighted>
-0.0000

> <Gold.Chemscore.Lipo.Weighted>
-10.2310

> <Gold.Chemscore.Internal_Hbond.Weighted>
0.0000

> <Gold.Chemscore.DEClash.Weighted>
1.8049

> <Gold.Chemscore.DEInternal.Weighted>
3.3183

> <Gold.Chemscore.Rot.Weighted>
6.7102

> <Gold.Chemscore.Internal.Correction.Weighted>
   9.000000E+99

> <Gold.Protein.RotatedTorsions>
[ 6907 6896 6895 6894 ] final -142.76 input  -60.11 | X-H torsion
[ 7974 7965 7964 7962 ] final -129.58 input  175.53 | X-H torsion
[ 8008 7997 7996 7995 ] final -136.10 input   59.86 | X-H torsion
[ 10167 10162 10161 10158 ] final -132.70 input  -65.29 | X-H torsion
[ 10718 10713 10712 10709 ] final    4.43 input   66.30 | X-H torsion
[ 10763 10752 10751 10750 ] final -121.80 input  -60.55 | X-H torsion
[ 11005 11000 10999 10996 ] final  -97.74 input  -57.11 | X-H torsion

> <Gold.Protein.ActiveResidues>
 VAL166  LYS551  ARG553  GLY616  TRP617  ASP618  TYR619  PRO620  LYS621  CYS622 
 ASP623  PHE694  ASN695  SER759  ASP760  ASP761  ALA762  ILE779  LEU786  VAL792 
 PHE793  MET794  SER795  GLU796  ALA797  LYS798  CYS799  TRP800  GLU811  SER814 

> <Gold.Protein.RotatedAtoms>
  151.0914  133.5313  159.2614 H   0  0  0  0  0  0  0  0  0  0  0  0  # atno 6907 bound_to 6896
  151.2179  135.0506  159.8947 H   0  0  0  0  0  0  0  0  0  0  0  0  # atno 6908 bound_to 6896
  152.5434  134.0721  159.8252 H   0  0  0  0  0  0  0  0  0  0  0  0  # atno 6909 bound_to 6896
  144.9558  140.7394  143.4759 H   0  0  0  0  0  0  0  0  0  0  0  0  # atno 7974 bound_to 7965
  155.3897  140.0499  157.3041 H   0  0  0  0  0  0  0  0  0  0  0  0  # atno 8008 bound_to 7997
  154.5042  140.2168  155.9245 H   0  0  0  0  0  0  0  0  0  0  0  0  # atno 8009 bound_to 7997
  156.1505  140.3137  155.8646 H   0  0  0  0  0  0  0  0  0  0  0  0  # atno 8010 bound_to 7997
  139.9058  143.6552  152.2585 H   0  0  0  0  0  0  0  0  0  0  0  0  # atno 10167 bound_to 10162
  156.8925  130.5693  149.5649 H   0  0  0  0  0  0  0  0  0  0  0  0  # atno 10718 bound_to 10713
  154.8676  135.4155  154.2678 H   0  0  0  0  0  0  0  0  0  0  0  0  # atno 10763 bound_to 10752
  153.3594  135.7002  153.6730 H   0  0  0  0  0  0  0  0  0  0  0  0  # atno 10764 bound_to 10752
  153.5637  135.3605  155.2782 H   0  0  0  0  0  0  0  0  0  0  0  0  # atno 10765 bound_to 10752
  141.1369  133.8193  157.0747 H   0  0  0  0  0  0  0  0  0  0  0  0  # atno 11005 bound_to 11000
  145.2774  139.1931  143.4809 LP  0  0  0  0  0  0  0  0  0  0  0  0  # atno 17320 bound_to 7965
  146.3337  140.2731  142.8607 LP  0  0  0  0  0  0  0  0  0  0  0  0  # atno 17321 bound_to 7965
  139.6985  144.7638  151.1314 LP  0  0  0  0  0  0  0  0  0  0  0  0  # atno 17342 bound_to 10162
  140.7696  143.5490  150.9226 LP  0  0  0  0  0  0  0  0  0  0  0  0  # atno 17343 bound_to 10162
  156.0622  130.5672  150.9215 LP  0  0  0  0  0  0  0  0  0  0  0  0  # atno 17370 bound_to 10713
  157.6075  131.0938  150.8854 LP  0  0  0  0  0  0  0  0  0  0  0  0  # atno 17371 bound_to 10713
  140.0489  134.9816  157.1100 LP  0  0  0  0  0  0  0  0  0  0  0  0  # atno 17394 bound_to 11000
  140.4020  134.2073  155.7163 LP  0  0  0  0  0  0  0  0  0  0  0  0  # atno 17395 bound_to 11000

$$$$
