#       Name:                AV-unprocessed.smi:646
#       Creating user name   scv26
#       Creation time:       Fri Mar 27 00:08:46 2020


#       File generated by GOLD software.
#

@<TRIPOS>MOLECULE
AV-unprocessed.smi:646
    51    52     1
SMALL
NO_CHARGES


@<TRIPOS>ATOM
      1 ****        -0.3968  -2.9751   0.9115 C.3            1 S1                 0.0000
      2 ****        -0.6867  -2.1242  -0.1913 O.3            1 S1                 0.0000
      3 ****        -1.9617  -1.4671  -0.2008 C.3            1 S1                 0.0000
      4 ****        -3.0925  -2.5015  -0.1242 C.3            1 S1                 0.0000
      5 ****        -1.9558  -0.2837   0.7854 C.3            1 S1                 0.0000
      6 ****        -1.4202   0.6096  -0.3354 C.3            1 S1                 0.0000
      7 ****         0.0392   0.6847  -0.2972 N.am           1 S1                 0.0000
      8 ****         0.7765   1.6797  -0.8117 C.2            1 S1                 0.0000
      9 ****         0.2935   2.6637  -1.3709 O.2            1 S1                 0.0000
     10 ****         2.2945   1.5343  -0.6921 C.3            1 S1                 0.0000
     11 ****         2.7029   1.4928   0.7589 C.2            1 S1                 0.0000
     12 ****         2.9566   2.5937   1.6259 C.2            1 S1                 0.0000
     13 ****         2.8797   4.0603   1.3131 C.3            1 S1                 0.0000
     14 ****         3.2917   2.1981   2.8424 N.2            1 S1                 0.0000
     15 ****         3.2670   0.8004   2.8105 O.3            1 S1                 0.0000
     16 ****         2.9120   0.4047   1.5618 C.2            1 S1                 0.0000
     17 ****         2.8203  -1.0657   1.3303 C.3            1 S1                 0.0000
     18 ****        -1.9730  -0.4166  -1.3599 C.3            1 S1                 0.0000
     19 ****        -1.1248  -0.7368  -2.6021 C.3            1 S1                 0.0000
     20 ****        -3.3580  -0.0362  -1.9045 C.3            1 S1                 0.0000
     21 ****         0.6467  -3.2838   0.8568 H              1 S1                 0.0000
     22 ****        -0.9995  -3.8827   0.8900 H              1 S1                 0.0000
     23 ****        -0.5436  -2.4790   1.8703 H              1 S1                 0.0000
     24 ****        -4.0733  -2.0413  -0.2389 H              1 S1                 0.0000
     25 ****        -3.1125  -3.0131   0.8375 H              1 S1                 0.0000
     26 ****        -2.9928  -3.2567  -0.9041 H              1 S1                 0.0000
     27 ****        -2.9610   0.0039   1.0976 H              1 S1                 0.0000
     28 ****        -1.2981  -0.3770   1.6496 H              1 S1                 0.0000
     29 ****        -1.9173   1.5807  -0.3695 H              1 S1                 0.0000
     30 ****         0.5224  -0.0874   0.1386 H              1 S1                 0.0000
     31 ****         2.6003   0.6305  -1.2200 H              1 S1                 0.0000
     32 ****         2.7749   2.3638  -1.2123 H              1 S1                 0.0000
     33 ****         3.5271   4.3133   0.4734 H              1 S1                 0.0000
     34 ****         3.1836   4.6735   2.1623 H              1 S1                 0.0000
     35 ****         1.8627   4.3464   1.0444 H              1 S1                 0.0000
     36 ****         2.3160  -1.2851   0.3892 H              1 S1                 0.0000
     37 ****         2.2596  -1.5490   2.1305 H              1 S1                 0.0000
     38 ****         3.8135  -1.5129   1.2939 H              1 S1                 0.0000
     39 ****        -1.0529   0.1248  -3.2667 H              1 S1                 0.0000
     40 ****        -1.5540  -1.5589  -3.1757 H              1 S1                 0.0000
     41 ****        -0.1040  -1.0263  -2.3533 H              1 S1                 0.0000
     42 ****        -3.3009   0.8246  -2.5716 H              1 S1                 0.0000
     43 ****        -4.0514   0.2302  -1.1064 H              1 S1                 0.0000
     44 ****        -3.8102  -0.8540  -2.4667 H              1 S1                 0.0000
     45 ****        -0.6289  -2.6788  -1.0214 LP             1 S1                 0.0000
     46 ****         0.0169  -1.4140  -0.2152 LP             1 S1                 0.0000
     47 ****        -0.6986   2.7513  -1.4601 LP             1 S1                 0.0000
     48 ****         0.8932   3.3758  -1.7361 LP             1 S1                 0.0000
     49 ****         3.5166   2.7792   3.6246 LP             1 S1                 0.0000
     50 ****         2.6014   0.4595   3.4745 LP             1 S1                 0.0000
     51 ****         4.1736   0.4418   3.0331 LP             1 S1                 0.0000
@<TRIPOS>BOND
    1    1    2 1     
    2    1   21 1     
    3    1   22 1     
    4    1   23 1     
    5    2    3 1     
    6    3   18 1     
    7    3    4 1     
    8    3    5 1     
    9    4   24 1     
   10    4   25 1     
   11    4   26 1     
   12    5    6 1     
   13    5   27 1     
   14    5   28 1     
   15    6    7 1     
   16    6   18 1     
   17    6   29 1     
   18    7    8 am    
   19    7   30 1     
   20    8    9 2     
   21    8   10 1     
   22   10   11 1     
   23   10   31 1     
   24   10   32 1     
   25   11   16 2     
   26   11   12 1     
   27   12   13 1     
   28   12   14 2     
   29   13   33 1     
   30   13   34 1     
   31   13   35 1     
   32   14   15 1     
   33   15   16 1     
   34   16   17 1     
   35   17   36 1     
   36   17   37 1     
   37   17   38 1     
   38   18   19 1     
   39   18   20 1     
   40   19   39 1     
   41   19   40 1     
   42   19   41 1     
   43   20   42 1     
   44   20   43 1     
   45   20   44 1     
   46    2   45 1     
   47    2   46 1     
   48    9   47 1     
   49    9   48 1     
   50   14   49 1     
   51   15   50 1     
   52   15   51 1     
@<TRIPOS>SUBSTRUCTURE
      1 S1             1
@<TRIPOS>SET
LONE_PAIRS      STATIC     ATOMS    <user>   **** ""
7 45 46 47 48 49 50 51
DONOR_HYDROGENS      STATIC     ATOMS    <user>   **** ""
1 30
ATOM$BLUE        STATIC     ATOMS    COLORGROUP SYSTEM
7 45 46 47 48 49 50 51
ATOM$RED        STATIC     ATOMS    COLORGROUP SYSTEM
1 30
