AV-unprocessed.smi:199|AV-procd|sdf|1569|dock10
  -GOLD-   2262019443D 1   1.00000     0.00000
 Structure written by MMmdl.
 51 55  0  0  0  0  0  0  0  0  1 V2000
  146.0104  134.7216  151.3111 C   0  0  0  0  0  0  0  0  0  0  0  0
  145.6721  133.4384  152.0871 C   0  0  1  0  0  0  0  0  0  0  0  0
  144.9779  132.5196  151.2558 O   0  0  0  0  0  0  0  0  0  0  0  0
  145.0470  131.2548  151.8886 C   0  0  0  0  0  0  0  0  0  0  0  0
  146.5017  131.1809  152.3370 C   0  0  0  0  0  0  0  0  0  0  0  0
  146.8611  132.6317  152.6736 C   0  0  1  0  0  0  0  0  0  0  0  0
  148.0811  132.9450  152.0216 O   0  0  0  0  0  0  0  0  0  0  0  0
  147.0560  132.8471  154.1950 C   0  0  0  0  0  0  0  0  0  0  0  0
  147.6484  134.1343  154.5270 N   0  0  0  0  0  0  0  0  0  0  0  0
  147.0449  135.3676  154.4375 C   0  0  0  0  0  0  0  0  0  0  0  0
  147.7839  136.3759  154.8093 N   0  0  0  0  0  0  0  0  0  0  0  0
  148.9980  135.8011  155.1676 C   0  0  0  0  0  0  0  0  0  0  0  0
  150.2358  136.3081  155.6604 C   0  0  0  0  0  0  0  0  0  0  0  0
  150.4739  137.6278  155.8950 N   0  0  0  0  0  0  0  0  0  0  0  0
  151.5298  138.3381  155.1845 C   0  0  1  0  0  0  0  0  0  0  0  0
  150.9581  138.5426  153.7658 C   0  0  0  0  0  0  0  0  0  0  0  0
  149.4622  138.7125  154.0692 C   0  0  0  0  0  0  0  0  0  0  0  0
  149.4518  138.6244  155.6112 C   0  0  2  0  0  0  0  0  0  0  0  0
  150.0717  139.8825  156.2633 C   0  0  2  0  0  0  0  0  0  0  0  0
  149.4779  141.2491  155.8731 C   0  0  0  0  0  0  0  0  0  0  0  0
  150.3411  142.2912  156.2753 O   0  0  0  0  0  0  0  0  0  0  0  0
  151.5575  139.6984  155.9039 C   0  0  0  0  0  0  0  0  0  0  0  0
  151.2126  135.4026  155.9347 N   0  0  0  0  0  0  0  0  0  0  0  0
  151.0115  134.1003  155.7179 C   0  0  0  0  0  0  0  0  0  0  0  0
  149.9211  133.4918  155.2503 N   0  0  0  0  0  0  0  0  0  0  0  0
  148.9267  134.3888  154.9937 C   0  0  0  0  0  0  0  0  0  0  0  0
  146.5574  135.4278  151.9362 H   0  0  0  0  0  0  0  0  0  0  0  0
  145.1011  135.2176  150.9722 H   0  0  0  0  0  0  0  0  0  0  0  0
  146.6159  134.5097  150.4297 H   0  0  0  0  0  0  0  0  0  0  0  0
  144.9797  133.6940  152.8897 H   0  0  0  0  0  0  0  0  0  0  0  0
  144.3700  131.2323  152.7442 H   0  0  0  0  0  0  0  0  0  0  0  0
  144.7734  130.4476  151.2091 H   0  0  0  0  0  0  0  0  0  0  0  0
  146.6412  130.4922  153.1712 H   0  0  0  0  0  0  0  0  0  0  0  0
  147.1049  130.8098  151.5066 H   0  0  0  0  0  0  0  0  0  0  0  0
  148.2510  132.2833  151.3689 H   0  0  0  0  0  0  0  0  0  0  0  0
  146.0963  132.7700  154.7077 H   0  0  0  0  0  0  0  0  0  0  0  0
  147.6871  132.0622  154.6143 H   0  0  0  0  0  0  0  0  0  0  0  0
  146.0283  135.4967  154.0960 H   0  0  0  0  0  0  0  0  0  0  0  0
  152.5022  137.8440  155.1924 H   0  0  0  0  0  0  0  0  0  0  0  0
  151.3882  139.4071  153.2590 H   0  0  0  0  0  0  0  0  0  0  0  0
  151.1260  137.6668  153.1381 H   0  0  0  0  0  0  0  0  0  0  0  0
  149.0426  139.6365  153.6746 H   0  0  0  0  0  0  0  0  0  0  0  0
  148.8933  137.8884  153.6365 H   0  0  0  0  0  0  0  0  0  0  0  0
  148.4652  138.4074  156.0161 H   0  0  0  0  0  0  0  0  0  0  0  0
  149.9734  139.7758  157.3455 H   0  0  0  0  0  0  0  0  0  0  0  0
  149.3573  141.3027  154.7908 H   0  0  0  0  0  0  0  0  0  0  0  0
  148.4889  141.4049  156.3025 H   0  0  0  0  0  0  0  0  0  0  0  0
  149.8543  143.1011  156.2769 H   0  0  0  0  0  0  0  0  0  0  0  0
  152.1654  139.6516  156.8083 H   0  0  0  0  0  0  0  0  0  0  0  0
  151.9547  140.4947  155.2730 H   0  0  0  0  0  0  0  0  0  0  0  0
  151.8431  133.4534  155.9548 H   0  0  0  0  0  0  0  0  0  0  0  0
  1  2  1  0  0  0  0
  1 27  1  0  0  0  0
  1 28  1  0  0  0  0
  1 29  1  0  0  0  0
  2  6  1  0  0  0  0
  2  3  1  0  0  0  0
  2 30  1  0  0  0  0
  3  4  1  0  0  0  0
  4  5  1  0  0  0  0
  4 31  1  0  0  0  0
  4 32  1  0  0  0  0
  5  6  1  0  0  0  0
  5 33  1  0  0  0  0
  5 34  1  0  0  0  0
  6  7  1  0  0  0  0
  6  8  1  0  0  0  0
  7 35  1  0  0  0  0
  8  9  1  0  0  0  0
  8 36  1  0  0  0  0
  8 37  1  0  0  0  0
  9 26  1  0  0  0  0
  9 10  1  0  0  0  0
 10 11  2  0  0  0  0
 10 38  1  0  0  0  0
 11 12  1  0  0  0  0
 12 26  2  0  0  0  0
 12 13  1  0  0  0  0
 13 14  1  0  0  0  0
 13 23  2  0  0  0  0
 14 18  1  0  0  0  0
 14 15  1  0  0  0  0
 15 22  1  0  0  0  0
 15 16  1  0  0  0  0
 15 39  1  0  0  0  0
 16 17  1  0  0  0  0
 16 40  1  0  0  0  0
 16 41  1  0  0  0  0
 17 18  1  0  0  0  0
 17 42  1  0  0  0  0
 17 43  1  0  0  0  0
 18 19  1  0  0  0  0
 18 44  1  0  0  0  0
 19 20  1  0  0  0  0
 19 22  1  0  0  0  0
 19 45  1  0  0  0  0
 20 21  1  0  0  0  0
 20 46  1  0  0  0  0
 20 47  1  0  0  0  0
 21 48  1  0  0  0  0
 22 49  1  0  0  0  0
 22 50  1  0  0  0  0
 23 24  1  0  0  0  0
 24 25  2  0  0  0  0
 24 51  1  0  0  0  0
 25 26  1  0  0  0  0
M  END
> <s_m_source_file>
AV-unprocessed.smi

> <i_m_source_file_index>
199

> <i_lp_mmshare_version>
43012

> <i_f3d_flags>
0

> <s_epik_input>
W0NIMl0xW0NIMl1PW0NAQEhdKFtDSDNdKVtDQEBdMShbT0hdKVtDSDJdbihbY0hdbjIpYyhjMjMpbltjSF1uYzNOKFtDQEBIXTQ1KVtDQEhdKFtDSDJdW0NIMl00KVtDQEhdKFtDSDJdNSlbQ0gyXVtPSF0=

> <s_epik_cmdline>
J2VwaWtfcHl0aG9uJywgJy1waCcsICc3LjAnLCAnLXRuJywgJzgnLCAnLW1hJywgJzIwMCcsICctbWV0YWxfYmluZGluZycsICctaW1hZScsICc8aW5maWxlLm1hZT4nLCAnLW9tYWUnLCAnPG91dGZpbGUubWFlPic=

> <r_lp_tautomer_probability>
1

> <r_epik_Ionization_Penalty>
0.00583903

> <r_epik_Ionization_Penalty_Charging>
0

> <r_epik_Ionization_Penalty_Neutral>
0.00583903

> <r_epik_State_Penalty>
-0

> <r_epik_Charging_Adjusted_Penalty>
0

> <i_epik_Tot_Q>
0

> <i_epik_Tot_abs_Q>
0

> <r_epik_Metal_State_Penalty>
-0

> <b_epik_Metal_Only>
0

> <s_lp_Force_Field>
OPLS_2005

> <r_lp_Energy>
83.7467

> <b_lp_Chiralities_Consistent>
1

> <s_lp_Variant>
AV-unprocessed.smi:199-10

> <Gold.Version>
5.8.1

> <Gold.Id.Protein>
6NUR|6NUR_protein|mol2

> <Gold.PLP.Fitness>
38.4780

> <Gold.PLP.PLP>
-31.2133

> <Gold.PLP.part.hbond>
-2.8717

> <Gold.PLP.part.metal>
0.0000

> <Gold.PLP.part.buried>
-5.4885

> <Gold.PLP.part.nonpolar>
-22.6680

> <Gold.PLP.part.repulsive>
0.3290

> <Gold.PLP.ligand.clash>
0.0000

> <Gold.PLP.ligand.torsion>
0.3318

> <Gold.PLP.Chemscore.Hbond>
2.6370

> <Gold.PLP.Chemscore.CHOScore>
0.0000

> <Gold.PLP.Chemscore.Metal>
0.0000

> <Gold.Chemscore.Hbonds>
donor molecule, donor type, donor heavy atom, donor atom, acceptor molecule, acceptor atom, score
      L1  H     7    35       P1 10747  1.00
      L1  H    21    48       P1  8028  1.00
      P1  H 10752 10763       L1    23  0.63

> <Gold.PLP.Chemscore.Internal.Correction>
0.0173

> <Gold.Rescore>
     Score         DG    S(hbond)    S(metal)    S(lipo)     H(rot)  DE(clash)    DE(int)     intcor
     11.05     -14.07       2.05        0.00      82.12       3.07       1.32       1.70       ----

> <Gold.Chemscore.Fitness>
11.0485

> <Gold.Chemscore.DG>
-14.0673

> <Gold.Chemscore.ZeroCoef>
-5.4800

> <Gold.Chemscore.Hbond>
2.0496

> <Gold.Chemscore.Metal>
0.0000

> <Gold.Chemscore.Lipo>
82.1231

> <Gold.Chemscore.Internal_Hbond>
0.0000

> <Gold.Chemscore.DEClash>
1.3179

> <Gold.Chemscore.DEInternal>
1.7008

> <Gold.Chemscore.Rot>
3.0729

> <Gold.Chemscore.Internal.Correction>
   9.000000E+99

> <Gold.Chemscore.Hbonds>
donor molecule, donor type, donor heavy atom, donor atom, acceptor molecule, acceptor atom, score
      L1  H     7    35       P1 10747  1.00
      L1  H    21    48       P1  8028  0.97
      P1  H 10752 10763       L1    23  0.07

> <Gold.Chemscore.Hbond.Weighted>
-6.8456

> <Gold.Chemscore.Metal.Weighted>
-0.0000

> <Gold.Chemscore.Lipo.Weighted>
-9.6084

> <Gold.Chemscore.Internal_Hbond.Weighted>
0.0000

> <Gold.Chemscore.DEClash.Weighted>
1.3179

> <Gold.Chemscore.DEInternal.Weighted>
1.7008

> <Gold.Chemscore.Rot.Weighted>
7.8667

> <Gold.Chemscore.Internal.Correction.Weighted>
   9.000000E+99

> <Gold.Protein.RotatedTorsions>
[ 6907 6896 6895 6894 ] final   99.63 input  -60.11 | X-H torsion
[ 7974 7965 7964 7962 ] final   18.92 input  175.53 | X-H torsion
[ 8008 7997 7996 7995 ] final   17.09 input   59.86 | X-H torsion
[ 10167 10162 10161 10158 ] final  115.60 input  -65.29 | X-H torsion
[ 10718 10713 10712 10709 ] final   -8.81 input   66.30 | X-H torsion
[ 10763 10752 10751 10750 ] final   80.42 input  -60.55 | X-H torsion
[ 11005 11000 10999 10996 ] final  136.06 input  -57.11 | X-H torsion

> <Gold.Protein.ActiveResidues>
 VAL166  LYS551  ARG553  GLY616  TRP617  ASP618  TYR619  PRO620  LYS621  CYS622 
 ASP623  PHE694  ASN695  SER759  ASP760  ASP761  ALA762  ILE779  LEU786  VAL792 
 PHE793  MET794  SER795  GLU796  ALA797  LYS798  CYS799  TRP800  GLU811  SER814 

> <Gold.Protein.RotatedAtoms>
  152.5388  134.0399  159.8062 H   0  0  0  0  0  0  0  0  0  0  0  0  # atno 6907 bound_to 6896
  151.0557  133.5579  159.2646 H   0  0  0  0  0  0  0  0  0  0  0  0  # atno 6908 bound_to 6896
  151.2497  135.0625  159.9111 H   0  0  0  0  0  0  0  0  0  0  0  0  # atno 6909 bound_to 6896
  146.2168  139.8388  142.8645 H   0  0  0  0  0  0  0  0  0  0  0  0  # atno 7974 bound_to 7965
  154.8863  140.2980  155.5396 H   0  0  0  0  0  0  0  0  0  0  0  0  # atno 8008 bound_to 7997
  156.3021  140.2433  156.3807 H   0  0  0  0  0  0  0  0  0  0  0  0  # atno 8009 bound_to 7997
  154.8664  140.0403  157.1686 H   0  0  0  0  0  0  0  0  0  0  0  0  # atno 8010 bound_to 7997
  139.6305  144.7114  151.2442 H   0  0  0  0  0  0  0  0  0  0  0  0  # atno 10167 bound_to 10162
  156.6971  130.5082  149.5927 H   0  0  0  0  0  0  0  0  0  0  0  0  # atno 10718 bound_to 10713
  153.1032  135.4803  154.8904 H   0  0  0  0  0  0  0  0  0  0  0  0  # atno 10763 bound_to 10752
  154.7402  135.3080  154.8744 H   0  0  0  0  0  0  0  0  0  0  0  0  # atno 10764 bound_to 10752
  153.9355  135.6840  153.4798 H   0  0  0  0  0  0  0  0  0  0  0  0  # atno 10765 bound_to 10752
  140.0021  134.9474  157.0094 H   0  0  0  0  0  0  0  0  0  0  0  0  # atno 11005 bound_to 11000
  145.2921  141.0170  143.3657 LP  0  0  0  0  0  0  0  0  0  0  0  0  # atno 17320 bound_to 7965
  144.9070  139.4577  143.6605 LP  0  0  0  0  0  0  0  0  0  0  0  0  # atno 17321 bound_to 7965
  140.7436  143.6488  150.8267 LP  0  0  0  0  0  0  0  0  0  0  0  0  # atno 17342 bound_to 10162
  140.0113  143.5640  152.2838 LP  0  0  0  0  0  0  0  0  0  0  0  0  # atno 17343 bound_to 10162
  156.1755  130.6465  151.0889 LP  0  0  0  0  0  0  0  0  0  0  0  0  # atno 17370 bound_to 10713
  157.6987  131.0784  150.6889 LP  0  0  0  0  0  0  0  0  0  0  0  0  # atno 17371 bound_to 10713
  140.4709  134.1387  155.7203 LP  0  0  0  0  0  0  0  0  0  0  0  0  # atno 17394 bound_to 11000
  141.1649  133.8721  157.1742 LP  0  0  0  0  0  0  0  0  0  0  0  0  # atno 17395 bound_to 11000

$$$$
