AV-unprocessed.smi:121|AV-procd|sdf|1140|dock8
  -GOLD-   2262018273D 1   1.00000     0.00000
 Structure written by MMmdl.
 37 39  0  0  0  0  0  0  0  0  1 V2000
  154.7339  139.8031  159.2426 N   0  0  0  0  0  0  0  0  0  0  0  0
  154.1987  140.6781  159.7781 C   0  0  0  0  0  0  0  0  0  0  0  0
  153.5268  141.7773  160.4507 C   0  0  0  0  0  0  0  0  0  0  0  0
  153.7274  141.9903  161.8295 C   0  0  0  0  0  0  0  0  0  0  0  0
  153.0717  143.0533  162.4791 C   0  0  0  0  0  0  0  0  0  0  0  0
  152.2178  143.9050  161.7525 C   0  0  0  0  0  0  0  0  0  0  0  0
  152.0170  143.7047  160.3707 C   0  0  0  0  0  0  0  0  0  0  0  0
  151.0880  144.6443  159.6093 C   0  0  0  0  0  0  0  0  0  0  0  0
  149.7152  144.1853  159.4617 N   0  0  0  0  0  0  0  0  0  0  0  0
  149.4907  143.1054  158.5730 C   0  0  0  0  0  0  0  0  0  0  0  0
  150.4090  142.5755  157.9444 O   0  0  0  0  0  0  0  0  0  0  0  0
  148.0993  142.6793  158.4747 C   0  0  0  0  0  0  0  0  0  0  0  0
  147.7679  141.6776  157.6425 F   0  0  0  0  0  0  0  0  0  0  0  0
  147.1343  143.2777  159.2055 C   0  0  0  0  0  0  0  0  0  0  0  0
  147.3873  144.3148  160.0872 N   0  0  0  0  0  0  0  0  0  0  0  0
  146.2693  144.9481  160.8841 C   0  0  1  0  0  0  0  0  0  0  0  0
  145.0977  145.3073  159.9626 C   0  0  0  0  0  0  0  0  0  0  0  0
  144.1699  144.1269  160.1550 C   0  0  0  0  0  0  0  0  0  0  0  0
  144.4175  143.7778  161.6174 C   0  0  0  0  0  0  0  0  0  0  0  0
  145.8047  144.0238  161.8256 O   0  0  0  0  0  0  0  0  0  0  0  0
  148.7027  144.8088  160.2310 C   0  0  0  0  0  0  0  0  0  0  0  0
  148.9469  145.7398  161.0020 O   0  0  0  0  0  0  0  0  0  0  0  0
  152.6720  142.6318  159.7245 C   0  0  0  0  0  0  0  0  0  0  0  0
  154.3812  141.3415  162.3948 H   0  0  0  0  0  0  0  0  0  0  0  0
  153.2240  143.2162  163.5359 H   0  0  0  0  0  0  0  0  0  0  0  0
  151.7200  144.7180  162.2606 H   0  0  0  0  0  0  0  0  0  0  0  0
  151.0847  145.6250  160.0851 H   0  0  0  0  0  0  0  0  0  0  0  0
  151.4622  144.8302  158.6004 H   0  0  0  0  0  0  0  0  0  0  0  0
  146.1214  142.9225  159.0863 H   0  0  0  0  0  0  0  0  0  0  0  0
  146.7001  145.8052  161.4033 H   0  0  0  0  0  0  0  0  0  0  0  0
  144.6325  146.2218  160.3321 H   0  0  0  0  0  0  0  0  0  0  0  0
  145.4124  145.4628  158.9297 H   0  0  0  0  0  0  0  0  0  0  0  0
  143.1265  144.3632  159.9441 H   0  0  0  0  0  0  0  0  0  0  0  0
  144.4709  143.2998  159.5107 H   0  0  0  0  0  0  0  0  0  0  0  0
  143.8419  144.4371  162.2685 H   0  0  0  0  0  0  0  0  0  0  0  0
  144.1531  142.7473  161.8556 H   0  0  0  0  0  0  0  0  0  0  0  0
  152.5201  142.4590  158.6690 H   0  0  0  0  0  0  0  0  0  0  0  0
  1  2  3  0  0  0  0
  2  3  1  0  0  0  0
  3 23  1  0  0  0  0
  3  4  2  0  0  0  0
  4  5  1  0  0  0  0
  4 24  1  0  0  0  0
  5  6  2  0  0  0  0
  5 25  1  0  0  0  0
  6  7  1  0  0  0  0
  6 26  1  0  0  0  0
  7  8  1  0  0  0  0
  7 23  2  0  0  0  0
  8  9  1  0  0  0  0
  8 27  1  0  0  0  0
  8 28  1  0  0  0  0
  9 21  1  0  0  0  0
  9 10  1  0  0  0  0
 10 11  2  0  0  0  0
 10 12  1  0  0  0  0
 12 13  1  0  0  0  0
 12 14  2  0  0  0  0
 14 15  1  0  0  0  0
 14 29  1  0  0  0  0
 15 16  1  0  0  0  0
 15 21  1  0  0  0  0
 16 20  1  0  0  0  0
 16 17  1  0  0  0  0
 16 30  1  0  0  0  0
 17 18  1  0  0  0  0
 17 31  1  0  0  0  0
 17 32  1  0  0  0  0
 18 19  1  0  0  0  0
 18 33  1  0  0  0  0
 18 34  1  0  0  0  0
 19 20  1  0  0  0  0
 19 35  1  0  0  0  0
 19 36  1  0  0  0  0
 21 22  2  0  0  0  0
 23 37  1  0  0  0  0
M  END
> <s_m_source_file>
AV-unprocessed.smi

> <i_m_source_file_index>
121

> <i_lp_mmshare_version>
43012

> <i_f3d_flags>
0

> <s_epik_input>
TiNDYzFbY0hdW2NIXVtjSF1jKFtjSF0xKVtDSDJdbjJjKD1PKWMoRilbY0hdbihjMj1PKVtDQEBIXTNbQ0gyXVtDSDJdW0NIMl1PMw==

> <s_epik_cmdline>
J2VwaWtfcHl0aG9uJywgJy1waCcsICc3LjAnLCAnLXRuJywgJzgnLCAnLW1hJywgJzIwMCcsICctbWV0YWxfYmluZGluZycsICctaW1hZScsICc8aW5maWxlLm1hZT4nLCAnLW9tYWUnLCAnPG91dGZpbGUubWFlPic=

> <r_lp_tautomer_probability>
1

> <r_epik_Ionization_Penalty>
1.69864e-08

> <r_epik_Ionization_Penalty_Charging>
1.69802e-08

> <r_epik_Ionization_Penalty_Neutral>
6.20402e-12

> <r_epik_State_Penalty>
-0

> <r_epik_Charging_Adjusted_Penalty>
1.69802e-08

> <i_epik_Tot_Q>
0

> <i_epik_Tot_abs_Q>
0

> <r_epik_Metal_State_Penalty>
-0

> <b_epik_Metal_Only>
0

> <s_epik_Chemistry_Notes>
This compound contains an acetal/aminal-like group ( X-CH(R)-Y where X, Y are N, S, or O) that may be acid/base labile, releasing an aldehyde.

> <s_lp_Force_Field>
OPLS_2005

> <r_lp_Energy>
33.8546

> <b_lp_Chiralities_Consistent>
1

> <s_lp_Variant>
AV-unprocessed.smi:121-2

> <Gold.Version>
5.8.1

> <Gold.Id.Protein>
6NUR|6NUR_protein|mol2

> <Gold.PLP.Fitness>
50.6617

> <Gold.PLP.PLP>
-48.9395

> <Gold.PLP.part.hbond>
-2.0000

> <Gold.PLP.part.metal>
0.0000

> <Gold.PLP.part.buried>
-9.6004

> <Gold.PLP.part.nonpolar>
-39.9974

> <Gold.PLP.part.repulsive>
2.0525

> <Gold.PLP.ligand.clash>
0.0000

> <Gold.PLP.ligand.torsion>
0.6437

> <Gold.PLP.Chemscore.Hbond>
1.0000

> <Gold.PLP.Chemscore.CHOScore>
0.0000

> <Gold.PLP.Chemscore.Metal>
0.0000

> <Gold.Chemscore.Hbonds>
donor molecule, donor type, donor heavy atom, donor atom, acceptor molecule, acceptor atom, score
      P1  H  7997  8010       L1     1  1.00

> <Gold.PLP.Chemscore.Internal.Correction>
0.0095

> <Gold.Rescore>
     Score         DG    S(hbond)    S(metal)    S(lipo)     H(rot)  DE(clash)    DE(int)     intcor
     13.31     -16.10       0.96        0.00      98.03       1.59       0.92       1.88       ----

> <Gold.Chemscore.Fitness>
13.3057

> <Gold.Chemscore.DG>
-16.1029

> <Gold.Chemscore.ZeroCoef>
-5.4800

> <Gold.Chemscore.Hbond>
0.9640

> <Gold.Chemscore.Metal>
0.0000

> <Gold.Chemscore.Lipo>
98.0257

> <Gold.Chemscore.Internal_Hbond>
0.0000

> <Gold.Chemscore.DEClash>
0.9153

> <Gold.Chemscore.DEInternal>
1.8819

> <Gold.Chemscore.Rot>
1.5882

> <Gold.Chemscore.Internal.Correction>
   9.000000E+99

> <Gold.Chemscore.Hbonds>
donor molecule, donor type, donor heavy atom, donor atom, acceptor molecule, acceptor atom, score
      P1  H  7997  8010       L1     1  0.87

> <Gold.Chemscore.Hbond.Weighted>
-3.2196

> <Gold.Chemscore.Metal.Weighted>
-0.0000

> <Gold.Chemscore.Lipo.Weighted>
-11.4690

> <Gold.Chemscore.Internal_Hbond.Weighted>
0.0000

> <Gold.Chemscore.DEClash.Weighted>
0.9153

> <Gold.Chemscore.DEInternal.Weighted>
1.8819

> <Gold.Chemscore.Rot.Weighted>
4.0657

> <Gold.Chemscore.Internal.Correction.Weighted>
   9.000000E+99

> <Gold.Protein.RotatedTorsions>
[ 6907 6896 6895 6894 ] final  -64.83 input  -60.11 | X-H torsion
[ 7974 7965 7964 7962 ] final  -74.35 input  175.53 | X-H torsion
[ 8008 7997 7996 7995 ] final    8.20 input   59.86 | X-H torsion
[ 10167 10162 10161 10158 ] final  147.67 input  -65.29 | X-H torsion
[ 10718 10713 10712 10709 ] final  -53.22 input   66.30 | X-H torsion
[ 10763 10752 10751 10750 ] final  161.12 input  -60.55 | X-H torsion
[ 11005 11000 10999 10996 ] final -171.63 input  -57.11 | X-H torsion

> <Gold.Protein.ActiveResidues>
 VAL166  LYS551  ARG553  GLY616  TRP617  ASP618  TYR619  PRO620  LYS621  CYS622 
 ASP623  PHE694  ASN695  SER759  ASP760  ASP761  ALA762  ILE779  LEU786  VAL792 
 PHE793  MET794  SER795  GLU796  ALA797  LYS798  CYS799  TRP800  GLU811  SER814 

> <Gold.Protein.RotatedAtoms>
  150.7561  134.6244  159.6152 H   0  0  0  0  0  0  0  0  0  0  0  0  # atno 6907 bound_to 6896
  152.3540  134.6962  160.0236 H   0  0  0  0  0  0  0  0  0  0  0  0  # atno 6908 bound_to 6896
  151.7374  133.3284  159.3393 H   0  0  0  0  0  0  0  0  0  0  0  0  # atno 6909 bound_to 6896
  145.6402  140.9313  143.1040 H   0  0  0  0  0  0  0  0  0  0  0  0  # atno 7974 bound_to 7965
  154.7637  140.2789  155.6193 H   0  0  0  0  0  0  0  0  0  0  0  0  # atno 8008 bound_to 7997
  156.2920  140.2655  156.2350 H   0  0  0  0  0  0  0  0  0  0  0  0  # atno 8009 bound_to 7997
  154.9985  140.0373  157.2340 H   0  0  0  0  0  0  0  0  0  0  0  0  # atno 8010 bound_to 7997
  139.4886  144.5737  151.7005 H   0  0  0  0  0  0  0  0  0  0  0  0  # atno 10167 bound_to 10162
  156.1553  130.4150  149.9878 H   0  0  0  0  0  0  0  0  0  0  0  0  # atno 10718 bound_to 10713
  154.2581  135.2769  155.2789 H   0  0  0  0  0  0  0  0  0  0  0  0  # atno 10763 bound_to 10752
  154.5407  135.5703  153.6841 H   0  0  0  0  0  0  0  0  0  0  0  0  # atno 10764 bound_to 10752
  152.9967  135.6250  154.2730 H   0  0  0  0  0  0  0  0  0  0  0  0  # atno 10765 bound_to 10752
  140.5060  134.5847  157.5003 H   0  0  0  0  0  0  0  0  0  0  0  0  # atno 11005 bound_to 11000
  144.7160  139.8195  143.7398 LP  0  0  0  0  0  0  0  0  0  0  0  0  # atno 17320 bound_to 7965
  146.1287  139.4318  143.0182 LP  0  0  0  0  0  0  0  0  0  0  0  0  # atno 17321 bound_to 7965
  140.5330  144.0701  150.6060 LP  0  0  0  0  0  0  0  0  0  0  0  0  # atno 17342 bound_to 10162
  140.3697  143.2861  152.0292 LP  0  0  0  0  0  0  0  0  0  0  0  0  # atno 17343 bound_to 10162
  156.7724  130.9191  151.3644 LP  0  0  0  0  0  0  0  0  0  0  0  0  # atno 17370 bound_to 10713
  157.6690  130.9034  149.9997 LP  0  0  0  0  0  0  0  0  0  0  0  0  # atno 17371 bound_to 10713
  139.9686  134.7331  156.0088 LP  0  0  0  0  0  0  0  0  0  0  0  0  # atno 17394 bound_to 11000
  141.1410  133.6565  156.3731 LP  0  0  0  0  0  0  0  0  0  0  0  0  # atno 17395 bound_to 11000

$$$$
