AV-unprocessed.smi:1032|AV-procd|sdf|4484|dock5
  -GOLD-   22720 2463D 1   1.00000     0.00000
 Structure written by MMmdl.
 46 47  0  0  0  0  0  0  0  0  2 V2000
  145.8406  143.7927  157.3917 C   0  0  0  0  0  0  0  0  0  0  0  0
  144.8528  143.2416  156.3486 C   0  0  2  0  0  0  0  0  0  0  0  0
  144.8212  141.7028  156.3115 C   0  0  0  0  0  0  0  0  0  0  0  0
  146.0673  141.1097  155.6302 C   0  0  0  0  0  0  0  0  0  0  0  0
  146.2457  141.6602  154.2620 N   0  3  2  0  0  0  0  0  0  0  0  0
  147.3516  140.9923  153.5276 C   0  0  0  0  0  0  0  0  0  0  0  0
  147.1590  139.4657  153.4154 C   0  0  2  0  0  0  0  0  0  0  0  0
  148.4411  138.8672  153.4099 O   0  0  0  0  0  0  0  0  0  0  0  0
  146.4445  139.0782  152.1043 C   0  0  0  0  0  0  0  0  0  0  0  0
  146.5309  137.6455  151.8393 N   0  0  0  0  0  0  0  0  0  0  0  0
  145.4795  136.8178  151.7494 C   0  0  0  0  0  0  0  0  0  0  0  0
  144.3153  137.1868  151.9048 O   0  0  0  0  0  0  0  0  0  0  0  0
  145.8701  135.5564  151.4976 N   0  0  0  0  0  0  0  0  0  0  0  0
  145.0632  134.4086  151.2674 C   0  0  0  0  0  0  0  0  0  0  0  0
  145.7149  133.1730  151.0731 C   0  0  0  0  0  0  0  0  0  0  0  0
  144.9358  132.0263  150.8200 C   0  0  0  0  0  0  0  0  0  0  0  0
  143.5886  132.0470  150.7435 N   0  0  0  0  0  0  0  0  0  0  0  0
  142.9673  133.2329  150.9156 C   0  0  0  0  0  0  0  0  0  0  0  0
  143.6508  134.4379  151.1743 C   0  0  0  0  0  0  0  0  0  0  0  0
  146.3570  143.1434  154.2823 C   0  0  0  0  0  0  0  0  0  0  0  0
  145.1172  143.7839  154.9321 C   0  0  0  0  0  0  0  0  0  0  0  0
  146.8697  143.5056  157.1776 H   0  0  0  0  0  0  0  0  0  0  0  0
  145.5980  143.4266  158.3898 H   0  0  0  0  0  0  0  0  0  0  0  0
  145.8033  144.8819  157.4267 H   0  0  0  0  0  0  0  0  0  0  0  0
  143.8625  143.5835  156.6521 H   0  0  0  0  0  0  0  0  0  0  0  0
  144.7186  141.3026  157.3207 H   0  0  0  0  0  0  0  0  0  0  0  0
  143.9339  141.3774  155.7667 H   0  0  0  0  0  0  0  0  0  0  0  0
  146.9611  141.3059  156.2242 H   0  0  0  0  0  0  0  0  0  0  0  0
  145.9571  140.0257  155.5786 H   0  0  0  0  0  0  0  0  0  0  0  0
  147.4406  141.4413  152.5369 H   0  0  0  0  0  0  0  0  0  0  0  0
  148.3001  141.1841  154.0322 H   0  0  0  0  0  0  0  0  0  0  0  0
  146.5945  139.0935  154.2695 H   0  0  0  0  0  0  0  0  0  0  0  0
  148.9533  139.2514  152.7144 H   0  0  0  0  0  0  0  0  0  0  0  0
  145.3893  139.3529  152.1579 H   0  0  0  0  0  0  0  0  0  0  0  0
  146.8511  139.6305  151.2562 H   0  0  0  0  0  0  0  0  0  0  0  0
  147.4550  137.2602  151.7082 H   0  0  0  0  0  0  0  0  0  0  0  0
  146.8658  135.3899  151.5003 H   0  0  0  0  0  0  0  0  0  0  0  0
  146.7915  133.0980  151.1205 H   0  0  0  0  0  0  0  0  0  0  0  0
  145.4088  131.0668  150.6723 H   0  0  0  0  0  0  0  0  0  0  0  0
  141.8904  133.2232  150.8374 H   0  0  0  0  0  0  0  0  0  0  0  0
  143.0851  135.3505  151.2798 H   0  0  0  0  0  0  0  0  0  0  0  0
  147.2623  143.4372  154.8151 H   0  0  0  0  0  0  0  0  0  0  0  0
  146.4548  143.5320  153.2696 H   0  0  0  0  0  0  0  0  0  0  0  0
  144.2476  143.5826  154.3050 H   0  0  0  0  0  0  0  0  0  0  0  0
  145.2252  144.8688  154.9571 H   0  0  0  0  0  0  0  0  0  0  0  0
  145.3997  141.4361  153.7571 H   0  0  0  0  0  0  0  0  0  0  0  0
  1  2  1  0  0  0  0
  1 22  1  0  0  0  0
  1 23  1  0  0  0  0
  1 24  1  0  0  0  0
  2 21  1  0  0  0  0
  2  3  1  0  0  0  0
  2 25  1  0  0  0  0
  3  4  1  0  0  0  0
  3 26  1  0  0  0  0
  3 27  1  0  0  0  0
  4  5  1  0  0  0  0
  4 28  1  0  0  0  0
  4 29  1  0  0  0  0
  5  6  1  0  0  0  0
  5 20  1  0  0  0  0
  5 46  1  0  0  0  0
  6  7  1  0  0  0  0
  6 30  1  0  0  0  0
  6 31  1  0  0  0  0
  7  8  1  0  0  0  0
  7  9  1  0  0  0  0
  7 32  1  0  0  0  0
  8 33  1  0  0  0  0
  9 10  1  0  0  0  0
  9 34  1  0  0  0  0
  9 35  1  0  0  0  0
 10 11  1  0  0  0  0
 10 36  1  0  0  0  0
 11 12  2  0  0  0  0
 11 13  1  0  0  0  0
 13 14  1  0  0  0  0
 13 37  1  0  0  0  0
 14 19  1  0  0  0  0
 14 15  2  0  0  0  0
 15 16  1  0  0  0  0
 15 38  1  0  0  0  0
 16 17  2  0  0  0  0
 16 39  1  0  0  0  0
 17 18  1  0  0  0  0
 18 19  2  0  0  0  0
 18 40  1  0  0  0  0
 19 41  1  0  0  0  0
 20 21  1  0  0  0  0
 20 42  1  0  0  0  0
 20 43  1  0  0  0  0
 21 44  1  0  0  0  0
 21 45  1  0  0  0  0
M  CHG  1   5   1
M  END
> <s_m_source_file>
AV-unprocessed.smi

> <i_m_source_file_index>
1032

> <i_lp_mmshare_version>
43012

> <i_f3d_flags>
0

> <s_epik_input>
W0NIM11bQ0hdMVtDSDJdW0NIMl1OKFtDSDJdW0NIMl0xKVtDSDJdW0NASF0oW09IXSlbQ0gyXVtOSF1DKD1PKVtOSF1jMltjSF1bY0hdbltjSF1bY0hdMg==

> <s_epik_cmdline>
J2VwaWtfcHl0aG9uJywgJy1waCcsICc3LjAnLCAnLXRuJywgJzgnLCAnLW1hJywgJzIwMCcsICctbWV0YWxfYmluZGluZycsICctaW1hZScsICc8aW5maWxlLm1hZT4nLCAnLW9tYWUnLCAnPG91dGZpbGUubWFlPic=

> <r_epik_Ionization_Penalty>
0.11743

> <r_epik_Ionization_Penalty_Charging>
0.00147689

> <r_epik_Ionization_Penalty_Neutral>
0.115954

> <r_epik_State_Penalty>
0.105552

> <r_epik_Charging_Adjusted_Penalty>
0.107029

> <i_epik_Tot_Q>
1

> <i_epik_Tot_abs_Q>
1

> <r_epik_Metal_State_Penalty>
0.0881315

> <b_epik_Metal_Only>
0

> <s_lp_Force_Field>
OPLS_2005

> <r_lp_Energy>
27.8134

> <b_lp_Chiralities_Consistent>
1

> <s_lp_Variant>
AV-unprocessed.smi:1032-3

> <Gold.Version>
5.8.1

> <Gold.Id.Protein>
6NUR|6NUR_protein|mol2

> <Gold.PLP.Fitness>
55.9560

> <Gold.PLP.PLP>
-36.3372

> <Gold.PLP.part.hbond>
-4.4830

> <Gold.PLP.part.metal>
0.0000

> <Gold.PLP.part.buried>
-4.4722

> <Gold.PLP.part.nonpolar>
-31.5728

> <Gold.PLP.part.repulsive>
4.1839

> <Gold.PLP.ligand.clash>
0.0000

> <Gold.PLP.ligand.torsion>
0.5116

> <Gold.PLP.Chemscore.Hbond>
4.9600

> <Gold.PLP.Chemscore.CHOScore>
1.9083

> <Gold.PLP.Chemscore.Metal>
0.0000

> <Gold.Chemscore.Hbonds>
donor molecule, donor type, donor heavy atom, donor atom, acceptor molecule, acceptor atom, score
      L1  H     5    46       P1 10175  0.52
      L1  H     8    33       P1  7957  1.00
      L1  H    10    36       P1  7948  1.00
      L1  H    13    37       P1  7948  0.48
      L1  C    18    40       P1 10186  0.65

> <Gold.PLP.Chemscore.Internal.Correction>
0.0371

> <Gold.Rescore>
     Score         DG    S(hbond)    S(metal)    S(lipo)     H(rot)  DE(clash)    DE(int)     intcor
     17.05     -20.56       3.56        0.00      77.38       2.29       1.57       1.94       ----

> <Gold.Chemscore.Fitness>
17.0518

> <Gold.Chemscore.DG>
-20.5638

> <Gold.Chemscore.ZeroCoef>
-5.4800

> <Gold.Chemscore.Hbond>
3.5581

> <Gold.Chemscore.Metal>
0.0000

> <Gold.Chemscore.Lipo>
77.3777

> <Gold.Chemscore.Internal_Hbond>
0.0000

> <Gold.Chemscore.DEClash>
1.5724

> <Gold.Chemscore.DEInternal>
1.9396

> <Gold.Chemscore.Rot>
2.2865

> <Gold.Chemscore.Internal.Correction>
   9.000000E+99

> <Gold.Chemscore.Hbonds>
donor molecule, donor type, donor heavy atom, donor atom, acceptor molecule, acceptor atom, score
      L1  H     5    46       P1 10175  0.07
      L1  H     8    33       P1  7957  1.00
      L1  H    10    36       P1  7948  1.00
      L1  H    13    37       P1  7948  0.43

> <Gold.Chemscore.Hbond.Weighted>
-11.8842

> <Gold.Chemscore.Metal.Weighted>
-0.0000

> <Gold.Chemscore.Lipo.Weighted>
-9.0532

> <Gold.Chemscore.Internal_Hbond.Weighted>
0.0000

> <Gold.Chemscore.DEClash.Weighted>
1.5724

> <Gold.Chemscore.DEInternal.Weighted>
1.9396

> <Gold.Chemscore.Rot.Weighted>
5.8536

> <Gold.Chemscore.Internal.Correction.Weighted>
   9.000000E+99

> <Gold.Protein.RotatedTorsions>
[ 6907 6896 6895 6894 ] final  121.63 input  -60.11 | X-H torsion
[ 7974 7965 7964 7962 ] final  132.91 input  175.53 | X-H torsion
[ 8008 7997 7996 7995 ] final  -71.73 input   59.86 | X-H torsion
[ 10167 10162 10161 10158 ] final  -44.86 input  -65.29 | X-H torsion
[ 10718 10713 10712 10709 ] final   11.97 input   66.30 | X-H torsion
[ 10763 10752 10751 10750 ] final   -3.45 input  -60.55 | X-H torsion
[ 11005 11000 10999 10996 ] final  -77.51 input  -57.11 | X-H torsion

> <Gold.Protein.ActiveResidues>
 VAL166  LYS551  ARG553  GLY616  TRP617  ASP618  TYR619  PRO620  LYS621  CYS622 
 ASP623  PHE694  ASN695  SER759  ASP760  ASP761  ALA762  ILE779  LEU786  VAL792 
 PHE793  MET794  SER795  GLU796  ALA797  LYS798  CYS799  TRP800  GLU811  SER814 

> <Gold.Protein.RotatedAtoms>
  152.4306  133.7272  159.6566 H   0  0  0  0  0  0  0  0  0  0  0  0  # atno 6907 bound_to 6896
  150.8185  133.8283  159.3155 H   0  0  0  0  0  0  0  0  0  0  0  0  # atno 6908 bound_to 6896
  151.5972  135.1052  160.0104 H   0  0  0  0  0  0  0  0  0  0  0  0  # atno 6909 bound_to 6896
  144.9919  139.4398  143.5335 H   0  0  0  0  0  0  0  0  0  0  0  0  # atno 7974 bound_to 7965
  154.5110  140.0810  156.7990 H   0  0  0  0  0  0  0  0  0  0  0  0  # atno 8008 bound_to 7997
  155.3785  140.3426  155.4227 H   0  0  0  0  0  0  0  0  0  0  0  0  # atno 8009 bound_to 7997
  156.1573  140.1577  156.8658 H   0  0  0  0  0  0  0  0  0  0  0  0  # atno 8010 bound_to 7997
  140.6880  143.2908  151.3556 H   0  0  0  0  0  0  0  0  0  0  0  0  # atno 10167 bound_to 10162
  157.0034  130.6088  149.5699 H   0  0  0  0  0  0  0  0  0  0  0  0  # atno 10718 bound_to 10713
  153.3716  135.6995  153.6634 H   0  0  0  0  0  0  0  0  0  0  0  0  # atno 10763 bound_to 10752
  153.5281  135.3598  155.2664 H   0  0  0  0  0  0  0  0  0  0  0  0  # atno 10764 bound_to 10752
  154.8682  135.4174  154.2995 H   0  0  0  0  0  0  0  0  0  0  0  0  # atno 10765 bound_to 10752
  141.1660  133.7025  156.7831 H   0  0  0  0  0  0  0  0  0  0  0  0  # atno 11005 bound_to 11000
  146.3433  139.9256  142.8760 LP  0  0  0  0  0  0  0  0  0  0  0  0  # atno 17320 bound_to 7965
  145.2273  140.9959  143.4011 LP  0  0  0  0  0  0  0  0  0  0  0  0  # atno 17321 bound_to 7965
  139.6257  144.0820  152.2432 LP  0  0  0  0  0  0  0  0  0  0  0  0  # atno 17342 bound_to 10162
  140.0278  144.6104  150.7513 LP  0  0  0  0  0  0  0  0  0  0  0  0  # atno 17343 bound_to 10162
  156.0163  130.5257  150.8143 LP  0  0  0  0  0  0  0  0  0  0  0  0  # atno 17370 bound_to 10713
  157.5374  131.0939  150.9874 LP  0  0  0  0  0  0  0  0  0  0  0  0  # atno 17371 bound_to 10713
  140.2380  134.8635  157.3544 LP  0  0  0  0  0  0  0  0  0  0  0  0  # atno 17394 bound_to 11000
  140.1824  134.4473  155.7764 LP  0  0  0  0  0  0  0  0  0  0  0  0  # atno 17395 bound_to 11000

$$$$
