AV-unprocessed.smi:895|AV-procd|sdf|4073|dock1
  -GOLD-   22720 1553D 1   1.00000     0.00000
 Structure written by MMmdl.
 44 45  0  0  0  0  0  0  0  0  1 V2000
  146.7613  131.4683  153.3042 C   0  0  0  0  0  0  0  0  0  0  0  0
  147.5120  132.7909  153.0737 C   0  0  0  0  0  0  0  0  0  0  0  0
  148.9795  132.6596  153.5267 C   0  0  0  0  0  0  0  0  0  0  0  0
  147.4897  132.9984  151.6753 O   0  0  0  0  0  0  0  0  0  0  0  0
  146.7460  133.9575  153.7493 C   0  0  0  0  0  0  0  0  0  0  0  0
  147.3746  135.2629  153.5661 N   0  0  0  0  0  0  0  0  0  0  0  0
  147.1174  136.3526  154.3016 C   0  0  0  0  0  0  0  0  0  0  0  0
  146.3077  136.3827  155.2277 O   0  0  0  0  0  0  0  0  0  0  0  0
  147.8529  137.4010  153.9053 N   0  0  0  0  0  0  0  0  0  0  0  0
  147.8283  138.7374  154.5004 C   0  0  2  0  0  0  0  0  0  0  0  0
  146.5754  139.4748  153.9871 C   0  0  0  0  0  0  0  0  0  0  0  0
  146.5180  140.9270  154.4834 C   0  0  0  0  0  0  0  0  0  0  0  0
  147.7887  141.6930  154.0916 C   0  0  0  0  0  0  0  0  0  0  0  0
  149.0399  140.9862  154.6315 C   0  0  0  0  0  0  0  0  0  0  0  0
  149.1214  139.5213  154.1479 C   0  0  1  0  0  0  0  0  0  0  0  0
  150.3173  138.8654  154.6641 N   0  0  0  0  0  0  0  0  0  0  0  0
  150.3930  137.7444  155.4648 C   0  0  0  0  0  0  0  0  0  0  0  0
  151.7133  137.5165  155.7274 C   0  0  0  0  0  0  0  0  0  0  0  0
  152.3805  138.5668  155.0380 C   0  0  0  0  0  0  0  0  0  0  0  0
  151.5443  139.3718  154.4043 N   0  0  0  0  0  0  0  0  0  0  0  0
  146.7332  131.2108  154.3633 H   0  0  0  0  0  0  0  0  0  0  0  0
  147.2391  130.6405  152.7787 H   0  0  0  0  0  0  0  0  0  0  0  0
  145.7302  131.5296  152.9536 H   0  0  0  0  0  0  0  0  0  0  0  0
  149.0456  132.5301  154.6074 H   0  0  0  0  0  0  0  0  0  0  0  0
  149.5706  133.5363  153.2596 H   0  0  0  0  0  0  0  0  0  0  0  0
  149.4601  131.7974  153.0631 H   0  0  0  0  0  0  0  0  0  0  0  0
  147.9995  132.3170  151.2629 H   0  0  0  0  0  0  0  0  0  0  0  0
  145.7004  133.9806  153.4351 H   0  0  0  0  0  0  0  0  0  0  0  0
  146.7255  133.7912  154.8268 H   0  0  0  0  0  0  0  0  0  0  0  0
  148.0561  135.3384  152.8255 H   0  0  0  0  0  0  0  0  0  0  0  0
  148.4866  137.2652  153.1317 H   0  0  0  0  0  0  0  0  0  0  0  0
  147.7440  138.6625  155.5864 H   0  0  0  0  0  0  0  0  0  0  0  0
  146.5658  139.4708  152.8959 H   0  0  0  0  0  0  0  0  0  0  0  0
  145.6761  138.9454  154.3041 H   0  0  0  0  0  0  0  0  0  0  0  0
  145.6410  141.4262  154.0707 H   0  0  0  0  0  0  0  0  0  0  0  0
  146.4011  140.9401  155.5678 H   0  0  0  0  0  0  0  0  0  0  0  0
  147.8506  141.7736  153.0056 H   0  0  0  0  0  0  0  0  0  0  0  0
  147.7421  142.7121  154.4766 H   0  0  0  0  0  0  0  0  0  0  0  0
  149.9317  141.5309  154.3196 H   0  0  0  0  0  0  0  0  0  0  0  0
  149.0221  141.0227  155.7215 H   0  0  0  0  0  0  0  0  0  0  0  0
  149.2159  139.5433  153.0608 H   0  0  0  0  0  0  0  0  0  0  0  0
  149.5096  137.2108  155.7830 H   0  0  0  0  0  0  0  0  0  0  0  0
  152.1378  136.7234  156.3245 H   0  0  0  0  0  0  0  0  0  0  0  0
  153.4400  138.7681  154.9811 H   0  0  0  0  0  0  0  0  0  0  0  0
  1  2  1  0  0  0  0
  1 21  1  0  0  0  0
  1 22  1  0  0  0  0
  1 23  1  0  0  0  0
  2  3  1  0  0  0  0
  2  4  1  0  0  0  0
  2  5  1  0  0  0  0
  3 24  1  0  0  0  0
  3 25  1  0  0  0  0
  3 26  1  0  0  0  0
  4 27  1  0  0  0  0
  5  6  1  0  0  0  0
  5 28  1  0  0  0  0
  5 29  1  0  0  0  0
  6  7  1  0  0  0  0
  6 30  1  0  0  0  0
  7  8  2  0  0  0  0
  7  9  1  0  0  0  0
  9 10  1  0  0  0  0
  9 31  1  0  0  0  0
 10 15  1  0  0  0  0
 10 11  1  0  0  0  0
 10 32  1  0  0  0  0
 11 12  1  0  0  0  0
 11 33  1  0  0  0  0
 11 34  1  0  0  0  0
 12 13  1  0  0  0  0
 12 35  1  0  0  0  0
 12 36  1  0  0  0  0
 13 14  1  0  0  0  0
 13 37  1  0  0  0  0
 13 38  1  0  0  0  0
 14 15  1  0  0  0  0
 14 39  1  0  0  0  0
 14 40  1  0  0  0  0
 15 16  1  0  0  0  0
 15 41  1  0  0  0  0
 16 20  1  0  0  0  0
 16 17  1  0  0  0  0
 17 18  2  0  0  0  0
 17 42  1  0  0  0  0
 18 19  1  0  0  0  0
 18 43  1  0  0  0  0
 19 20  2  0  0  0  0
 19 44  1  0  0  0  0
M  END
> <s_m_source_file>
AV-unprocessed.smi

> <i_m_source_file_index>
895

> <i_lp_mmshare_version>
43012

> <i_f3d_flags>
0

> <s_epik_input>
W0NIM11DKFtDSDNdKShbT0hdKVtDSDJdW05IXUMoPU8pW05IXVtDQEBIXTFbQ0gyXVtDSDJdW0NIMl1bQ0gyXVtDQEhdMW4yW2NIXVtjSF1bY0hdbjI=

> <s_epik_cmdline>
J2VwaWtfcHl0aG9uJywgJy1waCcsICc3LjAnLCAnLXRuJywgJzgnLCAnLW1hJywgJzIwMCcsICctbWV0YWxfYmluZGluZycsICctaW1hZScsICc8aW5maWxlLm1hZT4nLCAnLW9tYWUnLCAnPG91dGZpbGUubWFlPic=

> <r_lp_tautomer_probability>
1

> <r_epik_Ionization_Penalty>
0.000440451

> <r_epik_Ionization_Penalty_Charging>
0

> <r_epik_Ionization_Penalty_Neutral>
0.000440451

> <r_epik_State_Penalty>
-0

> <r_epik_Charging_Adjusted_Penalty>
0

> <i_epik_Tot_Q>
0

> <i_epik_Tot_abs_Q>
0

> <r_epik_Metal_State_Penalty>
-0

> <b_epik_Metal_Only>
0

> <s_lp_Force_Field>
OPLS_2005

> <r_lp_Energy>
10.7008

> <b_lp_Chiralities_Consistent>
1

> <s_lp_Variant>
AV-unprocessed.smi:895-1

> <Gold.Version>
5.8.1

> <Gold.Id.Protein>
6NUR|6NUR_protein|mol2

> <Gold.PLP.Fitness>
41.7524

> <Gold.PLP.PLP>
-30.6673

> <Gold.PLP.part.hbond>
-3.9115

> <Gold.PLP.part.metal>
0.0000

> <Gold.PLP.part.buried>
-1.9679

> <Gold.PLP.part.nonpolar>
-25.2433

> <Gold.PLP.part.repulsive>
0.1555

> <Gold.PLP.ligand.clash>
0.0000

> <Gold.PLP.ligand.torsion>
0.4124

> <Gold.PLP.Chemscore.Hbond>
3.9440

> <Gold.PLP.Chemscore.CHOScore>
0.0000

> <Gold.PLP.Chemscore.Metal>
0.0000

> <Gold.Chemscore.Hbonds>
donor molecule, donor type, donor heavy atom, donor atom, acceptor molecule, acceptor atom, score
      L1  H     4    27       P1 10747  1.00
      L1  H     6    30       P1  7948  1.00
      L1  H     9    31       P1  7948  0.93
      P1  H  7989  7998       L1    20  1.00

> <Gold.PLP.Chemscore.Internal.Correction>
0.0780

> <Gold.Rescore>
     Score         DG    S(hbond)    S(metal)    S(lipo)     H(rot)  DE(clash)    DE(int)     intcor
     19.30     -20.78       3.84        0.00      69.02       2.19       0.05       1.43       ----

> <Gold.Chemscore.Fitness>
19.2950

> <Gold.Chemscore.DG>
-20.7754

> <Gold.Chemscore.ZeroCoef>
-5.4800

> <Gold.Chemscore.Hbond>
3.8417

> <Gold.Chemscore.Metal>
0.0000

> <Gold.Chemscore.Lipo>
69.0214

> <Gold.Chemscore.Internal_Hbond>
0.0000

> <Gold.Chemscore.DEClash>
0.0467

> <Gold.Chemscore.DEInternal>
1.4336

> <Gold.Chemscore.Rot>
2.1919

> <Gold.Chemscore.Internal.Correction>
   9.000000E+99

> <Gold.Chemscore.Hbonds>
donor molecule, donor type, donor heavy atom, donor atom, acceptor molecule, acceptor atom, score
      L1  H     4    27       P1 10747  0.95
      L1  H     6    30       P1  7948  0.93
      L1  H     9    31       P1  7948  0.91
      P1  H  7989  7998       L1    20  0.96

> <Gold.Chemscore.Hbond.Weighted>
-12.8312

> <Gold.Chemscore.Metal.Weighted>
-0.0000

> <Gold.Chemscore.Lipo.Weighted>
-8.0755

> <Gold.Chemscore.Internal_Hbond.Weighted>
0.0000

> <Gold.Chemscore.DEClash.Weighted>
0.0467

> <Gold.Chemscore.DEInternal.Weighted>
1.4336

> <Gold.Chemscore.Rot.Weighted>
5.6113

> <Gold.Chemscore.Internal.Correction.Weighted>
   9.000000E+99

> <Gold.Protein.RotatedTorsions>
[ 6907 6896 6895 6894 ] final -156.68 input  -60.11 | X-H torsion
[ 7974 7965 7964 7962 ] final  -69.41 input  175.53 | X-H torsion
[ 8008 7997 7996 7995 ] final   82.67 input   59.86 | X-H torsion
[ 10167 10162 10161 10158 ] final  -12.87 input  -65.29 | X-H torsion
[ 10718 10713 10712 10709 ] final  -34.37 input   66.30 | X-H torsion
[ 10763 10752 10751 10750 ] final   73.88 input  -60.55 | X-H torsion
[ 11005 11000 10999 10996 ] final   -8.38 input  -57.11 | X-H torsion

> <Gold.Protein.ActiveResidues>
 VAL166  LYS551  ARG553  GLY616  TRP617  ASP618  TYR619  PRO620  LYS621  CYS622 
 ASP623  PHE694  ASN695  SER759  ASP760  ASP761  ALA762  ILE779  LEU786  VAL792 
 PHE793  MET794  SER795  GLU796  ALA797  LYS798  CYS799  TRP800  GLU811  SER814 

> <Gold.Protein.RotatedAtoms>
  151.2913  133.4164  159.2633 H   0  0  0  0  0  0  0  0  0  0  0  0  # atno 6907 bound_to 6896
  151.0275  134.9515  159.8103 H   0  0  0  0  0  0  0  0  0  0  0  0  # atno 6908 bound_to 6896
  152.5338  134.2875  159.9083 H   0  0  0  0  0  0  0  0  0  0  0  0  # atno 6909 bound_to 6896
  145.7041  140.9105  143.0715 H   0  0  0  0  0  0  0  0  0  0  0  0  # atno 7974 bound_to 7965
  155.9137  140.3426  155.6118 H   0  0  0  0  0  0  0  0  0  0  0  0  # atno 8008 bound_to 7997
  155.7357  140.0801  157.2287 H   0  0  0  0  0  0  0  0  0  0  0  0  # atno 8009 bound_to 7997
  154.4059  140.1580  156.2546 H   0  0  0  0  0  0  0  0  0  0  0  0  # atno 8010 bound_to 7997
  140.7170  143.5487  150.9326 H   0  0  0  0  0  0  0  0  0  0  0  0  # atno 10167 bound_to 10162
  156.3514  130.4309  149.7701 H   0  0  0  0  0  0  0  0  0  0  0  0  # atno 10718 bound_to 10713
  153.0550  135.5046  154.7959 H   0  0  0  0  0  0  0  0  0  0  0  0  # atno 10763 bound_to 10752
  154.6792  135.2965  154.9638 H   0  0  0  0  0  0  0  0  0  0  0  0  # atno 10764 bound_to 10752
  154.0430  135.6714  153.4845 H   0  0  0  0  0  0  0  0  0  0  0  0  # atno 10765 bound_to 10752
  140.7229  133.8813  155.8834 H   0  0  0  0  0  0  0  0  0  0  0  0  # atno 11005 bound_to 11000
  144.6960  139.8986  143.7457 LP  0  0  0  0  0  0  0  0  0  0  0  0  # atno 17320 bound_to 7965
  146.0772  139.3759  143.0487 LP  0  0  0  0  0  0  0  0  0  0  0  0  # atno 17321 bound_to 7965
  139.9210  143.6605  152.3096 LP  0  0  0  0  0  0  0  0  0  0  0  0  # atno 17342 bound_to 10162
  139.7022  144.7633  151.1253 LP  0  0  0  0  0  0  0  0  0  0  0  0  # atno 17343 bound_to 10162
  156.4900  130.8081  151.3091 LP  0  0  0  0  0  0  0  0  0  0  0  0  # atno 17370 bound_to 10713
  157.7461  130.9978  150.2830 LP  0  0  0  0  0  0  0  0  0  0  0  0  # atno 17371 bound_to 10713
  140.9988  134.1179  157.4337 LP  0  0  0  0  0  0  0  0  0  0  0  0  # atno 17394 bound_to 11000
  139.8844  135.0062  156.6365 LP  0  0  0  0  0  0  0  0  0  0  0  0  # atno 17395 bound_to 11000

$$$$
