AV-unprocessed.smi:2691|AV-procd|sdf|10392|dock10
  -GOLD-   2272014423D 1   1.00000     0.00000
 Structure written by MMmdl.
 50 52  0  0  0  0  0  0  0  0  2 V2000
  153.4349  142.1743  161.0247 C   0  0  0  0  0  0  0  0  0  0  0  0
  152.5975  141.8899  159.7894 C   0  0  0  0  0  0  0  0  0  0  0  0
  152.7929  140.6663  159.1092 C   0  0  0  0  0  0  0  0  0  0  0  0
  152.0108  140.4341  157.9838 C   0  0  0  0  0  0  0  0  0  0  0  0
  151.9610  139.3447  157.1106 N   0  3  0  0  0  0  0  0  0  0  0  0
  151.0252  139.5762  156.1482 C   0  0  0  0  0  0  0  0  0  0  0  0
  150.4786  140.7977  156.3941 N   0  0  0  0  0  0  0  0  0  0  0  0
  149.4267  141.5259  155.6728 C   0  0  0  0  0  0  0  0  0  0  0  0
  148.9077  140.7566  154.4419 C   0  0  2  0  0  0  0  0  0  0  0  0
  149.4609  141.3594  153.2878 O   0  0  0  0  0  0  0  0  0  0  0  0
  147.3669  140.8001  154.3432 C   0  0  0  0  0  0  0  0  0  0  0  0
  146.8210  139.5592  153.7696 N   0  0  0  0  0  0  0  0  0  0  0  0
  147.1509  139.2874  152.4271 C   0  0  0  0  0  0  0  0  0  0  0  0
  146.7110  138.2338  151.8165 N   0  0  0  0  0  0  0  0  0  0  0  0
  145.8838  137.3316  152.4948 C   0  0  0  0  0  0  0  0  0  0  0  0
  145.3996  136.1154  151.7158 C   0  0  0  0  0  0  0  0  0  0  0  0
  145.9957  136.0763  150.2997 C   0  0  0  0  0  0  0  0  0  0  0  0
  143.8652  136.0383  151.6873 C   0  0  0  0  0  0  0  0  0  0  0  0
  145.5351  137.5524  153.7856 C   0  0  0  0  0  0  0  0  0  0  0  0
  146.0125  138.7368  154.4988 C   0  0  0  0  0  0  0  0  0  0  0  0
  145.7030  138.9773  155.6658 O   0  0  0  0  0  0  0  0  0  0  0  0
  151.0618  141.3697  157.5289 C   0  0  0  0  0  0  0  0  0  0  0  0
  150.8567  142.5801  158.1861 C   0  0  0  0  0  0  0  0  0  0  0  0
  151.6420  142.8349  159.3330 C   0  0  0  0  0  0  0  0  0  0  0  0
  151.4414  144.1476  160.0706 C   0  0  0  0  0  0  0  0  0  0  0  0
  154.1055  141.3452  161.2523 H   0  0  0  0  0  0  0  0  0  0  0  0
  152.7958  142.3329  161.8939 H   0  0  0  0  0  0  0  0  0  0  0  0
  154.0456  143.0651  160.8758 H   0  0  0  0  0  0  0  0  0  0  0  0
  153.5188  139.9425  159.4503 H   0  0  0  0  0  0  0  0  0  0  0  0
  150.7603  138.9101  155.3396 H   0  0  0  0  0  0  0  0  0  0  0  0
  148.6174  141.7375  156.3728 H   0  0  0  0  0  0  0  0  0  0  0  0
  149.8379  142.4913  155.3742 H   0  0  0  0  0  0  0  0  0  0  0  0
  149.2535  139.7236  154.4961 H   0  0  0  0  0  0  0  0  0  0  0  0
  149.3833  140.7543  152.5653 H   0  0  0  0  0  0  0  0  0  0  0  0
  146.9433  140.9441  155.3393 H   0  0  0  0  0  0  0  0  0  0  0  0
  147.0360  141.6804  153.7884 H   0  0  0  0  0  0  0  0  0  0  0  0
  147.7923  140.0261  151.9431 H   0  0  0  0  0  0  0  0  0  0  0  0
  145.7564  135.2265  152.2389 H   0  0  0  0  0  0  0  0  0  0  0  0
  147.0853  136.1077  150.3319 H   0  0  0  0  0  0  0  0  0  0  0  0
  145.6555  136.9178  149.6952 H   0  0  0  0  0  0  0  0  0  0  0  0
  145.7092  135.1613  149.7804 H   0  0  0  0  0  0  0  0  0  0  0  0
  143.4541  136.0351  152.6975 H   0  0  0  0  0  0  0  0  0  0  0  0
  143.5296  135.1263  151.1933 H   0  0  0  0  0  0  0  0  0  0  0  0
  143.4300  136.8828  151.1524 H   0  0  0  0  0  0  0  0  0  0  0  0
  144.8951  136.8517  154.3019 H   0  0  0  0  0  0  0  0  0  0  0  0
  150.1282  143.2976  157.8382 H   0  0  0  0  0  0  0  0  0  0  0  0
  150.6951  144.7718  159.5782 H   0  0  0  0  0  0  0  0  0  0  0  0
  152.3728  144.7129  160.1101 H   0  0  0  0  0  0  0  0  0  0  0  0
  151.1025  143.9649  161.0906 H   0  0  0  0  0  0  0  0  0  0  0  0
  152.5204  138.5031  157.1665 H   0  0  0  0  0  0  0  0  0  0  0  0
  1  2  1  0  0  0  0
  1 26  1  0  0  0  0
  1 27  1  0  0  0  0
  1 28  1  0  0  0  0
  2 24  1  0  0  0  0
  2  3  2  0  0  0  0
  3  4  1  0  0  0  0
  3 29  1  0  0  0  0
  4 22  2  0  0  0  0
  4  5  1  0  0  0  0
  5  6  2  0  0  0  0
  5 50  1  0  0  0  0
  6  7  1  0  0  0  0
  6 30  1  0  0  0  0
  7  8  1  0  0  0  0
  7 22  1  0  0  0  0
  8  9  1  0  0  0  0
  8 31  1  0  0  0  0
  8 32  1  0  0  0  0
  9 10  1  0  0  0  0
  9 11  1  0  0  0  0
  9 33  1  0  0  0  0
 10 34  1  0  0  0  0
 11 12  1  0  0  0  0
 11 35  1  0  0  0  0
 11 36  1  0  0  0  0
 12 20  1  0  0  0  0
 12 13  1  0  0  0  0
 13 14  2  0  0  0  0
 13 37  1  0  0  0  0
 14 15  1  0  0  0  0
 15 16  1  0  0  0  0
 15 19  2  0  0  0  0
 16 17  1  0  0  0  0
 16 18  1  0  0  0  0
 16 38  1  0  0  0  0
 17 39  1  0  0  0  0
 17 40  1  0  0  0  0
 17 41  1  0  0  0  0
 18 42  1  0  0  0  0
 18 43  1  0  0  0  0
 18 44  1  0  0  0  0
 19 20  1  0  0  0  0
 19 45  1  0  0  0  0
 20 21  2  0  0  0  0
 22 23  1  0  0  0  0
 23 24  2  0  0  0  0
 23 46  1  0  0  0  0
 24 25  1  0  0  0  0
 25 47  1  0  0  0  0
 25 48  1  0  0  0  0
 25 49  1  0  0  0  0
M  CHG  1   5   1
M  END
> <s_m_source_file>
AV-unprocessed.smi

> <i_m_source_file_index>
2691

> <i_lp_mmshare_version>
43012

> <i_f3d_flags>
0

> <s_epik_input>
W0NIM11jKFtjSF0xKWMoW0NIM10pW2NIXWMoYzEyKW4oW2NIXW4yKVtDSDJdW0NASF0oW09IXSlbQ0gyXW4zW2NIXW5jKFtDSF0oW0NIM10pW0NIM10pW2NIXWMzPU8=

> <s_epik_cmdline>
J2VwaWtfcHl0aG9uJywgJy1waCcsICc3LjAnLCAnLXRuJywgJzgnLCAnLW1hJywgJzIwMCcsICctbWV0YWxfYmluZGluZycsICctaW1hZScsICc8aW5maWxlLm1hZT4nLCAnLW9tYWUnLCAnPG91dGZpbGUubWFlPic=

> <r_lp_tautomer_probability>
1

> <r_epik_Ionization_Penalty>
1.0357

> <r_epik_Ionization_Penalty_Charging>
1.03568

> <r_epik_Ionization_Penalty_Neutral>
1.29543e-05

> <r_epik_State_Penalty>
1.08724

> <r_epik_Charging_Adjusted_Penalty>
2.12292

> <i_epik_Tot_Q>
1

> <i_epik_Tot_abs_Q>
1

> <r_epik_Metal_State_Penalty>
1.18376

> <b_epik_Metal_Only>
0

> <s_lp_Force_Field>
OPLS_2005

> <r_lp_Energy>
24.5824

> <b_lp_Chiralities_Consistent>
1

> <s_lp_Variant>
AV-unprocessed.smi:2691-3

> <Gold.Version>
5.8.1

> <Gold.Id.Protein>
6NUR|6NUR_protein|mol2

> <Gold.PLP.Fitness>
53.1480

> <Gold.PLP.PLP>
-46.3693

> <Gold.PLP.part.hbond>
-2.4061

> <Gold.PLP.part.metal>
0.0000

> <Gold.PLP.part.buried>
-6.3002

> <Gold.PLP.part.nonpolar>
-39.1932

> <Gold.PLP.part.repulsive>
0.7944

> <Gold.PLP.ligand.clash>
0.0000

> <Gold.PLP.ligand.torsion>
1.1172

> <Gold.PLP.Chemscore.Hbond>
1.9776

> <Gold.PLP.Chemscore.CHOScore>
1.0000

> <Gold.PLP.Chemscore.Metal>
0.0000

> <Gold.Chemscore.Hbonds>
donor molecule, donor type, donor heavy atom, donor atom, acceptor molecule, acceptor atom, score
      L1  H    10    34       P1  7957  1.00
      P1  H  7989  7998       L1    10  0.01
      P1  H  8011  8017       L1    10  0.37
      L1  C    13    37       P1  7957  0.80

> <Gold.PLP.Chemscore.Internal.Correction>
0.0805

> <Gold.Rescore>
     Score         DG    S(hbond)    S(metal)    S(lipo)     H(rot)  DE(clash)    DE(int)     intcor
     15.68     -16.91       1.44        0.00     111.89       2.52       0.08       1.15       ----

> <Gold.Chemscore.Fitness>
15.6829

> <Gold.Chemscore.DG>
-16.9136

> <Gold.Chemscore.ZeroCoef>
-5.4800

> <Gold.Chemscore.Hbond>
1.4355

> <Gold.Chemscore.Metal>
0.0000

> <Gold.Chemscore.Lipo>
111.8863

> <Gold.Chemscore.Internal_Hbond>
0.0000

> <Gold.Chemscore.DEClash>
0.0844

> <Gold.Chemscore.DEInternal>
1.1463

> <Gold.Chemscore.Rot>
2.5202

> <Gold.Chemscore.Internal.Correction>
   9.000000E+99

> <Gold.Chemscore.Hbonds>
donor molecule, donor type, donor heavy atom, donor atom, acceptor molecule, acceptor atom, score
      L1  H    10    34       P1  7957  0.98
      P1  H  7954  7966       L1    14  0.04
      P1  H  8011  8017       L1    10  0.01

> <Gold.Chemscore.Hbond.Weighted>
-4.7946

> <Gold.Chemscore.Metal.Weighted>
-0.0000

> <Gold.Chemscore.Lipo.Weighted>
-13.0907

> <Gold.Chemscore.Internal_Hbond.Weighted>
0.0000

> <Gold.Chemscore.DEClash.Weighted>
0.0844

> <Gold.Chemscore.DEInternal.Weighted>
1.1463

> <Gold.Chemscore.Rot.Weighted>
6.4517

> <Gold.Chemscore.Internal.Correction.Weighted>
   9.000000E+99

> <Gold.Protein.RotatedTorsions>
[ 6907 6896 6895 6894 ] final  -34.44 input  -60.11 | X-H torsion
[ 7974 7965 7964 7962 ] final   11.64 input  175.53 | X-H torsion
[ 8008 7997 7996 7995 ] final   38.71 input   59.86 | X-H torsion
[ 10167 10162 10161 10158 ] final  -56.16 input  -65.29 | X-H torsion
[ 10718 10713 10712 10709 ] final  -13.84 input   66.30 | X-H torsion
[ 10763 10752 10751 10750 ] final  -47.19 input  -60.55 | X-H torsion
[ 11005 11000 10999 10996 ] final  142.95 input  -57.11 | X-H torsion

> <Gold.Protein.ActiveResidues>
 VAL166  LYS551  ARG553  GLY616  TRP617  ASP618  TYR619  PRO620  LYS621  CYS622 
 ASP623  PHE694  ASN695  SER759  ASP760  ASP761  ALA762  ILE779  LEU786  VAL792 
 PHE793  MET794  SER795  GLU796  ALA797  LYS798  CYS799  TRP800  GLU811  SER814 

> <Gold.Protein.RotatedAtoms>
  151.0526  134.9683  159.8219 H   0  0  0  0  0  0  0  0  0  0  0  0  # atno 6907 bound_to 6896
  152.5383  134.2518  159.8911 H   0  0  0  0  0  0  0  0  0  0  0  0  # atno 6908 bound_to 6896
  151.2534  133.4295  159.2646 H   0  0  0  0  0  0  0  0  0  0  0  0  # atno 6909 bound_to 6896
  146.2367  139.9455  142.8477 H   0  0  0  0  0  0  0  0  0  0  0  0  # atno 7974 bound_to 7965
  155.2246  140.3333  155.4311 H   0  0  0  0  0  0  0  0  0  0  0  0  # atno 8008 bound_to 7997
  156.2319  140.1854  156.7266 H   0  0  0  0  0  0  0  0  0  0  0  0  # atno 8009 bound_to 7997
  154.5993  140.0625  156.9332 H   0  0  0  0  0  0  0  0  0  0  0  0  # atno 8010 bound_to 7997
  140.6333  143.2470  151.5183 H   0  0  0  0  0  0  0  0  0  0  0  0  # atno 10167 bound_to 10162
  156.6245  130.4884  149.6152 H   0  0  0  0  0  0  0  0  0  0  0  0  # atno 10718 bound_to 10713
  154.0573  135.6623  153.4807 H   0  0  0  0  0  0  0  0  0  0  0  0  # atno 10763 bound_to 10752
  153.0440  135.5126  154.7693 H   0  0  0  0  0  0  0  0  0  0  0  0  # atno 10764 bound_to 10752
  154.6718  135.3031  154.9698 H   0  0  0  0  0  0  0  0  0  0  0  0  # atno 10765 bound_to 10752
  140.0516  134.9252  157.1027 H   0  0  0  0  0  0  0  0  0  0  0  0  # atno 11005 bound_to 11000
  145.1911  140.9812  143.4210 LP  0  0  0  0  0  0  0  0  0  0  0  0  # atno 17320 bound_to 7965
  144.9856  139.3740  143.6240 LP  0  0  0  0  0  0  0  0  0  0  0  0  # atno 17321 bound_to 7965
  139.5545  144.2310  152.1589 LP  0  0  0  0  0  0  0  0  0  0  0  0  # atno 17342 bound_to 10162
  140.1559  144.5071  150.6660 LP  0  0  0  0  0  0  0  0  0  0  0  0  # atno 17343 bound_to 10162
  156.2284  130.6780  151.1439 LP  0  0  0  0  0  0  0  0  0  0  0  0  # atno 17370 bound_to 10713
  157.7218  131.0676  150.6104 LP  0  0  0  0  0  0  0  0  0  0  0  0  # atno 17371 bound_to 10713
  140.3908  134.2186  155.7166 LP  0  0  0  0  0  0  0  0  0  0  0  0  # atno 17394 bound_to 11000
  141.1933  133.8154  157.0804 LP  0  0  0  0  0  0  0  0  0  0  0  0  # atno 17395 bound_to 11000

$$$$
