AV-unprocessed.smi:2432|AV-procd|sdf|9588|dock3
  -GOLD-   2272013223D 1   1.00000     0.00000
 Structure written by MMmdl.
 33 34  0  0  0  0  0  0  0  0  1 V2000
  146.7740  142.4739  154.1771 C   0  0  0  0  0  0  0  0  0  0  0  0
  148.1129  142.3241  154.7256 N   0  0  0  0  0  0  0  0  0  0  0  0
  148.7494  141.1512  154.8611 C   0  0  0  0  0  0  0  0  0  0  0  0
  148.2469  140.0766  154.5295 O   0  0  0  0  0  0  0  0  0  0  0  0
  150.1515  141.2031  155.4844 C   0  0  1  0  0  0  0  0  0  0  0  0
  150.1865  141.9984  156.8091 C   0  0  0  0  0  0  0  0  0  0  0  0
  151.5162  141.9420  157.4029 N   0  0  0  0  0  0  0  0  0  0  0  0
  151.7753  142.8231  158.4357 C   0  0  0  0  0  0  0  0  0  0  0  0
  151.5363  144.1217  158.2163 N   0  0  0  0  0  0  0  0  0  0  0  0
  151.7950  144.9711  159.2343 C   0  0  0  0  0  0  0  0  0  0  0  0
  152.2934  144.5170  160.4721 C   0  0  0  0  0  0  0  0  0  0  0  0
  152.5054  143.1268  160.5850 C   0  0  0  0  0  0  0  0  0  0  0  0
  153.0389  142.5072  161.8592 C   0  0  0  0  0  0  0  0  0  0  0  0
  152.2433  142.2819  159.5637 N   0  0  0  0  0  0  0  0  0  0  0  0
  151.9937  140.5769  157.5732 C   0  0  0  0  0  0  0  0  0  0  0  0
  151.9230  139.8202  156.2373 C   0  0  0  0  0  0  0  0  0  0  0  0
  150.5922  139.8674  155.7331 O   0  0  0  0  0  0  0  0  0  0  0  0
  146.4543  143.5128  154.2551 H   0  0  0  0  0  0  0  0  0  0  0  0
  146.0584  141.8557  154.7208 H   0  0  0  0  0  0  0  0  0  0  0  0
  146.7532  142.1876  153.1249 H   0  0  0  0  0  0  0  0  0  0  0  0
  148.5915  143.1635  155.0191 H   0  0  0  0  0  0  0  0  0  0  0  0
  150.8171  141.6708  154.7564 H   0  0  0  0  0  0  0  0  0  0  0  0
  149.9175  143.0406  156.6304 H   0  0  0  0  0  0  0  0  0  0  0  0
  149.4595  141.5949  157.5158 H   0  0  0  0  0  0  0  0  0  0  0  0
  151.6031  146.0195  159.0605 H   0  0  0  0  0  0  0  0  0  0  0  0
  152.5000  145.1989  161.2838 H   0  0  0  0  0  0  0  0  0  0  0  0
  153.2545  143.2699  162.6079 H   0  0  0  0  0  0  0  0  0  0  0  0
  153.9592  141.9581  161.6578 H   0  0  0  0  0  0  0  0  0  0  0  0
  152.3089  141.8143  162.2784 H   0  0  0  0  0  0  0  0  0  0  0  0
  153.0191  140.5879  157.9442 H   0  0  0  0  0  0  0  0  0  0  0  0
  151.3843  140.0715  158.3235 H   0  0  0  0  0  0  0  0  0  0  0  0
  152.6148  140.2480  155.5096 H   0  0  0  0  0  0  0  0  0  0  0  0
  152.2124  138.7788  156.3789 H   0  0  0  0  0  0  0  0  0  0  0  0
  1  2  1  0  0  0  0
  1 18  1  0  0  0  0
  1 19  1  0  0  0  0
  1 20  1  0  0  0  0
  2  3  1  0  0  0  0
  2 21  1  0  0  0  0
  3  4  2  0  0  0  0
  3  5  1  0  0  0  0
  5 17  1  0  0  0  0
  5  6  1  0  0  0  0
  5 22  1  0  0  0  0
  6  7  1  0  0  0  0
  6 23  1  0  0  0  0
  6 24  1  0  0  0  0
  7  8  1  0  0  0  0
  7 15  1  0  0  0  0
  8 14  1  0  0  0  0
  8  9  2  0  0  0  0
  9 10  1  0  0  0  0
 10 11  2  0  0  0  0
 10 25  1  0  0  0  0
 11 12  1  0  0  0  0
 11 26  1  0  0  0  0
 12 13  1  0  0  0  0
 12 14  2  0  0  0  0
 13 27  1  0  0  0  0
 13 28  1  0  0  0  0
 13 29  1  0  0  0  0
 15 16  1  0  0  0  0
 15 30  1  0  0  0  0
 15 31  1  0  0  0  0
 16 17  1  0  0  0  0
 16 32  1  0  0  0  0
 16 33  1  0  0  0  0
M  END
> <s_m_source_file>
AV-unprocessed.smi

> <i_m_source_file_index>
2432

> <i_lp_mmshare_version>
43012

> <i_f3d_flags>
0

> <s_epik_input>
W0NIM11bTkhdQyg9TylbQ0BASF0xW0NIMl1OKFtDSDJdW0NIMl1PMSljMm5bY0hdW2NIXWMobjIpW0NIM10=

> <s_epik_cmdline>
J2VwaWtfcHl0aG9uJywgJy1waCcsICc3LjAnLCAnLXRuJywgJzgnLCAnLW1hJywgJzIwMCcsICctbWV0YWxfYmluZGluZycsICctaW1hZScsICc8aW5maWxlLm1hZT4nLCAnLW9tYWUnLCAnPG91dGZpbGUubWFlPic=

> <r_lp_tautomer_probability>
1

> <r_epik_Ionization_Penalty>
3.16085e-05

> <r_epik_Ionization_Penalty_Charging>
0

> <r_epik_Ionization_Penalty_Neutral>
3.16085e-05

> <r_epik_State_Penalty>
-0

> <r_epik_Charging_Adjusted_Penalty>
0

> <i_epik_Tot_Q>
0

> <i_epik_Tot_abs_Q>
0

> <r_epik_Metal_State_Penalty>
-0

> <b_epik_Metal_Only>
0

> <s_lp_Force_Field>
OPLS_2005

> <r_lp_Energy>
12.5177

> <b_lp_Chiralities_Consistent>
1

> <s_lp_Variant>
AV-unprocessed.smi:2432-2

> <Gold.Version>
5.8.1

> <Gold.Id.Protein>
6NUR|6NUR_protein|mol2

> <Gold.PLP.Fitness>
39.7772

> <Gold.PLP.PLP>
-37.0511

> <Gold.PLP.part.hbond>
-1.0000

> <Gold.PLP.part.metal>
0.0000

> <Gold.PLP.part.buried>
-6.0844

> <Gold.PLP.part.nonpolar>
-30.2849

> <Gold.PLP.part.repulsive>
0.4583

> <Gold.PLP.ligand.clash>
0.0000

> <Gold.PLP.ligand.torsion>
0.2804

> <Gold.PLP.Chemscore.Hbond>
1.0000

> <Gold.PLP.Chemscore.CHOScore>
0.0000

> <Gold.PLP.Chemscore.Metal>
0.0000

> <Gold.Chemscore.Hbonds>
donor molecule, donor type, donor heavy atom, donor atom, acceptor molecule, acceptor atom, score
      L1  H     2    21       P1  8028  1.00

> <Gold.PLP.Chemscore.Internal.Correction>
0.2870

> <Gold.Rescore>
     Score         DG    S(hbond)    S(metal)    S(lipo)     H(rot)  DE(clash)    DE(int)     intcor
     14.60     -14.86       0.99        0.00      80.55       1.31       0.00       0.26       ----

> <Gold.Chemscore.Fitness>
14.5992

> <Gold.Chemscore.DG>
-14.8554

> <Gold.Chemscore.ZeroCoef>
-5.4800

> <Gold.Chemscore.Hbond>
0.9885

> <Gold.Chemscore.Metal>
0.0000

> <Gold.Chemscore.Lipo>
80.5520

> <Gold.Chemscore.Internal_Hbond>
0.0000

> <Gold.Chemscore.DEClash>
0.0000

> <Gold.Chemscore.DEInternal>
0.2562

> <Gold.Chemscore.Rot>
1.3089

> <Gold.Chemscore.Internal.Correction>
   9.000000E+99

> <Gold.Chemscore.Hbonds>
donor molecule, donor type, donor heavy atom, donor atom, acceptor molecule, acceptor atom, score
      L1  H     2    21       P1  8028  1.00

> <Gold.Chemscore.Hbond.Weighted>
-3.3017

> <Gold.Chemscore.Metal.Weighted>
-0.0000

> <Gold.Chemscore.Lipo.Weighted>
-9.4246

> <Gold.Chemscore.Internal_Hbond.Weighted>
0.0000

> <Gold.Chemscore.DEClash.Weighted>
0.0000

> <Gold.Chemscore.DEInternal.Weighted>
0.2562

> <Gold.Chemscore.Rot.Weighted>
3.3509

> <Gold.Chemscore.Internal.Correction.Weighted>
   9.000000E+99

> <Gold.Protein.RotatedTorsions>
[ 6907 6896 6895 6894 ] final -138.18 input  -60.11 | X-H torsion
[ 7974 7965 7964 7962 ] final   -0.21 input  175.53 | X-H torsion
[ 8008 7997 7996 7995 ] final   56.00 input   59.86 | X-H torsion
[ 10167 10162 10161 10158 ] final  -25.43 input  -65.29 | X-H torsion
[ 10718 10713 10712 10709 ] final  -92.15 input   66.30 | X-H torsion
[ 10763 10752 10751 10750 ] final  164.59 input  -60.55 | X-H torsion
[ 11005 11000 10999 10996 ] final  175.70 input  -57.11 | X-H torsion

> <Gold.Protein.ActiveResidues>
 VAL166  LYS551  ARG553  GLY616  TRP617  ASP618  TYR619  PRO620  LYS621  CYS622 
 ASP623  PHE694  ASN695  SER759  ASP760  ASP761  ALA762  ILE779  LEU786  VAL792 
 PHE793  MET794  SER795  GLU796  ALA797  LYS798  CYS799  TRP800  GLU811  SER814 

> <Gold.Protein.RotatedAtoms>
  151.0318  133.5783  159.2659 H   0  0  0  0  0  0  0  0  0  0  0  0  # atno 6907 bound_to 6896
  151.2862  135.0727  159.9197 H   0  0  0  0  0  0  0  0  0  0  0  0  # atno 6908 bound_to 6896
  152.5346  134.0024  159.7955 H   0  0  0  0  0  0  0  0  0  0  0  0  # atno 6909 bound_to 6896
  146.2429  140.1236  142.8340 H   0  0  0  0  0  0  0  0  0  0  0  0  # atno 7974 bound_to 7965
  155.5102  140.3477  155.4387 H   0  0  0  0  0  0  0  0  0  0  0  0  # atno 8008 bound_to 7997
  156.0854  140.1397  156.9687 H   0  0  0  0  0  0  0  0  0  0  0  0  # atno 8009 bound_to 7997
  154.4604  140.0937  156.6853 H   0  0  0  0  0  0  0  0  0  0  0  0  # atno 8010 bound_to 7997
  140.7286  143.4266  151.0867 H   0  0  0  0  0  0  0  0  0  0  0  0  # atno 10167 bound_to 10162
  155.9999  130.4976  150.5582 H   0  0  0  0  0  0  0  0  0  0  0  0  # atno 10718 bound_to 10713
  154.3112  135.2757  155.2565 H   0  0  0  0  0  0  0  0  0  0  0  0  # atno 10763 bound_to 10752
  154.4959  135.5821  153.6497 H   0  0  0  0  0  0  0  0  0  0  0  0  # atno 10764 bound_to 10752
  152.9888  135.6146  154.3290 H   0  0  0  0  0  0  0  0  0  0  0  0  # atno 10765 bound_to 10752
  140.3651  134.7079  157.4356 H   0  0  0  0  0  0  0  0  0  0  0  0  # atno 11005 bound_to 11000
  145.0386  140.8927  143.5066 LP  0  0  0  0  0  0  0  0  0  0  0  0  # atno 17320 bound_to 7965
  145.1312  139.2631  143.5538 LP  0  0  0  0  0  0  0  0  0  0  0  0  # atno 17321 bound_to 7965
  139.7918  143.8208  152.3152 LP  0  0  0  0  0  0  0  0  0  0  0  0  # atno 17342 bound_to 10162
  139.8194  144.7302  150.9592 LP  0  0  0  0  0  0  0  0  0  0  0  0  # atno 17343 bound_to 10162
  157.3495  131.0731  151.1724 LP  0  0  0  0  0  0  0  0  0  0  0  0  # atno 17370 bound_to 10713
  157.2545  130.6630  149.5946 LP  0  0  0  0  0  0  0  0  0  0  0  0  # atno 17371 bound_to 10713
  140.0596  134.6015  155.8764 LP  0  0  0  0  0  0  0  0  0  0  0  0  # atno 17394 bound_to 11000
  141.1972  133.6595  156.5730 LP  0  0  0  0  0  0  0  0  0  0  0  0  # atno 17395 bound_to 11000

$$$$
