#       Name:                AV-unprocessed.smi:281
#       Creating user name   scv26
#       Creation time:       Thu Mar 26 21:39:28 2020


#       File generated by GOLD software.
#

@<TRIPOS>MOLECULE
AV-unprocessed.smi:281
    67    71     1
SMALL
NO_CHARGES


@<TRIPOS>ATOM
      1 ****        -3.6566  -2.1873   2.4368 C.3            1 S1                 0.0000
      2 ****        -3.1108  -1.0149   1.6157 C.3            1 S1                 0.0000
      3 ****        -1.5989  -0.8280   1.8144 C.3            1 S1                 0.0000
      4 ****        -1.1505   0.3585   1.0980 N.3            1 S1                 0.0000
      5 ****         0.1921   0.4516   0.9222 C.ar           1 S1                 0.0000
      6 ****         0.8791   1.4905   1.4691 N.ar           1 S1                 0.0000
      7 ****         2.2021   1.5849   1.3090 C.ar           1 S1                 0.0000
      8 ****         3.0222   0.7686   0.6453 N.ar           1 S1                 0.0000
      9 ****         2.3389  -0.2683   0.0816 C.ar           1 S1                 0.0000
     10 ****         0.9376  -0.5032   0.1740 C.ar           1 S1                 0.0000
     11 ****         0.6053  -1.6563  -0.5275 N.2            1 S1                 0.0000
     12 ****         1.7451  -2.0839  -0.9970 C.2            1 S1                 0.0000
     13 ****         2.8368  -1.3022  -0.6929 N.pl3          1 S1                 0.0000
     14 ****         4.2174  -1.5382  -1.0895 C.3            1 S1                 0.0000
     15 ****         4.6393  -0.8112  -2.3924 C.3            1 S1                 0.0000
     16 ****         4.4679   0.5843  -2.2275 O.3            1 S1                 0.0000
     17 ****         3.8768  -1.2634  -3.6408 C.3            1 S1                 0.0000
     18 ****         4.8491  -2.2239  -4.3101 C.3            1 S1                 0.0000
     19 ****         6.0966  -1.5904  -4.0924 O.3            1 S1                 0.0000
     20 ****         6.1090  -1.1084  -2.7546 C.3            1 S1                 0.0000
     21 ****        -1.8783   1.5644   1.4826 C.3            1 S1                 0.0000
     22 ****        -3.4056   1.3666   1.3421 C.3            1 S1                 0.0000
     23 ****        -3.8895   1.3386  -0.1151 C.3            1 S1                 0.0000
     24 ****        -4.6117   2.6663  -0.3010 C.3            1 S1                 0.0000
     25 ****        -5.1750   2.8901   0.9777 O.3            1 S1                 0.0000
     26 ****        -4.1664   2.5810   1.9280 C.3            1 S1                 0.0000
     27 ****        -4.7806   2.3834   3.3214 C.3            1 S1                 0.0000
     28 ****        -3.7944   0.1692   2.0275 O.3            1 S1                 0.0000
     29 ****        -3.1733  -3.1229   2.1544 H              1 S1                 0.0000
     30 ****        -4.7288  -2.3065   2.2791 H              1 S1                 0.0000
     31 ****        -3.4918  -2.0327   3.5034 H              1 S1                 0.0000
     32 ****        -3.3136  -1.2129   0.5626 H              1 S1                 0.0000
     33 ****        -1.3701  -0.7073   2.8742 H              1 S1                 0.0000
     34 ****        -1.0747  -1.7218   1.4785 H              1 S1                 0.0000
     35 ****         2.6701   2.4374   1.7786 H              1 S1                 0.0000
     36 ****         1.8194  -2.9846  -1.5890 H              1 S1                 0.0000
     37 ****         4.8624  -1.2311  -0.2650 H              1 S1                 0.0000
     38 ****         4.3581  -2.6143  -1.1992 H              1 S1                 0.0000
     39 ****         4.7561   1.0168  -3.0167 H              1 S1                 0.0000
     40 ****         2.9098  -1.7221  -3.4413 H              1 S1                 0.0000
     41 ****         3.7019  -0.4219  -4.3134 H              1 S1                 0.0000
     42 ****         4.8369  -3.2005  -3.8233 H              1 S1                 0.0000
     43 ****         4.6450  -2.3609  -5.3721 H              1 S1                 0.0000
     44 ****         6.7612  -0.2381  -2.6687 H              1 S1                 0.0000
     45 ****         6.5233  -1.8884  -2.1141 H              1 S1                 0.0000
     46 ****        -1.6337   1.8045   2.5185 H              1 S1                 0.0000
     47 ****        -1.5562   2.4094   0.8719 H              1 S1                 0.0000
     48 ****        -3.0880   1.1953  -0.8405 H              1 S1                 0.0000
     49 ****        -4.6115   0.5338  -0.2587 H              1 S1                 0.0000
     50 ****        -3.9100   3.4661  -0.5434 H              1 S1                 0.0000
     51 ****        -5.3752   2.6268  -1.0781 H              1 S1                 0.0000
     52 ****        -3.4994   3.4446   1.9635 H              1 S1                 0.0000
     53 ****        -4.0147   2.1247   4.0531 H              1 S1                 0.0000
     54 ****        -5.5287   1.5901   3.3201 H              1 S1                 0.0000
     55 ****        -5.2698   3.2962   3.6611 H              1 S1                 0.0000
     56 ****        -1.4291   0.2367   0.1453 LP             1 S1                 0.0000
     57 ****         0.3909   2.1877   1.9941 LP             1 S1                 0.0000
     58 ****         4.0107   0.9001   0.5707 LP             1 S1                 0.0000
     59 ****        -0.2999  -2.0645  -0.6453 LP             1 S1                 0.0000
     60 ****         5.0121   0.9017  -1.4509 LP             1 S1                 0.0000
     61 ****         3.5027   0.7887  -2.0639 LP             1 S1                 0.0000
     62 ****         6.2074  -0.8281  -4.7301 LP             1 S1                 0.0000
     63 ****         6.8395  -2.2465  -4.2249 LP             1 S1                 0.0000
     64 ****        -5.9691   2.2976   1.1129 LP             1 S1                 0.0000
     65 ****        -5.4532   3.8463   1.0691 LP             1 S1                 0.0000
     66 ****        -3.6233   0.3019   3.0038 LP             1 S1                 0.0000
     67 ****        -4.7731   0.0300   1.8766 LP             1 S1                 0.0000
@<TRIPOS>BOND
    1    1    2 1     
    2    1   29 1     
    3    1   30 1     
    4    1   31 1     
    5    2   28 1     
    6    2    3 1     
    7    2   32 1     
    8    3    4 1     
    9    3   33 1     
   10    3   34 1     
   11    4    5 1     
   12    4   21 1     
   13    5   10 ar    
   14    5    6 ar    
   15    6    7 ar    
   16    7    8 ar    
   17    7   35 1     
   18    8    9 ar    
   19    9   13 1     
   20    9   10 ar    
   21   10   11 1     
   22   11   12 2     
   23   12   13 1     
   24   12   36 1     
   25   13   14 1     
   26   14   15 1     
   27   14   37 1     
   28   14   38 1     
   29   15   20 1     
   30   15   16 1     
   31   15   17 1     
   32   16   39 1     
   33   17   18 1     
   34   17   40 1     
   35   17   41 1     
   36   18   19 1     
   37   18   42 1     
   38   18   43 1     
   39   19   20 1     
   40   20   44 1     
   41   20   45 1     
   42   21   22 1     
   43   21   46 1     
   44   21   47 1     
   45   22   26 1     
   46   22   23 1     
   47   22   28 1     
   48   23   24 1     
   49   23   48 1     
   50   23   49 1     
   51   24   25 1     
   52   24   50 1     
   53   24   51 1     
   54   25   26 1     
   55   26   27 1     
   56   26   52 1     
   57   27   53 1     
   58   27   54 1     
   59   27   55 1     
   60    4   56 1     
   61    6   57 1     
   62    8   58 1     
   63   11   59 1     
   64   16   60 1     
   65   16   61 1     
   66   19   62 1     
   67   19   63 1     
   68   25   64 1     
   69   25   65 1     
   70   28   66 1     
   71   28   67 1     
@<TRIPOS>SUBSTRUCTURE
      1 S1             1
@<TRIPOS>SET
LONE_PAIRS      STATIC     ATOMS    <user>   **** ""
12 56 57 58 59 60 61 62 63 64 65 66 67
DONOR_HYDROGENS      STATIC     ATOMS    <user>   **** ""
1 39
ATOM$BLUE        STATIC     ATOMS    COLORGROUP SYSTEM
12 56 57 58 59 60 61 62 63 64 65 66 67
ATOM$RED        STATIC     ATOMS    COLORGROUP SYSTEM
1 39
