#       Name:                AV-unprocessed.smi:1745
#       Creating user name   scv26
#       Creation time:       Fri Mar 27 08:24:52 2020


#       File generated by GOLD software.
#

@<TRIPOS>MOLECULE
AV-unprocessed.smi:1745
    55    57     1
SMALL
NO_CHARGES


@<TRIPOS>ATOM
      1 ****        -4.1228  -2.5828  -1.6855 C.3            1 S1                 0.0000
      2 ****        -3.6998  -1.8199  -0.4203 C.3            1 S1                 0.0000
      3 ****        -2.2419  -1.7206  -0.3990 N.am           1 S1                 0.0000
      4 ****        -1.5309  -0.5840  -0.4148 C.2            1 S1                 0.0000
      5 ****        -2.0350   0.5378  -0.4623 O.2            1 S1                 0.0000
      6 ****        -0.2120  -0.8418  -0.3929 N.am           1 S1                 0.0000
      7 ****         0.8701   0.0793  -0.3947 C.ar           1 S1                 0.0000
      8 ****         0.7704   1.4275   0.0238 C.ar           1 S1                 0.0000
      9 ****         1.9206   2.2384  -0.0137 C.ar           1 S1                 0.0000
     10 ****         3.1353   1.6773  -0.4580 C.ar           1 S1                 0.0000
     11 ****         4.2811   2.4843  -0.5021 N.3            1 S1                 0.0000
     12 ****         4.7687   2.7245  -1.8545 C.3            1 S1                 0.0000
     13 ****         5.9421   3.7190  -1.8215 C.3            1 S1                 0.0000
     14 ****         6.9626   3.2249  -0.9584 O.3            1 S1                 0.0000
     15 ****         6.4989   3.0599   0.3789 C.3            1 S1                 0.0000
     16 ****         5.3383   2.0500   0.4026 C.3            1 S1                 0.0000
     17 ****         3.2422   0.3838  -0.8441 N.ar           1 S1                 0.0000
     18 ****         2.1355  -0.3881  -0.8058 C.ar           1 S1                 0.0000
     19 ****        -4.1840  -2.5046   0.8731 C.3            1 S1                 0.0000
     20 ****        -5.7038  -2.6275   1.0000 C.3            1 S1                 0.0000
     21 ****        -5.8800  -2.7246   2.4974 C.3            1 S1                 0.0000
     22 ****        -4.8263  -1.7414   2.9960 C.3            1 S1                 0.0000
     23 ****        -3.7899  -1.7477   2.0173 O.3            1 S1                 0.0000
     24 ****        -5.2079  -2.6320  -1.7765 H              1 S1                 0.0000
     25 ****        -3.7419  -3.6046  -1.6795 H              1 S1                 0.0000
     26 ****        -3.7452  -2.0917  -2.5831 H              1 S1                 0.0000
     27 ****        -4.1460  -0.8250  -0.4660 H              1 S1                 0.0000
     28 ****        -1.7340  -2.5919  -0.3586 H              1 S1                 0.0000
     29 ****         0.0496  -1.8156  -0.4391 H              1 S1                 0.0000
     30 ****        -0.1545   1.8514   0.3823 H              1 S1                 0.0000
     31 ****         1.8689   3.2718   0.2969 H              1 S1                 0.0000
     32 ****         5.0939   1.7842  -2.3019 H              1 S1                 0.0000
     33 ****         3.9616   3.1160  -2.4749 H              1 S1                 0.0000
     34 ****         6.3542   3.8477  -2.8224 H              1 S1                 0.0000
     35 ****         5.6099   4.7020  -1.4838 H              1 S1                 0.0000
     36 ****         7.3213   2.7020   0.9984 H              1 S1                 0.0000
     37 ****         6.1864   4.0224   0.7874 H              1 S1                 0.0000
     38 ****         4.9428   1.9562   1.4147 H              1 S1                 0.0000
     39 ****         5.7000   1.0652   0.1037 H              1 S1                 0.0000
     40 ****         2.2651  -1.4134  -1.1207 H              1 S1                 0.0000
     41 ****        -3.7383  -3.4966   0.9649 H              1 S1                 0.0000
     42 ****        -6.1974  -1.7297   0.6248 H              1 S1                 0.0000
     43 ****        -6.1082  -3.4890   0.4677 H              1 S1                 0.0000
     44 ****        -6.8881  -2.4765   2.8303 H              1 S1                 0.0000
     45 ****        -5.6448  -3.7340   2.8377 H              1 S1                 0.0000
     46 ****        -5.2417  -0.7346   3.0517 H              1 S1                 0.0000
     47 ****        -4.4446  -2.0062   3.9824 H              1 S1                 0.0000
     48 ****        -3.0295   0.6382  -0.4916 LP             1 S1                 0.0000
     49 ****        -1.4501   1.3488  -0.4715 LP             1 S1                 0.0000
     50 ****         3.9771   3.3721  -0.1566 LP             1 S1                 0.0000
     51 ****         7.7256   3.8713  -0.9578 LP             1 S1                 0.0000
     52 ****         7.2758   2.3398  -1.3027 LP             1 S1                 0.0000
     53 ****         4.1180   0.0102  -1.1495 LP             1 S1                 0.0000
     54 ****        -3.5957  -0.8073   1.7383 LP             1 S1                 0.0000
     55 ****        -2.9667  -2.1548   2.4131 LP             1 S1                 0.0000
@<TRIPOS>BOND
    1    1    2 1     
    2    1   24 1     
    3    1   25 1     
    4    1   26 1     
    5    2    3 1     
    6    2   19 1     
    7    2   27 1     
    8    3    4 am    
    9    3   28 1     
   10    4    5 2     
   11    4    6 am    
   12    6    7 1     
   13    6   29 1     
   14    7   18 ar    
   15    7    8 ar    
   16    8    9 ar    
   17    8   30 1     
   18    9   10 ar    
   19    9   31 1     
   20   10   11 1     
   21   10   17 ar    
   22   11   16 1     
   23   11   12 1     
   24   12   13 1     
   25   12   32 1     
   26   12   33 1     
   27   13   14 1     
   28   13   34 1     
   29   13   35 1     
   30   14   15 1     
   31   15   16 1     
   32   15   36 1     
   33   15   37 1     
   34   16   38 1     
   35   16   39 1     
   36   17   18 ar    
   37   18   40 1     
   38   19   23 1     
   39   19   20 1     
   40   19   41 1     
   41   20   21 1     
   42   20   42 1     
   43   20   43 1     
   44   21   22 1     
   45   21   44 1     
   46   21   45 1     
   47   22   23 1     
   48   22   46 1     
   49   22   47 1     
   50    5   48 1     
   51    5   49 1     
   52   11   50 1     
   53   14   51 1     
   54   14   52 1     
   55   17   53 1     
   56   23   54 1     
   57   23   55 1     
@<TRIPOS>SUBSTRUCTURE
      1 S1             1
@<TRIPOS>SET
LONE_PAIRS      STATIC     ATOMS    <user>   **** ""
8 48 49 50 51 52 53 54 55
DONOR_HYDROGENS      STATIC     ATOMS    <user>   **** ""
2 28 29
ATOM$BLUE        STATIC     ATOMS    COLORGROUP SYSTEM
8 48 49 50 51 52 53 54 55
ATOM$RED        STATIC     ATOMS    COLORGROUP SYSTEM
2 28 29
