AV-unprocessed.smi:985|AV-procd|sdf|4319|dock3
  -GOLD-   22720 2223D 1   1.00000     0.00000
 Structure written by MMmdl.
 26 27  0  0  0  0  0  0  0  0  2 V2000
  155.1350  139.0176  160.5706 C   0  0  0  0  0  0  0  0  0  0  0  0
  154.1461  139.9200  159.9160 C   0  0  0  0  0  0  0  0  0  0  0  0
  153.5523  140.9860  160.4472 N   0  0  0  0  0  0  0  0  0  0  0  0
  152.7714  141.3965  159.4087 C   0  0  0  0  0  0  0  0  0  0  0  0
  151.8761  142.5954  159.4848 C   0  0  1  0  0  0  0  0  0  0  0  0
  152.6076  143.8335  160.0375 C   0  0  0  0  0  0  0  0  0  0  0  0
  151.6575  145.0401  160.0867 C   0  0  0  0  0  0  0  0  0  0  0  0
  151.0091  145.2877  158.7141 C   0  0  0  0  0  0  0  0  0  0  0  0
  150.3057  144.0752  158.2413 N   0  3  0  0  0  0  0  0  0  0  0  0
  151.1922  142.8948  158.1353 C   0  0  0  0  0  0  0  0  0  0  0  0
  152.8544  140.6688  158.3011 N   0  0  0  0  0  0  0  0  0  0  0  0
  153.7794  139.6696  158.6368 O   0  0  0  0  0  0  0  0  0  0  0  0
  155.3367  139.3489  161.5897 H   0  0  0  0  0  0  0  0  0  0  0  0
  156.0700  139.0189  160.0103 H   0  0  0  0  0  0  0  0  0  0  0  0
  154.7469  137.9995  160.6038 H   0  0  0  0  0  0  0  0  0  0  0  0
  151.0810  142.3578  160.1945 H   0  0  0  0  0  0  0  0  0  0  0  0
  153.0018  143.6280  161.0334 H   0  0  0  0  0  0  0  0  0  0  0  0
  153.4642  144.0736  159.4060 H   0  0  0  0  0  0  0  0  0  0  0  0
  150.8807  144.8650  160.8322 H   0  0  0  0  0  0  0  0  0  0  0  0
  152.2005  145.9288  160.4091 H   0  0  0  0  0  0  0  0  0  0  0  0
  150.2964  146.1103  158.7761 H   0  0  0  0  0  0  0  0  0  0  0  0
  151.7650  145.5751  157.9820 H   0  0  0  0  0  0  0  0  0  0  0  0
  149.5628  143.8623  158.8918 H   0  0  0  0  0  0  0  0  0  0  0  0
  151.9371  143.0814  157.3602 H   0  0  0  0  0  0  0  0  0  0  0  0
  150.6005  142.0387  157.8095 H   0  0  0  0  0  0  0  0  0  0  0  0
  149.9008  144.2633  157.3352 H   0  0  0  0  0  0  0  0  0  0  0  0
  1  2  1  0  0  0  0
  1 13  1  0  0  0  0
  1 14  1  0  0  0  0
  1 15  1  0  0  0  0
  2 12  1  0  0  0  0
  2  3  2  0  0  0  0
  3  4  1  0  0  0  0
  4  5  1  0  0  0  0
  4 11  2  0  0  0  0
  5 10  1  0  0  0  0
  5  6  1  0  0  0  0
  5 16  1  0  0  0  0
  6  7  1  0  0  0  0
  6 17  1  0  0  0  0
  6 18  1  0  0  0  0
  7  8  1  0  0  0  0
  7 19  1  0  0  0  0
  7 20  1  0  0  0  0
  8  9  1  0  0  0  0
  8 21  1  0  0  0  0
  8 22  1  0  0  0  0
  9 10  1  0  0  0  0
  9 23  1  0  0  0  0
  9 26  1  0  0  0  0
 10 24  1  0  0  0  0
 10 25  1  0  0  0  0
 11 12  1  0  0  0  0
M  CHG  1   9   1
M  END
> <s_m_source_file>
AV-unprocessed.smi

> <i_m_source_file_index>
985

> <i_lp_mmshare_version>
43012

> <i_f3d_flags>
0

> <s_epik_input>
W0NIM11jMW5jKG5vMSlbQ0BASF0yW0NIMl1bQ0gyXVtDSDJdW05IXVtDSDJdMg==

> <s_epik_cmdline>
J2VwaWtfcHl0aG9uJywgJy1waCcsICc3LjAnLCAnLXRuJywgJzgnLCAnLW1hJywgJzIwMCcsICctbWV0YWxfYmluZGluZycsICctaW1hZScsICc8aW5maWxlLm1hZT4nLCAnLW9tYWUnLCAnPG91dGZpbGUubWFlPic=

> <r_lp_tautomer_probability>
1

> <r_epik_Ionization_Penalty>
0.000532935

> <r_epik_Ionization_Penalty_Charging>
0.000532935

> <r_epik_Ionization_Penalty_Neutral>
3.88228e-13

> <r_epik_State_Penalty>
0.000332992

> <r_epik_Charging_Adjusted_Penalty>
0.000865928

> <i_epik_Tot_Q>
1

> <i_epik_Tot_abs_Q>
1

> <r_epik_Metal_State_Penalty>
-0

> <b_epik_Metal_Only>
0

> <s_lp_Force_Field>
OPLS_2005

> <r_lp_Energy>
6.62541

> <b_lp_Chiralities_Consistent>
1

> <s_lp_Variant>
AV-unprocessed.smi:985-2

> <Gold.Version>
5.8.1

> <Gold.Id.Protein>
6NUR|6NUR_protein|mol2

> <Gold.PLP.Fitness>
33.5294

> <Gold.PLP.PLP>
-25.1321

> <Gold.PLP.part.hbond>
-3.3354

> <Gold.PLP.part.metal>
0.0000

> <Gold.PLP.part.buried>
-2.8810

> <Gold.PLP.part.nonpolar>
-18.6924

> <Gold.PLP.part.repulsive>
0.0667

> <Gold.PLP.ligand.clash>
0.0000

> <Gold.PLP.ligand.torsion>
0.1226

> <Gold.PLP.Chemscore.Hbond>
2.8664

> <Gold.PLP.Chemscore.CHOScore>
0.0000

> <Gold.PLP.Chemscore.Metal>
0.0000

> <Gold.Chemscore.Hbonds>
donor molecule, donor type, donor heavy atom, donor atom, acceptor molecule, acceptor atom, score
      L1  H     9    26       P1  8028  2.00
      P1  H  7997  8008       L1    12  0.88

> <Gold.PLP.Chemscore.Internal.Correction>
0.0434

> <Gold.Rescore>
     Score         DG    S(hbond)    S(metal)    S(lipo)     H(rot)  DE(clash)    DE(int)     intcor
     13.16     -13.25       0.95        0.00      61.16       1.00       0.00       0.09       ----

> <Gold.Chemscore.Fitness>
13.1566

> <Gold.Chemscore.DG>
-13.2502

> <Gold.Chemscore.ZeroCoef>
-5.4800

> <Gold.Chemscore.Hbond>
0.9503

> <Gold.Chemscore.Metal>
0.0000

> <Gold.Chemscore.Lipo>
61.1631

> <Gold.Chemscore.Internal_Hbond>
0.0000

> <Gold.Chemscore.DEClash>
0.0000

> <Gold.Chemscore.DEInternal>
0.0936

> <Gold.Chemscore.Rot>
1.0000

> <Gold.Chemscore.Internal.Correction>
   9.000000E+99

> <Gold.Chemscore.Hbonds>
donor molecule, donor type, donor heavy atom, donor atom, acceptor molecule, acceptor atom, score
      L1  H     9    26       P1  8028  0.44
      P1  H  7997  8008       L1    12  0.18

> <Gold.Chemscore.Hbond.Weighted>
-3.1741

> <Gold.Chemscore.Metal.Weighted>
-0.0000

> <Gold.Chemscore.Lipo.Weighted>
-7.1561

> <Gold.Chemscore.Internal_Hbond.Weighted>
0.0000

> <Gold.Chemscore.DEClash.Weighted>
0.0000

> <Gold.Chemscore.DEInternal.Weighted>
0.0936

> <Gold.Chemscore.Rot.Weighted>
2.5600

> <Gold.Chemscore.Internal.Correction.Weighted>
   9.000000E+99

> <Gold.Protein.RotatedTorsions>
[ 6907 6896 6895 6894 ] final  -45.64 input  -60.11 | X-H torsion
[ 7974 7965 7964 7962 ] final  -71.45 input  175.53 | X-H torsion
[ 8008 7997 7996 7995 ] final -119.55 input   59.86 | X-H torsion
[ 10167 10162 10161 10158 ] final  108.92 input  -65.29 | X-H torsion
[ 10718 10713 10712 10709 ] final   58.48 input   66.30 | X-H torsion
[ 10763 10752 10751 10750 ] final   77.64 input  -60.55 | X-H torsion
[ 11005 11000 10999 10996 ] final -151.48 input  -57.11 | X-H torsion

> <Gold.Protein.ActiveResidues>
 VAL166  LYS551  ARG553  GLY616  TRP617  ASP618  TYR619  PRO620  LYS621  CYS622 
 ASP623  PHE694  ASN695  SER759  ASP760  ASP761  ALA762  ILE779  LEU786  VAL792 
 PHE793  MET794  SER795  GLU796  ALA797  LYS798  CYS799  TRP800  GLU811  SER814 

> <Gold.Protein.RotatedAtoms>
  150.9198  134.8615  159.7480 H   0  0  0  0  0  0  0  0  0  0  0  0  # atno 6907 bound_to 6896
  152.4987  134.4235  159.9498 H   0  0  0  0  0  0  0  0  0  0  0  0  # atno 6908 bound_to 6896
  151.4270  133.3642  159.2799 H   0  0  0  0  0  0  0  0  0  0  0  0  # atno 6909 bound_to 6896
  145.6780  140.9198  143.0847 H   0  0  0  0  0  0  0  0  0  0  0  0  # atno 7974 bound_to 7965
  155.1176  140.0398  157.2741 H   0  0  0  0  0  0  0  0  0  0  0  0  # atno 8008 bound_to 7997
  154.6638  140.2597  155.7054 H   0  0  0  0  0  0  0  0  0  0  0  0  # atno 8009 bound_to 7997
  156.2630  140.2811  156.1121 H   0  0  0  0  0  0  0  0  0  0  0  0  # atno 8010 bound_to 7997
  139.6807  144.7118  151.1520 H   0  0  0  0  0  0  0  0  0  0  0  0  # atno 10167 bound_to 10162
  157.5599  130.8828  149.9095 H   0  0  0  0  0  0  0  0  0  0  0  0  # atno 10718 bound_to 10713
  153.0814  135.4906  154.8510 H   0  0  0  0  0  0  0  0  0  0  0  0  # atno 10763 bound_to 10752
  154.7155  135.3028  154.9132 H   0  0  0  0  0  0  0  0  0  0  0  0  # atno 10764 bound_to 10752
  153.9813  135.6789  153.4803 H   0  0  0  0  0  0  0  0  0  0  0  0  # atno 10765 bound_to 10752
  140.7291  134.3641  157.5170 H   0  0  0  0  0  0  0  0  0  0  0  0  # atno 11005 bound_to 11000
  144.7035  139.8659  143.7437 LP  0  0  0  0  0  0  0  0  0  0  0  0  # atno 17320 bound_to 7965
  146.0989  139.3983  143.0359 LP  0  0  0  0  0  0  0  0  0  0  0  0  # atno 17321 bound_to 7965
  140.7651  143.5703  150.9003 LP  0  0  0  0  0  0  0  0  0  0  0  0  # atno 17342 bound_to 10162
  139.9375  143.6421  152.3062 LP  0  0  0  0  0  0  0  0  0  0  0  0  # atno 17343 bound_to 10162
  156.0653  130.3693  150.0892 LP  0  0  0  0  0  0  0  0  0  0  0  0  # atno 17370 bound_to 10713
  156.9057  130.9635  151.3570 LP  0  0  0  0  0  0  0  0  0  0  0  0  # atno 17371 bound_to 10713
  139.8830  134.9006  156.2792 LP  0  0  0  0  0  0  0  0  0  0  0  0  # atno 17394 bound_to 11000
  140.9937  133.7193  156.0852 LP  0  0  0  0  0  0  0  0  0  0  0  0  # atno 17395 bound_to 11000

$$$$
