AV-unprocessed.smi:1224|AV-procd|sdf|5135|dock1
  -GOLD-   22720 4193D 1   1.00000     0.00000
 Structure written by MMmdl.
 44 46  0  0  0  0  0  0  0  0  2 V2000
  151.8697  143.8257  160.3993 C   0  0  0  0  0  0  0  0  0  0  0  0
  151.7050  142.8072  159.2841 C   0  0  0  0  0  0  0  0  0  0  0  0
  150.8812  143.1385  158.1845 C   0  0  0  0  0  0  0  0  0  0  0  0
  150.7522  142.1875  157.1792 C   0  0  0  0  0  0  0  0  0  0  0  0
  150.0284  142.2087  155.9848 N   0  3  0  0  0  0  0  0  0  0  0  0
  150.2154  141.0353  155.3190 C   0  0  0  0  0  0  0  0  0  0  0  0
  151.0432  140.2638  156.0745 N   0  0  0  0  0  0  0  0  0  0  0  0
  151.5648  138.9129  155.8285 C   0  0  0  0  0  0  0  0  0  0  0  0
  150.8853  138.2162  154.6305 C   0  0  1  0  0  0  0  0  0  0  0  0
  151.7830  137.2752  154.0779 O   0  0  0  0  0  0  0  0  0  0  0  0
  149.6018  137.4722  155.0302 C   0  0  0  0  0  0  0  0  0  0  0  0
  149.4937  136.1876  154.3405 N   0  0  0  0  0  0  0  0  0  0  0  0
  148.7410  135.1771  155.0791 C   0  0  0  0  0  0  0  0  0  0  0  0
  148.9181  133.8017  154.5229 C   0  0  0  0  0  0  0  0  0  0  0  0
  149.5799  132.7432  155.0921 C   0  0  0  0  0  0  0  0  0  0  0  0
  149.5623  131.5700  154.2823 C   0  0  0  0  0  0  0  0  0  0  0  0
  148.8868  131.7485  153.1043 C   0  0  0  0  0  0  0  0  0  0  0  0
  148.2570  133.3671  152.9667 S   0  0  0  0  0  0  0  0  0  0  0  0
  151.4077  140.9429  157.2411 C   0  0  0  0  0  0  0  0  0  0  0  0
  152.2233  140.5997  158.3162 C   0  0  0  0  0  0  0  0  0  0  0  0
  152.3670  141.5534  159.3493 C   0  0  0  0  0  0  0  0  0  0  0  0
  153.2503  141.2080  160.5362 C   0  0  0  0  0  0  0  0  0  0  0  0
  151.3059  144.7363  160.1946 H   0  0  0  0  0  0  0  0  0  0  0  0
  152.9181  144.1018  160.5138 H   0  0  0  0  0  0  0  0  0  0  0  0
  151.5129  143.4187  161.3456 H   0  0  0  0  0  0  0  0  0  0  0  0
  150.3745  144.0908  158.1277 H   0  0  0  0  0  0  0  0  0  0  0  0
  149.7826  140.7644  154.3666 H   0  0  0  0  0  0  0  0  0  0  0  0
  152.6383  139.0023  155.6553 H   0  0  0  0  0  0  0  0  0  0  0  0
  151.4479  138.3304  156.7433 H   0  0  0  0  0  0  0  0  0  0  0  0
  150.6543  138.9444  153.8519 H   0  0  0  0  0  0  0  0  0  0  0  0
  151.5454  137.1297  153.1751 H   0  0  0  0  0  0  0  0  0  0  0  0
  149.6064  137.3007  156.1075 H   0  0  0  0  0  0  0  0  0  0  0  0
  148.7321  138.0959  154.8196 H   0  0  0  0  0  0  0  0  0  0  0  0
  150.4183  135.8323  154.1201 H   0  0  0  0  0  0  0  0  0  0  0  0
  149.0780  135.1726  156.1159 H   0  0  0  0  0  0  0  0  0  0  0  0
  147.6835  135.4417  155.1109 H   0  0  0  0  0  0  0  0  0  0  0  0
  150.0729  132.7717  156.0525 H   0  0  0  0  0  0  0  0  0  0  0  0
  150.0387  130.6502  154.5876 H   0  0  0  0  0  0  0  0  0  0  0  0
  148.7211  131.0326  152.3130 H   0  0  0  0  0  0  0  0  0  0  0  0
  152.7269  139.6452  158.3628 H   0  0  0  0  0  0  0  0  0  0  0  0
  153.6575  140.1999  160.4505 H   0  0  0  0  0  0  0  0  0  0  0  0
  152.6824  141.2587  161.4655 H   0  0  0  0  0  0  0  0  0  0  0  0
  154.0884  141.9019  160.6036 H   0  0  0  0  0  0  0  0  0  0  0  0
  149.4509  142.9675  155.6455 H   0  0  0  0  0  0  0  0  0  0  0  0
  1  2  1  0  0  0  0
  1 23  1  0  0  0  0
  1 24  1  0  0  0  0
  1 25  1  0  0  0  0
  2 21  1  0  0  0  0
  2  3  2  0  0  0  0
  3  4  1  0  0  0  0
  3 26  1  0  0  0  0
  4 19  2  0  0  0  0
  4  5  1  0  0  0  0
  5  6  2  0  0  0  0
  5 44  1  0  0  0  0
  6  7  1  0  0  0  0
  6 27  1  0  0  0  0
  7  8  1  0  0  0  0
  7 19  1  0  0  0  0
  8  9  1  0  0  0  0
  8 28  1  0  0  0  0
  8 29  1  0  0  0  0
  9 10  1  0  0  0  0
  9 11  1  0  0  0  0
  9 30  1  0  0  0  0
 10 31  1  0  0  0  0
 11 12  1  0  0  0  0
 11 32  1  0  0  0  0
 11 33  1  0  0  0  0
 12 13  1  0  0  0  0
 12 34  1  0  0  0  0
 13 14  1  0  0  0  0
 13 35  1  0  0  0  0
 13 36  1  0  0  0  0
 14 18  1  0  0  0  0
 14 15  2  0  0  0  0
 15 16  1  0  0  0  0
 15 37  1  0  0  0  0
 16 17  2  0  0  0  0
 16 38  1  0  0  0  0
 17 18  1  0  0  0  0
 17 39  1  0  0  0  0
 19 20  1  0  0  0  0
 20 21  2  0  0  0  0
 20 40  1  0  0  0  0
 21 22  1  0  0  0  0
 22 41  1  0  0  0  0
 22 42  1  0  0  0  0
 22 43  1  0  0  0  0
M  CHG  1   5   1
M  END
> <s_m_source_file>
AV-unprocessed.smi

> <i_m_source_file_index>
1224

> <i_lp_mmshare_version>
43012

> <i_f3d_flags>
0

> <s_epik_input>
W0NIM11jKFtjSF0xKWMoW0NIM10pW2NIXWMoYzEyKW4oW2NIXW4yKVtDSDJdW0NASF0oW09IXSlbQ0gyXVtOSF1bQ0gyXWMzW2NIXVtjSF1bY0hdczM=

> <s_epik_cmdline>
J2VwaWtfcHl0aG9uJywgJy1waCcsICc3LjAnLCAnLXRuJywgJzgnLCAnLW1hJywgJzIwMCcsICctbWV0YWxfYmluZGluZycsICctaW1hZScsICc8aW5maWxlLm1hZT4nLCAnLW9tYWUnLCAnPG91dGZpbGUubWFlPic=

> <r_epik_Ionization_Penalty>
2.3772

> <r_epik_Ionization_Penalty_Charging>
0.996291

> <r_epik_Ionization_Penalty_Neutral>
1.38091

> <r_epik_State_Penalty>
2.60954

> <r_epik_Charging_Adjusted_Penalty>
3.60583

> <i_epik_Tot_Q>
1

> <i_epik_Tot_abs_Q>
1

> <r_epik_Metal_State_Penalty>
6.5861

> <b_epik_Metal_Only>
0

> <s_lp_Force_Field>
OPLS_2005

> <r_lp_Energy>
14.7648

> <b_lp_Chiralities_Consistent>
1

> <s_lp_Variant>
AV-unprocessed.smi:1224-8

> <Gold.Version>
5.8.1

> <Gold.Id.Protein>
6NUR|6NUR_protein|mol2

> <Gold.PLP.Fitness>
61.7960

> <Gold.PLP.PLP>
-49.1761

> <Gold.PLP.part.hbond>
-4.0000

> <Gold.PLP.part.metal>
0.0000

> <Gold.PLP.part.buried>
-5.2048

> <Gold.PLP.part.nonpolar>
-40.4620

> <Gold.PLP.part.repulsive>
0.1232

> <Gold.PLP.ligand.clash>
0.0000

> <Gold.PLP.ligand.torsion>
1.2757

> <Gold.PLP.Chemscore.Hbond>
4.0000

> <Gold.PLP.Chemscore.CHOScore>
1.0000

> <Gold.PLP.Chemscore.Metal>
0.0000

> <Gold.Chemscore.Hbonds>
donor molecule, donor type, donor heavy atom, donor atom, acceptor molecule, acceptor atom, score
      L1  H     5    44       P1  8028  2.00
      L1  H    10    31       P1  7949  0.91
      P1  H 10752 10764       L1    10  0.85
      L1  C    17    39       P1 10747  1.00

> <Gold.PLP.Chemscore.Internal.Correction>
0.1713

> <Gold.Rescore>
     Score         DG    S(hbond)    S(metal)    S(lipo)     H(rot)  DE(clash)    DE(int)     intcor
     20.27     -21.93       2.40        0.00     124.49       2.40       0.31       1.35       ----

> <Gold.Chemscore.Fitness>
20.2680

> <Gold.Chemscore.DG>
-21.9308

> <Gold.Chemscore.ZeroCoef>
-5.4800

> <Gold.Chemscore.Hbond>
2.4033

> <Gold.Chemscore.Metal>
0.0000

> <Gold.Chemscore.Lipo>
124.4898

> <Gold.Chemscore.Internal_Hbond>
0.0000

> <Gold.Chemscore.DEClash>
0.3084

> <Gold.Chemscore.DEInternal>
1.3543

> <Gold.Chemscore.Rot>
2.3990

> <Gold.Chemscore.Internal.Correction>
   9.000000E+99

> <Gold.Chemscore.Hbonds>
donor molecule, donor type, donor heavy atom, donor atom, acceptor molecule, acceptor atom, score
      L1  H     5    44       P1  8028  0.97
      L1  H    10    31       P1  7949  0.79
      P1  H 10752 10764       L1    10  0.14

> <Gold.Chemscore.Hbond.Weighted>
-8.0269

> <Gold.Chemscore.Metal.Weighted>
-0.0000

> <Gold.Chemscore.Lipo.Weighted>
-14.5653

> <Gold.Chemscore.Internal_Hbond.Weighted>
0.0000

> <Gold.Chemscore.DEClash.Weighted>
0.3084

> <Gold.Chemscore.DEInternal.Weighted>
1.3543

> <Gold.Chemscore.Rot.Weighted>
6.1415

> <Gold.Chemscore.Internal.Correction.Weighted>
   9.000000E+99

> <Gold.Protein.RotatedTorsions>
[ 6907 6896 6895 6894 ] final  132.11 input  -60.11 | X-H torsion
[ 7974 7965 7964 7962 ] final -144.63 input  175.53 | X-H torsion
[ 8008 7997 7996 7995 ] final  137.82 input   59.86 | X-H torsion
[ 10167 10162 10161 10158 ] final -116.73 input  -65.29 | X-H torsion
[ 10718 10713 10712 10709 ] final  142.19 input   66.30 | X-H torsion
[ 10763 10752 10751 10750 ] final  -76.46 input  -60.55 | X-H torsion
[ 11005 11000 10999 10996 ] final  -34.59 input  -57.11 | X-H torsion

> <Gold.Protein.ActiveResidues>
 VAL166  LYS551  ARG553  GLY616  TRP617  ASP618  TYR619  PRO620  LYS621  CYS622 
 ASP623  PHE694  ASN695  SER759  ASP760  ASP761  ALA762  ILE779  LEU786  VAL792 
 PHE793  MET794  SER795  GLU796  ALA797  LYS798  CYS799  TRP800  GLU811  SER814 

> <Gold.Protein.RotatedAtoms>
  152.3358  133.6009  159.5840 H   0  0  0  0  0  0  0  0  0  0  0  0  # atno 6907 bound_to 6896
  150.7449  133.9799  159.3581 H   0  0  0  0  0  0  0  0  0  0  0  0  # atno 6908 bound_to 6896
  151.7669  135.0797  160.0405 H   0  0  0  0  0  0  0  0  0  0  0  0  # atno 6909 bound_to 6896
  144.8284  140.5686  143.5531 H   0  0  0  0  0  0  0  0  0  0  0  0  # atno 7974 bound_to 7965
  156.3000  140.2409  156.3972 H   0  0  0  0  0  0  0  0  0  0  0  0  # atno 8008 bound_to 7997
  154.8560  140.0422  157.1655 H   0  0  0  0  0  0  0  0  0  0  0  0  # atno 8009 bound_to 7997
  154.8947  140.2968  155.5354 H   0  0  0  0  0  0  0  0  0  0  0  0  # atno 8010 bound_to 7997
  140.0760  143.4832  152.1953 H   0  0  0  0  0  0  0  0  0  0  0  0  # atno 10167 bound_to 10162
  157.3834  131.0995  151.0717 H   0  0  0  0  0  0  0  0  0  0  0  0  # atno 10718 bound_to 10713
  154.5001  135.5797  153.6524 H   0  0  0  0  0  0  0  0  0  0  0  0  # atno 10763 bound_to 10752
  152.9877  135.6133  154.3013 H   0  0  0  0  0  0  0  0  0  0  0  0  # atno 10764 bound_to 10752
  154.2920  135.2848  155.2630 H   0  0  0  0  0  0  0  0  0  0  0  0  # atno 10765 bound_to 10752
  140.9729  133.7099  156.1553 H   0  0  0  0  0  0  0  0  0  0  0  0  # atno 11005 bound_to 11000
  145.4949  139.1486  143.3689 LP  0  0  0  0  0  0  0  0  0  0  0  0  # atno 17320 bound_to 7965
  146.2588  140.5088  142.8862 LP  0  0  0  0  0  0  0  0  0  0  0  0  # atno 17321 bound_to 7965
  139.5808  144.7509  151.3646 LP  0  0  0  0  0  0  0  0  0  0  0  0  # atno 17342 bound_to 10162
  140.7102  143.7411  150.7553 LP  0  0  0  0  0  0  0  0  0  0  0  0  # atno 17343 bound_to 10162
  157.1777  130.6296  149.5661 LP  0  0  0  0  0  0  0  0  0  0  0  0  # atno 17370 bound_to 10713
  155.9781  130.4764  150.6634 LP  0  0  0  0  0  0  0  0  0  0  0  0  # atno 17371 bound_to 10713
  140.7302  134.4262  157.5566 LP  0  0  0  0  0  0  0  0  0  0  0  0  # atno 17394 bound_to 11000
  139.8919  134.8768  156.2297 LP  0  0  0  0  0  0  0  0  0  0  0  0  # atno 17395 bound_to 11000

$$$$
