AV-unprocessed.smi:152|AV-procd|sdf|1248|dock10
  -GOLD-   2262018473D 1   1.00000     0.00000
 Structure written by MMmdl.
 58 61  0  0  0  0  0  0  0  0  2 V2000
  142.9770  134.7820  153.2728 C   0  0  0  0  0  0  0  0  0  0  0  0
  143.9833  135.6632  152.5187 C   0  0  0  0  0  0  0  0  0  0  0  0
  144.9267  134.8658  151.6959 N   0  3  2  0  0  0  0  0  0  0  0  0
  144.2884  133.8590  150.8196 C   0  0  0  0  0  0  0  0  0  0  0  0
  145.3266  132.7498  150.5990 C   0  0  0  0  0  0  0  0  0  0  0  0
  146.5876  133.2377  151.3133 C   0  0  0  0  0  0  0  0  0  0  0  0
  146.0646  134.2048  152.3810 C   0  0  2  0  0  0  0  0  0  0  0  0
  145.6547  133.4673  153.6852 C   0  0  0  0  0  0  0  0  0  0  0  0
  146.6385  132.4759  154.1195 N   0  0  0  0  0  0  0  0  0  0  0  0
  146.1427  131.3855  154.9474 C   0  0  0  0  0  0  0  0  0  0  0  0
  147.8441  132.9278  154.5409 C   0  0  0  0  0  0  0  0  0  0  0  0
  148.8923  132.0706  154.6618 N   0  0  0  0  0  0  0  0  0  0  0  0
  150.0815  132.5211  155.0732 C   0  0  0  0  0  0  0  0  0  0  0  0
  150.4325  133.7643  155.4086 N   0  0  0  0  0  0  0  0  0  0  0  0
  149.3836  134.6273  155.2842 C   0  0  0  0  0  0  0  0  0  0  0  0
  148.0667  134.2938  154.8614 C   0  0  0  0  0  0  0  0  0  0  0  0
  147.2603  135.4242  154.8727 N   0  0  0  0  0  0  0  0  0  0  0  0
  148.0564  136.3750  155.2789 C   0  0  0  0  0  0  0  0  0  0  0  0
  149.3528  135.9877  155.5371 N   0  0  0  0  0  0  0  0  0  0  0  0
  150.4400  136.8372  155.9991 C   0  0  0  0  0  0  0  0  0  0  0  0
  151.0286  137.7720  154.9065 C   0  0  0  0  0  0  0  0  0  0  0  0
  151.7451  136.9629  153.9929 O   0  0  0  0  0  0  0  0  0  0  0  0
  149.9694  138.5538  154.1003 C   0  0  0  0  0  0  0  0  0  0  0  0
  149.3317  139.6655  154.9508 C   0  0  0  0  0  0  0  0  0  0  0  0
  150.3431  140.5457  155.4297 O   0  0  0  0  0  0  0  0  0  0  0  0
  151.2927  139.9048  156.2756 C   0  0  0  0  0  0  0  0  0  0  0  0
  152.0213  138.7878  155.5050 C   0  0  0  0  0  0  0  0  0  0  0  0
  142.3437  135.3890  153.9198 H   0  0  0  0  0  0  0  0  0  0  0  0
  143.4863  134.0501  153.9003 H   0  0  0  0  0  0  0  0  0  0  0  0
  142.3213  134.2403  152.5912 H   0  0  0  0  0  0  0  0  0  0  0  0
  143.4682  136.4073  151.9109 H   0  0  0  0  0  0  0  0  0  0  0  0
  144.5662  136.2237  153.2505 H   0  0  0  0  0  0  0  0  0  0  0  0
  143.3969  133.4447  151.2930 H   0  0  0  0  0  0  0  0  0  0  0  0
  143.9829  134.3235  149.8814 H   0  0  0  0  0  0  0  0  0  0  0  0
  144.9767  131.8203  151.0502 H   0  0  0  0  0  0  0  0  0  0  0  0
  145.5083  132.5548  149.5416 H   0  0  0  0  0  0  0  0  0  0  0  0
  147.1902  132.4213  151.7130 H   0  0  0  0  0  0  0  0  0  0  0  0
  147.2130  133.7846  150.6064 H   0  0  0  0  0  0  0  0  0  0  0  0
  146.8198  134.9596  152.6011 H   0  0  0  0  0  0  0  0  0  0  0  0
  145.5033  134.1717  154.5029 H   0  0  0  0  0  0  0  0  0  0  0  0
  144.6966  132.9675  153.5390 H   0  0  0  0  0  0  0  0  0  0  0  0
  146.8975  130.6102  155.0835 H   0  0  0  0  0  0  0  0  0  0  0  0
  145.2726  130.9217  154.4826 H   0  0  0  0  0  0  0  0  0  0  0  0
  145.8478  131.7541  155.9305 H   0  0  0  0  0  0  0  0  0  0  0  0
  150.8639  131.7799  155.1432 H   0  0  0  0  0  0  0  0  0  0  0  0
  147.7189  137.3946  155.3964 H   0  0  0  0  0  0  0  0  0  0  0  0
  150.0673  137.4150  156.8442 H   0  0  0  0  0  0  0  0  0  0  0  0
  151.2235  136.1951  156.4037 H   0  0  0  0  0  0  0  0  0  0  0  0
  151.2156  136.8401  153.2198 H   0  0  0  0  0  0  0  0  0  0  0  0
  150.4423  139.0201  153.2346 H   0  0  0  0  0  0  0  0  0  0  0  0
  149.2037  137.8928  153.6956 H   0  0  0  0  0  0  0  0  0  0  0  0
  148.6279  140.2378  154.3465 H   0  0  0  0  0  0  0  0  0  0  0  0
  148.7653  139.2529  155.7864 H   0  0  0  0  0  0  0  0  0  0  0  0
  152.0120  140.6491  156.6171 H   0  0  0  0  0  0  0  0  0  0  0  0
  150.7986  139.5183  157.1674 H   0  0  0  0  0  0  0  0  0  0  0  0
  152.7405  138.2874  156.1547 H   0  0  0  0  0  0  0  0  0  0  0  0
  152.6025  139.2488  154.7045 H   0  0  0  0  0  0  0  0  0  0  0  0
  145.3591  135.5204  151.0596 H   0  0  0  0  0  0  0  0  0  0  0  0
  1  2  1  0  0  0  0
  1 28  1  0  0  0  0
  1 29  1  0  0  0  0
  1 30  1  0  0  0  0
  2  3  1  0  0  0  0
  2 31  1  0  0  0  0
  2 32  1  0  0  0  0
  3  7  1  0  0  0  0
  3  4  1  0  0  0  0
  3 58  1  0  0  0  0
  4  5  1  0  0  0  0
  4 33  1  0  0  0  0
  4 34  1  0  0  0  0
  5  6  1  0  0  0  0
  5 35  1  0  0  0  0
  5 36  1  0  0  0  0
  6  7  1  0  0  0  0
  6 37  1  0  0  0  0
  6 38  1  0  0  0  0
  7  8  1  0  0  0  0
  7 39  1  0  0  0  0
  8  9  1  0  0  0  0
  8 40  1  0  0  0  0
  8 41  1  0  0  0  0
  9 10  1  0  0  0  0
  9 11  1  0  0  0  0
 10 42  1  0  0  0  0
 10 43  1  0  0  0  0
 10 44  1  0  0  0  0
 11 16  1  0  0  0  0
 11 12  2  0  0  0  0
 12 13  1  0  0  0  0
 13 14  2  0  0  0  0
 13 45  1  0  0  0  0
 14 15  1  0  0  0  0
 15 19  1  0  0  0  0
 15 16  2  0  0  0  0
 16 17  1  0  0  0  0
 17 18  2  0  0  0  0
 18 19  1  0  0  0  0
 18 46  1  0  0  0  0
 19 20  1  0  0  0  0
 20 21  1  0  0  0  0
 20 47  1  0  0  0  0
 20 48  1  0  0  0  0
 21 27  1  0  0  0  0
 21 22  1  0  0  0  0
 21 23  1  0  0  0  0
 22 49  1  0  0  0  0
 23 24  1  0  0  0  0
 23 50  1  0  0  0  0
 23 51  1  0  0  0  0
 24 25  1  0  0  0  0
 24 52  1  0  0  0  0
 24 53  1  0  0  0  0
 25 26  1  0  0  0  0
 26 27  1  0  0  0  0
 26 54  1  0  0  0  0
 26 55  1  0  0  0  0
 27 56  1  0  0  0  0
 27 57  1  0  0  0  0
M  CHG  1   3   1
M  END
> <s_m_source_file>
AV-unprocessed.smi

> <i_m_source_file_index>
152

> <i_lp_mmshare_version>
43012

> <i_f3d_flags>
0

> <s_epik_input>
W0NIM11bQ0gyXU4xW0NIMl1bQ0gyXVtDSDJdW0NASF0xW0NIMl1OKFtDSDNdKWMobltjSF1uMiljKGMyMyluW2NIXW4zW0NIMl1DNChbT0hdKVtDSDJdW0NIMl1PW0NIMl1bQ0gyXTQ=

> <s_epik_cmdline>
J2VwaWtfcHl0aG9uJywgJy1waCcsICc3LjAnLCAnLXRuJywgJzgnLCAnLW1hJywgJzIwMCcsICctbWV0YWxfYmluZGluZycsICctaW1hZScsICc8aW5maWxlLm1hZT4nLCAnLW9tYWUnLCAnPG91dGZpbGUubWFlPic=

> <r_lp_tautomer_probability>
1

> <r_epik_Ionization_Penalty>
0.00152183

> <r_epik_Ionization_Penalty_Charging>
0.00112577

> <r_epik_Ionization_Penalty_Neutral>
0.000396066

> <r_epik_State_Penalty>
-0

> <r_epik_Charging_Adjusted_Penalty>
0.00112577

> <i_epik_Tot_Q>
1

> <i_epik_Tot_abs_Q>
1

> <r_epik_Metal_State_Penalty>
-0

> <b_epik_Metal_Only>
0

> <s_lp_Force_Field>
OPLS_2005

> <r_lp_Energy>
47.1196

> <b_lp_Chiralities_Consistent>
1

> <s_lp_Variant>
AV-unprocessed.smi:152-3

> <Gold.Version>
5.8.1

> <Gold.Id.Protein>
6NUR|6NUR_protein|mol2

> <Gold.PLP.Fitness>
49.0285

> <Gold.PLP.PLP>
-41.1640

> <Gold.PLP.part.hbond>
-3.0000

> <Gold.PLP.part.metal>
0.0000

> <Gold.PLP.part.buried>
-5.9958

> <Gold.PLP.part.nonpolar>
-32.4902

> <Gold.PLP.part.repulsive>
0.3423

> <Gold.PLP.ligand.clash>
0.0000

> <Gold.PLP.ligand.torsion>
0.8593

> <Gold.PLP.Chemscore.Hbond>
2.9760

> <Gold.PLP.Chemscore.CHOScore>
0.0000

> <Gold.PLP.Chemscore.Metal>
0.0000

> <Gold.Chemscore.Hbonds>
donor molecule, donor type, donor heavy atom, donor atom, acceptor molecule, acceptor atom, score
      L1  H    22    49       P1  7949  0.86
      P1  H  7989  7998       L1    25  0.21
      P1  H 10752 10764       L1    22  1.00

> <Gold.PLP.Chemscore.Internal.Correction>
0.6551

> <Gold.Rescore>
     Score         DG    S(hbond)    S(metal)    S(lipo)     H(rot)  DE(clash)    DE(int)     intcor
     12.15     -15.18       1.99        0.00      85.88       2.73       0.02       3.02       ----

> <Gold.Chemscore.Fitness>
12.1494

> <Gold.Chemscore.DG>
-15.1811

> <Gold.Chemscore.ZeroCoef>
-5.4800

> <Gold.Chemscore.Hbond>
1.9922

> <Gold.Chemscore.Metal>
0.0000

> <Gold.Chemscore.Lipo>
85.8810

> <Gold.Chemscore.Internal_Hbond>
0.0000

> <Gold.Chemscore.DEClash>
0.0152

> <Gold.Chemscore.DEInternal>
3.0166

> <Gold.Chemscore.Rot>
2.7348

> <Gold.Chemscore.Internal.Correction>
   9.000000E+99

> <Gold.Chemscore.Hbonds>
donor molecule, donor type, donor heavy atom, donor atom, acceptor molecule, acceptor atom, score
      L1  H    22    49       P1  7949  0.47
      P1  H  7989  7998       L1    25  0.02
      P1  H 10752 10764       L1    22  0.74

> <Gold.Chemscore.Hbond.Weighted>
-6.6541

> <Gold.Chemscore.Metal.Weighted>
-0.0000

> <Gold.Chemscore.Lipo.Weighted>
-10.0481

> <Gold.Chemscore.Internal_Hbond.Weighted>
0.0000

> <Gold.Chemscore.DEClash.Weighted>
0.0152

> <Gold.Chemscore.DEInternal.Weighted>
3.0166

> <Gold.Chemscore.Rot.Weighted>
7.0010

> <Gold.Chemscore.Internal.Correction.Weighted>
   9.000000E+99

> <Gold.Protein.RotatedTorsions>
[ 6907 6896 6895 6894 ] final  -54.62 input  -60.11 | X-H torsion
[ 7974 7965 7964 7962 ] final -103.76 input  175.53 | X-H torsion
[ 8008 7997 7996 7995 ] final   -9.25 input   59.86 | X-H torsion
[ 10167 10162 10161 10158 ] final  177.78 input  -65.29 | X-H torsion
[ 10718 10713 10712 10709 ] final   12.04 input   66.30 | X-H torsion
[ 10763 10752 10751 10750 ] final  -90.99 input  -60.55 | X-H torsion
[ 11005 11000 10999 10996 ] final  -51.93 input  -57.11 | X-H torsion

> <Gold.Protein.ActiveResidues>
 VAL166  LYS551  ARG553  GLY616  TRP617  ASP618  TYR619  PRO620  LYS621  CYS622 
 ASP623  PHE694  ASN695  SER759  ASP760  ASP761  ALA762  ILE779  LEU786  VAL792 
 PHE793  MET794  SER795  GLU796  ALA797  LYS798  CYS799  TRP800  GLU811  SER814 

> <Gold.Protein.RotatedAtoms>
  150.8322  134.7580  159.6863 H   0  0  0  0  0  0  0  0  0  0  0  0  # atno 6907 bound_to 6896
  152.4425  134.5559  159.9890 H   0  0  0  0  0  0  0  0  0  0  0  0  # atno 6908 bound_to 6896
  151.5717  133.3351  159.3026 H   0  0  0  0  0  0  0  0  0  0  0  0  # atno 6909 bound_to 6896
  145.2518  140.9240  143.3091 H   0  0  0  0  0  0  0  0  0  0  0  0  # atno 7974 bound_to 7965
  154.5664  140.2360  155.8257 H   0  0  0  0  0  0  0  0  0  0  0  0  # atno 8008 bound_to 7997
  156.2072  140.3036  155.9611 H   0  0  0  0  0  0  0  0  0  0  0  0  # atno 8009 bound_to 7997
  155.2792  140.0421  157.3004 H   0  0  0  0  0  0  0  0  0  0  0  0  # atno 8010 bound_to 7997
  139.5267  144.2757  152.0589 H   0  0  0  0  0  0  0  0  0  0  0  0  # atno 10167 bound_to 10162
  157.0044  130.6092  149.5700 H   0  0  0  0  0  0  0  0  0  0  0  0  # atno 10718 bound_to 10713
  154.6715  135.5284  153.8144 H   0  0  0  0  0  0  0  0  0  0  0  0  # atno 10763 bound_to 10752
  153.0504  135.6530  154.0717 H   0  0  0  0  0  0  0  0  0  0  0  0  # atno 10764 bound_to 10752
  154.0616  135.2961  155.3303 H   0  0  0  0  0  0  0  0  0  0  0  0  # atno 10765 bound_to 10752
  141.0897  133.6635  156.3949 H   0  0  0  0  0  0  0  0  0  0  0  0  # atno 11005 bound_to 11000
  144.9496  139.4098  143.6409 LP  0  0  0  0  0  0  0  0  0  0  0  0  # atno 17320 bound_to 7965
  146.3300  139.8496  142.8875 LP  0  0  0  0  0  0  0  0  0  0  0  0  # atno 17321 bound_to 7965
  140.2215  144.4461  150.6340 LP  0  0  0  0  0  0  0  0  0  0  0  0  # atno 17342 bound_to 10162
  140.6415  143.2204  151.6279 LP  0  0  0  0  0  0  0  0  0  0  0  0  # atno 17343 bound_to 10162
  156.0159  130.5253  150.8133 LP  0  0  0  0  0  0  0  0  0  0  0  0  # atno 17370 bound_to 10713
  157.5367  131.0939  150.9883 LP  0  0  0  0  0  0  0  0  0  0  0  0  # atno 17371 bound_to 10713
  140.5280  134.6240  157.5340 LP  0  0  0  0  0  0  0  0  0  0  0  0  # atno 17394 bound_to 11000
  139.9721  134.7275  156.0021 LP  0  0  0  0  0  0  0  0  0  0  0  0  # atno 17395 bound_to 11000

$$$$
