AV-unprocessed.smi:995|AV-procd|sdf|4346|dock7
  -GOLD-   22720 2243D 1   1.00000     0.00000
 Structure written by MMmdl.
 37 38  0  0  0  0  0  0  0  0  1 V2000
  152.1873  135.2701  156.6256 O   0  0  0  0  0  0  0  0  0  0  0  0
  150.9576  135.3291  156.6330 C   0  0  0  0  0  0  0  0  0  0  0  0
  150.2549  136.4661  156.7971 N   0  0  0  0  0  0  0  0  0  0  0  0
  150.7330  137.7812  157.0453 C   0  0  0  0  0  0  0  0  0  0  0  0
  149.8744  138.6819  157.7073 C   0  0  0  0  0  0  0  0  0  0  0  0
  150.3270  139.9856  157.9838 C   0  0  0  0  0  0  0  0  0  0  0  0
  151.6324  140.3473  157.5965 C   0  0  0  0  0  0  0  0  0  0  0  0
  152.0700  141.6273  157.8675 O   0  0  0  0  0  0  0  0  0  0  0  0
  151.3118  142.4298  158.7691 C   0  0  0  0  0  0  0  0  0  0  0  0
  152.0581  143.7479  159.0235 C   0  0  0  0  0  0  0  0  0  0  0  0
  153.2957  143.4805  159.4427 F   0  0  0  0  0  0  0  0  0  0  0  0
  152.1134  144.4233  157.8747 F   0  0  0  0  0  0  0  0  0  0  0  0
  151.3520  144.6298  160.0657 C   0  0  0  0  0  0  0  0  0  0  0  0
  151.9390  145.8229  160.1647 F   0  0  0  0  0  0  0  0  0  0  0  0
  150.0663  144.7926  159.7530 F   0  0  0  0  0  0  0  0  0  0  0  0
  152.4722  139.4842  156.9737 N   0  0  0  0  0  0  0  0  0  0  0  0
  152.0320  138.2355  156.7102 C   0  0  0  0  0  0  0  0  0  0  0  0
  150.1284  134.0585  156.3900 C   0  0  1  0  0  0  0  0  0  0  0  0
  150.3529  133.4542  154.9841 C   0  0  0  0  0  0  0  0  0  0  0  0
  149.5832  132.2659  154.8535 O   0  0  0  0  0  0  0  0  0  0  0  0
  149.9505  131.3009  155.8291 C   0  0  0  0  0  0  0  0  0  0  0  0
  149.7148  131.8926  157.2277 C   0  0  0  0  0  0  0  0  0  0  0  0
  150.4852  133.0792  157.3636 O   0  0  0  0  0  0  0  0  0  0  0  0
  149.2545  136.3811  156.6876 H   0  0  0  0  0  0  0  0  0  0  0  0
  148.8782  138.3817  157.9980 H   0  0  0  0  0  0  0  0  0  0  0  0
  149.6849  140.6954  158.4842 H   0  0  0  0  0  0  0  0  0  0  0  0
  150.3273  142.6417  158.3483 H   0  0  0  0  0  0  0  0  0  0  0  0
  151.1662  141.8985  159.7113 H   0  0  0  0  0  0  0  0  0  0  0  0
  151.3868  144.1752  161.0560 H   0  0  0  0  0  0  0  0  0  0  0  0
  152.7594  137.5935  156.2387 H   0  0  0  0  0  0  0  0  0  0  0  0
  149.0767  134.3225  156.5144 H   0  0  0  0  0  0  0  0  0  0  0  0
  150.0376  134.1517  154.2073 H   0  0  0  0  0  0  0  0  0  0  0  0
  151.4082  133.2357  154.8111 H   0  0  0  0  0  0  0  0  0  0  0  0
  149.3464  130.4043  155.6895 H   0  0  0  0  0  0  0  0  0  0  0  0
  150.9943  131.0104  155.6996 H   0  0  0  0  0  0  0  0  0  0  0  0
  148.6572  132.1084  157.3878 H   0  0  0  0  0  0  0  0  0  0  0  0
  150.0184  131.1814  157.9959 H   0  0  0  0  0  0  0  0  0  0  0  0
  1  2  2  0  0  0  0
  2  3  1  0  0  0  0
  2 18  1  0  0  0  0
  3  4  1  0  0  0  0
  3 24  1  0  0  0  0
  4 17  1  0  0  0  0
  4  5  2  0  0  0  0
  5  6  1  0  0  0  0
  5 25  1  0  0  0  0
  6  7  2  0  0  0  0
  6 26  1  0  0  0  0
  7  8  1  0  0  0  0
  7 16  1  0  0  0  0
  8  9  1  0  0  0  0
  9 10  1  0  0  0  0
  9 27  1  0  0  0  0
  9 28  1  0  0  0  0
 10 11  1  0  0  0  0
 10 12  1  0  0  0  0
 10 13  1  0  0  0  0
 13 14  1  0  0  0  0
 13 15  1  0  0  0  0
 13 29  1  0  0  0  0
 16 17  2  0  0  0  0
 17 30  1  0  0  0  0
 18 23  1  0  0  0  0
 18 19  1  0  0  0  0
 18 31  1  0  0  0  0
 19 20  1  0  0  0  0
 19 32  1  0  0  0  0
 19 33  1  0  0  0  0
 20 21  1  0  0  0  0
 21 22  1  0  0  0  0
 21 34  1  0  0  0  0
 21 35  1  0  0  0  0
 22 23  1  0  0  0  0
 22 36  1  0  0  0  0
 22 37  1  0  0  0  0
M  END
> <s_m_source_file>
AV-unprocessed.smi

> <i_m_source_file_index>
995

> <i_lp_mmshare_version>
43012

> <i_f3d_flags>
0

> <s_epik_input>
TzFbQ0gyXVtDSDJdT1tDSDJdW0NASF0xQyg9TylbTkhdYzJbY0hdW2NIXWMobltjSF0yKU9bQ0gyXUMoRikoRilbQ0hdKEYpRg==

> <s_epik_cmdline>
J2VwaWtfcHl0aG9uJywgJy1waCcsICc3LjAnLCAnLXRuJywgJzgnLCAnLW1hJywgJzIwMCcsICctbWV0YWxfYmluZGluZycsICctaW1hZScsICc8aW5maWxlLm1hZT4nLCAnLW9tYWUnLCAnPG91dGZpbGUubWFlPic=

> <r_lp_tautomer_probability>
1

> <r_epik_Ionization_Penalty>
2.54436e-06

> <r_epik_Ionization_Penalty_Charging>
0

> <r_epik_Ionization_Penalty_Neutral>
2.54436e-06

> <r_epik_State_Penalty>
-0

> <r_epik_Charging_Adjusted_Penalty>
0

> <i_epik_Tot_Q>
0

> <i_epik_Tot_abs_Q>
0

> <r_epik_Metal_State_Penalty>
-0

> <b_epik_Metal_Only>
0

> <s_lp_Force_Field>
OPLS_2005

> <r_lp_Energy>
9.88959

> <b_lp_Chiralities_Consistent>
1

> <s_lp_Variant>
AV-unprocessed.smi:995-2

> <Gold.Version>
5.8.1

> <Gold.Id.Protein>
6NUR|6NUR_protein|mol2

> <Gold.PLP.Fitness>
46.6252

> <Gold.PLP.PLP>
-38.3134

> <Gold.PLP.part.hbond>
-3.0000

> <Gold.PLP.part.metal>
0.0000

> <Gold.PLP.part.buried>
-4.9810

> <Gold.PLP.part.nonpolar>
-29.5769

> <Gold.PLP.part.repulsive>
0.0773

> <Gold.PLP.ligand.clash>
0.0129

> <Gold.PLP.ligand.torsion>
0.4144

> <Gold.PLP.Chemscore.Hbond>
3.0000

> <Gold.PLP.Chemscore.CHOScore>
0.0000

> <Gold.PLP.Chemscore.Metal>
0.0000

> <Gold.Chemscore.Hbonds>
donor molecule, donor type, donor heavy atom, donor atom, acceptor molecule, acceptor atom, score
      P1  H  6896  6907       L1    23  1.00
      P1  H  7997  8008       L1    16  1.00
      P1  H 10752 10763       L1     1  1.00

> <Gold.PLP.Chemscore.Internal.Correction>
0.1536

> <Gold.Rescore>
     Score         DG    S(hbond)    S(metal)    S(lipo)     H(rot)  DE(clash)    DE(int)     intcor
     15.37     -17.06       2.85        0.00      63.87       2.12       0.12       1.57       ----

> <Gold.Chemscore.Fitness>
15.3685

> <Gold.Chemscore.DG>
-17.0585

> <Gold.Chemscore.ZeroCoef>
-5.4800

> <Gold.Chemscore.Hbond>
2.8519

> <Gold.Chemscore.Metal>
0.0000

> <Gold.Chemscore.Lipo>
63.8722

> <Gold.Chemscore.Internal_Hbond>
0.0000

> <Gold.Chemscore.DEClash>
0.1161

> <Gold.Chemscore.DEInternal>
1.5739

> <Gold.Chemscore.Rot>
2.1172

> <Gold.Chemscore.Internal.Correction>
   9.000000E+99

> <Gold.Chemscore.Hbonds>
donor molecule, donor type, donor heavy atom, donor atom, acceptor molecule, acceptor atom, score
      P1  H  6896  6907       L1    23  0.87
      P1  H  7997  8008       L1    16  0.90
      P1  H 10752 10763       L1     1  1.00

> <Gold.Chemscore.Hbond.Weighted>
-9.5255

> <Gold.Chemscore.Metal.Weighted>
-0.0000

> <Gold.Chemscore.Lipo.Weighted>
-7.4731

> <Gold.Chemscore.Internal_Hbond.Weighted>
0.0000

> <Gold.Chemscore.DEClash.Weighted>
0.1161

> <Gold.Chemscore.DEInternal.Weighted>
1.5739

> <Gold.Chemscore.Rot.Weighted>
5.4200

> <Gold.Chemscore.Internal.Correction.Weighted>
   9.000000E+99

> <Gold.Protein.RotatedTorsions>
[ 6907 6896 6895 6894 ] final -147.03 input  -60.11 | X-H torsion
[ 7974 7965 7964 7962 ] final -122.54 input  175.53 | X-H torsion
[ 8008 7997 7996 7995 ] final  -53.28 input   59.86 | X-H torsion
[ 10167 10162 10161 10158 ] final -109.43 input  -65.29 | X-H torsion
[ 10718 10713 10712 10709 ] final  -96.96 input   66.30 | X-H torsion
[ 10763 10752 10751 10750 ] final  100.93 input  -60.55 | X-H torsion
[ 11005 11000 10999 10996 ] final  169.36 input  -57.11 | X-H torsion

> <Gold.Protein.ActiveResidues>
 VAL166  LYS551  ARG553  GLY616  TRP617  ASP618  TYR619  PRO620  LYS621  CYS622 
 ASP623  PHE694  ASN695  SER759  ASP760  ASP761  ALA762  ILE779  LEU786  VAL792 
 PHE793  MET794  SER795  GLU796  ALA797  LYS798  CYS799  TRP800  GLU811  SER814 

> <Gold.Protein.RotatedAtoms>
  151.1499  133.4914  159.2595 H   0  0  0  0  0  0  0  0  0  0  0  0  # atno 6907 bound_to 6896
  151.1565  135.0252  159.8701 H   0  0  0  0  0  0  0  0  0  0  0  0  # atno 6908 bound_to 6896
  152.5463  134.1377  159.8519 H   0  0  0  0  0  0  0  0  0  0  0  0  # atno 6909 bound_to 6896
  145.0283  140.8046  143.4339 H   0  0  0  0  0  0  0  0  0  0  0  0  # atno 7974 bound_to 7965
  154.4129  140.1204  156.5128 H   0  0  0  0  0  0  0  0  0  0  0  0  # atno 8008 bound_to 7997
  155.6782  140.3496  155.4825 H   0  0  0  0  0  0  0  0  0  0  0  0  # atno 8009 bound_to 7997
  155.9574  140.1116  157.0915 H   0  0  0  0  0  0  0  0  0  0  0  0  # atno 8010 bound_to 7997
  140.1554  143.4164  152.1465 H   0  0  0  0  0  0  0  0  0  0  0  0  # atno 10167 bound_to 10162
  156.0073  130.5174  150.6303 H   0  0  0  0  0  0  0  0  0  0  0  0  # atno 10718 bound_to 10713
  153.3202  135.4062  155.1410 H   0  0  0  0  0  0  0  0  0  0  0  0  # atno 10763 bound_to 10752
  154.8598  135.3585  154.5607 H   0  0  0  0  0  0  0  0  0  0  0  0  # atno 10764 bound_to 10752
  153.6040  135.7070  153.5432 H   0  0  0  0  0  0  0  0  0  0  0  0  # atno 10765 bound_to 10752
  140.2970  134.7627  157.3885 H   0  0  0  0  0  0  0  0  0  0  0  0  # atno 11005 bound_to 11000
  145.1804  139.2355  143.5295 LP  0  0  0  0  0  0  0  0  0  0  0  0  # atno 17320 bound_to 7965
  146.3495  140.1576  142.8591 LP  0  0  0  0  0  0  0  0  0  0  0  0  # atno 17321 bound_to 7965
  139.5406  144.7253  151.4746 LP  0  0  0  0  0  0  0  0  0  0  0  0  # atno 17342 bound_to 10162
  140.6676  143.8363  150.6961 LP  0  0  0  0  0  0  0  0  0  0  0  0  # atno 17343 bound_to 10162
  157.4103  131.0822  151.1227 LP  0  0  0  0  0  0  0  0  0  0  0  0  # atno 17370 bound_to 10713
  157.1861  130.6331  149.5688 LP  0  0  0  0  0  0  0  0  0  0  0  0  # atno 17371 bound_to 10713
  140.1144  134.5303  155.8238 LP  0  0  0  0  0  0  0  0  0  0  0  0  # atno 17394 bound_to 11000
  141.2135  133.6735  156.6749 LP  0  0  0  0  0  0  0  0  0  0  0  0  # atno 17395 bound_to 11000

$$$$
