AV-unprocessed.smi:2902|AV-procd|sdf|11154|dock10
  -GOLD-   2272016 33D 1   1.00000     0.00000
 Structure written by MMmdl.
 47 48  0  0  0  0  0  0  0  0  1 V2000
  148.3480  141.3464  154.8277 C   0  0  0  0  0  0  0  0  0  0  0  0
  148.8580  141.4815  156.2680 C   0  0  0  0  0  0  0  0  0  0  0  0
  150.3941  141.4329  156.3644 C   0  0  1  0  0  0  0  0  0  0  0  0
  150.7518  141.6437  157.7303 O   0  0  0  0  0  0  0  0  0  0  0  0
  151.8250  142.5476  157.9790 C   0  0  0  0  0  0  0  0  0  0  0  0
  152.0085  142.8127  159.4803 C   0  0  0  0  0  0  0  0  0  0  0  0
  152.4179  144.2881  159.6125 C   0  0  0  0  0  0  0  0  0  0  0  0
  152.4050  144.8669  158.1934 C   0  0  0  0  0  0  0  0  0  0  0  0
  151.5108  143.9222  157.3932 C   0  0  0  0  0  0  0  0  0  0  0  0
  150.9411  140.0883  155.8571 C   0  0  0  0  0  0  0  0  0  0  0  0
  151.7806  140.0556  154.9571 O   0  0  0  0  0  0  0  0  0  0  0  0
  150.4334  138.9891  156.4350 N   0  0  0  0  0  0  0  0  0  0  0  0
  150.7492  137.6072  156.0766 C   0  0  1  0  0  0  0  0  0  0  0  0
  152.2271  137.3289  156.4105 C   0  0  0  0  0  0  0  0  0  0  0  0
  149.7711  136.6458  156.8020 C   0  0  2  0  0  0  0  0  0  0  0  0
  149.7810  136.8057  158.3337 C   0  0  0  0  0  0  0  0  0  0  0  0
  150.0444  135.2562  156.4526 N   0  0  0  0  0  0  0  0  0  0  0  0
  149.9893  134.6222  155.2785 C   0  0  0  0  0  0  0  0  0  0  0  0
  150.2916  133.3337  155.3494 N   0  0  0  0  0  0  0  0  0  0  0  0
  150.5251  133.2275  156.6907 C   0  0  0  0  0  0  0  0  0  0  0  0
  150.3870  134.3486  157.3984 N   0  0  0  0  0  0  0  0  0  0  0  0
  147.2585  141.3695  154.7985 H   0  0  0  0  0  0  0  0  0  0  0  0
  148.6727  140.4065  154.3812 H   0  0  0  0  0  0  0  0  0  0  0  0
  148.7137  142.1599  154.2009 H   0  0  0  0  0  0  0  0  0  0  0  0
  148.4876  142.4151  156.6938 H   0  0  0  0  0  0  0  0  0  0  0  0
  148.4254  140.6786  156.8669 H   0  0  0  0  0  0  0  0  0  0  0  0
  150.8091  142.2426  155.7604 H   0  0  0  0  0  0  0  0  0  0  0  0
  152.7635  142.2008  157.5418 H   0  0  0  0  0  0  0  0  0  0  0  0
  151.0667  142.6510  160.0066 H   0  0  0  0  0  0  0  0  0  0  0  0
  152.7435  142.1394  159.9215 H   0  0  0  0  0  0  0  0  0  0  0  0
  151.6988  144.8148  160.2411 H   0  0  0  0  0  0  0  0  0  0  0  0
  153.3972  144.4006  160.0777 H   0  0  0  0  0  0  0  0  0  0  0  0
  152.0556  145.8992  158.1651 H   0  0  0  0  0  0  0  0  0  0  0  0
  153.4151  144.8476  157.7821 H   0  0  0  0  0  0  0  0  0  0  0  0
  151.6944  143.9732  156.3195 H   0  0  0  0  0  0  0  0  0  0  0  0
  150.4634  144.1733  157.5670 H   0  0  0  0  0  0  0  0  0  0  0  0
  149.7432  139.1193  157.1606 H   0  0  0  0  0  0  0  0  0  0  0  0
  150.6128  137.4834  155.0005 H   0  0  0  0  0  0  0  0  0  0  0  0
  152.5418  136.3482  156.0550 H   0  0  0  0  0  0  0  0  0  0  0  0
  152.4056  137.3700  157.4855 H   0  0  0  0  0  0  0  0  0  0  0  0
  152.8840  138.0601  155.9384 H   0  0  0  0  0  0  0  0  0  0  0  0
  148.7585  136.8734  156.4630 H   0  0  0  0  0  0  0  0  0  0  0  0
  149.4151  137.7858  158.6382 H   0  0  0  0  0  0  0  0  0  0  0  0
  150.7841  136.6818  158.7428 H   0  0  0  0  0  0  0  0  0  0  0  0
  149.1348  136.0655  158.8071 H   0  0  0  0  0  0  0  0  0  0  0  0
  149.7210  135.1120  154.3540 H   0  0  0  0  0  0  0  0  0  0  0  0
  150.8006  132.2949  157.1608 H   0  0  0  0  0  0  0  0  0  0  0  0
  1  2  1  0  0  0  0
  1 22  1  0  0  0  0
  1 23  1  0  0  0  0
  1 24  1  0  0  0  0
  2  3  1  0  0  0  0
  2 25  1  0  0  0  0
  2 26  1  0  0  0  0
  3  4  1  0  0  0  0
  3 10  1  0  0  0  0
  3 27  1  0  0  0  0
  4  5  1  0  0  0  0
  5  9  1  0  0  0  0
  5  6  1  0  0  0  0
  5 28  1  0  0  0  0
  6  7  1  0  0  0  0
  6 29  1  0  0  0  0
  6 30  1  0  0  0  0
  7  8  1  0  0  0  0
  7 31  1  0  0  0  0
  7 32  1  0  0  0  0
  8  9  1  0  0  0  0
  8 33  1  0  0  0  0
  8 34  1  0  0  0  0
  9 35  1  0  0  0  0
  9 36  1  0  0  0  0
 10 11  2  0  0  0  0
 10 12  1  0  0  0  0
 12 13  1  0  0  0  0
 12 37  1  0  0  0  0
 13 14  1  0  0  0  0
 13 15  1  0  0  0  0
 13 38  1  0  0  0  0
 14 39  1  0  0  0  0
 14 40  1  0  0  0  0
 14 41  1  0  0  0  0
 15 16  1  0  0  0  0
 15 17  1  0  0  0  0
 15 42  1  0  0  0  0
 16 43  1  0  0  0  0
 16 44  1  0  0  0  0
 16 45  1  0  0  0  0
 17 21  1  0  0  0  0
 17 18  1  0  0  0  0
 18 19  2  0  0  0  0
 18 46  1  0  0  0  0
 19 20  1  0  0  0  0
 20 21  2  0  0  0  0
 20 47  1  0  0  0  0
M  END
> <s_m_source_file>
AV-unprocessed.smi

> <i_m_source_file_index>
2902

> <i_lp_mmshare_version>
43012

> <i_f3d_flags>
0

> <s_epik_input>
W0NIMl0xW0NIMl1bQ0gyXVtDSDJdW0NIXTFPW0NAQEhdKFtDSDJdW0NIM10pQyg9TylbTkhdW0NASF0oW0NIM10pW0NASF0oW0NIM10pbjJbY0hdbltjSF1uMg==

> <s_epik_cmdline>
J2VwaWtfcHl0aG9uJywgJy1waCcsICc3LjAnLCAnLXRuJywgJzgnLCAnLW1hJywgJzIwMCcsICctbWV0YWxfYmluZGluZycsICctaW1hZScsICc8aW5maWxlLm1hZT4nLCAnLW9tYWUnLCAnPG91dGZpbGUubWFlPic=

> <r_lp_tautomer_probability>
1

> <r_epik_Ionization_Penalty>
6.95617e-05

> <r_epik_Ionization_Penalty_Charging>
0

> <r_epik_Ionization_Penalty_Neutral>
6.95617e-05

> <r_epik_State_Penalty>
-0

> <r_epik_Charging_Adjusted_Penalty>
0

> <i_epik_Tot_Q>
0

> <i_epik_Tot_abs_Q>
0

> <r_epik_Metal_State_Penalty>
-0

> <b_epik_Metal_Only>
0

> <s_lp_Force_Field>
OPLS_2005

> <r_lp_Energy>
29.0587

> <b_lp_Chiralities_Consistent>
1

> <s_lp_Variant>
AV-unprocessed.smi:2902-4

> <Gold.Version>
5.8.1

> <Gold.Id.Protein>
6NUR|6NUR_protein|mol2

> <Gold.PLP.Fitness>
41.8940

> <Gold.PLP.PLP>
-36.3644

> <Gold.PLP.part.hbond>
-1.9714

> <Gold.PLP.part.metal>
0.0000

> <Gold.PLP.part.buried>
-5.9490

> <Gold.PLP.part.nonpolar>
-29.7558

> <Gold.PLP.part.repulsive>
0.1541

> <Gold.PLP.ligand.clash>
0.0000

> <Gold.PLP.ligand.torsion>
0.8136

> <Gold.PLP.Chemscore.Hbond>
1.4440

> <Gold.PLP.Chemscore.CHOScore>
0.8740

> <Gold.PLP.Chemscore.Metal>
0.0000

> <Gold.Chemscore.Hbonds>
donor molecule, donor type, donor heavy atom, donor atom, acceptor molecule, acceptor atom, score
      P1  H  6896  6907       L1    21  0.69
      P1  H  7989  7998       L1    11  0.96
      L1  C    18    46       P1  7948  0.28

> <Gold.PLP.Chemscore.Internal.Correction>
0.2028

> <Gold.Rescore>
     Score         DG    S(hbond)    S(metal)    S(lipo)     H(rot)  DE(clash)    DE(int)     intcor
     14.33     -15.39       1.90        0.00      89.45       2.69       0.04       1.02       ----

> <Gold.Chemscore.Fitness>
14.3340

> <Gold.Chemscore.DG>
-15.3910

> <Gold.Chemscore.ZeroCoef>
-5.4800

> <Gold.Chemscore.Hbond>
1.8983

> <Gold.Chemscore.Metal>
0.0000

> <Gold.Chemscore.Lipo>
89.4525

> <Gold.Chemscore.Internal_Hbond>
0.0000

> <Gold.Chemscore.DEClash>
0.0406

> <Gold.Chemscore.DEInternal>
1.0164

> <Gold.Chemscore.Rot>
2.6935

> <Gold.Chemscore.Internal.Correction>
   9.000000E+99

> <Gold.Chemscore.Hbonds>
donor molecule, donor type, donor heavy atom, donor atom, acceptor molecule, acceptor atom, score
      P1  H  6896  6907       L1    21  0.45
      P1  H  7989  7998       L1    11  0.92

> <Gold.Chemscore.Hbond.Weighted>
-6.3404

> <Gold.Chemscore.Metal.Weighted>
-0.0000

> <Gold.Chemscore.Lipo.Weighted>
-10.4659

> <Gold.Chemscore.Internal_Hbond.Weighted>
0.0000

> <Gold.Chemscore.DEClash.Weighted>
0.0406

> <Gold.Chemscore.DEInternal.Weighted>
1.0164

> <Gold.Chemscore.Rot.Weighted>
6.8954

> <Gold.Chemscore.Internal.Correction.Weighted>
   9.000000E+99

> <Gold.Protein.RotatedTorsions>
[ 6907 6896 6895 6894 ] final -111.61 input  -60.11 | X-H torsion
[ 7974 7965 7964 7962 ] final  163.04 input  175.53 | X-H torsion
[ 8008 7997 7996 7995 ] final   46.31 input   59.86 | X-H torsion
[ 10167 10162 10161 10158 ] final  150.91 input  -65.29 | X-H torsion
[ 10718 10713 10712 10709 ] final    0.78 input   66.30 | X-H torsion
[ 10763 10752 10751 10750 ] final   88.76 input  -60.55 | X-H torsion
[ 11005 11000 10999 10996 ] final  -13.51 input  -57.11 | X-H torsion

> <Gold.Protein.ActiveResidues>
 VAL166  LYS551  ARG553  GLY616  TRP617  ASP618  TYR619  PRO620  LYS621  CYS622 
 ASP623  PHE694  ASN695  SER759  ASP760  ASP761  ALA762  ILE779  LEU786  VAL792 
 PHE793  MET794  SER795  GLU796  ALA797  LYS798  CYS799  TRP800  GLU811  SER814 

> <Gold.Protein.RotatedAtoms>
  150.7702  133.9209  159.3397 H   0  0  0  0  0  0  0  0  0  0  0  0  # atno 6907 bound_to 6896
  151.7098  135.0913  160.0275 H   0  0  0  0  0  0  0  0  0  0  0  0  # atno 6908 bound_to 6896
  152.3716  133.6389  159.6127 H   0  0  0  0  0  0  0  0  0  0  0  0  # atno 6909 bound_to 6896
  144.7608  139.8126  143.6333 H   0  0  0  0  0  0  0  0  0  0  0  0  # atno 7974 bound_to 7965
  155.3503  140.3413  155.4239 H   0  0  0  0  0  0  0  0  0  0  0  0  # atno 8008 bound_to 7997
  156.1767  140.1650  156.8385 H   0  0  0  0  0  0  0  0  0  0  0  0  # atno 8009 bound_to 7997
  154.5290  140.0749  156.8293 H   0  0  0  0  0  0  0  0  0  0  0  0  # atno 8010 bound_to 7997
  139.4845  144.5484  151.7444 H   0  0  0  0  0  0  0  0  0  0  0  0  # atno 10167 bound_to 10162
  156.8384  130.5512  149.5680 H   0  0  0  0  0  0  0  0  0  0  0  0  # atno 10718 bound_to 10713
  153.1802  135.4495  155.0017 H   0  0  0  0  0  0  0  0  0  0  0  0  # atno 10763 bound_to 10752
  154.8025  135.3261  154.7518 H   0  0  0  0  0  0  0  0  0  0  0  0  # atno 10764 bound_to 10752
  153.7983  135.6964  153.4915 H   0  0  0  0  0  0  0  0  0  0  0  0  # atno 10765 bound_to 10752
  140.7769  133.8394  155.9256 H   0  0  0  0  0  0  0  0  0  0  0  0  # atno 11005 bound_to 11000
  146.1669  139.4804  142.9952 LP  0  0  0  0  0  0  0  0  0  0  0  0  # atno 17320 bound_to 7965
  145.6626  141.0237  143.1701 LP  0  0  0  0  0  0  0  0  0  0  0  0  # atno 17321 bound_to 7965
  140.5034  144.1135  150.5976 LP  0  0  0  0  0  0  0  0  0  0  0  0  # atno 17342 bound_to 10162
  140.4036  143.2691  151.9918 LP  0  0  0  0  0  0  0  0  0  0  0  0  # atno 17343 bound_to 10162
  156.0894  130.5884  150.9707 LP  0  0  0  0  0  0  0  0  0  0  0  0  # atno 17370 bound_to 10713
  157.6369  131.0915  150.8330 LP  0  0  0  0  0  0  0  0  0  0  0  0  # atno 17371 bound_to 10713
  140.9520  134.1766  157.4720 LP  0  0  0  0  0  0  0  0  0  0  0  0  # atno 17394 bound_to 11000
  139.8748  134.9913  156.5542 LP  0  0  0  0  0  0  0  0  0  0  0  0  # atno 17395 bound_to 11000

$$$$
