AV-unprocessed.smi:1893|AV-procd|sdf|7675|dock6
  -GOLD-   22720 9413D 1   1.00000     0.00000
 Structure written by MMmdl.
 43 44  0  0  0  0  0  0  0  0  2 V2000
  147.5599  130.1599  153.3186 C   0  0  0  0  0  0  0  0  0  0  0  0
  146.6428  131.1975  152.6366 C   0  0  2  0  0  0  0  0  0  0  0  0
  145.6371  130.4418  151.7386 C   0  0  0  0  0  0  0  0  0  0  0  0
  144.6810  131.3913  151.0137 C   0  0  0  0  0  0  0  0  0  0  0  0
  145.4931  132.4107  150.2161 C   0  0  0  0  0  0  0  0  0  0  0  0
  146.4678  133.1572  151.1367 C   0  0  0  0  0  0  0  0  0  0  0  0
  147.3952  132.2277  151.8456 N   0  3  1  0  0  0  0  0  0  0  0  0
  148.4182  132.9756  152.6320 C   0  0  0  0  0  0  0  0  0  0  0  0
  147.7998  133.9406  153.6663 C   0  0  0  0  0  0  0  0  0  0  0  0
  148.8304  134.6803  154.3843 N   0  0  0  0  0  0  0  0  0  0  0  0
  148.6049  135.7203  155.2031 C   0  0  0  0  0  0  0  0  0  0  0  0
  147.4795  136.1739  155.4142 O   0  0  0  0  0  0  0  0  0  0  0  0
  149.8411  136.3219  155.8902 C   0  0  1  0  0  0  0  0  0  0  0  0
  151.1132  135.4772  155.6907 C   0  0  0  0  0  0  0  0  0  0  0  0
  150.0494  137.6911  155.4392 N   0  0  0  0  0  0  0  0  0  0  0  0
  150.3569  138.1800  154.2344 C   0  0  0  0  0  0  0  0  0  0  0  0
  150.4551  139.5015  154.2006 N   0  0  0  0  0  0  0  0  0  0  0  0
  150.1837  139.7842  155.5092 C   0  0  0  0  0  0  0  0  0  0  0  0
  149.9300  138.7360  156.2928 N   0  0  0  0  0  0  0  0  0  0  0  0
  146.9761  129.3322  153.7230 H   0  0  0  0  0  0  0  0  0  0  0  0
  148.1076  130.5752  154.1636 H   0  0  0  0  0  0  0  0  0  0  0  0
  148.2787  129.7385  152.6153 H   0  0  0  0  0  0  0  0  0  0  0  0
  146.0810  131.7166  153.4151 H   0  0  0  0  0  0  0  0  0  0  0  0
  146.1775  129.8438  151.0030 H   0  0  0  0  0  0  0  0  0  0  0  0
  145.0556  129.7384  152.3363 H   0  0  0  0  0  0  0  0  0  0  0  0
  144.0208  130.8312  150.3509 H   0  0  0  0  0  0  0  0  0  0  0  0
  144.0432  131.9032  151.7356 H   0  0  0  0  0  0  0  0  0  0  0  0
  146.0460  131.9074  149.4216 H   0  0  0  0  0  0  0  0  0  0  0  0
  144.8232  133.1195  149.7279 H   0  0  0  0  0  0  0  0  0  0  0  0
  147.0208  133.8686  150.5267 H   0  0  0  0  0  0  0  0  0  0  0  0
  145.9110  133.7425  151.8704 H   0  0  0  0  0  0  0  0  0  0  0  0
  149.0924  132.2647  153.1118 H   0  0  0  0  0  0  0  0  0  0  0  0
  149.0386  133.5891  151.9836 H   0  0  0  0  0  0  0  0  0  0  0  0
  147.1557  134.6619  153.1624 H   0  0  0  0  0  0  0  0  0  0  0  0
  147.1775  133.4223  154.3950 H   0  0  0  0  0  0  0  0  0  0  0  0
  149.7848  134.3716  154.2642 H   0  0  0  0  0  0  0  0  0  0  0  0
  149.6300  136.3473  156.9610 H   0  0  0  0  0  0  0  0  0  0  0  0
  150.9756  134.4613  156.0625 H   0  0  0  0  0  0  0  0  0  0  0  0
  151.9549  135.9106  156.2315 H   0  0  0  0  0  0  0  0  0  0  0  0
  151.3964  135.4126  154.6395 H   0  0  0  0  0  0  0  0  0  0  0  0
  150.5077  137.5573  153.3646 H   0  0  0  0  0  0  0  0  0  0  0  0
  150.1691  140.7928  155.8955 H   0  0  0  0  0  0  0  0  0  0  0  0
  147.8994  131.7180  151.1343 H   0  0  0  0  0  0  0  0  0  0  0  0
  1  2  1  0  0  0  0
  1 20  1  0  0  0  0
  1 21  1  0  0  0  0
  1 22  1  0  0  0  0
  2  7  1  0  0  0  0
  2  3  1  0  0  0  0
  2 23  1  0  0  0  0
  3  4  1  0  0  0  0
  3 24  1  0  0  0  0
  3 25  1  0  0  0  0
  4  5  1  0  0  0  0
  4 26  1  0  0  0  0
  4 27  1  0  0  0  0
  5  6  1  0  0  0  0
  5 28  1  0  0  0  0
  5 29  1  0  0  0  0
  6  7  1  0  0  0  0
  6 30  1  0  0  0  0
  6 31  1  0  0  0  0
  7  8  1  0  0  0  0
  7 43  1  0  0  0  0
  8  9  1  0  0  0  0
  8 32  1  0  0  0  0
  8 33  1  0  0  0  0
  9 10  1  0  0  0  0
  9 34  1  0  0  0  0
  9 35  1  0  0  0  0
 10 11  1  0  0  0  0
 10 36  1  0  0  0  0
 11 12  2  0  0  0  0
 11 13  1  0  0  0  0
 13 14  1  0  0  0  0
 13 15  1  0  0  0  0
 13 37  1  0  0  0  0
 14 38  1  0  0  0  0
 14 39  1  0  0  0  0
 14 40  1  0  0  0  0
 15 19  1  0  0  0  0
 15 16  1  0  0  0  0
 16 17  2  0  0  0  0
 16 41  1  0  0  0  0
 17 18  1  0  0  0  0
 18 19  2  0  0  0  0
 18 42  1  0  0  0  0
M  CHG  1   7   1
M  END
> <s_m_source_file>
AV-unprocessed.smi

> <i_m_source_file_index>
1893

> <i_lp_mmshare_version>
43012

> <i_f3d_flags>
0

> <s_epik_input>
W0NIM11bQ0BASF0xW0NIMl1bQ0gyXVtDSDJdW0NIMl1OMVtDSDJdW0NIMl1bTkhdQyg9TylbQ0BIXShbQ0gzXSluMltjSF1uW2NIXW4y

> <s_epik_cmdline>
J2VwaWtfcHl0aG9uJywgJy1waCcsICc3LjAnLCAnLXRuJywgJzgnLCAnLW1hJywgJzIwMCcsICctbWV0YWxfYmluZGluZycsICctaW1hZScsICc8aW5maWxlLm1hZT4nLCAnLW9tYWUnLCAnPG91dGZpbGUubWFlPic=

> <r_lp_tautomer_probability>
1

> <r_epik_Ionization_Penalty>
0.00266409

> <r_epik_Ionization_Penalty_Charging>
0.00265606

> <r_epik_Ionization_Penalty_Neutral>
8.02794e-06

> <r_epik_State_Penalty>
0.00184955

> <r_epik_Charging_Adjusted_Penalty>
0.00450561

> <i_epik_Tot_Q>
1

> <i_epik_Tot_abs_Q>
1

> <r_epik_Metal_State_Penalty>
-0

> <b_epik_Metal_Only>
0

> <s_lp_Force_Field>
OPLS_2005

> <r_lp_Energy>
24.8268

> <b_lp_Chiralities_Consistent>
1

> <s_lp_Variant>
AV-unprocessed.smi:1893-5

> <Gold.Version>
5.8.1

> <Gold.Id.Protein>
6NUR|6NUR_protein|mol2

> <Gold.PLP.Fitness>
39.0653

> <Gold.PLP.PLP>
-29.9851

> <Gold.PLP.part.hbond>
-3.0000

> <Gold.PLP.part.metal>
0.0000

> <Gold.PLP.part.buried>
-3.1413

> <Gold.PLP.part.nonpolar>
-24.5632

> <Gold.PLP.part.repulsive>
0.2696

> <Gold.PLP.ligand.clash>
0.0663

> <Gold.PLP.ligand.torsion>
0.2121

> <Gold.PLP.Chemscore.Hbond>
2.0000

> <Gold.PLP.Chemscore.CHOScore>
1.1627

> <Gold.PLP.Chemscore.Metal>
0.0000

> <Gold.Chemscore.Hbonds>
donor molecule, donor type, donor heavy atom, donor atom, acceptor molecule, acceptor atom, score
      L1  H     7    43       P1 10747  1.00
      P1  H  7989  7998       L1    17  1.00
      L1  C    16    41       P1  7948  0.64
      L1  C    16    41       P1  7949  0.53

> <Gold.PLP.Chemscore.Internal.Correction>
0.0824

> <Gold.Rescore>
     Score         DG    S(hbond)    S(metal)    S(lipo)     H(rot)  DE(clash)    DE(int)     intcor
     13.21     -13.61       1.92        0.00      70.28       2.54       0.23       0.16       ----

> <Gold.Chemscore.Fitness>
13.2135

> <Gold.Chemscore.DG>
-13.6064

> <Gold.Chemscore.ZeroCoef>
-5.4800

> <Gold.Chemscore.Hbond>
1.9162

> <Gold.Chemscore.Metal>
0.0000

> <Gold.Chemscore.Lipo>
70.2823

> <Gold.Chemscore.Internal_Hbond>
0.0000

> <Gold.Chemscore.DEClash>
0.2332

> <Gold.Chemscore.DEInternal>
0.1598

> <Gold.Chemscore.Rot>
2.5377

> <Gold.Chemscore.Internal.Correction>
   9.000000E+99

> <Gold.Chemscore.Hbonds>
donor molecule, donor type, donor heavy atom, donor atom, acceptor molecule, acceptor atom, score
      L1  H     7    43       P1 10747  0.99
      P1  H  7989  7998       L1    17  0.74

> <Gold.Chemscore.Hbond.Weighted>
-6.4000

> <Gold.Chemscore.Metal.Weighted>
-0.0000

> <Gold.Chemscore.Lipo.Weighted>
-8.2230

> <Gold.Chemscore.Internal_Hbond.Weighted>
0.0000

> <Gold.Chemscore.DEClash.Weighted>
0.2332

> <Gold.Chemscore.DEInternal.Weighted>
0.1598

> <Gold.Chemscore.Rot.Weighted>
6.4966

> <Gold.Chemscore.Internal.Correction.Weighted>
   9.000000E+99

> <Gold.Protein.RotatedTorsions>
[ 6907 6896 6895 6894 ] final  -74.25 input  -60.11 | X-H torsion
[ 7974 7965 7964 7962 ] final  144.36 input  175.53 | X-H torsion
[ 8008 7997 7996 7995 ] final -127.41 input   59.86 | X-H torsion
[ 10167 10162 10161 10158 ] final  -33.63 input  -65.29 | X-H torsion
[ 10718 10713 10712 10709 ] final   97.54 input   66.30 | X-H torsion
[ 10763 10752 10751 10750 ] final   51.96 input  -60.55 | X-H torsion
[ 11005 11000 10999 10996 ] final -115.43 input  -57.11 | X-H torsion

> <Gold.Protein.ActiveResidues>
 VAL166  LYS551  ARG553  GLY616  TRP617  ASP618  TYR619  PRO620  LYS621  CYS622 
 ASP623  PHE694  ASN695  SER759  ASP760  ASP761  ALA762  ILE779  LEU786  VAL792 
 PHE793  MET794  SER795  GLU796  ALA797  LYS798  CYS799  TRP800  GLU811  SER814 

> <Gold.Protein.RotatedAtoms>
  150.7100  134.4896  159.5509 H   0  0  0  0  0  0  0  0  0  0  0  0  # atno 6907 bound_to 6896
  152.2516  134.8123  160.0454 H   0  0  0  0  0  0  0  0  0  0  0  0  # atno 6908 bound_to 6896
  151.8869  133.3472  159.3822 H   0  0  0  0  0  0  0  0  0  0  0  0  # atno 6909 bound_to 6896
  144.8842  139.5654  143.5828 H   0  0  0  0  0  0  0  0  0  0  0  0  # atno 7974 bound_to 7965
  155.2458  140.0430  157.2980 H   0  0  0  0  0  0  0  0  0  0  0  0  # atno 8008 bound_to 7997
  154.5800  140.2398  155.8037 H   0  0  0  0  0  0  0  0  0  0  0  0  # atno 8009 bound_to 7997
  156.2186  140.2977  155.9906 H   0  0  0  0  0  0  0  0  0  0  0  0  # atno 8010 bound_to 7997
  140.7201  143.3606  151.1971 H   0  0  0  0  0  0  0  0  0  0  0  0  # atno 10167 bound_to 10162
  157.6911  131.0612  150.4659 H   0  0  0  0  0  0  0  0  0  0  0  0  # atno 10718 bound_to 10713
  152.9787  135.5828  154.4500 H   0  0  0  0  0  0  0  0  0  0  0  0  # atno 10763 bound_to 10752
  154.4090  135.2770  155.2051 H   0  0  0  0  0  0  0  0  0  0  0  0  # atno 10764 bound_to 10752
  154.3849  135.6138  153.5865 H   0  0  0  0  0  0  0  0  0  0  0  0  # atno 10765 bound_to 10752
  141.0488  133.9720  157.2871 H   0  0  0  0  0  0  0  0  0  0  0  0  # atno 11005 bound_to 11000
  146.3014  139.7438  142.9088 LP  0  0  0  0  0  0  0  0  0  0  0  0  # atno 17320 bound_to 7965
  145.3899  141.0371  143.3130 LP  0  0  0  0  0  0  0  0  0  0  0  0  # atno 17321 bound_to 7965
  139.7157  143.9304  152.2966 LP  0  0  0  0  0  0  0  0  0  0  0  0  # atno 17342 bound_to 10162
  139.9044  144.6893  150.8630 LP  0  0  0  0  0  0  0  0  0  0  0  0  # atno 17343 bound_to 10162
  156.5000  130.4115  149.6358 LP  0  0  0  0  0  0  0  0  0  0  0  0  # atno 17370 bound_to 10713
  156.3337  130.7345  151.2279 LP  0  0  0  0  0  0  0  0  0  0  0  0  # atno 17371 bound_to 10713
  139.9334  135.0198  156.8475 LP  0  0  0  0  0  0  0  0  0  0  0  0  # atno 17394 bound_to 11000
  140.6095  134.0096  155.7570 LP  0  0  0  0  0  0  0  0  0  0  0  0  # atno 17395 bound_to 11000

$$$$
