AV-unprocessed.smi:937|AV-procd|sdf|4209|dock9
  -GOLD-   22720 2113D 1   1.00000     0.00000
 Structure written by MMmdl.
 45 46  0  0  0  0  0  0  0  0  1 V2000
  145.9793  130.2280  151.3454 C   0  0  0  0  0  0  0  0  0  0  0  0
  145.7147  131.7190  151.3300 C   0  0  0  0  0  0  0  0  0  0  0  0
  144.4143  132.2163  151.1039 C   0  0  0  0  0  0  0  0  0  0  0  0
  144.2218  133.6110  151.0959 C   0  0  0  0  0  0  0  0  0  0  0  0
  145.3325  134.4517  151.3129 C   0  0  0  0  0  0  0  0  0  0  0  0
  145.1762  135.9591  151.3085 C   0  0  0  0  0  0  0  0  0  0  0  0
  144.3729  136.4591  152.5196 C   0  0  0  0  0  0  0  0  0  0  0  0
  144.7998  137.7917  152.9270 N   0  0  0  0  0  0  0  0  0  0  0  0
  145.4533  138.0754  154.0662 C   0  0  0  0  0  0  0  0  0  0  0  0
  145.7500  137.2272  154.9056 O   0  0  0  0  0  0  0  0  0  0  0  0
  145.7690  139.3725  154.2293 N   0  0  0  0  0  0  0  0  0  0  0  0
  146.4733  140.0109  155.3460 C   0  0  2  0  0  0  0  0  0  0  0  0
  146.7936  141.4910  155.0448 C   0  0  0  0  0  0  0  0  0  0  0  0
  147.8659  141.6392  153.9534 C   0  0  0  0  0  0  0  0  0  0  0  0
  149.1416  140.8630  154.3156 C   0  0  0  0  0  0  0  0  0  0  0  0
  148.8465  139.3717  154.5808 C   0  0  1  0  0  0  0  0  0  0  0  0
  150.1248  138.5821  154.9311 C   0  0  0  0  0  0  0  0  0  0  0  0
  150.9693  138.5627  153.8995 F   0  0  0  0  0  0  0  0  0  0  0  0
  150.7340  139.1420  155.9762 F   0  0  0  0  0  0  0  0  0  0  0  0
  149.8122  137.3277  155.2559 F   0  0  0  0  0  0  0  0  0  0  0  0
  147.7617  139.2294  155.6737 C   0  0  0  0  0  0  0  0  0  0  0  0
  146.5921  133.8534  151.5269 C   0  0  0  0  0  0  0  0  0  0  0  0
  146.7861  132.5169  151.5355 N   0  0  0  0  0  0  0  0  0  0  0  0
  145.0790  129.6767  151.6182 H   0  0  0  0  0  0  0  0  0  0  0  0
  146.7589  129.9774  152.0656 H   0  0  0  0  0  0  0  0  0  0  0  0
  146.3010  129.8933  150.3590 H   0  0  0  0  0  0  0  0  0  0  0  0
  143.5826  131.5469  150.9397 H   0  0  0  0  0  0  0  0  0  0  0  0
  143.2393  134.0263  150.9240 H   0  0  0  0  0  0  0  0  0  0  0  0
  146.1677  136.4141  151.2966 H   0  0  0  0  0  0  0  0  0  0  0  0
  144.6872  136.2644  150.3824 H   0  0  0  0  0  0  0  0  0  0  0  0
  143.3120  136.5024  152.2715 H   0  0  0  0  0  0  0  0  0  0  0  0
  144.4684  135.7646  153.3563 H   0  0  0  0  0  0  0  0  0  0  0  0
  144.5936  138.5515  152.2949 H   0  0  0  0  0  0  0  0  0  0  0  0
  145.4711  139.9957  153.4926 H   0  0  0  0  0  0  0  0  0  0  0  0
  145.8344  139.9633  156.2292 H   0  0  0  0  0  0  0  0  0  0  0  0
  145.8916  142.0313  154.7557 H   0  0  0  0  0  0  0  0  0  0  0  0
  147.1498  141.9706  155.9573 H   0  0  0  0  0  0  0  0  0  0  0  0
  147.4756  141.2805  153.0002 H   0  0  0  0  0  0  0  0  0  0  0  0
  148.1031  142.6936  153.8099 H   0  0  0  0  0  0  0  0  0  0  0  0
  149.8663  140.9642  153.5073 H   0  0  0  0  0  0  0  0  0  0  0  0
  149.6005  141.3115  155.1975 H   0  0  0  0  0  0  0  0  0  0  0  0
  148.4508  138.9451  153.6577 H   0  0  0  0  0  0  0  0  0  0  0  0
  148.1604  139.5907  156.6225 H   0  0  0  0  0  0  0  0  0  0  0  0
  147.5214  138.1773  155.8315 H   0  0  0  0  0  0  0  0  0  0  0  0
  147.4687  134.4622  151.6930 H   0  0  0  0  0  0  0  0  0  0  0  0
  1  2  1  0  0  0  0
  1 24  1  0  0  0  0
  1 25  1  0  0  0  0
  1 26  1  0  0  0  0
  2 23  1  0  0  0  0
  2  3  2  0  0  0  0
  3  4  1  0  0  0  0
  3 27  1  0  0  0  0
  4  5  2  0  0  0  0
  4 28  1  0  0  0  0
  5  6  1  0  0  0  0
  5 22  1  0  0  0  0
  6  7  1  0  0  0  0
  6 29  1  0  0  0  0
  6 30  1  0  0  0  0
  7  8  1  0  0  0  0
  7 31  1  0  0  0  0
  7 32  1  0  0  0  0
  8  9  1  0  0  0  0
  8 33  1  0  0  0  0
  9 10  2  0  0  0  0
  9 11  1  0  0  0  0
 11 12  1  0  0  0  0
 11 34  1  0  0  0  0
 12 21  1  0  0  0  0
 12 13  1  0  0  0  0
 12 35  1  0  0  0  0
 13 14  1  0  0  0  0
 13 36  1  0  0  0  0
 13 37  1  0  0  0  0
 14 15  1  0  0  0  0
 14 38  1  0  0  0  0
 14 39  1  0  0  0  0
 15 16  1  0  0  0  0
 15 40  1  0  0  0  0
 15 41  1  0  0  0  0
 16 17  1  0  0  0  0
 16 21  1  0  0  0  0
 16 42  1  0  0  0  0
 17 18  1  0  0  0  0
 17 19  1  0  0  0  0
 17 20  1  0  0  0  0
 21 43  1  0  0  0  0
 21 44  1  0  0  0  0
 22 23  2  0  0  0  0
 22 45  1  0  0  0  0
M  END
> <s_m_source_file>
AV-unprocessed.smi

> <i_m_source_file_index>
937

> <i_lp_mmshare_version>
43012

> <i_f3d_flags>
0

> <s_epik_input>
W0NIM11jMVtjSF1bY0hdYyhbY0hdbjEpW0NIMl1bQ0gyXVtOSF1DKD1PKVtOSF1bQ0BASF0yW0NIMl1bQ0gyXVtDSDJdW0NAQEhdKEMoRikoRilGKVtDSDJdMg==

> <s_epik_cmdline>
J2VwaWtfcHl0aG9uJywgJy1waCcsICc3LjAnLCAnLXRuJywgJzgnLCAnLW1hJywgJzIwMCcsICctbWV0YWxfYmluZGluZycsICctaW1hZScsICc8aW5maWxlLm1hZT4nLCAnLW9tYWUnLCAnPG91dGZpbGUubWFlPic=

> <r_epik_Ionization_Penalty>
0.0563445

> <r_epik_Ionization_Penalty_Charging>
0

> <r_epik_Ionization_Penalty_Neutral>
0.0563445

> <r_epik_State_Penalty>
0.0485409

> <r_epik_Charging_Adjusted_Penalty>
0.0485409

> <i_epik_Tot_Q>
0

> <i_epik_Tot_abs_Q>
0

> <r_epik_Metal_State_Penalty>
0.0443056

> <b_epik_Metal_Only>
0

> <s_lp_Force_Field>
OPLS_2005

> <r_lp_Energy>
16.8022

> <b_lp_Chiralities_Consistent>
1

> <s_lp_Variant>
AV-unprocessed.smi:937-1

> <Gold.Version>
5.8.1

> <Gold.Id.Protein>
6NUR|6NUR_protein|mol2

> <Gold.PLP.Fitness>
44.0928

> <Gold.PLP.PLP>
-37.1428

> <Gold.PLP.part.hbond>
-2.0000

> <Gold.PLP.part.metal>
0.0000

> <Gold.PLP.part.buried>
-6.9403

> <Gold.PLP.part.nonpolar>
-29.4892

> <Gold.PLP.part.repulsive>
0.1814

> <Gold.PLP.ligand.clash>
0.0000

> <Gold.PLP.ligand.torsion>
0.4642

> <Gold.PLP.Chemscore.Hbond>
1.6160

> <Gold.PLP.Chemscore.CHOScore>
1.0000

> <Gold.PLP.Chemscore.Metal>
0.0000

> <Gold.Chemscore.Hbonds>
donor molecule, donor type, donor heavy atom, donor atom, acceptor molecule, acceptor atom, score
      L1  H     8    33       P1 10175  0.57
      L1  H    11    34       P1 10175  0.61
      L1  C    22    45       P1  7948  1.00

> <Gold.PLP.Chemscore.Internal.Correction>
0.0304

> <Gold.Rescore>
     Score         DG    S(hbond)    S(metal)    S(lipo)     H(rot)  DE(clash)    DE(int)     intcor
     15.18     -17.03       1.67        0.00      85.81       1.58       0.04       1.81       ----

> <Gold.Chemscore.Fitness>
15.1792

> <Gold.Chemscore.DG>
-17.0281

> <Gold.Chemscore.ZeroCoef>
-5.4800

> <Gold.Chemscore.Hbond>
1.6665

> <Gold.Chemscore.Metal>
0.0000

> <Gold.Chemscore.Lipo>
85.8067

> <Gold.Chemscore.Internal_Hbond>
0.0000

> <Gold.Chemscore.DEClash>
0.0406

> <Gold.Chemscore.DEInternal>
1.8083

> <Gold.Chemscore.Rot>
1.5849

> <Gold.Chemscore.Internal.Correction>
   9.000000E+99

> <Gold.Chemscore.Hbonds>
donor molecule, donor type, donor heavy atom, donor atom, acceptor molecule, acceptor atom, score
      L1  H     8    33       P1 10175  0.57
      L1  H    11    34       P1 10175  0.60

> <Gold.Chemscore.Hbond.Weighted>
-5.5661

> <Gold.Chemscore.Metal.Weighted>
-0.0000

> <Gold.Chemscore.Lipo.Weighted>
-10.0394

> <Gold.Chemscore.Internal_Hbond.Weighted>
0.0000

> <Gold.Chemscore.DEClash.Weighted>
0.0406

> <Gold.Chemscore.DEInternal.Weighted>
1.8083

> <Gold.Chemscore.Rot.Weighted>
4.0574

> <Gold.Chemscore.Internal.Correction.Weighted>
   9.000000E+99

> <Gold.Protein.RotatedTorsions>
[ 6907 6896 6895 6894 ] final  124.60 input  -60.11 | X-H torsion
[ 7974 7965 7964 7962 ] final   27.70 input  175.53 | X-H torsion
[ 8008 7997 7996 7995 ] final  -54.16 input   59.86 | X-H torsion
[ 10167 10162 10161 10158 ] final -101.72 input  -65.29 | X-H torsion
[ 10718 10713 10712 10709 ] final  -31.23 input   66.30 | X-H torsion
[ 10763 10752 10751 10750 ] final   87.39 input  -60.55 | X-H torsion
[ 11005 11000 10999 10996 ] final   21.65 input  -57.11 | X-H torsion

> <Gold.Protein.ActiveResidues>
 VAL166  LYS551  ARG553  GLY616  TRP617  ASP618  TYR619  PRO620  LYS621  CYS622 
 ASP623  PHE694  ASN695  SER759  ASP760  ASP761  ALA762  ILE779  LEU786  VAL792 
 PHE793  MET794  SER795  GLU796  ALA797  LYS798  CYS799  TRP800  GLU811  SER814 

> <Gold.Protein.RotatedAtoms>
  152.4064  133.6896  159.6359 H   0  0  0  0  0  0  0  0  0  0  0  0  # atno 6907 bound_to 6896
  150.7949  133.8701  159.3265 H   0  0  0  0  0  0  0  0  0  0  0  0  # atno 6908 bound_to 6896
  151.6454  135.1009  160.0201 H   0  0  0  0  0  0  0  0  0  0  0  0  # atno 6909 bound_to 6896
  146.1770  139.7155  142.8928 H   0  0  0  0  0  0  0  0  0  0  0  0  # atno 7974 bound_to 7965
  154.4154  140.1183  156.5270 H   0  0  0  0  0  0  0  0  0  0  0  0  # atno 8008 bound_to 7997
  155.6644  140.3496  155.4775 H   0  0  0  0  0  0  0  0  0  0  0  0  # atno 8009 bound_to 7997
  155.9686  140.1137  157.0822 H   0  0  0  0  0  0  0  0  0  0  0  0  # atno 8010 bound_to 7997
  140.2383  143.3557  152.0825 H   0  0  0  0  0  0  0  0  0  0  0  0  # atno 10167 bound_to 10162
  156.3899  130.4371  149.7403 H   0  0  0  0  0  0  0  0  0  0  0  0  # atno 10718 bound_to 10713
  153.1664  135.4545  154.9842 H   0  0  0  0  0  0  0  0  0  0  0  0  # atno 10763 bound_to 10752
  154.7934  135.3229  154.7725 H   0  0  0  0  0  0  0  0  0  0  0  0  # atno 10764 bound_to 10752
  153.8208  135.6947  153.4882 H   0  0  0  0  0  0  0  0  0  0  0  0  # atno 10765 bound_to 10752
  140.3892  134.1837  155.7662 H   0  0  0  0  0  0  0  0  0  0  0  0  # atno 11005 bound_to 11000
  145.4185  141.0404  143.2977 LP  0  0  0  0  0  0  0  0  0  0  0  0  # atno 17320 bound_to 7965
  144.8252  139.5723  143.6969 LP  0  0  0  0  0  0  0  0  0  0  0  0  # atno 17321 bound_to 7965
  139.5086  144.6853  151.5904 LP  0  0  0  0  0  0  0  0  0  0  0  0  # atno 17342 bound_to 10162
  140.6133  143.9395  150.6470 LP  0  0  0  0  0  0  0  0  0  0  0  0  # atno 17343 bound_to 10162
  156.4460  130.7884  151.2905 LP  0  0  0  0  0  0  0  0  0  0  0  0  # atno 17370 bound_to 10713
  157.7498  131.0110  150.3328 LP  0  0  0  0  0  0  0  0  0  0  0  0  # atno 17371 bound_to 10713
  141.1897  133.8234  157.0948 LP  0  0  0  0  0  0  0  0  0  0  0  0  # atno 17394 bound_to 11000
  140.0419  134.9850  157.0978 LP  0  0  0  0  0  0  0  0  0  0  0  0  # atno 17395 bound_to 11000

$$$$
