AV-unprocessed.smi:149|AV-procd|sdf|1234|dock2
  -GOLD-   2262018443D 1   1.00000     0.00000
 Structure written by MMmdl.
 60 64  0  0  0  0  0  0  0  0  2 V2000
  149.5338  132.6809  155.0045 C   0  0  0  0  0  0  0  0  0  0  0  0
  149.7205  134.1727  154.6654 C   0  0  2  0  0  0  0  0  0  0  0  0
  150.7841  134.7937  155.5910 C   0  0  0  0  0  0  0  0  0  0  0  0
  150.2558  136.0667  156.0490 N   0  0  0  0  0  0  0  0  0  0  0  0
  151.0829  137.0421  156.5113 C   0  0  0  0  0  0  0  0  0  0  0  0
  152.3969  136.7451  156.6959 N   0  0  0  0  0  0  0  0  0  0  0  0
  153.2467  137.6714  157.1465 C   0  0  0  0  0  0  0  0  0  0  0  0
  152.9997  138.9411  157.4667 N   0  0  0  0  0  0  0  0  0  0  0  0
  151.6872  139.2573  157.2754 C   0  0  0  0  0  0  0  0  0  0  0  0
  150.6701  138.3769  156.8030 C   0  0  0  0  0  0  0  0  0  0  0  0
  149.4619  139.0612  156.7274 N   0  0  0  0  0  0  0  0  0  0  0  0
  149.7450  140.2666  157.1372 C   0  0  0  0  0  0  0  0  0  0  0  0
  151.0591  140.4745  157.4889 N   0  0  0  0  0  0  0  0  0  0  0  0
  151.6286  141.7032  157.9691 C   0  0  0  0  0  0  0  0  0  0  0  0
  152.1072  141.8497  159.4161 C   0  0  0  0  0  0  0  0  0  0  0  0
  151.6833  143.3378  159.3937 C   0  0  0  0  0  0  0  0  0  0  0  0
  150.9882  143.8919  160.6535 C   0  0  0  0  0  0  0  0  0  0  0  0
  151.5614  143.4017  161.8495 O   0  0  0  0  0  0  0  0  0  0  0  0
  152.7935  144.3341  159.0099 C   0  0  0  0  0  0  0  0  0  0  0  0
  152.2737  145.6239  158.7566 O   0  0  0  0  0  0  0  0  0  0  0  0
  150.7618  142.9412  158.2161 C   0  0  0  0  0  0  0  0  0  0  0  0
  149.0635  136.3967  155.2925 C   0  0  0  0  0  0  0  0  0  0  0  0
  148.4612  135.0535  154.8602 C   0  0  1  0  0  0  0  0  0  0  0  0
  147.5912  135.2307  153.6544 N   0  3  0  0  0  0  0  0  0  0  0  0
  146.8595  134.0277  153.1835 C   0  0  0  0  0  0  0  0  0  0  0  0
  145.6645  133.7118  154.1020 C   0  0  0  0  0  0  0  0  0  0  0  0
  144.7906  134.8340  154.1329 O   0  0  0  0  0  0  0  0  0  0  0  0
  145.4250  136.0008  154.6439 C   0  0  0  0  0  0  0  0  0  0  0  0
  146.6371  136.3668  153.7633 C   0  0  0  0  0  0  0  0  0  0  0  0
  149.1817  132.5521  156.0286 H   0  0  0  0  0  0  0  0  0  0  0  0
  150.4794  132.1456  154.9144 H   0  0  0  0  0  0  0  0  0  0  0  0
  148.8227  132.1794  154.3527 H   0  0  0  0  0  0  0  0  0  0  0  0
  150.0746  134.2757  153.6386 H   0  0  0  0  0  0  0  0  0  0  0  0
  150.9687  134.1623  156.4610 H   0  0  0  0  0  0  0  0  0  0  0  0
  151.7295  134.9215  155.0618 H   0  0  0  0  0  0  0  0  0  0  0  0
  154.2710  137.3504  157.2668 H   0  0  0  0  0  0  0  0  0  0  0  0
  148.9947  141.0422  157.1929 H   0  0  0  0  0  0  0  0  0  0  0  0
  152.4429  141.9534  157.2865 H   0  0  0  0  0  0  0  0  0  0  0  0
  151.5313  141.2438  160.1163 H   0  0  0  0  0  0  0  0  0  0  0  0
  153.1753  141.6770  159.5509 H   0  0  0  0  0  0  0  0  0  0  0  0
  151.0444  144.9801  160.6868 H   0  0  0  0  0  0  0  0  0  0  0  0
  149.9294  143.6313  160.6585 H   0  0  0  0  0  0  0  0  0  0  0  0
  151.2623  142.5160  161.9859 H   0  0  0  0  0  0  0  0  0  0  0  0
  153.5344  144.4252  159.8045 H   0  0  0  0  0  0  0  0  0  0  0  0
  153.3355  143.9954  158.1263 H   0  0  0  0  0  0  0  0  0  0  0  0
  151.4519  145.5324  158.2988 H   0  0  0  0  0  0  0  0  0  0  0  0
  150.7506  143.6501  157.3876 H   0  0  0  0  0  0  0  0  0  0  0  0
  149.7443  142.6908  158.5173 H   0  0  0  0  0  0  0  0  0  0  0  0
  148.3655  136.9735  155.9004 H   0  0  0  0  0  0  0  0  0  0  0  0
  149.3450  136.9964  154.4251 H   0  0  0  0  0  0  0  0  0  0  0  0
  147.8814  134.6481  155.6900 H   0  0  0  0  0  0  0  0  0  0  0  0
  146.4822  134.2347  152.1811 H   0  0  0  0  0  0  0  0  0  0  0  0
  147.5201  133.1726  153.0611 H   0  0  0  0  0  0  0  0  0  0  0  0
  145.1161  132.8508  153.7201 H   0  0  0  0  0  0  0  0  0  0  0  0
  145.9894  133.4587  155.1120 H   0  0  0  0  0  0  0  0  0  0  0  0
  144.7040  136.8185  154.6428 H   0  0  0  0  0  0  0  0  0  0  0  0
  145.7177  135.8442  155.6827 H   0  0  0  0  0  0  0  0  0  0  0  0
  147.1237  137.2673  154.1356 H   0  0  0  0  0  0  0  0  0  0  0  0
  146.2861  136.6140  152.7604 H   0  0  0  0  0  0  0  0  0  0  0  0
  148.2303  135.4689  152.9093 H   0  0  0  0  0  0  0  0  0  0  0  0
  1  2  1  0  0  0  0
  1 30  1  0  0  0  0
  1 31  1  0  0  0  0
  1 32  1  0  0  0  0
  2 23  1  0  0  0  0
  2  3  1  0  0  0  0
  2 33  1  0  0  0  0
  3  4  1  0  0  0  0
  3 34  1  0  0  0  0
  3 35  1  0  0  0  0
  4  5  1  0  0  0  0
  4 22  1  0  0  0  0
  5 10  1  0  0  0  0
  5  6  2  0  0  0  0
  6  7  1  0  0  0  0
  7  8  2  0  0  0  0
  7 36  1  0  0  0  0
  8  9  1  0  0  0  0
  9 13  1  0  0  0  0
  9 10  2  0  0  0  0
 10 11  1  0  0  0  0
 11 12  2  0  0  0  0
 12 13  1  0  0  0  0
 12 37  1  0  0  0  0
 13 14  1  0  0  0  0
 14 21  1  0  0  0  0
 14 15  1  0  0  0  0
 14 38  1  0  0  0  0
 15 16  1  0  0  0  0
 15 39  1  0  0  0  0
 15 40  1  0  0  0  0
 16 17  1  0  0  0  0
 16 19  1  0  0  0  0
 16 21  1  0  0  0  0
 17 18  1  0  0  0  0
 17 41  1  0  0  0  0
 17 42  1  0  0  0  0
 18 43  1  0  0  0  0
 19 20  1  0  0  0  0
 19 44  1  0  0  0  0
 19 45  1  0  0  0  0
 20 46  1  0  0  0  0
 21 47  1  0  0  0  0
 21 48  1  0  0  0  0
 22 23  1  0  0  0  0
 22 49  1  0  0  0  0
 22 50  1  0  0  0  0
 23 24  1  0  0  0  0
 23 51  1  0  0  0  0
 24 29  1  0  0  0  0
 24 25  1  0  0  0  0
 24 60  1  0  0  0  0
 25 26  1  0  0  0  0
 25 52  1  0  0  0  0
 25 53  1  0  0  0  0
 26 27  1  0  0  0  0
 26 54  1  0  0  0  0
 26 55  1  0  0  0  0
 27 28  1  0  0  0  0
 28 29  1  0  0  0  0
 28 56  1  0  0  0  0
 28 57  1  0  0  0  0
 29 58  1  0  0  0  0
 29 59  1  0  0  0  0
M  CHG  1  24   1
M  END
> <s_m_source_file>
AV-unprocessed.smi

> <i_m_source_file_index>
149

> <i_lp_mmshare_version>
43012

> <i_f3d_flags>
0

> <s_epik_input>
W0NIMl0xW0NIMl1PW0NIMl1bQ0gyXU4xW0NAQEhdMltDSDJdTihbQ0gyXVtDQEhdMltDSDNdKWMobltjSF1uMyljKGMzNCluW2NIXW40W0NIXShbQ0gyXTUpW0NIMl1DNShbQ0gyXVtPSF0pW0NIMl1bT0hd

> <s_epik_cmdline>
J2VwaWtfcHl0aG9uJywgJy1waCcsICc3LjAnLCAnLXRuJywgJzgnLCAnLW1hJywgJzIwMCcsICctbWV0YWxfYmluZGluZycsICctaW1hZScsICc8aW5maWxlLm1hZT4nLCAnLW9tYWUnLCAnPG91dGZpbGUubWFlPic=

> <r_lp_tautomer_probability>
1

> <r_epik_Ionization_Penalty>
0.404847

> <r_epik_Ionization_Penalty_Charging>
0.404623

> <r_epik_Ionization_Penalty_Neutral>
0.000224096

> <r_epik_State_Penalty>
0.238803

> <r_epik_Charging_Adjusted_Penalty>
0.643425

> <i_epik_Tot_Q>
1

> <i_epik_Tot_abs_Q>
1

> <r_epik_Metal_State_Penalty>
0.239083

> <b_epik_Metal_Only>
0

> <s_lp_Force_Field>
OPLS_2005

> <r_lp_Energy>
72.409

> <b_lp_Chiralities_Consistent>
1

> <s_lp_Variant>
AV-unprocessed.smi:149-1

> <Gold.Version>
5.8.1

> <Gold.Id.Protein>
6NUR|6NUR_protein|mol2

> <Gold.PLP.Fitness>
47.2214

> <Gold.PLP.PLP>
-36.5382

> <Gold.PLP.part.hbond>
-4.9465

> <Gold.PLP.part.metal>
0.0000

> <Gold.PLP.part.buried>
-3.1141

> <Gold.PLP.part.nonpolar>
-27.7281

> <Gold.PLP.part.repulsive>
0.0749

> <Gold.PLP.ligand.clash>
0.0000

> <Gold.PLP.ligand.torsion>
1.0494

> <Gold.PLP.Chemscore.Hbond>
4.0000

> <Gold.PLP.Chemscore.CHOScore>
0.0000

> <Gold.PLP.Chemscore.Metal>
0.0000

> <Gold.Chemscore.Hbonds>
donor molecule, donor type, donor heavy atom, donor atom, acceptor molecule, acceptor atom, score
      L1  H    24    60       P1  7948  1.66
      P1  H  7997  8008       L1     8  0.99
      P1  H 10752 10763       L1     6  0.62

> <Gold.PLP.Chemscore.Internal.Correction>
0.7820

> <Gold.Rescore>
     Score         DG    S(hbond)    S(metal)    S(lipo)     H(rot)  DE(clash)    DE(int)     intcor
     15.04     -17.44       2.68        0.00      93.46       3.09       0.40       2.00       ----

> <Gold.Chemscore.Fitness>
15.0434

> <Gold.Chemscore.DG>
-17.4429

> <Gold.Chemscore.ZeroCoef>
-5.4800

> <Gold.Chemscore.Hbond>
2.6772

> <Gold.Chemscore.Metal>
0.0000

> <Gold.Chemscore.Lipo>
93.4574

> <Gold.Chemscore.Internal_Hbond>
0.0000

> <Gold.Chemscore.DEClash>
0.3952

> <Gold.Chemscore.DEInternal>
2.0043

> <Gold.Chemscore.Rot>
3.0912

> <Gold.Chemscore.Internal.Correction>
   9.000000E+99

> <Gold.Chemscore.Hbonds>
donor molecule, donor type, donor heavy atom, donor atom, acceptor molecule, acceptor atom, score
      L1  H    24    60       P1  7948  0.82
      P1  H  7997  8008       L1     8  0.50
      P1  H 10752 10763       L1     6  0.45

> <Gold.Chemscore.Hbond.Weighted>
-8.9419

> <Gold.Chemscore.Metal.Weighted>
-0.0000

> <Gold.Chemscore.Lipo.Weighted>
-10.9345

> <Gold.Chemscore.Internal_Hbond.Weighted>
0.0000

> <Gold.Chemscore.DEClash.Weighted>
0.3952

> <Gold.Chemscore.DEInternal.Weighted>
2.0043

> <Gold.Chemscore.Rot.Weighted>
7.9135

> <Gold.Chemscore.Internal.Correction.Weighted>
   9.000000E+99

> <Gold.Protein.RotatedTorsions>
[ 6907 6896 6895 6894 ] final -143.07 input  -60.11 | X-H torsion
[ 7974 7965 7964 7962 ] final    3.58 input  175.53 | X-H torsion
[ 8008 7997 7996 7995 ] final  -50.03 input   59.86 | X-H torsion
[ 10167 10162 10161 10158 ] final   67.28 input  -65.29 | X-H torsion
[ 10718 10713 10712 10709 ] final   98.87 input   66.30 | X-H torsion
[ 10763 10752 10751 10750 ] final   95.44 input  -60.55 | X-H torsion
[ 11005 11000 10999 10996 ] final -162.93 input  -57.11 | X-H torsion

> <Gold.Protein.ActiveResidues>
 VAL166  LYS551  ARG553  GLY616  TRP617  ASP618  TYR619  PRO620  LYS621  CYS622 
 ASP623  PHE694  ASN695  SER759  ASP760  ASP761  ALA762  ILE779  LEU786  VAL792 
 PHE793  MET794  SER795  GLU796  ALA797  LYS798  CYS799  TRP800  GLU811  SER814 

> <Gold.Protein.RotatedAtoms>
  151.0955  133.5283  159.2612 H   0  0  0  0  0  0  0  0  0  0  0  0  # atno 6907 bound_to 6896
  151.2134  135.0490  159.8930 H   0  0  0  0  0  0  0  0  0  0  0  0  # atno 6908 bound_to 6896
  152.5438  134.0767  159.8271 H   0  0  0  0  0  0  0  0  0  0  0  0  # atno 6909 bound_to 6896
  146.2445  140.0664  142.8365 H   0  0  0  0  0  0  0  0  0  0  0  0  # atno 7974 bound_to 7965
  154.4054  140.1282  156.4599 H   0  0  0  0  0  0  0  0  0  0  0  0  # atno 8008 bound_to 7997
  155.7283  140.3491  155.5028 H   0  0  0  0  0  0  0  0  0  0  0  0  # atno 8009 bound_to 7997
  155.9151  140.1042  157.1240 H   0  0  0  0  0  0  0  0  0  0  0  0  # atno 8010 bound_to 7997
  140.0912  144.4986  150.7097 H   0  0  0  0  0  0  0  0  0  0  0  0  # atno 10167 bound_to 10162
  157.6887  131.0653  150.4862 H   0  0  0  0  0  0  0  0  0  0  0  0  # atno 10718 bound_to 10713
  153.2532  135.4254  155.0819 H   0  0  0  0  0  0  0  0  0  0  0  0  # atno 10763 bound_to 10752
  154.8390  135.3431  154.6483 H   0  0  0  0  0  0  0  0  0  0  0  0  # atno 10764 bound_to 10752
  153.6904  135.7034  153.5148 H   0  0  0  0  0  0  0  0  0  0  0  0  # atno 10765 bound_to 10752
  140.6038  134.4920  157.5208 H   0  0  0  0  0  0  0  0  0  0  0  0  # atno 11005 bound_to 11000
  145.0854  140.9249  143.4800 LP  0  0  0  0  0  0  0  0  0  0  0  0  # atno 17320 bound_to 7965
  145.0826  139.2949  143.5776 LP  0  0  0  0  0  0  0  0  0  0  0  0  # atno 17321 bound_to 7965
  140.7027  143.2446  151.4817 LP  0  0  0  0  0  0  0  0  0  0  0  0  # atno 17342 bound_to 10162
  139.5723  144.1899  152.1854 LP  0  0  0  0  0  0  0  0  0  0  0  0  # atno 17343 bound_to 10162
  156.5191  130.4157  149.6260 LP  0  0  0  0  0  0  0  0  0  0  0  0  # atno 17370 bound_to 10713
  156.3170  130.7260  151.2164 LP  0  0  0  0  0  0  0  0  0  0  0  0  # atno 17371 bound_to 10713
  139.9221  134.8128  156.1179 LP  0  0  0  0  0  0  0  0  0  0  0  0  # atno 17394 bound_to 11000
  141.0855  133.6736  156.2426 LP  0  0  0  0  0  0  0  0  0  0  0  0  # atno 17395 bound_to 11000

$$$$
