AV-unprocessed.smi:2054|AV-procd|sdf|8333|dock1
  -GOLD-   2272011 03D 1   1.00000     0.00000
 Structure written by MMmdl.
 43 44  0  0  0  0  0  0  0  0  2 V2000
  142.8237  147.0461  154.1654 C   0  0  0  0  0  0  0  0  0  0  0  0
  142.1779  145.3306  154.0001 S   0  0  0  0  0  0  0  0  0  0  0  0
  141.0754  145.1767  154.9619 O   0  0  0  0  0  0  0  0  0  0  0  0
  141.9574  145.0331  152.5765 O   0  0  0  0  0  0  0  0  0  0  0  0
  143.5036  144.3536  154.5464 N   0  0  0  0  0  0  0  0  0  0  0  0
  143.8282  144.3940  155.9865 C   0  0  0  0  0  0  0  0  0  0  0  0
  144.7237  143.2144  156.3993 C   0  0  0  0  0  0  0  0  0  0  0  0
  145.9996  143.1589  155.5436 C   0  0  0  0  0  0  0  0  0  0  0  0
  146.8924  141.9772  155.9449 C   0  0  0  0  0  0  0  0  0  0  0  0
  146.4706  140.8227  155.8660 O   0  0  0  0  0  0  0  0  0  0  0  0
  148.1279  142.2777  156.3743 N   0  0  0  0  0  0  0  0  0  0  0  0
  149.1287  141.3008  156.7867 C   0  0  0  0  0  0  0  0  0  0  0  0
  150.5538  141.7688  156.4467 C   0  0  0  0  0  0  0  0  0  0  0  0
  151.0887  142.7598  157.4617 C   0  0  0  0  0  0  0  0  0  0  0  0
  152.0300  142.3926  158.4477 C   0  0  0  0  0  0  0  0  0  0  0  0
  152.4792  143.3642  159.3665 C   0  0  0  0  0  0  0  0  0  0  0  0
  151.9784  144.6798  159.2802 C   0  0  0  0  0  0  0  0  0  0  0  0
  151.0390  144.9913  158.2760 C   0  0  0  0  0  0  0  0  0  0  0  0
  150.6326  144.0327  157.4150 N   0  3  0  0  0  0  0  0  0  0  0  0
  145.5837  143.0644  154.0673 C   0  0  0  0  0  0  0  0  0  0  0  0
  144.6810  144.2412  153.6618 C   0  0  0  0  0  0  0  0  0  0  0  0
  142.0314  147.7522  153.9188 H   0  0  0  0  0  0  0  0  0  0  0  0
  143.6605  147.2001  153.4859 H   0  0  0  0  0  0  0  0  0  0  0  0
  143.1498  147.2144  155.1915 H   0  0  0  0  0  0  0  0  0  0  0  0
  144.3230  145.3401  156.2101 H   0  0  0  0  0  0  0  0  0  0  0  0
  142.9112  144.3746  156.5735 H   0  0  0  0  0  0  0  0  0  0  0  0
  144.9820  143.3077  157.4550 H   0  0  0  0  0  0  0  0  0  0  0  0
  144.1595  142.2852  156.3010 H   0  0  0  0  0  0  0  0  0  0  0  0
  146.5582  144.0852  155.6905 H   0  0  0  0  0  0  0  0  0  0  0  0
  148.3960  143.2510  156.4064 H   0  0  0  0  0  0  0  0  0  0  0  0
  149.0331  141.1015  157.8554 H   0  0  0  0  0  0  0  0  0  0  0  0
  148.9149  140.3615  156.2758 H   0  0  0  0  0  0  0  0  0  0  0  0
  151.2260  140.9111  156.3952 H   0  0  0  0  0  0  0  0  0  0  0  0
  150.5758  142.2358  155.4611 H   0  0  0  0  0  0  0  0  0  0  0  0
  152.4028  141.3802  158.5028 H   0  0  0  0  0  0  0  0  0  0  0  0
  153.1989  143.1031  160.1287 H   0  0  0  0  0  0  0  0  0  0  0  0
  152.3096  145.4385  159.9744 H   0  0  0  0  0  0  0  0  0  0  0  0
  150.6039  145.9702  158.1366 H   0  0  0  0  0  0  0  0  0  0  0  0
  146.4672  143.0485  153.4281 H   0  0  0  0  0  0  0  0  0  0  0  0
  145.0543  142.1281  153.8831 H   0  0  0  0  0  0  0  0  0  0  0  0
  144.3586  144.0999  152.6305 H   0  0  0  0  0  0  0  0  0  0  0  0
  145.2382  145.1783  153.6942 H   0  0  0  0  0  0  0  0  0  0  0  0
  149.9517  144.2802  156.6962 H   0  0  0  0  0  0  0  0  0  0  0  0
  1  2  1  0  0  0  0
  1 22  1  0  0  0  0
  1 23  1  0  0  0  0
  1 24  1  0  0  0  0
  2  3  2  0  0  0  0
  2  4  2  0  0  0  0
  2  5  1  0  0  0  0
  5 21  1  0  0  0  0
  5  6  1  0  0  0  0
  6  7  1  0  0  0  0
  6 25  1  0  0  0  0
  6 26  1  0  0  0  0
  7  8  1  0  0  0  0
  7 27  1  0  0  0  0
  7 28  1  0  0  0  0
  8  9  1  0  0  0  0
  8 20  1  0  0  0  0
  8 29  1  0  0  0  0
  9 10  2  0  0  0  0
  9 11  1  0  0  0  0
 11 12  1  0  0  0  0
 11 30  1  0  0  0  0
 12 13  1  0  0  0  0
 12 31  1  0  0  0  0
 12 32  1  0  0  0  0
 13 14  1  0  0  0  0
 13 33  1  0  0  0  0
 13 34  1  0  0  0  0
 14 19  1  0  0  0  0
 14 15  2  0  0  0  0
 15 16  1  0  0  0  0
 15 35  1  0  0  0  0
 16 17  2  0  0  0  0
 16 36  1  0  0  0  0
 17 18  1  0  0  0  0
 17 37  1  0  0  0  0
 18 19  2  0  0  0  0
 18 38  1  0  0  0  0
 19 43  1  0  0  0  0
 20 21  1  0  0  0  0
 20 39  1  0  0  0  0
 20 40  1  0  0  0  0
 21 41  1  0  0  0  0
 21 42  1  0  0  0  0
M  CHG  1  19   1
M  END
> <s_m_source_file>
AV-unprocessed.smi

> <i_m_source_file_index>
2054

> <i_lp_mmshare_version>
43012

> <i_f3d_flags>
0

> <s_epik_input>
W0NIM11TKD1PKSg9TylOMVtDSDJdW0NIMl1bQ0hdKFtDSDJdW0NIMl0xKUMoPU8pW05IXVtDSDJdW0NIMl1jMltjSF1bY0hdW2NIXVtjSF1uMg==

> <s_epik_cmdline>
J2VwaWtfcHl0aG9uJywgJy1waCcsICc3LjAnLCAnLXRuJywgJzgnLCAnLW1hJywgJzIwMCcsICctbWV0YWxfYmluZGluZycsICctaW1hZScsICc8aW5maWxlLm1hZT4nLCAnLW9tYWUnLCAnPG91dGZpbGUubWFlPic=

> <r_epik_Ionization_Penalty>
1.82741

> <r_epik_Ionization_Penalty_Charging>
1.82741

> <r_epik_Ionization_Penalty_Neutral>
1.85342e-08

> <r_epik_State_Penalty>
1.94311

> <r_epik_Charging_Adjusted_Penalty>
3.77052

> <i_epik_Tot_Q>
1

> <i_epik_Tot_abs_Q>
1

> <r_epik_Metal_State_Penalty>
1.96983

> <b_epik_Metal_Only>
0

> <s_lp_Force_Field>
OPLS_2005

> <r_lp_Energy>
8.70127

> <b_lp_Chiralities_Consistent>
1

> <s_lp_Variant>
AV-unprocessed.smi:2054-2

> <Gold.Version>
5.8.1

> <Gold.Id.Protein>
6NUR|6NUR_protein|mol2

> <Gold.PLP.Fitness>
46.6455

> <Gold.PLP.PLP>
-38.9126

> <Gold.PLP.part.hbond>
-3.7374

> <Gold.PLP.part.metal>
0.0000

> <Gold.PLP.part.buried>
-6.3403

> <Gold.PLP.part.nonpolar>
-29.1947

> <Gold.PLP.part.repulsive>
0.3110

> <Gold.PLP.ligand.clash>
0.0000

> <Gold.PLP.ligand.torsion>
0.8608

> <Gold.PLP.Chemscore.Hbond>
2.8960

> <Gold.PLP.Chemscore.CHOScore>
0.0000

> <Gold.PLP.Chemscore.Metal>
0.0000

> <Gold.Chemscore.Hbonds>
donor molecule, donor type, donor heavy atom, donor atom, acceptor molecule, acceptor atom, score
      L1  H    11    30       P1  8028  1.00
      L1  H    19    43       P1  8028  1.98

> <Gold.PLP.Chemscore.Internal.Correction>
0.7665

> <Gold.Rescore>
     Score         DG    S(hbond)    S(metal)    S(lipo)     H(rot)  DE(clash)    DE(int)     intcor
     14.62     -16.89       1.50        0.00      97.33       1.95       1.36       0.92       ----

> <Gold.Chemscore.Fitness>
14.6197

> <Gold.Chemscore.DG>
-16.8917

> <Gold.Chemscore.ZeroCoef>
-5.4800

> <Gold.Chemscore.Hbond>
1.4993

> <Gold.Chemscore.Metal>
0.0000

> <Gold.Chemscore.Lipo>
97.3279

> <Gold.Chemscore.Internal_Hbond>
0.0000

> <Gold.Chemscore.DEClash>
1.3552

> <Gold.Chemscore.DEInternal>
0.9168

> <Gold.Chemscore.Rot>
1.9466

> <Gold.Chemscore.Internal.Correction>
   9.000000E+99

> <Gold.Chemscore.Hbonds>
donor molecule, donor type, donor heavy atom, donor atom, acceptor molecule, acceptor atom, score
      L1  H    11    30       P1  8028  0.63
      L1  H    19    43       P1  8028  0.87

> <Gold.Chemscore.Hbond.Weighted>
-5.0075

> <Gold.Chemscore.Metal.Weighted>
-0.0000

> <Gold.Chemscore.Lipo.Weighted>
-11.3874

> <Gold.Chemscore.Internal_Hbond.Weighted>
0.0000

> <Gold.Chemscore.DEClash.Weighted>
1.3552

> <Gold.Chemscore.DEInternal.Weighted>
0.9168

> <Gold.Chemscore.Rot.Weighted>
4.9832

> <Gold.Chemscore.Internal.Correction.Weighted>
   9.000000E+99

> <Gold.Protein.RotatedTorsions>
[ 6907 6896 6895 6894 ] final -167.00 input  -60.11 | X-H torsion
[ 7974 7965 7964 7962 ] final  -40.17 input  175.53 | X-H torsion
[ 8008 7997 7996 7995 ] final -108.23 input   59.86 | X-H torsion
[ 10167 10162 10161 10158 ] final  163.93 input  -65.29 | X-H torsion
[ 10718 10713 10712 10709 ] final -177.81 input   66.30 | X-H torsion
[ 10763 10752 10751 10750 ] final  -91.87 input  -60.55 | X-H torsion
[ 11005 11000 10999 10996 ] final  -10.27 input  -57.11 | X-H torsion

> <Gold.Protein.ActiveResidues>
 VAL166  LYS551  ARG553  GLY616  TRP617  ASP618  TYR619  PRO620  LYS621  CYS622 
 ASP623  PHE694  ASN695  SER759  ASP760  ASP761  ALA762  ILE779  LEU786  VAL792 
 PHE793  MET794  SER795  GLU796  ALA797  LYS798  CYS799  TRP800  GLU811  SER814 

> <Gold.Protein.RotatedAtoms>
  151.4526  133.3613  159.2797 H   0  0  0  0  0  0  0  0  0  0  0  0  # atno 6907 bound_to 6896
  150.9081  134.8498  159.7417 H   0  0  0  0  0  0  0  0  0  0  0  0  # atno 6908 bound_to 6896
  152.4917  134.4453  159.9608 H   0  0  0  0  0  0  0  0  0  0  0  0  # atno 6909 bound_to 6896
  146.0329  140.6708  142.9124 H   0  0  0  0  0  0  0  0  0  0  0  0  # atno 7974 bound_to 7965
  154.9412  140.0403  157.2098 H   0  0  0  0  0  0  0  0  0  0  0  0  # atno 8008 bound_to 7997
  154.8067  140.2861  155.5860 H   0  0  0  0  0  0  0  0  0  0  0  0  # atno 8009 bound_to 7997
  156.2967  140.2545  156.2947 H   0  0  0  0  0  0  0  0  0  0  0  0  # atno 8010 bound_to 7997
  139.4881  144.4287  151.9098 H   0  0  0  0  0  0  0  0  0  0  0  0  # atno 10167 bound_to 10162
  156.8350  130.9666  151.3104 H   0  0  0  0  0  0  0  0  0  0  0  0  # atno 10718 bound_to 10713
  154.6804  135.5252  153.8255 H   0  0  0  0  0  0  0  0  0  0  0  0  # atno 10763 bound_to 10752
  153.0561  135.6551  154.0585 H   0  0  0  0  0  0  0  0  0  0  0  0  # atno 10764 bound_to 10752
  154.0472  135.2972  155.3326 H   0  0  0  0  0  0  0  0  0  0  0  0  # atno 10765 bound_to 10752
  140.7430  133.8654  155.8983 H   0  0  0  0  0  0  0  0  0  0  0  0  # atno 11005 bound_to 11000
  144.7039  140.3769  143.7134 LP  0  0  0  0  0  0  0  0  0  0  0  0  # atno 17320 bound_to 7965
  145.7011  139.1661  143.2592 LP  0  0  0  0  0  0  0  0  0  0  0  0  # atno 17321 bound_to 7965
  140.3734  144.2827  150.5917 LP  0  0  0  0  0  0  0  0  0  0  0  0  # atno 17342 bound_to 10162
  140.5299  143.2246  151.8256 LP  0  0  0  0  0  0  0  0  0  0  0  0  # atno 17343 bound_to 10162
  157.6386  130.8787  149.9406 LP  0  0  0  0  0  0  0  0  0  0  0  0  # atno 17370 bound_to 10713
  156.0913  130.3663  150.0390 LP  0  0  0  0  0  0  0  0  0  0  0  0  # atno 17371 bound_to 10713
  140.9819  134.1394  157.4486 LP  0  0  0  0  0  0  0  0  0  0  0  0  # atno 17394 bound_to 11000
  139.8802  135.0013  156.6061 LP  0  0  0  0  0  0  0  0  0  0  0  0  # atno 17395 bound_to 11000

$$$$
