AV-unprocessed.smi:1748|AV-procd|sdf|7038|dock9
  -GOLD-   22720 8253D 1   1.00000     0.00000
 Structure written by MMmdl.
 40 41  0  0  0  0  0  0  0  0  2 V2000
  144.5746  144.3181  154.1149 C   0  0  0  0  0  0  0  0  0  0  0  0
  145.1751  142.9814  154.3109 N   0  3  1  0  0  0  0  0  0  0  0  0
  146.6360  142.9726  154.0475 C   0  0  0  0  0  0  0  0  0  0  0  0
  147.2065  141.5465  154.1332 C   0  0  0  0  0  0  0  0  0  0  0  0
  146.8643  140.8870  155.4804 C   0  0  0  0  0  0  0  0  0  0  0  0
  145.3508  140.9466  155.7567 C   0  0  2  0  0  0  0  0  0  0  0  0
  144.6411  140.0559  154.8380 N   0  0  0  0  0  0  0  0  0  0  0  0
  144.5724  138.7216  154.9491 C   0  0  0  0  0  0  0  0  0  0  0  0
  145.1023  138.0941  155.8656 O   0  0  0  0  0  0  0  0  0  0  0  0
  143.8350  138.1938  153.9553 N   0  0  0  0  0  0  0  0  0  0  0  0
  143.5208  136.8478  153.7047 C   0  0  0  0  0  0  0  0  0  0  0  0
  144.0100  136.1170  152.6690 C   0  0  0  0  0  0  0  0  0  0  0  0
  143.6343  134.7281  152.4603 C   0  0  0  0  0  0  0  0  0  0  0  0
  144.2487  133.8896  151.3502 C   0  0  0  0  0  0  0  0  0  0  0  0
  144.3725  134.5976  150.2268 F   0  0  0  0  0  0  0  0  0  0  0  0
  145.4614  133.4753  151.7145 F   0  0  0  0  0  0  0  0  0  0  0  0
  143.5034  132.8157  151.0885 F   0  0  0  0  0  0  0  0  0  0  0  0
  142.7773  134.1980  153.3522 C   0  0  0  0  0  0  0  0  0  0  0  0
  142.2512  134.9498  154.4052 N   0  0  0  0  0  0  0  0  0  0  0  0
  142.5625  136.2432  154.6448 C   0  0  0  0  0  0  0  0  0  0  0  0
  142.0586  136.8386  155.5966 O   0  0  0  0  0  0  0  0  0  0  0  0
  144.8523  142.4047  155.6402 C   0  0  0  0  0  0  0  0  0  0  0  0
  141.5997  134.4843  155.0208 H   0  0  0  0  0  0  0  0  0  0  0  0
  144.9804  145.0382  154.8267 H   0  0  0  0  0  0  0  0  0  0  0  0
  143.4929  144.2770  154.2480 H   0  0  0  0  0  0  0  0  0  0  0  0
  144.7710  144.6844  153.1068 H   0  0  0  0  0  0  0  0  0  0  0  0
  146.8322  143.3835  153.0564 H   0  0  0  0  0  0  0  0  0  0  0  0
  147.1395  143.6219  154.7657 H   0  0  0  0  0  0  0  0  0  0  0  0
  146.8091  140.9445  153.3151 H   0  0  0  0  0  0  0  0  0  0  0  0
  148.2880  141.5709  153.9961 H   0  0  0  0  0  0  0  0  0  0  0  0
  147.2171  139.8549  155.4980 H   0  0  0  0  0  0  0  0  0  0  0  0
  147.3969  141.4055  156.2790 H   0  0  0  0  0  0  0  0  0  0  0  0
  145.1759  140.5919  156.7740 H   0  0  0  0  0  0  0  0  0  0  0  0
  144.1799  140.4885  154.0507 H   0  0  0  0  0  0  0  0  0  0  0  0
  143.4045  138.8480  153.3177 H   0  0  0  0  0  0  0  0  0  0  0  0
  144.6817  136.5573  151.9502 H   0  0  0  0  0  0  0  0  0  0  0  0
  142.4377  133.1729  153.3325 H   0  0  0  0  0  0  0  0  0  0  0  0
  145.3093  143.0167  156.4195 H   0  0  0  0  0  0  0  0  0  0  0  0
  143.7753  142.4495  155.8074 H   0  0  0  0  0  0  0  0  0  0  0  0
  144.7519  142.3742  153.6235 H   0  0  0  0  0  0  0  0  0  0  0  0
  1  2  1  0  0  0  0
  1 24  1  0  0  0  0
  1 25  1  0  0  0  0
  1 26  1  0  0  0  0
  2 22  1  0  0  0  0
  2  3  1  0  0  0  0
  2 40  1  0  0  0  0
  3  4  1  0  0  0  0
  3 27  1  0  0  0  0
  3 28  1  0  0  0  0
  4  5  1  0  0  0  0
  4 29  1  0  0  0  0
  4 30  1  0  0  0  0
  5  6  1  0  0  0  0
  5 31  1  0  0  0  0
  5 32  1  0  0  0  0
  6  7  1  0  0  0  0
  6 22  1  0  0  0  0
  6 33  1  0  0  0  0
  7  8  1  0  0  0  0
  7 34  1  0  0  0  0
  8  9  2  0  0  0  0
  8 10  1  0  0  0  0
 10 11  1  0  0  0  0
 10 35  1  0  0  0  0
 11 20  1  0  0  0  0
 11 12  2  0  0  0  0
 12 13  1  0  0  0  0
 12 36  1  0  0  0  0
 13 14  1  0  0  0  0
 13 18  2  0  0  0  0
 14 15  1  0  0  0  0
 14 16  1  0  0  0  0
 14 17  1  0  0  0  0
 18 19  1  0  0  0  0
 18 37  1  0  0  0  0
 19 23  1  0  0  0  0
 19 20  1  0  0  0  0
 20 21  2  0  0  0  0
 22 38  1  0  0  0  0
 22 39  1  0  0  0  0
M  CHG  1   2   1
M  END
> <s_m_source_file>
AV-unprocessed.smi

> <i_m_source_file_index>
1748

> <i_lp_mmshare_version>
43012

> <i_f3d_flags>
0

> <s_epik_input>
W0NIM11OMVtDSDJdW0NIMl1bQ0gyXVtDQEhdKFtDSDJdMSlbTkhdQyg9TylbTkhdYzJbY0hdYyhDKEYpKEYpRilbY0hdW25IXWMyPU8=

> <s_epik_cmdline>
J2VwaWtfcHl0aG9uJywgJy1waCcsICc3LjAnLCAnLXRuJywgJzgnLCAnLW1hJywgJzIwMCcsICctbWV0YWxfYmluZGluZycsICctaW1hZScsICc8aW5maWxlLm1hZT4nLCAnLW9tYWUnLCAnPG91dGZpbGUubWFlPic=

> <r_lp_tautomer_probability>
1

> <r_epik_Ionization_Penalty>
0.00746315

> <r_epik_Ionization_Penalty_Charging>
0.00744398

> <r_epik_Ionization_Penalty_Neutral>
1.91704e-05

> <r_epik_State_Penalty>
-0

> <r_epik_Charging_Adjusted_Penalty>
0.00744398

> <i_epik_Tot_Q>
1

> <i_epik_Tot_abs_Q>
1

> <r_epik_Metal_State_Penalty>
0.379332

> <b_epik_Metal_Only>
0

> <s_lp_Force_Field>
OPLS_2005

> <r_lp_Energy>
33.9877

> <b_lp_Chiralities_Consistent>
1

> <s_lp_Variant>
AV-unprocessed.smi:1748-3

> <Gold.Version>
5.8.1

> <Gold.Id.Protein>
6NUR|6NUR_protein|mol2

> <Gold.PLP.Fitness>
38.1186

> <Gold.PLP.PLP>
-30.5122

> <Gold.PLP.part.hbond>
-3.2265

> <Gold.PLP.part.metal>
0.0000

> <Gold.PLP.part.buried>
-1.5519

> <Gold.PLP.part.nonpolar>
-25.1070

> <Gold.PLP.part.repulsive>
0.1072

> <Gold.PLP.ligand.clash>
0.0010

> <Gold.PLP.ligand.torsion>
1.7990

> <Gold.PLP.Chemscore.Hbond>
2.7730

> <Gold.PLP.Chemscore.CHOScore>
0.9514

> <Gold.PLP.Chemscore.Metal>
0.0000

> <Gold.Chemscore.Hbonds>
donor molecule, donor type, donor heavy atom, donor atom, acceptor molecule, acceptor atom, score
      L1  H     7    34       P1 10175  1.00
      L1  H    10    35       P1 10175  0.88
      L1  H    19    23       P1 11000  0.86
      L1  C    18    37       P1 10957  0.94

> <Gold.PLP.Chemscore.Internal.Correction>
0.0321

> <Gold.Rescore>
     Score         DG    S(hbond)    S(metal)    S(lipo)     H(rot)  DE(clash)    DE(int)     intcor
     14.28     -17.34       2.57        0.00      49.76       1.00       1.31       1.74       ----

> <Gold.Chemscore.Fitness>
14.2812

> <Gold.Chemscore.DG>
-17.3391

> <Gold.Chemscore.ZeroCoef>
-5.4800

> <Gold.Chemscore.Hbond>
2.5739

> <Gold.Chemscore.Metal>
0.0000

> <Gold.Chemscore.Lipo>
49.7640

> <Gold.Chemscore.Internal_Hbond>
0.0000

> <Gold.Chemscore.DEClash>
1.3150

> <Gold.Chemscore.DEInternal>
1.7429

> <Gold.Chemscore.Rot>
1.0000

> <Gold.Chemscore.Internal.Correction>
   9.000000E+99

> <Gold.Chemscore.Hbonds>
donor molecule, donor type, donor heavy atom, donor atom, acceptor molecule, acceptor atom, score
      L1  H     7    34       P1 10175  0.96
      L1  H    10    35       P1 10175  0.87
      L1  H    19    23       P1 11000  0.50

> <Gold.Chemscore.Hbond.Weighted>
-8.5967

> <Gold.Chemscore.Metal.Weighted>
-0.0000

> <Gold.Chemscore.Lipo.Weighted>
-5.8224

> <Gold.Chemscore.Internal_Hbond.Weighted>
0.0000

> <Gold.Chemscore.DEClash.Weighted>
1.3150

> <Gold.Chemscore.DEInternal.Weighted>
1.7429

> <Gold.Chemscore.Rot.Weighted>
2.5600

> <Gold.Chemscore.Internal.Correction.Weighted>
   9.000000E+99

> <Gold.Protein.RotatedTorsions>
[ 6907 6896 6895 6894 ] final  112.70 input  -60.11 | X-H torsion
[ 7974 7965 7964 7962 ] final  154.98 input  175.53 | X-H torsion
[ 8008 7997 7996 7995 ] final  -66.26 input   59.86 | X-H torsion
[ 10167 10162 10161 10158 ] final    0.66 input  -65.29 | X-H torsion
[ 10718 10713 10712 10709 ] final   -3.07 input   66.30 | X-H torsion
[ 10763 10752 10751 10750 ] final    7.01 input  -60.55 | X-H torsion
[ 11005 11000 10999 10996 ] final  136.71 input  -57.11 | X-H torsion

> <Gold.Protein.ActiveResidues>
 VAL166  LYS551  ARG553  GLY616  TRP617  ASP618  TYR619  PRO620  LYS621  CYS622 
 ASP623  PHE694  ASN695  SER759  ASP760  ASP761  ALA762  ILE779  LEU786  VAL792 
 PHE793  MET794  SER795  GLU796  ALA797  LYS798  CYS799  TRP800  GLU811  SER814 

> <Gold.Protein.RotatedAtoms>
  152.4902  133.8479  159.7186 H   0  0  0  0  0  0  0  0  0  0  0  0  # atno 6907 bound_to 6896
  150.9024  133.7092  159.2882 H   0  0  0  0  0  0  0  0  0  0  0  0  # atno 6908 bound_to 6896
  151.4528  135.1035  159.9755 H   0  0  0  0  0  0  0  0  0  0  0  0  # atno 6909 bound_to 6896
  144.8053  139.7007  143.6164 H   0  0  0  0  0  0  0  0  0  0  0  0  # atno 7974 bound_to 7965
  154.4723  140.0916  156.7175 H   0  0  0  0  0  0  0  0  0  0  0  0  # atno 8008 bound_to 7997
  155.4691  140.3464  155.4305 H   0  0  0  0  0  0  0  0  0  0  0  0  # atno 8009 bound_to 7997
  156.1059  140.1435  156.9393 H   0  0  0  0  0  0  0  0  0  0  0  0  # atno 8010 bound_to 7997
  140.6719  143.7025  150.7940 H   0  0  0  0  0  0  0  0  0  0  0  0  # atno 10167 bound_to 10162
  156.7814  130.5332  149.5750 H   0  0  0  0  0  0  0  0  0  0  0  0  # atno 10718 bound_to 10713
  153.2411  135.6903  153.7782 H   0  0  0  0  0  0  0  0  0  0  0  0  # atno 10763 bound_to 10752
  153.6911  135.3312  155.3203 H   0  0  0  0  0  0  0  0  0  0  0  0  # atno 10764 bound_to 10752
  154.8356  135.4545  154.1333 H   0  0  0  0  0  0  0  0  0  0  0  0  # atno 10765 bound_to 10752
  140.0064  134.9457  157.0185 H   0  0  0  0  0  0  0  0  0  0  0  0  # atno 11005 bound_to 11000
  146.2344  139.5875  142.9534 LP  0  0  0  0  0  0  0  0  0  0  0  0  # atno 17320 bound_to 7965
  145.5452  141.0418  143.2308 LP  0  0  0  0  0  0  0  0  0  0  0  0  # atno 17321 bound_to 7965
  140.0712  143.5059  152.2579 LP  0  0  0  0  0  0  0  0  0  0  0  0  # atno 17342 bound_to 10162
  139.5991  144.7577  151.3215 LP  0  0  0  0  0  0  0  0  0  0  0  0  # atno 17343 bound_to 10162
  156.1215  130.6113  151.0201 LP  0  0  0  0  0  0  0  0  0  0  0  0  # atno 17370 bound_to 10713
  157.6644  131.0874  150.7763 LP  0  0  0  0  0  0  0  0  0  0  0  0  # atno 17371 bound_to 10713
  140.4633  134.1462  155.7194 LP  0  0  0  0  0  0  0  0  0  0  0  0  # atno 17394 bound_to 11000
  141.1680  133.8665  157.1657 LP  0  0  0  0  0  0  0  0  0  0  0  0  # atno 17395 bound_to 11000

$$$$
