#       Name:                AV-unprocessed.smi:1492
#       Creating user name   scv26
#       Creation time:       Fri Mar 27 06:15:42 2020


#       File generated by GOLD software.
#

@<TRIPOS>MOLECULE
AV-unprocessed.smi:1492
    60    61     1
SMALL
NO_CHARGES


@<TRIPOS>ATOM
      1 ****        -0.6935  -2.3252   0.7730 C.3            1 S1                 0.0000
      2 ****        -0.8336  -0.8977   0.2173 C.3            1 S1                 0.0000
      3 ****        -0.1579  -0.6478  -1.1721 C.3            1 S1                 0.0000
      4 ****        -0.4006   0.8462  -1.5151 C.3            1 S1                 0.0000
      5 ****         1.3866  -0.8682  -1.0278 C.3            1 S1                 0.0000
      6 ****         1.9728  -0.2232   0.1439 N.am           1 S1                 0.0000
      7 ****         2.6491   0.9349   0.1667 C.2            1 S1                 0.0000
      8 ****         2.9801   1.5553  -0.8435 O.2            1 S1                 0.0000
      9 ****         2.9669   1.4924   1.5546 C.3            1 S1                 0.0000
     10 ****         1.7575   1.6169   2.4828 C.2            1 S1                 0.0000
     11 ****         0.8924   2.6703   2.4439 C.2            1 S1                 0.0000
     12 ****         1.0569   3.8394   1.4888 C.3            1 S1                 0.0000
     13 ****        -0.2245   2.7258   3.2948 N.2            1 S1                 0.0000
     14 ****        -0.4393   1.7685   4.1145 C.2            1 S1                 0.0000
     15 ****        -1.6463   1.8298   5.0258 C.3            1 S1                 0.0000
     16 ****         0.3686   0.6597   4.2301 N.pl3          1 S1                -1.0000
     17 ****         1.4734   0.5337   3.4418 C.2            1 S1                 0.0000
     18 ****         2.2108  -0.4494   3.5030 O.2            1 S1                 0.0000
     19 ****        -0.7126  -1.5602  -2.2176 N.3            1 S1                 0.0000
     20 ****        -2.1718  -1.5130  -2.3843 C.3            1 S1                 0.0000
     21 ****        -2.6780  -2.5662  -3.3840 C.3            1 S1                 0.0000
     22 ****        -2.0329  -2.3857  -4.6379 O.3            1 S1                 0.0000
     23 ****        -0.6187  -2.4890  -4.5352 C.3            1 S1                 0.0000
     24 ****        -0.0899  -1.4393  -3.5427 C.3            1 S1                 0.0000
     25 ****        -1.2194  -2.4169   1.7233 H              1 S1                 0.0000
     26 ****         0.3484  -2.5878   0.9551 H              1 S1                 0.0000
     27 ****        -1.1140  -3.0654   0.0924 H              1 S1                 0.0000
     28 ****        -1.8906  -0.6369   0.1817 H              1 S1                 0.0000
     29 ****        -0.4392  -0.2066   0.9629 H              1 S1                 0.0000
     30 ****        -0.0487   1.5021  -0.7189 H              1 S1                 0.0000
     31 ****        -1.4576   1.0746  -1.6461 H              1 S1                 0.0000
     32 ****         0.1200   1.1487  -2.4233 H              1 S1                 0.0000
     33 ****         1.6045  -1.9337  -0.9495 H              1 S1                 0.0000
     34 ****         1.9180  -0.5239  -1.9153 H              1 S1                 0.0000
     35 ****         1.7649  -0.6505   1.0356 H              1 S1                 0.0000
     36 ****         3.7452   0.8784   2.0090 H              1 S1                 0.0000
     37 ****         3.4225   2.4758   1.4368 H              1 S1                 0.0000
     38 ****         1.9772   4.3818   1.7053 H              1 S1                 0.0000
     39 ****         0.2259   4.5402   1.5764 H              1 S1                 0.0000
     40 ****         1.0919   3.4925   0.4562 H              1 S1                 0.0000
     41 ****        -1.3297   1.8963   6.0671 H              1 S1                 0.0000
     42 ****        -2.2570   0.9344   4.9061 H              1 S1                 0.0000
     43 ****        -2.2667   2.6979   4.7994 H              1 S1                 0.0000
     44 ****        -2.6819  -1.6958  -1.4412 H              1 S1                 0.0000
     45 ****        -2.4827  -0.5270  -2.7295 H              1 S1                 0.0000
     46 ****        -2.4910  -3.5742  -3.0102 H              1 S1                 0.0000
     47 ****        -3.7550  -2.4704  -3.5214 H              1 S1                 0.0000
     48 ****        -0.3419  -3.4951  -4.2167 H              1 S1                 0.0000
     49 ****        -0.1788  -2.3332  -5.5202 H              1 S1                 0.0000
     50 ****        -0.2682  -0.4455  -3.9535 H              1 S1                 0.0000
     51 ****         0.9885  -1.5697  -3.4837 H              1 S1                 0.0000
     52 ****         2.7450   1.1998  -1.7481 LP             1 S1                 0.0000
     53 ****         3.4841   2.4149  -0.7596 LP             1 S1                 0.0000
     54 ****        -0.8465   3.5081   3.2595 LP             1 S1                 0.0000
     55 ****         0.1445  -0.0543   4.8934 LP             1 S1                 0.0000
     56 ****         3.0064  -0.5159   2.9009 LP             1 S1                 0.0000
     57 ****         2.0145  -1.1818   4.1549 LP             1 S1                 0.0000
     58 ****        -0.4697  -2.4495  -1.8302 LP             1 S1                 0.0000
     59 ****        -2.2646  -1.4794  -4.9915 LP             1 S1                 0.0000
     60 ****        -2.3615  -3.0851  -5.2725 LP             1 S1                 0.0000
@<TRIPOS>BOND
    1    1    2 1     
    2    1   25 1     
    3    1   26 1     
    4    1   27 1     
    5    2    3 1     
    6    2   28 1     
    7    2   29 1     
    8    3    4 1     
    9    3    5 1     
   10    3   19 1     
   11    4   30 1     
   12    4   31 1     
   13    4   32 1     
   14    5    6 1     
   15    5   33 1     
   16    5   34 1     
   17    6    7 am    
   18    6   35 1     
   19    7    8 2     
   20    7    9 1     
   21    9   10 1     
   22    9   36 1     
   23    9   37 1     
   24   10   17 1     
   25   10   11 2     
   26   11   12 1     
   27   11   13 1     
   28   12   38 1     
   29   12   39 1     
   30   12   40 1     
   31   13   14 2     
   32   14   15 1     
   33   14   16 1     
   34   15   41 1     
   35   15   42 1     
   36   15   43 1     
   37   16   17 1     
   38   17   18 2     
   39   19   24 1     
   40   19   20 1     
   41   20   21 1     
   42   20   44 1     
   43   20   45 1     
   44   21   22 1     
   45   21   46 1     
   46   21   47 1     
   47   22   23 1     
   48   23   24 1     
   49   23   48 1     
   50   23   49 1     
   51   24   50 1     
   52   24   51 1     
   53    8   52 1     
   54    8   53 1     
   55   13   54 1     
   56   16   55 1     
   57   18   56 1     
   58   18   57 1     
   59   19   58 1     
   60   22   59 1     
   61   22   60 1     
@<TRIPOS>SUBSTRUCTURE
      1 S1             1
@<TRIPOS>SET
LONE_PAIRS      STATIC     ATOMS    <user>   **** ""
9 52 53 54 55 56 57 58 59 60
DONOR_HYDROGENS      STATIC     ATOMS    <user>   **** ""
1 35
ATOM$BLUE        STATIC     ATOMS    COLORGROUP SYSTEM
9 52 53 54 55 56 57 58 59 60
ATOM$RED        STATIC     ATOMS    COLORGROUP SYSTEM
1 35
