#       Name:                AV-unprocessed.smi:320
#       Creating user name   scv26
#       Creation time:       Thu Mar 26 22:23:53 2020


#       File generated by GOLD software.
#

@<TRIPOS>MOLECULE
AV-unprocessed.smi:320
    53    56     1
SMALL
NO_CHARGES


@<TRIPOS>ATOM
      1 ****        -1.4928  -0.5549   2.9266 C.3            1 S1                 0.0000
      2 ****        -0.9914   0.0341   1.5938 C.3            1 S1                 0.0000
      3 ****         0.4716   0.0730   1.6409 N.am           1 S1                 0.0000
      4 ****         1.2402   1.1701   1.5568 C.2            1 S1                 0.0000
      5 ****         0.7888   2.3113   1.4549 O.2            1 S1                 0.0000
      6 ****         2.7555   0.9329   1.6084 C.3            1 S1                 0.0000
      7 ****         3.5139   1.9008   0.7989 N.am           1 S1                 0.0000
      8 ****         4.1203   2.9753   1.4801 C.2            1 S1                 0.0000
      9 ****         4.8290   3.9155   0.8351 C.2            1 S1                 0.0000
     10 ****         4.9637   3.8055  -0.5981 C.2            1 S1                 0.0000
     11 ****         4.3861   2.7830  -1.2597 C.2            1 S1                 0.0000
     12 ****         3.6095   1.7534  -0.5591 C.2            1 S1                 0.0000
     13 ****         3.0775   0.8164  -1.1559 O.2            1 S1                 0.0000
     14 ****        -1.4978  -0.6933   0.3059 C.3            1 S1                 0.0000
     15 ****        -1.0061  -2.1679   0.2285 C.3            1 S1                 0.0000
     16 ****        -1.5152  -2.8442  -1.0634 C.3            1 S1                 0.0000
     17 ****        -0.9784  -2.0847  -2.2939 C.3            1 S1                 0.0000
     18 ****        -1.4853  -0.6288  -2.2505 C.3            1 S1                 0.0000
     19 ****        -3.0262  -0.6110  -2.2737 C.3            1 S1                 0.0000
     20 ****        -3.5558  -1.3742  -1.0438 C.3            1 S1                 0.0000
     21 ****        -3.0579  -2.8338  -1.0825 C.3            1 S1                 0.0000
     22 ****        -3.0527  -0.6933   0.2468 C.3            1 S1                 0.0000
     23 ****        -0.9804   0.0517  -0.9616 C.3            1 S1                 0.0000
     24 ****        -2.5778  -0.5157   3.0108 H              1 S1                 0.0000
     25 ****        -1.0965   0.0136   3.7687 H              1 S1                 0.0000
     26 ****        -1.1790  -1.5899   3.0613 H              1 S1                 0.0000
     27 ****        -1.3754   1.0549   1.5534 H              1 S1                 0.0000
     28 ****         0.9393  -0.8179   1.7246 H              1 S1                 0.0000
     29 ****         3.0679   0.9724   2.6527 H              1 S1                 0.0000
     30 ****         2.9827  -0.0834   1.2799 H              1 S1                 0.0000
     31 ****         3.9661   2.9894   2.5494 H              1 S1                 0.0000
     32 ****         5.2824   4.7350   1.3730 H              1 S1                 0.0000
     33 ****         5.5285   4.5479  -1.1428 H              1 S1                 0.0000
     34 ****         4.4964   2.7184  -2.3321 H              1 S1                 0.0000
     35 ****         0.0831  -2.2137   0.2558 H              1 S1                 0.0000
     36 ****        -1.3569  -2.7363   1.0898 H              1 S1                 0.0000
     37 ****        -1.1615  -3.8752  -1.0936 H              1 S1                 0.0000
     38 ****         0.1121  -2.1058  -2.3052 H              1 S1                 0.0000
     39 ****        -1.3066  -2.5723  -3.2127 H              1 S1                 0.0000
     40 ****        -1.1048  -0.0879  -3.1175 H              1 S1                 0.0000
     41 ****        -3.3934   0.4161  -2.2692 H              1 S1                 0.0000
     42 ****        -3.3966  -1.0680  -3.1923 H              1 S1                 0.0000
     43 ****        -4.6461  -1.3645  -1.0557 H              1 S1                 0.0000
     44 ****        -3.4284  -3.3358  -1.9770 H              1 S1                 0.0000
     45 ****        -3.4510  -3.3909  -0.2310 H              1 S1                 0.0000
     46 ****        -3.4747  -1.2226   1.1006 H              1 S1                 0.0000
     47 ****        -3.4333   0.3277   0.3005 H              1 S1                 0.0000
     48 ****        -1.3021   1.0940  -0.9437 H              1 S1                 0.0000
     49 ****         0.1095   0.0735  -0.9846 H              1 S1                 0.0000
     50 ****        -0.2002   2.4575   1.4312 LP             1 S1                 0.0000
     51 ****         1.4112   3.0918   1.3960 LP             1 S1                 0.0000
     52 ****         2.5550   0.1320  -0.6474 LP             1 S1                 0.0000
     53 ****         3.1681   0.7401  -2.1488 LP             1 S1                 0.0000
@<TRIPOS>BOND
    1    1    2 1     
    2    1   24 1     
    3    1   25 1     
    4    1   26 1     
    5    2    3 1     
    6    2   14 1     
    7    2   27 1     
    8    3    4 am    
    9    3   28 1     
   10    4    5 2     
   11    4    6 1     
   12    6    7 1     
   13    6   29 1     
   14    6   30 1     
   15    7   12 am    
   16    7    8 1     
   17    8    9 2     
   18    8   31 1     
   19    9   10 1     
   20    9   32 1     
   21   10   11 2     
   22   10   33 1     
   23   11   12 1     
   24   11   34 1     
   25   12   13 2     
   26   14   22 1     
   27   14   23 1     
   28   14   15 1     
   29   15   16 1     
   30   15   35 1     
   31   15   36 1     
   32   16   21 1     
   33   16   17 1     
   34   16   37 1     
   35   17   18 1     
   36   17   38 1     
   37   17   39 1     
   38   18   19 1     
   39   18   23 1     
   40   18   40 1     
   41   19   20 1     
   42   19   41 1     
   43   19   42 1     
   44   20   21 1     
   45   20   22 1     
   46   20   43 1     
   47   21   44 1     
   48   21   45 1     
   49   22   46 1     
   50   22   47 1     
   51   23   48 1     
   52   23   49 1     
   53    5   50 1     
   54    5   51 1     
   55   13   52 1     
   56   13   53 1     
@<TRIPOS>SUBSTRUCTURE
      1 S1             1
@<TRIPOS>SET
LONE_PAIRS      STATIC     ATOMS    <user>   **** ""
4 50 51 52 53
DONOR_HYDROGENS      STATIC     ATOMS    <user>   **** ""
1 28
ATOM$BLUE        STATIC     ATOMS    COLORGROUP SYSTEM
4 50 51 52 53
ATOM$RED        STATIC     ATOMS    COLORGROUP SYSTEM
1 28
