AV-unprocessed.smi:243|AV-procd|sdf|1848|dock5
  -GOLD-   2262020473D 1   1.00000     0.00000
 Structure written by MMmdl.
 58 61  0  0  0  0  0  0  0  0  2 V2000
  147.4430  131.4579  153.2327 C   0  0  0  0  0  0  0  0  0  0  0  0
  147.4223  132.8175  152.5189 C   0  0  0  0  0  0  0  0  0  0  0  0
  147.9999  133.9042  153.3495 N   0  3  2  0  0  0  0  0  0  0  0  0
  149.4593  133.7329  153.5641 C   0  0  0  0  0  0  0  0  0  0  0  0
  150.0607  134.9449  154.2925 C   0  0  0  0  0  0  0  0  0  0  0  0
  149.3314  135.1990  155.6297 C   0  0  1  0  0  0  0  0  0  0  0  0
  149.9121  136.2330  156.5060 N   0  0  0  0  0  0  0  0  0  0  0  0
  149.6429  136.1234  157.9357 C   0  0  0  0  0  0  0  0  0  0  0  0
  150.2199  137.4772  156.0482 C   0  0  0  0  0  0  0  0  0  0  0  0
  150.0906  137.7209  154.7189 N   0  0  0  0  0  0  0  0  0  0  0  0
  150.4044  138.9154  154.2104 C   0  0  0  0  0  0  0  0  0  0  0  0
  150.8702  139.9930  154.8423 N   0  0  0  0  0  0  0  0  0  0  0  0
  151.0200  139.7563  156.1763 C   0  0  0  0  0  0  0  0  0  0  0  0
  150.7288  138.5389  156.8566 C   0  0  0  0  0  0  0  0  0  0  0  0
  151.0111  138.6851  158.2110 N   0  0  0  0  0  0  0  0  0  0  0  0
  151.4454  139.9103  158.3222 C   0  0  0  0  0  0  0  0  0  0  0  0
  151.4727  140.6295  157.1497 N   0  0  0  0  0  0  0  0  0  0  0  0
  151.9061  142.0075  156.9804 C   0  0  0  0  0  0  0  0  0  0  0  0
  151.2010  143.0072  157.9315 C   0  0  1  0  0  0  0  0  0  0  0  0
  149.7994  142.8313  157.8469 O   0  0  0  0  0  0  0  0  0  0  0  0
  151.6480  142.8394  159.3746 C   0  0  0  0  0  0  0  0  0  0  0  0
  152.9090  143.6989  159.4433 C   0  0  0  0  0  0  0  0  0  0  0  0
  152.7565  144.7061  158.4471 O   0  0  0  0  0  0  0  0  0  0  0  0
  151.5689  144.4780  157.6959 C   0  0  0  0  0  0  0  0  0  0  0  0
  147.8046  135.3473  155.3919 C   0  0  1  0  0  0  0  0  0  0  0  0
  147.3778  136.6428  154.6727 C   0  0  0  0  0  0  0  0  0  0  0  0
  147.2805  134.1079  154.6361 C   0  0  0  0  0  0  0  0  0  0  0  0
  146.9310  130.7043  152.6339 H   0  0  0  0  0  0  0  0  0  0  0  0
  146.9370  131.5110  154.1972 H   0  0  0  0  0  0  0  0  0  0  0  0
  148.4570  131.0976  153.4034 H   0  0  0  0  0  0  0  0  0  0  0  0
  147.9418  132.7600  151.5612 H   0  0  0  0  0  0  0  0  0  0  0  0
  146.3819  133.0538  152.2916 H   0  0  0  0  0  0  0  0  0  0  0  0
  149.6392  132.8210  154.1357 H   0  0  0  0  0  0  0  0  0  0  0  0
  149.9632  133.6101  152.6045 H   0  0  0  0  0  0  0  0  0  0  0  0
  151.1207  134.7624  154.4733 H   0  0  0  0  0  0  0  0  0  0  0  0
  149.9973  135.8149  153.6392 H   0  0  0  0  0  0  0  0  0  0  0  0
  149.4576  134.2769  156.1993 H   0  0  0  0  0  0  0  0  0  0  0  0
  150.2975  136.7793  158.5112 H   0  0  0  0  0  0  0  0  0  0  0  0
  149.8178  135.1033  158.2782 H   0  0  0  0  0  0  0  0  0  0  0  0
  148.6082  136.3813  158.1614 H   0  0  0  0  0  0  0  0  0  0  0  0
  150.2645  139.0222  153.1448 H   0  0  0  0  0  0  0  0  0  0  0  0
  151.7550  140.3274  159.2696 H   0  0  0  0  0  0  0  0  0  0  0  0
  152.9859  142.0441  157.1317 H   0  0  0  0  0  0  0  0  0  0  0  0
  151.7387  142.2892  155.9403 H   0  0  0  0  0  0  0  0  0  0  0  0
  149.3908  143.6832  157.8428 H   0  0  0  0  0  0  0  0  0  0  0  0
  150.9006  143.2515  160.0551 H   0  0  0  0  0  0  0  0  0  0  0  0
  151.8219  141.8019  159.6622 H   0  0  0  0  0  0  0  0  0  0  0  0
  153.0544  144.1375  160.4307 H   0  0  0  0  0  0  0  0  0  0  0  0
  153.7927  143.1060  159.2055 H   0  0  0  0  0  0  0  0  0  0  0  0
  151.6936  144.7467  156.6479 H   0  0  0  0  0  0  0  0  0  0  0  0
  150.7977  145.1327  158.1053 H   0  0  0  0  0  0  0  0  0  0  0  0
  147.3101  135.3515  156.3637 H   0  0  0  0  0  0  0  0  0  0  0  0
  147.8726  136.7621  153.7093 H   0  0  0  0  0  0  0  0  0  0  0  0
  147.5950  137.5244  155.2702 H   0  0  0  0  0  0  0  0  0  0  0  0
  146.3030  136.6491  154.4903 H   0  0  0  0  0  0  0  0  0  0  0  0
  146.2103  134.2186  154.4646 H   0  0  0  0  0  0  0  0  0  0  0  0
  147.3997  133.2175  155.2558 H   0  0  0  0  0  0  0  0  0  0  0  0
  147.8935  134.7555  152.8162 H   0  0  0  0  0  0  0  0  0  0  0  0
  1  2  1  0  0  0  0
  1 28  1  0  0  0  0
  1 29  1  0  0  0  0
  1 30  1  0  0  0  0
  2  3  1  0  0  0  0
  2 31  1  0  0  0  0
  2 32  1  0  0  0  0
  3 27  1  0  0  0  0
  3  4  1  0  0  0  0
  3 58  1  0  0  0  0
  4  5  1  0  0  0  0
  4 33  1  0  0  0  0
  4 34  1  0  0  0  0
  5  6  1  0  0  0  0
  5 35  1  0  0  0  0
  5 36  1  0  0  0  0
  6  7  1  0  0  0  0
  6 25  1  0  0  0  0
  6 37  1  0  0  0  0
  7  8  1  0  0  0  0
  7  9  1  0  0  0  0
  8 38  1  0  0  0  0
  8 39  1  0  0  0  0
  8 40  1  0  0  0  0
  9 14  1  0  0  0  0
  9 10  2  0  0  0  0
 10 11  1  0  0  0  0
 11 12  2  0  0  0  0
 11 41  1  0  0  0  0
 12 13  1  0  0  0  0
 13 17  1  0  0  0  0
 13 14  2  0  0  0  0
 14 15  1  0  0  0  0
 15 16  2  0  0  0  0
 16 17  1  0  0  0  0
 16 42  1  0  0  0  0
 17 18  1  0  0  0  0
 18 19  1  0  0  0  0
 18 43  1  0  0  0  0
 18 44  1  0  0  0  0
 19 24  1  0  0  0  0
 19 20  1  0  0  0  0
 19 21  1  0  0  0  0
 20 45  1  0  0  0  0
 21 22  1  0  0  0  0
 21 46  1  0  0  0  0
 21 47  1  0  0  0  0
 22 23  1  0  0  0  0
 22 48  1  0  0  0  0
 22 49  1  0  0  0  0
 23 24  1  0  0  0  0
 24 50  1  0  0  0  0
 24 51  1  0  0  0  0
 25 26  1  0  0  0  0
 25 27  1  0  0  0  0
 25 52  1  0  0  0  0
 26 53  1  0  0  0  0
 26 54  1  0  0  0  0
 26 55  1  0  0  0  0
 27 56  1  0  0  0  0
 27 57  1  0  0  0  0
M  CHG  1   3   1
M  END
> <s_m_source_file>
AV-unprocessed.smi

> <i_m_source_file_index>
243

> <i_lp_mmshare_version>
43012

> <i_f3d_flags>
0

> <s_epik_input>
W0NIM11bQ0gyXU4xW0NIMl1bQ0gyXVtDQEhdKFtDQEBIXShbQ0gzXSlbQ0gyXTEpTihbQ0gzXSljKG5bY0hdbjIpYyhjMjMpbltjSF1uM1tDSDJdW0NAQF00KFtPSF0pW0NIMl1bQ0gyXU9bQ0gyXTQ=

> <s_epik_cmdline>
J2VwaWtfcHl0aG9uJywgJy1waCcsICc3LjAnLCAnLXRuJywgJzgnLCAnLW1hJywgJzIwMCcsICctbWV0YWxfYmluZGluZycsICctaW1hZScsICc8aW5maWxlLm1hZT4nLCAnLW9tYWUnLCAnPG91dGZpbGUubWFlPic=

> <r_lp_tautomer_probability>
1

> <r_epik_Ionization_Penalty>
0.00253099

> <r_epik_Ionization_Penalty_Charging>
0.00137877

> <r_epik_Ionization_Penalty_Neutral>
0.00115221

> <r_epik_State_Penalty>
-0

> <r_epik_Charging_Adjusted_Penalty>
0.00137877

> <i_epik_Tot_Q>
1

> <i_epik_Tot_abs_Q>
1

> <r_epik_Metal_State_Penalty>
-0

> <b_epik_Metal_Only>
0

> <s_lp_Force_Field>
OPLS_2005

> <r_lp_Energy>
50.8982

> <b_lp_Chiralities_Consistent>
1

> <s_lp_Variant>
AV-unprocessed.smi:243-1

> <Gold.Version>
5.8.1

> <Gold.Id.Protein>
6NUR|6NUR_protein|mol2

> <Gold.PLP.Fitness>
48.4217

> <Gold.PLP.PLP>
-35.2008

> <Gold.PLP.part.hbond>
-3.0000

> <Gold.PLP.part.metal>
0.0000

> <Gold.PLP.part.buried>
-4.5225

> <Gold.PLP.part.nonpolar>
-26.5023

> <Gold.PLP.part.repulsive>
0.2525

> <Gold.PLP.ligand.clash>
0.0000

> <Gold.PLP.ligand.torsion>
0.6671

> <Gold.PLP.Chemscore.Hbond>
3.5920

> <Gold.PLP.Chemscore.CHOScore>
1.0000

> <Gold.PLP.Chemscore.Metal>
0.0000

> <Gold.Chemscore.Hbonds>
donor molecule, donor type, donor heavy atom, donor atom, acceptor molecule, acceptor atom, score
      L1  H     3    58       P1  7948  1.70
      P1  H  7989  7998       L1    12  1.00
      L1  C    11    41       P1  7957  1.00

> <Gold.PLP.Chemscore.Internal.Correction>
0.7791

> <Gold.Rescore>
     Score         DG    S(hbond)    S(metal)    S(lipo)     H(rot)  DE(clash)    DE(int)     intcor
     10.33     -16.87       2.01        0.00      89.02       2.24       2.11       4.43       ----

> <Gold.Chemscore.Fitness>
10.3335

> <Gold.Chemscore.DG>
-16.8729

> <Gold.Chemscore.ZeroCoef>
-5.4800

> <Gold.Chemscore.Hbond>
2.0080

> <Gold.Chemscore.Metal>
0.0000

> <Gold.Chemscore.Lipo>
89.0198

> <Gold.Chemscore.Internal_Hbond>
0.0000

> <Gold.Chemscore.DEClash>
2.1054

> <Gold.Chemscore.DEInternal>
4.4341

> <Gold.Chemscore.Rot>
2.2379

> <Gold.Chemscore.Internal.Correction>
   9.000000E+99

> <Gold.Chemscore.Hbonds>
donor molecule, donor type, donor heavy atom, donor atom, acceptor molecule, acceptor atom, score
      L1  H     3    58       P1  7948  0.69
      L1  H    20    45       P1  8028  0.01
      P1  H  7989  7998       L1    12  0.30

> <Gold.Chemscore.Hbond.Weighted>
-6.7067

> <Gold.Chemscore.Metal.Weighted>
-0.0000

> <Gold.Chemscore.Lipo.Weighted>
-10.4153

> <Gold.Chemscore.Internal_Hbond.Weighted>
0.0000

> <Gold.Chemscore.DEClash.Weighted>
2.1054

> <Gold.Chemscore.DEInternal.Weighted>
4.4341

> <Gold.Chemscore.Rot.Weighted>
5.7291

> <Gold.Chemscore.Internal.Correction.Weighted>
   9.000000E+99

> <Gold.Protein.RotatedTorsions>
[ 6907 6896 6895 6894 ] final  -81.34 input  -60.11 | X-H torsion
[ 7974 7965 7964 7962 ] final   84.60 input  175.53 | X-H torsion
[ 8008 7997 7996 7995 ] final  -35.09 input   59.86 | X-H torsion
[ 10167 10162 10161 10158 ] final   79.13 input  -65.29 | X-H torsion
[ 10718 10713 10712 10709 ] final  -76.90 input   66.30 | X-H torsion
[ 10763 10752 10751 10750 ] final  -68.95 input  -60.55 | X-H torsion
[ 11005 11000 10999 10996 ] final -156.45 input  -57.11 | X-H torsion

> <Gold.Protein.ActiveResidues>
 VAL166  LYS551  ARG553  GLY616  TRP617  ASP618  TYR619  PRO620  LYS621  CYS622 
 ASP623  PHE694  ASN695  SER759  ASP760  ASP761  ALA762  ILE779  LEU786  VAL792 
 PHE793  MET794  SER795  GLU796  ALA797  LYS798  CYS799  TRP800  GLU811  SER814 

> <Gold.Protein.RotatedAtoms>
  150.6913  134.3832  159.5043 H   0  0  0  0  0  0  0  0  0  0  0  0  # atno 6907 bound_to 6896
  152.1631  134.8893  160.0549 H   0  0  0  0  0  0  0  0  0  0  0  0  # atno 6908 bound_to 6896
  151.9947  133.3769  159.4195 H   0  0  0  0  0  0  0  0  0  0  0  0  # atno 6909 bound_to 6896
  145.5966  139.2346  143.2269 H   0  0  0  0  0  0  0  0  0  0  0  0  # atno 7974 bound_to 7965
  154.4104  140.1666  156.2155 H   0  0  0  0  0  0  0  0  0  0  0  0  # atno 8008 bound_to 7997
  155.9408  140.3408  155.6302 H   0  0  0  0  0  0  0  0  0  0  0  0  # atno 8009 bound_to 7997
  155.6992  140.0743  157.2408 H   0  0  0  0  0  0  0  0  0  0  0  0  # atno 8010 bound_to 7997
  139.9636  144.5944  150.8049 H   0  0  0  0  0  0  0  0  0  0  0  0  # atno 10167 bound_to 10162
  156.0161  130.4477  150.3263 H   0  0  0  0  0  0  0  0  0  0  0  0  # atno 10718 bound_to 10713
  154.3964  135.6041  153.5872 H   0  0  0  0  0  0  0  0  0  0  0  0  # atno 10763 bound_to 10752
  152.9788  135.5896  154.4236 H   0  0  0  0  0  0  0  0  0  0  0  0  # atno 10764 bound_to 10752
  154.4028  135.2843  155.2064 H   0  0  0  0  0  0  0  0  0  0  0  0  # atno 10765 bound_to 10752
  140.6755  134.4201  157.5229 H   0  0  0  0  0  0  0  0  0  0  0  0  # atno 11005 bound_to 11000
  146.1607  140.6792  142.9279 LP  0  0  0  0  0  0  0  0  0  0  0  0  # atno 17320 bound_to 7965
  144.7328  140.4721  143.6925 LP  0  0  0  0  0  0  0  0  0  0  0  0  # atno 17321 bound_to 7965
  140.7545  143.3028  151.3037 LP  0  0  0  0  0  0  0  0  0  0  0  0  # atno 17342 bound_to 10162
  139.6535  144.0319  152.2643 LP  0  0  0  0  0  0  0  0  0  0  0  0  # atno 17343 bound_to 10162
  157.1362  131.0285  151.2948 LP  0  0  0  0  0  0  0  0  0  0  0  0  # atno 17370 bound_to 10713
  157.4509  130.7598  149.7151 LP  0  0  0  0  0  0  0  0  0  0  0  0  # atno 17371 bound_to 10713
  139.8968  134.8651  156.2072 LP  0  0  0  0  0  0  0  0  0  0  0  0  # atno 17394 bound_to 11000
  141.0359  133.6964  156.1511 LP  0  0  0  0  0  0  0  0  0  0  0  0  # atno 17395 bound_to 11000

$$$$
