#       Name:                AV-unprocessed.smi:2775
#       Creating user name   scv26
#       Creation time:       Fri Mar 27 15:13:25 2020


#       File generated by GOLD software.
#

@<TRIPOS>MOLECULE
AV-unprocessed.smi:2775
    47    50     1
SMALL
NO_CHARGES


@<TRIPOS>ATOM
      1 ****        -5.4232   2.0259  -0.0401 C.3            1 S1                 0.0000
      2 ****        -4.6433   0.8467   0.5107 C.ar           1 S1                 0.0000
      3 ****        -5.3866  -0.1654   1.0084 N.ar           1 S1                 0.0000
      4 ****        -4.7420  -1.2400   1.5070 C.ar           1 S1                 0.0000
      5 ****        -3.3392  -1.3566   1.5407 C.ar           1 S1                 0.0000
      6 ****        -2.5569  -0.2915   1.0329 C.ar           1 S1                 0.0000
      7 ****        -1.1350  -0.2972   0.9991 N.am           1 S1                 0.0000
      8 ****        -0.2583  -1.0733   1.6650 C.2            1 S1                 0.0000
      9 ****        -0.5599  -1.9431   2.4790 O.2            1 S1                 0.0000
     10 ****         1.0270  -0.8050   1.3764 N.am           1 S1                 0.0000
     11 ****         2.2130  -1.4632   1.9249 C.3            1 S1                 0.0000
     12 ****         3.5145  -0.9144   1.3375 C.3            1 S1                 0.0000
     13 ****         4.5408  -1.4589   0.4108 C.3            1 S1                 0.0000
     14 ****         5.7955  -0.9962   1.1941 C.3            1 S1                 0.0000
     15 ****         5.3081  -0.5077   2.4675 O.3            1 S1                 0.0000
     16 ****         4.1207  -1.2430   2.6932 C.3            1 S1                 0.0000
     17 ****         2.7533  -0.8238   3.2491 C.3            1 S1                 0.0000
     18 ****         2.2709  -1.2948   4.6266 C.3            1 S1                 0.0000
     19 ****         1.5566   0.0513   4.7922 C.3            1 S1                 0.0000
     20 ****         2.4551   0.6216   3.6899 C.3            1 S1                 0.0000
     21 ****        -3.2290   0.8309   0.4944 C.ar           1 S1                 0.0000
     22 ****        -2.3386   2.1613  -0.1685 Cl             1 S1                 0.0000
     23 ****        -5.1668   2.9358   0.5030 H              1 S1                 0.0000
     24 ****        -6.4994   1.8725   0.0493 H              1 S1                 0.0000
     25 ****        -5.1910   2.1758  -1.0947 H              1 S1                 0.0000
     26 ****        -5.3645  -2.0362   1.8876 H              1 S1                 0.0000
     27 ****        -2.9021  -2.2571   1.9421 H              1 S1                 0.0000
     28 ****        -0.7234   0.4169   0.4159 H              1 S1                 0.0000
     29 ****         1.1988  -0.0621   0.7142 H              1 S1                 0.0000
     30 ****         2.1735  -2.5561   1.9318 H              1 S1                 0.0000
     31 ****         3.4205   0.1668   1.1818 H              1 S1                 0.0000
     32 ****         4.4847  -2.5454   0.3320 H              1 S1                 0.0000
     33 ****         4.4843  -1.0235  -0.5872 H              1 S1                 0.0000
     34 ****         6.4864  -1.8267   1.3451 H              1 S1                 0.0000
     35 ****         6.3306  -0.1998   0.6761 H              1 S1                 0.0000
     36 ****         4.3253  -2.3087   2.8416 H              1 S1                 0.0000
     37 ****         1.6100  -2.1613   4.6110 H              1 S1                 0.0000
     38 ****         3.0898  -1.4258   5.3354 H              1 S1                 0.0000
     39 ****         0.5061   0.0112   4.5011 H              1 S1                 0.0000
     40 ****         1.6860   0.5177   5.7693 H              1 S1                 0.0000
     41 ****         3.3362   1.1272   4.0876 H              1 S1                 0.0000
     42 ****         1.9355   1.2400   2.9576 H              1 S1                 0.0000
     43 ****        -6.3856  -0.1193   1.0072 LP             1 S1                 0.0000
     44 ****        -1.5215  -2.1183   2.6904 LP             1 S1                 0.0000
     45 ****         0.1562  -2.4758   2.9300 LP             1 S1                 0.0000
     46 ****         5.1143   0.4722   2.4202 LP             1 S1                 0.0000
     47 ****         5.9751  -0.6809   3.1921 LP             1 S1                 0.0000
@<TRIPOS>BOND
    1    1    2 1     
    2    1   23 1     
    3    1   24 1     
    4    1   25 1     
    5    2   21 ar    
    6    2    3 ar    
    7    3    4 ar    
    8    4    5 ar    
    9    4   26 1     
   10    5    6 ar    
   11    5   27 1     
   12    6    7 1     
   13    6   21 ar    
   14    7    8 am    
   15    7   28 1     
   16    8    9 2     
   17    8   10 am    
   18   10   11 1     
   19   10   29 1     
   20   11   17 1     
   21   11   12 1     
   22   11   30 1     
   23   12   16 1     
   24   12   13 1     
   25   12   31 1     
   26   13   14 1     
   27   13   32 1     
   28   13   33 1     
   29   14   15 1     
   30   14   34 1     
   31   14   35 1     
   32   15   16 1     
   33   16   17 1     
   34   16   36 1     
   35   17   20 1     
   36   17   18 1     
   37   18   19 1     
   38   18   37 1     
   39   18   38 1     
   40   19   20 1     
   41   19   39 1     
   42   19   40 1     
   43   20   41 1     
   44   20   42 1     
   45   21   22 1     
   46    3   43 1     
   47    9   44 1     
   48    9   45 1     
   49   15   46 1     
   50   15   47 1     
@<TRIPOS>SUBSTRUCTURE
      1 S1             1
@<TRIPOS>SET
LONE_PAIRS      STATIC     ATOMS    <user>   **** ""
5 43 44 45 46 47
DONOR_HYDROGENS      STATIC     ATOMS    <user>   **** ""
2 28 29
ATOM$BLUE        STATIC     ATOMS    COLORGROUP SYSTEM
5 43 44 45 46 47
ATOM$RED        STATIC     ATOMS    COLORGROUP SYSTEM
2 28 29
