#       Name:                AV-unprocessed.smi:2280
#       Creating user name   scv26
#       Creation time:       Fri Mar 27 12:40:43 2020


#       File generated by GOLD software.
#

@<TRIPOS>MOLECULE
AV-unprocessed.smi:2280
    48    49     1
SMALL
NO_CHARGES


@<TRIPOS>ATOM
      1 ****        -2.5306   5.7544   0.7252 C.3            1 S1                 0.0000
      2 ****        -1.9430   4.3609   0.5890 C.2            1 S1                 0.0000
      3 ****        -1.5463   3.9957  -0.7008 N.2            1 S1                 0.0000
      4 ****        -1.0436   2.8235  -0.9131 C.2            1 S1                 0.0000
      5 ****        -0.8841   1.8905   0.1242 N.am           1 S1                 0.0000
      6 ****        -0.3073   0.5899  -0.2530 C.3            1 S1                 0.0000
      7 ****         1.2151   0.5314   0.0058 C.3            1 S1                 0.0000
      8 ****         1.9213   1.0707  -1.0932 O.3            1 S1                 0.0000
      9 ****         1.7335  -0.8980   0.2350 C.3            1 S1                 0.0000
     10 ****         1.1814  -1.7666  -0.7463 O.3            1 S1                 0.0000
     11 ****         1.4728  -3.1131  -0.6823 C.ar           1 S1                 0.0000
     12 ****         2.3515  -3.6790   0.2765 C.ar           1 S1                 0.0000
     13 ****         2.6060  -5.0628   0.2852 C.ar           1 S1                 0.0000
     14 ****         1.9881  -5.8980  -0.6611 C.ar           1 S1                 0.0000
     15 ****         1.1153  -5.3480  -1.6172 C.ar           1 S1                 0.0000
     16 ****         0.8530  -3.9593  -1.6348 C.ar           1 S1                 0.0000
     17 ****        -0.0958  -3.3678  -2.6729 C.3            1 S1                 0.0000
     18 ****        -0.5919  -4.3015  -3.4855 F              1 S1                 0.0000
     19 ****        -1.1157  -2.7649  -2.0614 F              1 S1                 0.0000
     20 ****         0.5516  -2.4706  -3.4170 F              1 S1                 0.0000
     21 ****        -1.2247   2.1728   1.4150 C.2            1 S1                 0.0000
     22 ****        -1.0536   1.3564   2.3226 O.2            1 S1                 0.0000
     23 ****        -1.8027   3.5076   1.6402 C.2            1 S1                 0.0000
     24 ****        -2.2187   3.8497   3.0656 C.3            1 S1                 0.0000
     25 ****        -3.5538   5.7028   1.0982 H              1 S1                 0.0000
     26 ****        -2.5502   6.2730  -0.2340 H              1 S1                 0.0000
     27 ****        -1.9369   6.3532   1.4160 H              1 S1                 0.0000
     28 ****        -0.7128   2.4914  -1.8987 H              1 S1                 0.0000
     29 ****        -0.8026  -0.1887   0.3305 H              1 S1                 0.0000
     30 ****        -0.5319   0.3272  -1.2892 H              1 S1                 0.0000
     31 ****         1.4743   1.1249   0.8834 H              1 S1                 0.0000
     32 ****         1.7563   0.5281  -1.8495 H              1 S1                 0.0000
     33 ****         2.8246  -0.9178   0.2133 H              1 S1                 0.0000
     34 ****         1.4146  -1.2301   1.2244 H              1 S1                 0.0000
     35 ****         2.8460  -3.0714   1.0187 H              1 S1                 0.0000
     36 ****         3.2772  -5.4834   1.0196 H              1 S1                 0.0000
     37 ****         2.1832  -6.9603  -0.6543 H              1 S1                 0.0000
     38 ****         0.6498  -6.0058  -2.3360 H              1 S1                 0.0000
     39 ****        -1.3640   3.7664   3.7378 H              1 S1                 0.0000
     40 ****        -2.9879   3.1569   3.4085 H              1 S1                 0.0000
     41 ****        -2.6168   4.8579   3.1670 H              1 S1                 0.0000
     42 ****        -1.6512   4.6402  -1.4582 LP             1 S1                 0.0000
     43 ****         2.9009   1.0816  -0.8927 LP             1 S1                 0.0000
     44 ****         1.6073   2.0032  -1.2717 LP             1 S1                 0.0000
     45 ****         1.4956  -1.4401  -1.6378 LP             1 S1                 0.0000
     46 ****         0.1868  -1.6783  -0.6906 LP             1 S1                 0.0000
     47 ****        -0.6561   0.4612   2.1214 LP             1 S1                 0.0000
     48 ****        -1.3123   1.5894   3.2600 LP             1 S1                 0.0000
@<TRIPOS>BOND
    1    1    2 1     
    2    1   25 1     
    3    1   26 1     
    4    1   27 1     
    5    2   23 2     
    6    2    3 1     
    7    3    4 2     
    8    4    5 1     
    9    4   28 1     
   10    5    6 1     
   11    5   21 am    
   12    6    7 1     
   13    6   29 1     
   14    6   30 1     
   15    7    8 1     
   16    7    9 1     
   17    7   31 1     
   18    8   32 1     
   19    9   10 1     
   20    9   33 1     
   21    9   34 1     
   22   10   11 1     
   23   11   16 ar    
   24   11   12 ar    
   25   12   13 ar    
   26   12   35 1     
   27   13   14 ar    
   28   13   36 1     
   29   14   15 ar    
   30   14   37 1     
   31   15   16 ar    
   32   15   38 1     
   33   16   17 1     
   34   17   18 1     
   35   17   19 1     
   36   17   20 1     
   37   21   22 2     
   38   21   23 1     
   39   23   24 1     
   40   24   39 1     
   41   24   40 1     
   42   24   41 1     
   43    3   42 1     
   44    8   43 1     
   45    8   44 1     
   46   10   45 1     
   47   10   46 1     
   48   22   47 1     
   49   22   48 1     
@<TRIPOS>SUBSTRUCTURE
      1 S1             1
@<TRIPOS>SET
LONE_PAIRS      STATIC     ATOMS    <user>   **** ""
7 42 43 44 45 46 47 48
DONOR_HYDROGENS      STATIC     ATOMS    <user>   **** ""
1 32
ATOM$BLUE        STATIC     ATOMS    COLORGROUP SYSTEM
7 42 43 44 45 46 47 48
ATOM$RED        STATIC     ATOMS    COLORGROUP SYSTEM
1 32
