#       Name:                AV-unprocessed.smi:1413
#       Creating user name   scv26
#       Creation time:       Fri Mar 27 05:39:34 2020


#       File generated by GOLD software.
#

@<TRIPOS>MOLECULE
AV-unprocessed.smi:1413
    61    63     1
SMALL
NO_CHARGES


@<TRIPOS>ATOM
      1 ****        -6.6741  -2.1056  -0.2446 C.3            1 S1                 0.0000
      2 ****        -6.3825  -0.6577   0.1885 C.3            1 S1                 0.0000
      3 ****        -4.9002  -0.4070   0.5287 C.3            1 S1                 0.0000
      4 ****        -4.0906  -0.3251  -0.6838 N.3            1 S1                 0.0000
      5 ****        -2.6938  -0.3997  -0.4937 C.ar           1 S1                 0.0000
      6 ****        -2.1324  -1.4686   0.2433 C.ar           1 S1                 0.0000
      7 ****        -0.7376  -1.5188   0.4252 C.ar           1 S1                 0.0000
      8 ****         0.0676  -0.5031  -0.1254 C.ar           1 S1                 0.0000
      9 ****         1.4735  -0.5917   0.0677 N.am           1 S1                 0.0000
     10 ****         2.4069   0.3634  -0.0844 C.2            1 S1                 0.0000
     11 ****         2.1887   1.5289  -0.4138 O.2            1 S1                 0.0000
     12 ****         3.6308  -0.1111   0.1872 N.am           1 S1                 0.0000
     13 ****         4.8671   0.6666   0.1502 C.3            1 S1                 0.0000
     14 ****         5.4188   0.6907  -1.2860 C.3            1 S1                 0.0000
     15 ****         5.8723   0.0682   1.1531 C.3            1 S1                 0.0000
     16 ****         7.1846   0.8444   1.2797 C.3            1 S1                 0.0000
     17 ****         7.6472   0.4438   2.6612 C.3            1 S1                 0.0000
     18 ****         6.3305   0.3987   3.4296 C.3            1 S1                 0.0000
     19 ****         5.3260   0.0745   2.4715 O.3            1 S1                 0.0000
     20 ****        -0.5799   0.5160  -0.8639 C.ar           1 S1                 0.0000
     21 ****        -1.9171   0.5667  -1.0414 N.ar           1 S1                 0.0000
     22 ****        -4.6045   0.6394  -1.6528 C.3            1 S1                 0.0000
     23 ****        -6.0778   0.3379  -1.9803 C.3            1 S1                 0.0000
     24 ****        -6.6916   1.4068  -2.8906 C.3            1 S1                 0.0000
     25 ****        -6.8381   0.2965  -0.7732 O.3            1 S1                 0.0000
     26 ****        -6.4427  -2.8025   0.5612 H              1 S1                 0.0000
     27 ****        -6.0828  -2.4062  -1.1092 H              1 S1                 0.0000
     28 ****        -7.7269  -2.2317  -0.4976 H              1 S1                 0.0000
     29 ****        -6.9641  -0.4774   1.0928 H              1 S1                 0.0000
     30 ****        -4.8038   0.5384   1.0643 H              1 S1                 0.0000
     31 ****        -4.5495  -1.1839   1.2065 H              1 S1                 0.0000
     32 ****        -2.7493  -2.2527   0.6561 H              1 S1                 0.0000
     33 ****        -0.2947  -2.3309   0.9831 H              1 S1                 0.0000
     34 ****         1.8057  -1.4810   0.4108 H              1 S1                 0.0000
     35 ****         3.7154  -1.0793   0.4593 H              1 S1                 0.0000
     36 ****         4.6517   1.6916   0.4579 H              1 S1                 0.0000
     37 ****         6.3160   1.3057  -1.3570 H              1 S1                 0.0000
     38 ****         4.6895   1.1054  -1.9828 H              1 S1                 0.0000
     39 ****         5.6742  -0.3122  -1.6298 H              1 S1                 0.0000
     40 ****         6.0951  -0.9684   0.8935 H              1 S1                 0.0000
     41 ****         7.9058   0.5942   0.5011 H              1 S1                 0.0000
     42 ****         7.0024   1.9196   1.2458 H              1 S1                 0.0000
     43 ****         8.1000  -0.5480   2.6310 H              1 S1                 0.0000
     44 ****         8.3699   1.1376   3.0915 H              1 S1                 0.0000
     45 ****         6.3518  -0.3250   4.2445 H              1 S1                 0.0000
     46 ****         6.1006   1.3773   3.8522 H              1 S1                 0.0000
     47 ****        -0.0355   1.3103  -1.3494 H              1 S1                 0.0000
     48 ****        -4.5061   1.6457  -1.2431 H              1 S1                 0.0000
     49 ****        -4.0172   0.6021  -2.5714 H              1 S1                 0.0000
     50 ****        -6.1489  -0.6215  -2.4927 H              1 S1                 0.0000
     51 ****        -6.1543   1.4721  -3.8370 H              1 S1                 0.0000
     52 ****        -6.6629   2.3899  -2.4201 H              1 S1                 0.0000
     53 ****        -7.7331   1.1755  -3.1153 H              1 S1                 0.0000
     54 ****        -4.2218  -1.1948  -1.1594 LP             1 S1                 0.0000
     55 ****         1.2523   1.8311  -0.5924 LP             1 S1                 0.0000
     56 ****         2.9478   2.1738  -0.5028 LP             1 S1                 0.0000
     57 ****         4.9551  -0.8309   2.6779 LP             1 S1                 0.0000
     58 ****         4.5937   0.7538   2.5205 LP             1 S1                 0.0000
     59 ****        -2.3296   1.3082  -1.5705 LP             1 S1                 0.0000
     60 ****        -6.8039   1.2031  -0.3525 LP             1 S1                 0.0000
     61 ****        -7.7841   0.0738  -1.0086 LP             1 S1                 0.0000
@<TRIPOS>BOND
    1    1    2 1     
    2    1   26 1     
    3    1   27 1     
    4    1   28 1     
    5    2   25 1     
    6    2    3 1     
    7    2   29 1     
    8    3    4 1     
    9    3   30 1     
   10    3   31 1     
   11    4    5 1     
   12    4   22 1     
   13    5   21 ar    
   14    5    6 ar    
   15    6    7 ar    
   16    6   32 1     
   17    7    8 ar    
   18    7   33 1     
   19    8    9 1     
   20    8   20 ar    
   21    9   10 am    
   22    9   34 1     
   23   10   11 2     
   24   10   12 am    
   25   12   13 1     
   26   12   35 1     
   27   13   14 1     
   28   13   15 1     
   29   13   36 1     
   30   14   37 1     
   31   14   38 1     
   32   14   39 1     
   33   15   19 1     
   34   15   16 1     
   35   15   40 1     
   36   16   17 1     
   37   16   41 1     
   38   16   42 1     
   39   17   18 1     
   40   17   43 1     
   41   17   44 1     
   42   18   19 1     
   43   18   45 1     
   44   18   46 1     
   45   20   21 ar    
   46   20   47 1     
   47   22   23 1     
   48   22   48 1     
   49   22   49 1     
   50   23   24 1     
   51   23   25 1     
   52   23   50 1     
   53   24   51 1     
   54   24   52 1     
   55   24   53 1     
   56    4   54 1     
   57   11   55 1     
   58   11   56 1     
   59   19   57 1     
   60   19   58 1     
   61   21   59 1     
   62   25   60 1     
   63   25   61 1     
@<TRIPOS>SUBSTRUCTURE
      1 S1             1
@<TRIPOS>SET
LONE_PAIRS      STATIC     ATOMS    <user>   **** ""
8 54 55 56 57 58 59 60 61
DONOR_HYDROGENS      STATIC     ATOMS    <user>   **** ""
2 34 35
ATOM$BLUE        STATIC     ATOMS    COLORGROUP SYSTEM
8 54 55 56 57 58 59 60 61
ATOM$RED        STATIC     ATOMS    COLORGROUP SYSTEM
2 34 35
