AV-unprocessed.smi:1343|AV-procd|sdf|5508|dock1
  -GOLD-   22720 5 93D 1   1.00000     0.00000
 Structure written by MMmdl.
 38 40  0  0  0  0  0  0  0  0  1 V2000
  151.0535  142.8832  156.9079 O   0  0  0  0  0  0  0  0  0  0  0  0
  151.7410  142.3784  157.7983 C   0  0  0  0  0  0  0  0  0  0  0  0
  151.8399  140.8433  157.8963 C   0  0  0  0  0  0  0  0  0  0  0  0
  151.4107  140.1545  156.6302 C   0  0  0  0  0  0  0  0  0  0  0  0
  152.1103  139.2019  155.9295 C   0  0  0  0  0  0  0  0  0  0  0  0
  151.2454  138.6639  154.5159 S   0  0  0  0  0  0  0  0  0  0  0  0
  149.9352  139.7635  154.9404 C   0  0  0  0  0  0  0  0  0  0  0  0
  148.7400  139.8934  154.1724 N   0  0  0  0  0  0  0  0  0  0  0  0
  148.0023  138.7207  153.7199 C   0  0  0  0  0  0  0  0  0  0  0  0
  146.8097  139.3049  152.9687 C   0  0  0  0  0  0  0  0  0  0  0  0
  147.0388  140.7251  153.0919 N   0  0  0  0  0  0  0  0  0  0  0  0
  148.1408  141.0364  153.7779 C   0  0  0  0  0  0  0  0  0  0  0  0
  148.5145  142.1881  153.9943 O   0  0  0  0  0  0  0  0  0  0  0  0
  150.1719  140.4602  156.0581 N   0  0  0  0  0  0  0  0  0  0  0  0
  152.4251  143.1347  158.6922 N   0  0  0  0  0  0  0  0  0  0  0  0
  152.4135  144.6033  158.7557 C   0  0  0  0  0  0  0  0  0  0  0  0
  151.6336  145.0402  160.0087 C   0  0  0  0  0  0  0  0  0  0  0  0
  152.2414  144.4142  161.2779 C   0  0  0  0  0  0  0  0  0  0  0  0
  152.4297  142.8925  161.1284 C   0  0  0  0  0  0  0  0  0  0  0  0
  153.1671  142.5531  159.8193 C   0  0  0  0  0  0  0  0  0  0  0  0
  152.8700  140.5694  158.1273 H   0  0  0  0  0  0  0  0  0  0  0  0
  151.2261  140.5033  158.7313 H   0  0  0  0  0  0  0  0  0  0  0  0
  153.0827  138.7907  156.1560 H   0  0  0  0  0  0  0  0  0  0  0  0
  148.6216  138.1057  153.0656 H   0  0  0  0  0  0  0  0  0  0  0  0
  147.6804  138.1147  154.5678 H   0  0  0  0  0  0  0  0  0  0  0  0
  146.7979  139.0054  151.9202 H   0  0  0  0  0  0  0  0  0  0  0  0
  145.8604  139.0291  153.4288 H   0  0  0  0  0  0  0  0  0  0  0  0
  146.4143  141.4112  152.6935 H   0  0  0  0  0  0  0  0  0  0  0  0
  153.4409  144.9653  158.8145 H   0  0  0  0  0  0  0  0  0  0  0  0
  151.9931  145.0799  157.8719 H   0  0  0  0  0  0  0  0  0  0  0  0
  151.6342  146.1272  160.0923 H   0  0  0  0  0  0  0  0  0  0  0  0
  150.5901  144.7367  159.9129 H   0  0  0  0  0  0  0  0  0  0  0  0
  153.2108  144.8749  161.4716 H   0  0  0  0  0  0  0  0  0  0  0  0
  151.6170  144.6348  162.1439 H   0  0  0  0  0  0  0  0  0  0  0  0
  152.9807  142.4991  161.9829 H   0  0  0  0  0  0  0  0  0  0  0  0
  151.4559  142.4009  161.1347 H   0  0  0  0  0  0  0  0  0  0  0  0
  153.2918  141.4728  159.7353 H   0  0  0  0  0  0  0  0  0  0  0  0
  154.1764  142.9663  159.8392 H   0  0  0  0  0  0  0  0  0  0  0  0
  1  2  2  0  0  0  0
  2  3  1  0  0  0  0
  2 15  1  0  0  0  0
  3  4  1  0  0  0  0
  3 21  1  0  0  0  0
  3 22  1  0  0  0  0
  4 14  1  0  0  0  0
  4  5  2  0  0  0  0
  5  6  1  0  0  0  0
  5 23  1  0  0  0  0
  6  7  1  0  0  0  0
  7  8  1  0  0  0  0
  7 14  2  0  0  0  0
  8 12  1  0  0  0  0
  8  9  1  0  0  0  0
  9 10  1  0  0  0  0
  9 24  1  0  0  0  0
  9 25  1  0  0  0  0
 10 11  1  0  0  0  0
 10 26  1  0  0  0  0
 10 27  1  0  0  0  0
 11 12  1  0  0  0  0
 11 28  1  0  0  0  0
 12 13  2  0  0  0  0
 15 20  1  0  0  0  0
 15 16  1  0  0  0  0
 16 17  1  0  0  0  0
 16 29  1  0  0  0  0
 16 30  1  0  0  0  0
 17 18  1  0  0  0  0
 17 31  1  0  0  0  0
 17 32  1  0  0  0  0
 18 19  1  0  0  0  0
 18 33  1  0  0  0  0
 18 34  1  0  0  0  0
 19 20  1  0  0  0  0
 19 35  1  0  0  0  0
 19 36  1  0  0  0  0
 20 37  1  0  0  0  0
 20 38  1  0  0  0  0
M  END
> <s_m_source_file>
AV-unprocessed.smi

> <i_m_source_file_index>
1343

> <i_lp_mmshare_version>
43012

> <i_f3d_flags>
0

> <s_epik_input>
W0NIMl0xW0NIMl1bQ0gyXVtDSDJdW0NIMl1OMUMoPU8pW0NIMl1jMltjSF1zYyhuMilOM1tDSDJdW0NIMl1bTkhdQzM9Tw==

> <s_epik_cmdline>
J2VwaWtfcHl0aG9uJywgJy1waCcsICc3LjAnLCAnLXRuJywgJzgnLCAnLW1hJywgJzIwMCcsICctbWV0YWxfYmluZGluZycsICctaW1hZScsICc8aW5maWxlLm1hZT4nLCAnLW9tYWUnLCAnPG91dGZpbGUubWFlPic=

> <r_lp_tautomer_probability>
1

> <r_epik_Ionization_Penalty>
0.0001265

> <r_epik_Ionization_Penalty_Charging>
0

> <r_epik_Ionization_Penalty_Neutral>
0.0001265

> <r_epik_State_Penalty>
-0

> <r_epik_Charging_Adjusted_Penalty>
0

> <i_epik_Tot_Q>
0

> <i_epik_Tot_abs_Q>
0

> <r_epik_Metal_State_Penalty>
-0

> <b_epik_Metal_Only>
0

> <s_lp_Force_Field>
OPLS_2005

> <r_lp_Energy>
52.3912

> <b_lp_Chiralities_Consistent>
1

> <s_lp_Variant>
AV-unprocessed.smi:1343-1

> <Gold.Version>
5.8.1

> <Gold.Id.Protein>
6NUR|6NUR_protein|mol2

> <Gold.PLP.Fitness>
45.6272

> <Gold.PLP.PLP>
-47.2230

> <Gold.PLP.part.hbond>
-1.0695

> <Gold.PLP.part.metal>
0.0000

> <Gold.PLP.part.buried>
-5.1308

> <Gold.PLP.part.nonpolar>
-42.7146

> <Gold.PLP.part.repulsive>
1.4278

> <Gold.PLP.ligand.clash>
0.0000

> <Gold.PLP.ligand.torsion>
1.1164

> <Gold.PLP.Chemscore.Hbond>
0.2075

> <Gold.PLP.Chemscore.CHOScore>
0.0000

> <Gold.PLP.Chemscore.Metal>
0.0000

> <Gold.Chemscore.Hbonds>
donor molecule, donor type, donor heavy atom, donor atom, acceptor molecule, acceptor atom, score
      P1  H  8011  8017       L1    13  0.24

> <Gold.PLP.Chemscore.Internal.Correction>
0.0146

> <Gold.Rescore>
     Score         DG    S(hbond)    S(metal)    S(lipo)     H(rot)  DE(clash)    DE(int)     intcor
     12.23     -15.37       0.47        0.00      98.70       1.27       0.36       2.77       ----

> <Gold.Chemscore.Fitness>
12.2346

> <Gold.Chemscore.DG>
-15.3653

> <Gold.Chemscore.ZeroCoef>
-5.4800

> <Gold.Chemscore.Hbond>
0.4739

> <Gold.Chemscore.Metal>
0.0000

> <Gold.Chemscore.Lipo>
98.7016

> <Gold.Chemscore.Internal_Hbond>
0.0000

> <Gold.Chemscore.DEClash>
0.3561

> <Gold.Chemscore.DEInternal>
2.7745

> <Gold.Chemscore.Rot>
1.2678

> <Gold.Chemscore.Internal.Correction>
   9.000000E+99

> <Gold.Chemscore.Hbonds>
donor molecule, donor type, donor heavy atom, donor atom, acceptor molecule, acceptor atom, score
      P1  H  8011  8017       L1    13  0.06

> <Gold.Chemscore.Hbond.Weighted>
-1.5828

> <Gold.Chemscore.Metal.Weighted>
-0.0000

> <Gold.Chemscore.Lipo.Weighted>
-11.5481

> <Gold.Chemscore.Internal_Hbond.Weighted>
0.0000

> <Gold.Chemscore.DEClash.Weighted>
0.3561

> <Gold.Chemscore.DEInternal.Weighted>
2.7745

> <Gold.Chemscore.Rot.Weighted>
3.2456

> <Gold.Chemscore.Internal.Correction.Weighted>
   9.000000E+99

> <Gold.Protein.RotatedTorsions>
[ 6907 6896 6895 6894 ] final   58.08 input  -60.11 | X-H torsion
[ 7974 7965 7964 7962 ] final  -67.50 input  175.53 | X-H torsion
[ 8008 7997 7996 7995 ] final -117.46 input   59.86 | X-H torsion
[ 10167 10162 10161 10158 ] final -155.62 input  -65.29 | X-H torsion
[ 10718 10713 10712 10709 ] final   61.46 input   66.30 | X-H torsion
[ 10763 10752 10751 10750 ] final  -43.15 input  -60.55 | X-H torsion
[ 11005 11000 10999 10996 ] final   46.06 input  -57.11 | X-H torsion

> <Gold.Protein.ActiveResidues>
 VAL166  LYS551  ARG553  GLY616  TRP617  ASP618  TYR619  PRO620  LYS621  CYS622 
 ASP623  PHE694  ASN695  SER759  ASP760  ASP761  ALA762  ILE779  LEU786  VAL792 
 PHE793  MET794  SER795  GLU796  ALA797  LYS798  CYS799  TRP800  GLU811  SER814 

> <Gold.Protein.RotatedAtoms>
  152.3791  134.6618  160.0149 H   0  0  0  0  0  0  0  0  0  0  0  0  # atno 6907 bound_to 6896
  151.6887  133.3305  159.3245 H   0  0  0  0  0  0  0  0  0  0  0  0  # atno 6908 bound_to 6896
  150.7733  134.6653  159.6406 H   0  0  0  0  0  0  0  0  0  0  0  0  # atno 6909 bound_to 6896
  145.7284  140.9008  143.0593 H   0  0  0  0  0  0  0  0  0  0  0  0  # atno 7974 bound_to 7965
  155.0841  140.0394  157.2648 H   0  0  0  0  0  0  0  0  0  0  0  0  # atno 8008 bound_to 7997
  154.6884  140.2648  155.6813 H   0  0  0  0  0  0  0  0  0  0  0  0  # atno 8009 bound_to 7997
  156.2720  140.2764  156.1453 H   0  0  0  0  0  0  0  0  0  0  0  0  # atno 8010 bound_to 7997
  139.6916  143.9411  152.2387 H   0  0  0  0  0  0  0  0  0  0  0  0  # atno 10167 bound_to 10162
  157.5830  130.8996  149.9464 H   0  0  0  0  0  0  0  0  0  0  0  0  # atno 10718 bound_to 10713
  153.9908  135.6705  153.4754 H   0  0  0  0  0  0  0  0  0  0  0  0  # atno 10763 bound_to 10752
  153.0706  135.4976  154.8292 H   0  0  0  0  0  0  0  0  0  0  0  0  # atno 10764 bound_to 10752
  154.7110  135.3097  154.9159 H   0  0  0  0  0  0  0  0  0  0  0  0  # atno 10765 bound_to 10752
  140.1403  134.4591  155.8454 H   0  0  0  0  0  0  0  0  0  0  0  0  # atno 11005 bound_to 11000
  144.6899  139.9297  143.7471 LP  0  0  0  0  0  0  0  0  0  0  0  0  # atno 17320 bound_to 7965
  146.0561  139.3557  143.0610 LP  0  0  0  0  0  0  0  0  0  0  0  0  # atno 17321 bound_to 7965
  139.9228  144.6789  150.8443 LP  0  0  0  0  0  0  0  0  0  0  0  0  # atno 17342 bound_to 10162
  140.7684  143.3363  151.2303 LP  0  0  0  0  0  0  0  0  0  0  0  0  # atno 17343 bound_to 10162
  156.0877  130.3666  150.0456 LP  0  0  0  0  0  0  0  0  0  0  0  0  # atno 17370 bound_to 10713
  156.8592  130.9486  151.3619 LP  0  0  0  0  0  0  0  0  0  0  0  0  # atno 17371 bound_to 10713
  141.2185  133.6830  156.7234 LP  0  0  0  0  0  0  0  0  0  0  0  0  # atno 17394 bound_to 11000
  140.2730  134.8377  157.3865 LP  0  0  0  0  0  0  0  0  0  0  0  0  # atno 17395 bound_to 11000

$$$$
