#       Name:                AV-unprocessed.smi:2112
#       Creating user name   scv26
#       Creation time:       Fri Mar 27 11:35:50 2020


#       File generated by GOLD software.
#

@<TRIPOS>MOLECULE
AV-unprocessed.smi:2112
    44    45     1
SMALL
NO_CHARGES


@<TRIPOS>ATOM
      1 ****        -4.6155  -4.0748  -3.3475 C.3            1 S1                 0.0000
      2 ****        -3.7043  -3.4931  -2.2564 C.3            1 S1                 0.0000
      3 ****        -4.3023  -2.1917  -1.6938 C.3            1 S1                 0.0000
      4 ****        -2.2678  -3.3101  -2.7897 C.3            1 S1                 0.0000
      5 ****        -1.3310  -2.9141  -1.7414 N.am           1 S1                 0.0000
      6 ****        -0.8524  -1.6762  -1.5487 C.2            1 S1                 0.0000
      7 ****        -1.1554  -0.7136  -2.2524 O.2            1 S1                 0.0000
      8 ****        -0.0083  -1.6424  -0.5026 N.am           1 S1                 0.0000
      9 ****         0.6913  -0.5350   0.0514 C.ar           1 S1                 0.0000
     10 ****         1.6838  -0.8091   1.0161 C.ar           1 S1                 0.0000
     11 ****         2.4007   0.2503   1.6087 C.ar           1 S1                 0.0000
     12 ****         2.1139   1.5842   1.2362 C.ar           1 S1                 0.0000
     13 ****         2.7912   2.6907   1.7826 N.pl3          1 S1                 0.0000
     14 ****         2.3548   4.0543   1.5271 C.3            1 S1                 0.0000
     15 ****         3.2333   4.9162   2.4325 C.3            1 S1                 0.0000
     16 ****         3.4744   4.0131   3.6422 C.3            1 S1                 0.0000
     17 ****         3.4957   2.5975   3.0536 C.3            1 S1                 0.0000
     18 ****         1.1526   1.8025   0.3077 N.pl3          1 S1                 1.0000
     19 ****         0.4422   0.8181  -0.2845 C.ar           1 S1                 0.0000
     20 ****        -4.6923  -3.3999  -4.2007 H              1 S1                 0.0000
     21 ****        -5.6232  -4.2483  -2.9684 H              1 S1                 0.0000
     22 ****        -4.2344  -5.0295  -3.7113 H              1 S1                 0.0000
     23 ****        -3.6705  -4.2190  -1.4428 H              1 S1                 0.0000
     24 ****        -4.3206  -1.4061  -2.4498 H              1 S1                 0.0000
     25 ****        -3.7321  -1.8216  -0.8420 H              1 S1                 0.0000
     26 ****        -5.3255  -2.3471  -1.3508 H              1 S1                 0.0000
     27 ****        -1.9086  -4.2537  -3.2016 H              1 S1                 0.0000
     28 ****        -2.2579  -2.5987  -3.6176 H              1 S1                 0.0000
     29 ****        -1.0244  -3.6434  -1.1145 H              1 S1                 0.0000
     30 ****         0.1716  -2.5304  -0.0575 H              1 S1                 0.0000
     31 ****         1.9012  -1.8280   1.3022 H              1 S1                 0.0000
     32 ****         3.1654   0.0259   2.3376 H              1 S1                 0.0000
     33 ****         2.4705   4.3250   0.4771 H              1 S1                 0.0000
     34 ****         1.3035   4.1588   1.7991 H              1 S1                 0.0000
     35 ****         4.1816   5.1273   1.9364 H              1 S1                 0.0000
     36 ****         2.7696   5.8677   2.6938 H              1 S1                 0.0000
     37 ****         4.3885   4.2602   4.1829 H              1 S1                 0.0000
     38 ****         2.6391   4.1078   4.3374 H              1 S1                 0.0000
     39 ****         3.0294   1.8855   3.7355 H              1 S1                 0.0000
     40 ****         4.5194   2.2726   2.8652 H              1 S1                 0.0000
     41 ****        -0.2963   1.1634  -0.9915 H              1 S1                 0.0000
     42 ****         0.9489   2.7661   0.0418 H              1 S1                 0.0000
     43 ****        -1.7905  -0.8325  -3.0157 LP             1 S1                 0.0000
     44 ****        -0.7666   0.1876  -2.0612 LP             1 S1                 0.0000
@<TRIPOS>BOND
    1    1    2 1     
    2    1   20 1     
    3    1   21 1     
    4    1   22 1     
    5    2    3 1     
    6    2    4 1     
    7    2   23 1     
    8    3   24 1     
    9    3   25 1     
   10    3   26 1     
   11    4    5 1     
   12    4   27 1     
   13    4   28 1     
   14    5    6 am    
   15    5   29 1     
   16    6    7 2     
   17    6    8 am    
   18    8    9 1     
   19    8   30 1     
   20    9   19 ar    
   21    9   10 ar    
   22   10   11 ar    
   23   10   31 1     
   24   11   12 ar    
   25   11   32 1     
   26   12   13 1     
   27   12   18 ar    
   28   13   17 1     
   29   13   14 1     
   30   14   15 1     
   31   14   33 1     
   32   14   34 1     
   33   15   16 1     
   34   15   35 1     
   35   15   36 1     
   36   16   17 1     
   37   16   37 1     
   38   16   38 1     
   39   17   39 1     
   40   17   40 1     
   41   18   19 ar    
   42   18   42 1     
   43   19   41 1     
   44    7   43 1     
   45    7   44 1     
@<TRIPOS>SUBSTRUCTURE
      1 S1             1
@<TRIPOS>SET
LONE_PAIRS      STATIC     ATOMS    <user>   **** ""
2 43 44
DONOR_HYDROGENS      STATIC     ATOMS    <user>   **** ""
3 29 30 42
ATOM$BLUE        STATIC     ATOMS    COLORGROUP SYSTEM
2 43 44
ATOM$RED        STATIC     ATOMS    COLORGROUP SYSTEM
3 29 30 42
