AV-unprocessed.smi:1669|AV-procd|sdf|6683|dock6
  -GOLD-   22720 7403D 1   1.00000     0.00000
 Structure written by MMmdl.
 48 50  0  0  0  0  0  0  0  0  2 V2000
  146.4078  136.3092  153.9388 C   0  0  0  0  0  0  0  0  0  0  0  0
  146.5724  137.1600  152.7370 N   0  3  1  0  0  0  0  0  0  0  0  0
  145.5571  136.8761  151.6894 C   0  0  0  0  0  0  0  0  0  0  0  0
  145.2655  135.3915  151.5703 C   0  0  0  0  0  0  0  0  0  0  0  0
  143.9819  134.8994  151.8871 C   0  0  0  0  0  0  0  0  0  0  0  0
  143.7044  133.5231  151.7744 C   0  0  0  0  0  0  0  0  0  0  0  0
  144.7095  132.6341  151.3470 C   0  0  0  0  0  0  0  0  0  0  0  0
  145.9931  133.1214  151.0335 C   0  0  0  0  0  0  0  0  0  0  0  0
  146.2715  134.4974  151.1457 C   0  0  0  0  0  0  0  0  0  0  0  0
  146.6550  138.6018  153.0804 C   0  0  0  0  0  0  0  0  0  0  0  0
  147.6483  138.8626  154.2343 C   0  0  2  0  0  0  0  0  0  0  0  0
  147.1030  139.8448  155.0913 O   0  0  0  0  0  0  0  0  0  0  0  0
  149.0333  139.3518  153.7664 C   0  0  0  0  0  0  0  0  0  0  0  0
  150.0277  139.3026  154.8304 N   0  0  0  0  0  0  0  0  0  0  0  0
  150.7153  138.2304  155.3014 C   0  0  0  0  0  0  0  0  0  0  0  0
  150.5372  136.8518  154.7434 C   0  0  0  0  0  0  0  0  0  0  0  0
  151.5560  136.4968  153.8335 O   0  0  0  0  0  0  0  0  0  0  0  0
  151.5597  138.4782  156.3029 N   0  0  0  0  0  0  0  0  0  0  0  0
  151.4182  139.8387  156.4922 C   0  0  0  0  0  0  0  0  0  0  0  0
  152.0451  140.7083  157.4129 C   0  0  0  0  0  0  0  0  0  0  0  0
  151.7346  142.0840  157.4199 C   0  0  0  0  0  0  0  0  0  0  0  0
  150.7968  142.6091  156.5075 C   0  0  0  0  0  0  0  0  0  0  0  0
  150.1608  141.7599  155.5819 C   0  0  0  0  0  0  0  0  0  0  0  0
  150.4710  140.3867  155.5818 C   0  0  0  0  0  0  0  0  0  0  0  0
  145.4549  136.5081  154.4309 H   0  0  0  0  0  0  0  0  0  0  0  0
  147.2083  136.4950  154.6556 H   0  0  0  0  0  0  0  0  0  0  0  0
  146.4468  135.2504  153.6827 H   0  0  0  0  0  0  0  0  0  0  0  0
  144.6400  137.4298  151.8980 H   0  0  0  0  0  0  0  0  0  0  0  0
  145.9008  137.2218  150.7144 H   0  0  0  0  0  0  0  0  0  0  0  0
  143.2063  135.5763  152.2151 H   0  0  0  0  0  0  0  0  0  0  0  0
  142.7202  133.1493  152.0155 H   0  0  0  0  0  0  0  0  0  0  0  0
  144.4963  131.5787  151.2607 H   0  0  0  0  0  0  0  0  0  0  0  0
  146.7644  132.4395  150.7064 H   0  0  0  0  0  0  0  0  0  0  0  0
  147.2582  134.8632  150.9020 H   0  0  0  0  0  0  0  0  0  0  0  0
  146.9327  139.1516  152.1803 H   0  0  0  0  0  0  0  0  0  0  0  0
  145.6751  138.9827  153.3728 H   0  0  0  0  0  0  0  0  0  0  0  0
  147.7853  137.9577  154.8249 H   0  0  0  0  0  0  0  0  0  0  0  0
  147.8108  140.2956  155.5270 H   0  0  0  0  0  0  0  0  0  0  0  0
  149.3745  138.7669  152.9131 H   0  0  0  0  0  0  0  0  0  0  0  0
  148.9670  140.3835  153.4182 H   0  0  0  0  0  0  0  0  0  0  0  0
  150.5342  136.1292  155.5604 H   0  0  0  0  0  0  0  0  0  0  0  0
  149.5665  136.7747  154.2538 H   0  0  0  0  0  0  0  0  0  0  0  0
  151.2578  136.6886  152.9574 H   0  0  0  0  0  0  0  0  0  0  0  0
  152.7670  140.3171  158.1144 H   0  0  0  0  0  0  0  0  0  0  0  0
  152.2202  142.7399  158.1276 H   0  0  0  0  0  0  0  0  0  0  0  0
  150.5674  143.6647  156.5178 H   0  0  0  0  0  0  0  0  0  0  0  0
  149.4449  142.1612  154.8799 H   0  0  0  0  0  0  0  0  0  0  0  0
  147.4721  136.9210  152.3440 H   0  0  0  0  0  0  0  0  0  0  0  0
  1  2  1  0  0  0  0
  1 25  1  0  0  0  0
  1 26  1  0  0  0  0
  1 27  1  0  0  0  0
  2  3  1  0  0  0  0
  2 10  1  0  0  0  0
  2 48  1  0  0  0  0
  3  4  1  0  0  0  0
  3 28  1  0  0  0  0
  3 29  1  0  0  0  0
  4  9  1  0  0  0  0
  4  5  2  0  0  0  0
  5  6  1  0  0  0  0
  5 30  1  0  0  0  0
  6  7  2  0  0  0  0
  6 31  1  0  0  0  0
  7  8  1  0  0  0  0
  7 32  1  0  0  0  0
  8  9  2  0  0  0  0
  8 33  1  0  0  0  0
  9 34  1  0  0  0  0
 10 11  1  0  0  0  0
 10 35  1  0  0  0  0
 10 36  1  0  0  0  0
 11 12  1  0  0  0  0
 11 13  1  0  0  0  0
 11 37  1  0  0  0  0
 12 38  1  0  0  0  0
 13 14  1  0  0  0  0
 13 39  1  0  0  0  0
 13 40  1  0  0  0  0
 14 24  1  0  0  0  0
 14 15  1  0  0  0  0
 15 16  1  0  0  0  0
 15 18  2  0  0  0  0
 16 17  1  0  0  0  0
 16 41  1  0  0  0  0
 16 42  1  0  0  0  0
 17 43  1  0  0  0  0
 18 19  1  0  0  0  0
 19 24  2  0  0  0  0
 19 20  1  0  0  0  0
 20 21  2  0  0  0  0
 20 44  1  0  0  0  0
 21 22  1  0  0  0  0
 21 45  1  0  0  0  0
 22 23  2  0  0  0  0
 22 46  1  0  0  0  0
 23 24  1  0  0  0  0
 23 47  1  0  0  0  0
M  CHG  1   2   1
M  END
> <s_m_source_file>
AV-unprocessed.smi

> <i_m_source_file_index>
1669

> <i_lp_mmshare_version>
43012

> <i_f3d_flags>
0

> <s_epik_input>
W2NIXTFbY0hdW2NIXVtjSF1bY0hdYzFbQ0gyXU4oW0NIM10pW0NIMl1bQ0BIXShbT0hdKVtDSDJdbihjKG4yKVtDSDJdW09IXSljKGMyMylbY0hdW2NIXVtjSF1bY0hdMw==

> <s_epik_cmdline>
J2VwaWtfcHl0aG9uJywgJy1waCcsICc3LjAnLCAnLXRuJywgJzgnLCAnLW1hJywgJzIwMCcsICctbWV0YWxfYmluZGluZycsICctaW1hZScsICc8aW5maWxlLm1hZT4nLCAnLW9tYWUnLCAnPG91dGZpbGUubWFlPic=

> <r_epik_Ionization_Penalty>
0.0949884

> <r_epik_Ionization_Penalty_Charging>
0.0475377

> <r_epik_Ionization_Penalty_Neutral>
0.0474507

> <r_epik_State_Penalty>
0.078247

> <r_epik_Charging_Adjusted_Penalty>
0.125785

> <i_epik_Tot_Q>
1

> <i_epik_Tot_abs_Q>
1

> <r_epik_Metal_State_Penalty>
0.0403451

> <b_epik_Metal_Only>
0

> <s_lp_Force_Field>
OPLS_2005

> <r_lp_Energy>
16.111

> <b_lp_Chiralities_Consistent>
1

> <s_lp_Variant>
AV-unprocessed.smi:1669-1

> <Gold.Version>
5.8.1

> <Gold.Id.Protein>
6NUR|6NUR_protein|mol2

> <Gold.PLP.Fitness>
46.9949

> <Gold.PLP.PLP>
-37.7019

> <Gold.PLP.part.hbond>
-3.1250

> <Gold.PLP.part.metal>
0.0000

> <Gold.PLP.part.buried>
-1.4790

> <Gold.PLP.part.nonpolar>
-33.6883

> <Gold.PLP.part.repulsive>
0.0318

> <Gold.PLP.ligand.clash>
0.0000

> <Gold.PLP.ligand.torsion>
1.3795

> <Gold.PLP.Chemscore.Hbond>
3.9920

> <Gold.PLP.Chemscore.CHOScore>
0.0000

> <Gold.PLP.Chemscore.Metal>
0.0000

> <Gold.Chemscore.Hbonds>
donor molecule, donor type, donor heavy atom, donor atom, acceptor molecule, acceptor atom, score
      L1  H     2    48       P1  7948  2.00
      L1  H    17    43       P1  7949  0.80
      P1  H 10752 10764       L1    17  1.00

> <Gold.PLP.Chemscore.Internal.Correction>
0.0759

> <Gold.Rescore>
     Score         DG    S(hbond)    S(metal)    S(lipo)     H(rot)  DE(clash)    DE(int)     intcor
     15.33     -17.04       2.40        0.00      99.61       3.17       0.29       1.42       ----

> <Gold.Chemscore.Fitness>
15.3292

> <Gold.Chemscore.DG>
-17.0355

> <Gold.Chemscore.ZeroCoef>
-5.4800

> <Gold.Chemscore.Hbond>
2.4023

> <Gold.Chemscore.Metal>
0.0000

> <Gold.Chemscore.Lipo>
99.6144

> <Gold.Chemscore.Internal_Hbond>
0.0000

> <Gold.Chemscore.DEClash>
0.2857

> <Gold.Chemscore.DEInternal>
1.4206

> <Gold.Chemscore.Rot>
3.1731

> <Gold.Chemscore.Internal.Correction>
   9.000000E+99

> <Gold.Chemscore.Hbonds>
donor molecule, donor type, donor heavy atom, donor atom, acceptor molecule, acceptor atom, score
      L1  H     2    48       P1  7948  1.00
      L1  H    17    43       P1  7949  0.52
      P1  H 10752 10764       L1    17  0.98

> <Gold.Chemscore.Hbond.Weighted>
-8.0236

> <Gold.Chemscore.Metal.Weighted>
-0.0000

> <Gold.Chemscore.Lipo.Weighted>
-11.6549

> <Gold.Chemscore.Internal_Hbond.Weighted>
0.0000

> <Gold.Chemscore.DEClash.Weighted>
0.2857

> <Gold.Chemscore.DEInternal.Weighted>
1.4206

> <Gold.Chemscore.Rot.Weighted>
8.1230

> <Gold.Chemscore.Internal.Correction.Weighted>
   9.000000E+99

> <Gold.Protein.RotatedTorsions>
[ 6907 6896 6895 6894 ] final   61.88 input  -60.11 | X-H torsion
[ 7974 7965 7964 7962 ] final -178.58 input  175.53 | X-H torsion
[ 8008 7997 7996 7995 ] final   -7.12 input   59.86 | X-H torsion
[ 10167 10162 10161 10158 ] final -155.30 input  -65.29 | X-H torsion
[ 10718 10713 10712 10709 ] final  117.93 input   66.30 | X-H torsion
[ 10763 10752 10751 10750 ] final  -90.43 input  -60.55 | X-H torsion
[ 11005 11000 10999 10996 ] final -174.16 input  -57.11 | X-H torsion

> <Gold.Protein.ActiveResidues>
 VAL166  LYS551  ARG553  GLY616  TRP617  ASP618  TYR619  PRO620  LYS621  CYS622 
 ASP623  PHE694  ASN695  SER759  ASP760  ASP761  ALA762  ILE779  LEU786  VAL792 
 PHE793  MET794  SER795  GLU796  ALA797  LYS798  CYS799  TRP800  GLU811  SER814 

> <Gold.Protein.RotatedAtoms>
  152.4126  134.6097  160.0022 H   0  0  0  0  0  0  0  0  0  0  0  0  # atno 6907 bound_to 6896
  151.6270  133.3329  159.3108 H   0  0  0  0  0  0  0  0  0  0  0  0  # atno 6908 bound_to 6896
  150.8016  134.7154  159.6672 H   0  0  0  0  0  0  0  0  0  0  0  0  # atno 6909 bound_to 6896
  144.7132  140.0847  143.6424 H   0  0  0  0  0  0  0  0  0  0  0  0  # atno 7974 bound_to 7965
  154.5869  140.2415  155.7974 H   0  0  0  0  0  0  0  0  0  0  0  0  # atno 8008 bound_to 7997
  156.2220  140.2994  155.9929 H   0  0  0  0  0  0  0  0  0  0  0  0  # atno 8009 bound_to 7997
  155.2442  140.0408  157.2969 H   0  0  0  0  0  0  0  0  0  0  0  0  # atno 8010 bound_to 7997
  139.6942  143.9370  152.2399 H   0  0  0  0  0  0  0  0  0  0  0  0  # atno 10167 bound_to 10162
  157.6064  131.1042  150.7684 H   0  0  0  0  0  0  0  0  0  0  0  0  # atno 10718 bound_to 10713
  154.6657  135.5305  153.8073 H   0  0  0  0  0  0  0  0  0  0  0  0  # atno 10763 bound_to 10752
  153.0469  135.6516  154.0803 H   0  0  0  0  0  0  0  0  0  0  0  0  # atno 10764 bound_to 10752
  154.0708  135.2954  155.3288 H   0  0  0  0  0  0  0  0  0  0  0  0  # atno 10765 bound_to 10752
  140.4776  134.6106  157.4907 H   0  0  0  0  0  0  0  0  0  0  0  0  # atno 11005 bound_to 11000
  145.9672  139.2843  143.1120 LP  0  0  0  0  0  0  0  0  0  0  0  0  # atno 17320 bound_to 7965
  145.9156  140.9150  143.0431 LP  0  0  0  0  0  0  0  0  0  0  0  0  # atno 17321 bound_to 7965
  139.9194  144.6809  150.8477 LP  0  0  0  0  0  0  0  0  0  0  0  0  # atno 17342 bound_to 10162
  140.7691  143.3386  151.2257 LP  0  0  0  0  0  0  0  0  0  0  0  0  # atno 17343 bound_to 10162
  156.8071  130.4940  149.5361 LP  0  0  0  0  0  0  0  0  0  0  0  0  # atno 17370 bound_to 10713
  156.1152  130.6069  151.0109 LP  0  0  0  0  0  0  0  0  0  0  0  0  # atno 17371 bound_to 10713
  139.9846  134.7082  155.9797 LP  0  0  0  0  0  0  0  0  0  0  0  0  # atno 17394 bound_to 11000
  141.1547  133.6544  156.4123 LP  0  0  0  0  0  0  0  0  0  0  0  0  # atno 17395 bound_to 11000

$$$$
