AV-unprocessed.smi:2013|AV-procd|sdf|8160|dock8
  -GOLD-   2272010403D 1   1.00000     0.00000
 Structure written by MMmdl.
 50 51  0  0  0  0  0  0  0  0  1 V2000
  150.7405  138.8468  154.6944 C   0  0  0  0  0  0  0  0  0  0  0  0
  151.2768  139.6405  155.9029 C   0  0  0  0  0  0  0  0  0  0  0  0
  152.7869  139.4153  156.0902 C   0  0  0  0  0  0  0  0  0  0  0  0
  150.4819  139.5076  157.2420 C   0  0  1  0  0  0  0  0  0  0  0  0
  150.5001  138.0725  157.8437 C   0  0  0  0  0  0  0  0  0  0  0  0
  149.2325  137.3721  157.6664 N   0  0  0  0  0  0  0  0  0  0  0  0
  149.1031  136.0470  157.5049 C   0  0  0  0  0  0  0  0  0  0  0  0
  150.0623  135.2784  157.4266 O   0  0  0  0  0  0  0  0  0  0  0  0
  147.6691  135.5118  157.4110 C   0  0  0  0  0  0  0  0  0  0  0  0
  147.0862  135.2485  158.7323 N   0  0  0  0  0  0  0  0  0  0  0  0
  146.8811  133.9450  159.1464 C   0  0  0  0  0  0  0  0  0  0  0  0
  146.3724  133.6190  160.3547 C   0  0  0  0  0  0  0  0  0  0  0  0
  146.0000  134.6514  161.3146 C   0  0  0  0  0  0  0  0  0  0  0  0
  145.5481  134.3954  162.4312 O   0  0  0  0  0  0  0  0  0  0  0  0
  146.2092  135.9761  160.8608 N   0  0  0  0  0  0  0  0  0  0  0  0
  145.8880  137.0796  161.7421 C   0  0  0  0  0  0  0  0  0  0  0  0
  146.7505  136.3102  159.6002 C   0  0  0  0  0  0  0  0  0  0  0  0
  146.9336  137.4824  159.2615 O   0  0  0  0  0  0  0  0  0  0  0  0
  150.7154  140.5901  158.2183 N   0  0  0  0  0  0  0  0  0  0  0  0
  151.9093  140.3764  159.0342 C   0  0  0  0  0  0  0  0  0  0  0  0
  152.0493  141.4454  160.1306 C   0  0  0  0  0  0  0  0  0  0  0  0
  152.0691  142.7376  159.5336 O   0  0  0  0  0  0  0  0  0  0  0  0
  150.8991  143.0051  158.7676 C   0  0  0  0  0  0  0  0  0  0  0  0
  150.7421  141.9430  157.6653 C   0  0  0  0  0  0  0  0  0  0  0  0
  150.9241  137.7782  154.7754 H   0  0  0  0  0  0  0  0  0  0  0  0
  151.2379  139.1749  153.7813 H   0  0  0  0  0  0  0  0  0  0  0  0
  149.6731  138.9984  154.5393 H   0  0  0  0  0  0  0  0  0  0  0  0
  151.1832  140.6873  155.6111 H   0  0  0  0  0  0  0  0  0  0  0  0
  153.0100  138.3754  156.3310 H   0  0  0  0  0  0  0  0  0  0  0  0
  153.1803  140.0370  156.8951 H   0  0  0  0  0  0  0  0  0  0  0  0
  153.3364  139.6675  155.1828 H   0  0  0  0  0  0  0  0  0  0  0  0
  149.4516  139.6534  156.9135 H   0  0  0  0  0  0  0  0  0  0  0  0
  151.2783  137.4686  157.3779 H   0  0  0  0  0  0  0  0  0  0  0  0
  150.7355  138.0929  158.9078 H   0  0  0  0  0  0  0  0  0  0  0  0
  148.3923  137.9304  157.7118 H   0  0  0  0  0  0  0  0  0  0  0  0
  147.0389  136.2118  156.8592 H   0  0  0  0  0  0  0  0  0  0  0  0
  147.6859  134.5967  156.8179 H   0  0  0  0  0  0  0  0  0  0  0  0
  147.1467  133.1427  158.4732 H   0  0  0  0  0  0  0  0  0  0  0  0
  146.2429  132.5792  160.6167 H   0  0  0  0  0  0  0  0  0  0  0  0
  145.3021  137.8040  161.1732 H   0  0  0  0  0  0  0  0  0  0  0  0
  146.8355  137.5060  162.0753 H   0  0  0  0  0  0  0  0  0  0  0  0
  145.2964  136.7428  162.5931 H   0  0  0  0  0  0  0  0  0  0  0  0
  151.8724  139.3906  159.4987 H   0  0  0  0  0  0  0  0  0  0  0  0
  152.8035  140.3971  158.4116 H   0  0  0  0  0  0  0  0  0  0  0  0
  151.2266  141.3779  160.8439 H   0  0  0  0  0  0  0  0  0  0  0  0
  152.9725  141.2962  160.6906 H   0  0  0  0  0  0  0  0  0  0  0  0
  150.0245  143.0146  159.4199 H   0  0  0  0  0  0  0  0  0  0  0  0
  150.9806  143.9987  158.3274 H   0  0  0  0  0  0  0  0  0  0  0  0
  151.5652  142.0440  156.9574 H   0  0  0  0  0  0  0  0  0  0  0  0
  149.8279  142.1551  157.1208 H   0  0  0  0  0  0  0  0  0  0  0  0
  1  2  1  0  0  0  0
  1 25  1  0  0  0  0
  1 26  1  0  0  0  0
  1 27  1  0  0  0  0
  2  3  1  0  0  0  0
  2  4  1  0  0  0  0
  2 28  1  0  0  0  0
  3 29  1  0  0  0  0
  3 30  1  0  0  0  0
  3 31  1  0  0  0  0
  4  5  1  0  0  0  0
  4 19  1  0  0  0  0
  4 32  1  0  0  0  0
  5  6  1  0  0  0  0
  5 33  1  0  0  0  0
  5 34  1  0  0  0  0
  6  7  1  0  0  0  0
  6 35  1  0  0  0  0
  7  8  2  0  0  0  0
  7  9  1  0  0  0  0
  9 10  1  0  0  0  0
  9 36  1  0  0  0  0
  9 37  1  0  0  0  0
 10 17  1  0  0  0  0
 10 11  1  0  0  0  0
 11 12  2  0  0  0  0
 11 38  1  0  0  0  0
 12 13  1  0  0  0  0
 12 39  1  0  0  0  0
 13 14  2  0  0  0  0
 13 15  1  0  0  0  0
 15 16  1  0  0  0  0
 15 17  1  0  0  0  0
 16 40  1  0  0  0  0
 16 41  1  0  0  0  0
 16 42  1  0  0  0  0
 17 18  2  0  0  0  0
 19 24  1  0  0  0  0
 19 20  1  0  0  0  0
 20 21  1  0  0  0  0
 20 43  1  0  0  0  0
 20 44  1  0  0  0  0
 21 22  1  0  0  0  0
 21 45  1  0  0  0  0
 21 46  1  0  0  0  0
 22 23  1  0  0  0  0
 23 24  1  0  0  0  0
 23 47  1  0  0  0  0
 23 48  1  0  0  0  0
 24 49  1  0  0  0  0
 24 50  1  0  0  0  0
M  END
> <s_m_source_file>
AV-unprocessed.smi

> <i_m_source_file_index>
2013

> <i_lp_mmshare_version>
43012

> <i_f3d_flags>
0

> <s_epik_input>
W0NIMl0xW0NIMl1PW0NIMl1bQ0gyXU4xW0NASF0oW0NIXShbQ0gzXSlbQ0gzXSlbQ0gyXVtOSF1DKD1PKVtDSDJdbjJbY0hdW2NIXWMoPU8pbihbQ0gzXSljMj1P

> <s_epik_cmdline>
J2VwaWtfcHl0aG9uJywgJy1waCcsICc3LjAnLCAnLXRuJywgJzgnLCAnLW1hJywgJzIwMCcsICctbWV0YWxfYmluZGluZycsICctaW1hZScsICc8aW5maWxlLm1hZT4nLCAnLW9tYWUnLCAnPG91dGZpbGUubWFlPic=

> <r_lp_tautomer_probability>
1

> <r_epik_Ionization_Penalty>
0.45351

> <r_epik_Ionization_Penalty_Charging>
1.24653e-08

> <r_epik_Ionization_Penalty_Neutral>
0.45351

> <r_epik_State_Penalty>
0.456487

> <r_epik_Charging_Adjusted_Penalty>
0.456487

> <i_epik_Tot_Q>
0

> <i_epik_Tot_abs_Q>
0

> <r_epik_Metal_State_Penalty>
0.456449

> <b_epik_Metal_Only>
0

> <s_lp_Force_Field>
OPLS_2005

> <r_lp_Energy>
45.5307

> <b_lp_Chiralities_Consistent>
1

> <s_lp_Variant>
AV-unprocessed.smi:2013-4

> <Gold.Version>
5.8.1

> <Gold.Id.Protein>
6NUR|6NUR_protein|mol2

> <Gold.PLP.Fitness>
43.5613

> <Gold.PLP.PLP>
-41.3279

> <Gold.PLP.part.hbond>
-5.0000

> <Gold.PLP.part.metal>
0.0000

> <Gold.PLP.part.buried>
-2.9609

> <Gold.PLP.part.nonpolar>
-34.8024

> <Gold.PLP.part.repulsive>
0.1568

> <Gold.PLP.ligand.clash>
0.0000

> <Gold.PLP.ligand.torsion>
1.6886

> <Gold.PLP.Chemscore.Hbond>
1.6843

> <Gold.PLP.Chemscore.CHOScore>
0.0000

> <Gold.PLP.Chemscore.Metal>
0.0000

> <Gold.Chemscore.Hbonds>
donor molecule, donor type, donor heavy atom, donor atom, acceptor molecule, acceptor atom, score
      P1  H  6896  6909       L1     8  0.28
      P1  H  6934  6947       L1    18  0.34

> <Gold.PLP.Chemscore.Internal.Correction>
0.5577

> <Gold.Rescore>
     Score         DG    S(hbond)    S(metal)    S(lipo)     H(rot)  DE(clash)    DE(int)     intcor
     10.93     -15.79       1.94        0.00      80.99       2.20       1.91       2.95       ----

> <Gold.Chemscore.Fitness>
10.9337

> <Gold.Chemscore.DG>
-15.7894

> <Gold.Chemscore.ZeroCoef>
-5.4800

> <Gold.Chemscore.Hbond>
1.9390

> <Gold.Chemscore.Metal>
0.0000

> <Gold.Chemscore.Lipo>
80.9850

> <Gold.Chemscore.Internal_Hbond>
0.0000

> <Gold.Chemscore.DEClash>
1.9055

> <Gold.Chemscore.DEInternal>
2.9502

> <Gold.Chemscore.Rot>
2.2039

> <Gold.Chemscore.Internal.Correction>
   9.000000E+99

> <Gold.Chemscore.Hbonds>
donor molecule, donor type, donor heavy atom, donor atom, acceptor molecule, acceptor atom, score
      P1  H  6896  6909       L1     8  0.24
      P1  H  6934  6947       L1    18  0.32

> <Gold.Chemscore.Hbond.Weighted>
-6.4761

> <Gold.Chemscore.Metal.Weighted>
-0.0000

> <Gold.Chemscore.Lipo.Weighted>
-9.4752

> <Gold.Chemscore.Internal_Hbond.Weighted>
0.0000

> <Gold.Chemscore.DEClash.Weighted>
1.9055

> <Gold.Chemscore.DEInternal.Weighted>
2.9502

> <Gold.Chemscore.Rot.Weighted>
5.6420

> <Gold.Chemscore.Internal.Correction.Weighted>
   9.000000E+99

> <Gold.Protein.RotatedTorsions>
[ 6907 6896 6895 6894 ] final   34.14 input  -60.11 | X-H torsion
[ 7974 7965 7964 7962 ] final  178.14 input  175.53 | X-H torsion
[ 8008 7997 7996 7995 ] final  123.79 input   59.86 | X-H torsion
[ 10167 10162 10161 10158 ] final -153.65 input  -65.29 | X-H torsion
[ 10718 10713 10712 10709 ] final  120.44 input   66.30 | X-H torsion
[ 10763 10752 10751 10750 ] final  -29.43 input  -60.55 | X-H torsion
[ 11005 11000 10999 10996 ] final  165.85 input  -57.11 | X-H torsion

> <Gold.Protein.ActiveResidues>
 VAL166  LYS551  ARG553  GLY616  TRP617  ASP618  TYR619  PRO620  LYS621  CYS622 
 ASP623  PHE694  ASN695  SER759  ASP760  ASP761  ALA762  ILE779  LEU786  VAL792 
 PHE793  MET794  SER795  GLU796  ALA797  LYS798  CYS799  TRP800  GLU811  SER814 

> <Gold.Protein.RotatedAtoms>
  152.0982  134.9360  160.0570 H   0  0  0  0  0  0  0  0  0  0  0  0  # atno 6907 bound_to 6896
  152.0585  133.4046  159.4415 H   0  0  0  0  0  0  0  0  0  0  0  0  # atno 6908 bound_to 6896
  150.6838  134.3148  159.4805 H   0  0  0  0  0  0  0  0  0  0  0  0  # atno 6909 bound_to 6896
  144.7160  140.0353  143.6438 H   0  0  0  0  0  0  0  0  0  0  0  0  # atno 7974 bound_to 7965
  156.2779  140.2754  156.1684 H   0  0  0  0  0  0  0  0  0  0  0  0  # atno 8008 bound_to 7997
  155.0680  140.0387  157.2617 H   0  0  0  0  0  0  0  0  0  0  0  0  # atno 8009 bound_to 7997
  154.7063  140.2659  155.6677 H   0  0  0  0  0  0  0  0  0  0  0  0  # atno 8010 bound_to 7997
  139.7079  143.9157  152.2456 H   0  0  0  0  0  0  0  0  0  0  0  0  # atno 10167 bound_to 10162
  157.5890  131.1066  150.8035 H   0  0  0  0  0  0  0  0  0  0  0  0  # atno 10718 bound_to 10713
  153.7644  135.6917  153.4919 H   0  0  0  0  0  0  0  0  0  0  0  0  # atno 10763 bound_to 10752
  153.1916  135.4469  155.0155 H   0  0  0  0  0  0  0  0  0  0  0  0  # atno 10764 bound_to 10752
  154.8141  135.3391  154.7158 H   0  0  0  0  0  0  0  0  0  0  0  0  # atno 10765 bound_to 10752
  140.2603  134.7907  157.3584 H   0  0  0  0  0  0  0  0  0  0  0  0  # atno 11005 bound_to 11000
  146.0069  139.3137  143.0894 LP  0  0  0  0  0  0  0  0  0  0  0  0  # atno 17320 bound_to 7965
  145.8728  140.9409  143.0642 LP  0  0  0  0  0  0  0  0  0  0  0  0  # atno 17321 bound_to 7965
  139.9017  144.6907  150.8657 LP  0  0  0  0  0  0  0  0  0  0  0  0  # atno 17342 bound_to 10162
  140.7726  143.3508  151.2017 LP  0  0  0  0  0  0  0  0  0  0  0  0  # atno 17343 bound_to 10162
  156.8462  130.5065  149.5316 LP  0  0  0  0  0  0  0  0  0  0  0  0  # atno 17370 bound_to 10713
  156.0943  130.5920  150.9786 LP  0  0  0  0  0  0  0  0  0  0  0  0  # atno 17371 bound_to 10713
  140.1471  134.4898  155.7988 LP  0  0  0  0  0  0  0  0  0  0  0  0  # atno 17394 bound_to 11000
  141.2191  133.6847  156.7312 LP  0  0  0  0  0  0  0  0  0  0  0  0  # atno 17395 bound_to 11000

$$$$
