AV-unprocessed.smi:2377|AV-procd|sdf|9447|dock3
  -GOLD-   2272013 73D 1   1.00000     0.00000
 Structure written by MMmdl.
 23 23  0  0  0  0  0  0  0  0  1 V2000
  146.1850  138.1157  152.3180 C   0  0  0  0  0  0  0  0  0  0  0  0
  144.7918  137.7606  152.0791 N   0  0  0  0  0  0  0  0  0  0  0  0
  144.5703  136.3190  152.0013 C   0  0  0  0  0  0  0  0  0  0  0  0
  145.5295  135.6509  150.9999 C   0  0  2  0  0  0  0  0  0  0  0  0
  145.3209  136.2223  149.7230 O   0  0  0  0  0  0  0  0  0  0  0  0
  145.3219  134.1453  150.9715 C   0  0  0  0  0  0  0  0  0  0  0  0
  146.3187  133.2570  151.4312 C   0  0  0  0  0  0  0  0  0  0  0  0
  146.0765  131.8712  151.3711 C   0  0  0  0  0  0  0  0  0  0  0  0
  144.8447  131.4278  150.8505 C   0  0  0  0  0  0  0  0  0  0  0  0
  143.8844  132.2656  150.4045 N   0  0  0  0  0  0  0  0  0  0  0  0
  144.1249  133.5930  150.4655 C   0  0  0  0  0  0  0  0  0  0  0  0
  146.3003  139.1976  152.3826 H   0  0  0  0  0  0  0  0  0  0  0  0
  146.8249  137.7587  151.5106 H   0  0  0  0  0  0  0  0  0  0  0  0
  146.5449  137.6850  153.2529 H   0  0  0  0  0  0  0  0  0  0  0  0
  144.4703  138.1980  151.2217 H   0  0  0  0  0  0  0  0  0  0  0  0
  144.7389  135.8854  152.9882 H   0  0  0  0  0  0  0  0  0  0  0  0
  143.5335  136.1009  151.7407 H   0  0  0  0  0  0  0  0  0  0  0  0
  146.5613  135.8530  151.2915 H   0  0  0  0  0  0  0  0  0  0  0  0
  145.0736  137.1273  149.8356 H   0  0  0  0  0  0  0  0  0  0  0  0
  147.2548  133.6293  151.8211 H   0  0  0  0  0  0  0  0  0  0  0  0
  146.8177  131.1646  151.7146 H   0  0  0  0  0  0  0  0  0  0  0  0
  144.6260  130.3720  150.7891 H   0  0  0  0  0  0  0  0  0  0  0  0
  143.3362  134.2328  150.0974 H   0  0  0  0  0  0  0  0  0  0  0  0
  1  2  1  0  0  0  0
  1 12  1  0  0  0  0
  1 13  1  0  0  0  0
  1 14  1  0  0  0  0
  2  3  1  0  0  0  0
  2 15  1  0  0  0  0
  3  4  1  0  0  0  0
  3 16  1  0  0  0  0
  3 17  1  0  0  0  0
  4  5  1  0  0  0  0
  4  6  1  0  0  0  0
  4 18  1  0  0  0  0
  5 19  1  0  0  0  0
  6 11  1  0  0  0  0
  6  7  2  0  0  0  0
  7  8  1  0  0  0  0
  7 20  1  0  0  0  0
  8  9  2  0  0  0  0
  8 21  1  0  0  0  0
  9 10  1  0  0  0  0
  9 22  1  0  0  0  0
 10 11  2  0  0  0  0
 11 23  1  0  0  0  0
M  END
> <s_m_source_file>
AV-unprocessed.smi

> <i_m_source_file_index>
2377

> <i_lp_mmshare_version>
43012

> <i_f3d_flags>
0

> <s_epik_input>
W0NIM11bTkhdW0NIMl1bQ0BIXShbT0hdKWMxW2NIXVtjSF1bY0hdbltjSF0x

> <s_epik_cmdline>
J2VwaWtfcHl0aG9uJywgJy1waCcsICc3LjAnLCAnLXRuJywgJzgnLCAnLW1hJywgJzIwMCcsICctbWV0YWxfYmluZGluZycsICctaW1hZScsICc8aW5maWxlLm1hZT4nLCAnLW9tYWUnLCAnPG91dGZpbGUubWFlPic=

> <r_epik_Ionization_Penalty>
2.4626

> <r_epik_Ionization_Penalty_Charging>
0

> <r_epik_Ionization_Penalty_Neutral>
2.4626

> <r_epik_State_Penalty>
2.6219

> <r_epik_Charging_Adjusted_Penalty>
2.6219

> <i_epik_Tot_Q>
0

> <i_epik_Tot_abs_Q>
0

> <r_epik_Metal_State_Penalty>
2.61964

> <b_epik_Metal_Only>
0

> <s_lp_Force_Field>
OPLS_2005

> <r_lp_Energy>
11.5551

> <b_lp_Chiralities_Consistent>
1

> <s_lp_Variant>
AV-unprocessed.smi:2377-3

> <Gold.Version>
5.8.1

> <Gold.Id.Protein>
6NUR|6NUR_protein|mol2

> <Gold.PLP.Fitness>
34.8833

> <Gold.PLP.PLP>
-26.0784

> <Gold.PLP.part.hbond>
-4.0000

> <Gold.PLP.part.metal>
0.0000

> <Gold.PLP.part.buried>
-4.6812

> <Gold.PLP.part.nonpolar>
-18.1873

> <Gold.PLP.part.repulsive>
0.1897

> <Gold.PLP.ligand.clash>
0.0000

> <Gold.PLP.ligand.torsion>
0.1016

> <Gold.PLP.Chemscore.Hbond>
2.0000

> <Gold.PLP.Chemscore.CHOScore>
1.0000

> <Gold.PLP.Chemscore.Metal>
0.0000

> <Gold.Chemscore.Hbonds>
donor molecule, donor type, donor heavy atom, donor atom, acceptor molecule, acceptor atom, score
      L1  H     2    15       P1 10171  1.00
      L1  H     5    19       P1 10171  1.00
      L1  C    11    23       P1 10186  1.00

> <Gold.PLP.Chemscore.Internal.Correction>
0.0082

> <Gold.Rescore>
     Score         DG    S(hbond)    S(metal)    S(lipo)     H(rot)  DE(clash)    DE(int)     intcor
     14.10     -14.13       1.99        0.00      59.48       1.94       0.01       0.02       ----

> <Gold.Chemscore.Fitness>
14.0990

> <Gold.Chemscore.DG>
-14.1315

> <Gold.Chemscore.ZeroCoef>
-5.4800

> <Gold.Chemscore.Hbond>
1.9907

> <Gold.Chemscore.Metal>
0.0000

> <Gold.Chemscore.Lipo>
59.4833

> <Gold.Chemscore.Internal_Hbond>
0.0000

> <Gold.Chemscore.DEClash>
0.0096

> <Gold.Chemscore.DEInternal>
0.0229

> <Gold.Chemscore.Rot>
1.9363

> <Gold.Chemscore.Internal.Correction>
   9.000000E+99

> <Gold.Chemscore.Hbonds>
donor molecule, donor type, donor heavy atom, donor atom, acceptor molecule, acceptor atom, score
      L1  H     2    15       P1 10171  0.97
      L1  H     5    19       P1 10171  0.98

> <Gold.Chemscore.Hbond.Weighted>
-6.6489

> <Gold.Chemscore.Metal.Weighted>
-0.0000

> <Gold.Chemscore.Lipo.Weighted>
-6.9595

> <Gold.Chemscore.Internal_Hbond.Weighted>
0.0000

> <Gold.Chemscore.DEClash.Weighted>
0.0096

> <Gold.Chemscore.DEInternal.Weighted>
0.0229

> <Gold.Chemscore.Rot.Weighted>
4.9570

> <Gold.Chemscore.Internal.Correction.Weighted>
   9.000000E+99

> <Gold.Protein.RotatedTorsions>
[ 6907 6896 6895 6894 ] final  -29.47 input  -60.11 | X-H torsion
[ 7974 7965 7964 7962 ] final   45.69 input  175.53 | X-H torsion
[ 8008 7997 7996 7995 ] final   86.04 input   59.86 | X-H torsion
[ 10167 10162 10161 10158 ] final -164.75 input  -65.29 | X-H torsion
[ 10718 10713 10712 10709 ] final  -98.29 input   66.30 | X-H torsion
[ 10763 10752 10751 10750 ] final -116.62 input  -60.55 | X-H torsion
[ 11005 11000 10999 10996 ] final  -73.56 input  -57.11 | X-H torsion

> <Gold.Protein.ActiveResidues>
 VAL166  LYS551  ARG553  GLY616  TRP617  ASP618  TYR619  PRO620  LYS621  CYS622 
 ASP623  PHE694  ASN695  SER759  ASP760  ASP761  ALA762  ILE779  LEU786  VAL792 
 PHE793  MET794  SER795  GLU796  ALA797  LYS798  CYS799  TRP800  GLU811  SER814 

> <Gold.Protein.RotatedAtoms>
  151.1187  135.0067  159.8528 H   0  0  0  0  0  0  0  0  0  0  0  0  # atno 6907 bound_to 6896
  152.5447  134.1748  159.8621 H   0  0  0  0  0  0  0  0  0  0  0  0  # atno 6908 bound_to 6896
  151.1804  133.4683  159.2627 H   0  0  0  0  0  0  0  0  0  0  0  0  # atno 6909 bound_to 6896
  146.0457  139.4937  142.9750 H   0  0  0  0  0  0  0  0  0  0  0  0  # atno 7974 bound_to 7965
  155.9577  140.3396  155.6463 H   0  0  0  0  0  0  0  0  0  0  0  0  # atno 8008 bound_to 7997
  155.6838  140.0741  157.2493 H   0  0  0  0  0  0  0  0  0  0  0  0  # atno 8009 bound_to 7997
  154.4136  140.1669  156.1999 H   0  0  0  0  0  0  0  0  0  0  0  0  # atno 8010 bound_to 7997
  139.6229  144.0589  152.1949 H   0  0  0  0  0  0  0  0  0  0  0  0  # atno 10167 bound_to 10162
  156.0104  130.5232  150.6501 H   0  0  0  0  0  0  0  0  0  0  0  0  # atno 10718 bound_to 10713
  154.8526  135.4339  154.1849 H   0  0  0  0  0  0  0  0  0  0  0  0  # atno 10763 bound_to 10752
  153.2931  135.6963  153.7280 H   0  0  0  0  0  0  0  0  0  0  0  0  # atno 10764 bound_to 10752
  153.6439  135.3463  155.3054 H   0  0  0  0  0  0  0  0  0  0  0  0  # atno 10765 bound_to 10752
  141.1624  133.6882  156.7230 H   0  0  0  0  0  0  0  0  0  0  0  0  # atno 11005 bound_to 11000
  145.6809  141.0191  143.1607 LP  0  0  0  0  0  0  0  0  0  0  0  0  # atno 17320 bound_to 7965
  144.7097  139.8420  143.7418 LP  0  0  0  0  0  0  0  0  0  0  0  0  # atno 17321 bound_to 7965
  140.0235  144.6135  150.7547 LP  0  0  0  0  0  0  0  0  0  0  0  0  # atno 17342 bound_to 10162
  140.7393  143.2789  151.3656 LP  0  0  0  0  0  0  0  0  0  0  0  0  # atno 17343 bound_to 10162
  157.4264  131.0843  151.1081 LP  0  0  0  0  0  0  0  0  0  0  0  0  # atno 17370 bound_to 10713
  157.1667  130.6249  149.5627 LP  0  0  0  0  0  0  0  0  0  0  0  0  # atno 17371 bound_to 10713
  140.2801  134.8323  157.3926 LP  0  0  0  0  0  0  0  0  0  0  0  0  # atno 17394 bound_to 11000
  140.1441  134.4934  155.8009 LP  0  0  0  0  0  0  0  0  0  0  0  0  # atno 17395 bound_to 11000

$$$$
