AV-unprocessed.smi:3055|AV-procd|sdf|11644|dock10
  -GOLD-   2272017 43D 1   1.00000     0.00000
 Structure written by MMmdl.
 47 49  0  0  0  0  0  0  0  0  2 V2000
  149.7329  141.5157  156.1497 O   0  0  0  0  0  0  0  0  0  0  0  0
  150.7096  140.7655  156.1248 C   0  0  0  0  0  0  0  0  0  0  0  0
  151.7075  140.8641  157.0175 N   0  0  0  0  0  0  0  0  0  0  0  0
  151.7474  141.8233  158.1120 C   0  0  0  0  0  0  0  0  0  0  0  0
  151.6122  143.2550  157.5775 C   0  0  0  0  0  0  0  0  0  0  0  0
  151.5992  144.2237  158.6546 N   0  0  0  0  0  0  0  0  0  0  0  0
  152.5541  144.3807  159.6504 C   0  0  0  0  0  0  0  0  0  0  0  0
  152.1214  145.4143  160.4499 C   0  0  0  0  0  0  0  0  0  0  0  0
  150.9105  145.9054  159.9670 N   0  0  0  0  0  0  0  0  0  0  0  0
  150.6647  145.1513  158.9033 C   0  0  0  0  0  0  0  0  0  0  0  0
  150.8811  139.8027  155.1835 N   0  0  0  0  0  0  0  0  0  0  0  0
  152.0516  138.9213  155.0501 C   0  0  0  0  0  0  0  0  0  0  0  0
  151.6874  137.5443  155.6295 C   0  0  0  0  0  0  0  0  0  0  0  0
  150.4331  136.9686  154.9436 C   0  0  0  0  0  0  0  0  0  0  0  0
  149.2556  137.9792  154.9166 C   0  0  2  0  0  0  0  0  0  0  0  0
  148.1015  137.4659  154.1268 N   0  3  0  0  0  0  0  0  0  0  0  0
  147.3945  136.3058  154.7120 C   0  0  0  0  0  0  0  0  0  0  0  0
  146.0216  136.3039  154.0506 C   0  0  0  0  0  0  0  0  0  0  0  0
  145.6980  137.7887  153.9381 C   0  0  0  0  0  0  0  0  0  0  0  0
  147.0633  138.4765  153.7996 C   0  0  0  0  0  0  0  0  0  0  0  0
  149.7659  139.3297  154.3542 C   0  0  0  0  0  0  0  0  0  0  0  0
  152.4884  140.2296  156.9330 H   0  0  0  0  0  0  0  0  0  0  0  0
  150.9394  141.6031  158.8114 H   0  0  0  0  0  0  0  0  0  0  0  0
  152.6863  141.7161  158.6582 H   0  0  0  0  0  0  0  0  0  0  0  0
  152.4405  143.4942  156.9091 H   0  0  0  0  0  0  0  0  0  0  0  0
  150.6937  143.3637  156.9985 H   0  0  0  0  0  0  0  0  0  0  0  0
  153.4366  143.7604  159.7071 H   0  0  0  0  0  0  0  0  0  0  0  0
  152.5839  145.8386  161.3288 H   0  0  0  0  0  0  0  0  0  0  0  0
  149.7828  145.2759  158.2918 H   0  0  0  0  0  0  0  0  0  0  0  0
  152.3122  138.8249  153.9949 H   0  0  0  0  0  0  0  0  0  0  0  0
  152.9508  139.3024  155.5342 H   0  0  0  0  0  0  0  0  0  0  0  0
  152.5244  136.8551  155.5138 H   0  0  0  0  0  0  0  0  0  0  0  0
  151.5082  137.6363  156.7017 H   0  0  0  0  0  0  0  0  0  0  0  0
  150.6902  136.6869  153.9214 H   0  0  0  0  0  0  0  0  0  0  0  0
  150.1468  136.0490  155.4541 H   0  0  0  0  0  0  0  0  0  0  0  0
  148.9148  138.1344  155.9420 H   0  0  0  0  0  0  0  0  0  0  0  0
  147.9320  135.3720  154.5434 H   0  0  0  0  0  0  0  0  0  0  0  0
  147.2828  136.4470  155.7887 H   0  0  0  0  0  0  0  0  0  0  0  0
  146.0884  135.8609  153.0558 H   0  0  0  0  0  0  0  0  0  0  0  0
  145.2764  135.7475  154.6199 H   0  0  0  0  0  0  0  0  0  0  0  0
  145.0294  138.0080  153.1051 H   0  0  0  0  0  0  0  0  0  0  0  0
  145.2090  138.1261  154.8532 H   0  0  0  0  0  0  0  0  0  0  0  0
  147.1101  139.3386  154.4670 H   0  0  0  0  0  0  0  0  0  0  0  0
  147.2242  138.8351  152.7825 H   0  0  0  0  0  0  0  0  0  0  0  0
  148.9668  140.0699  154.3022 H   0  0  0  0  0  0  0  0  0  0  0  0
  150.1077  139.2045  153.3255 H   0  0  0  0  0  0  0  0  0  0  0  0
  148.4667  137.1454  153.2413 H   0  0  0  0  0  0  0  0  0  0  0  0
  1  2  2  0  0  0  0
  2  3  1  0  0  0  0
  2 11  1  0  0  0  0
  3  4  1  0  0  0  0
  3 22  1  0  0  0  0
  4  5  1  0  0  0  0
  4 23  1  0  0  0  0
  4 24  1  0  0  0  0
  5  6  1  0  0  0  0
  5 25  1  0  0  0  0
  5 26  1  0  0  0  0
  6 10  1  0  0  0  0
  6  7  1  0  0  0  0
  7  8  2  0  0  0  0
  7 27  1  0  0  0  0
  8  9  1  0  0  0  0
  8 28  1  0  0  0  0
  9 10  2  0  0  0  0
 10 29  1  0  0  0  0
 11 21  1  0  0  0  0
 11 12  1  0  0  0  0
 12 13  1  0  0  0  0
 12 30  1  0  0  0  0
 12 31  1  0  0  0  0
 13 14  1  0  0  0  0
 13 32  1  0  0  0  0
 13 33  1  0  0  0  0
 14 15  1  0  0  0  0
 14 34  1  0  0  0  0
 14 35  1  0  0  0  0
 15 16  1  0  0  0  0
 15 21  1  0  0  0  0
 15 36  1  0  0  0  0
 16 20  1  0  0  0  0
 16 17  1  0  0  0  0
 16 47  1  0  0  0  0
 17 18  1  0  0  0  0
 17 37  1  0  0  0  0
 17 38  1  0  0  0  0
 18 19  1  0  0  0  0
 18 39  1  0  0  0  0
 18 40  1  0  0  0  0
 19 20  1  0  0  0  0
 19 41  1  0  0  0  0
 19 42  1  0  0  0  0
 20 43  1  0  0  0  0
 20 44  1  0  0  0  0
 21 45  1  0  0  0  0
 21 46  1  0  0  0  0
M  CHG  1  16   1
M  END
> <s_m_source_file>
AV-unprocessed.smi

> <i_m_source_file_index>
3055

> <i_lp_mmshare_version>
43012

> <i_f3d_flags>
0

> <s_epik_input>
W2NIXTFuW2NIXVtjSF1uMVtDSDJdW0NIMl1bTkhdQyg9TylOMltDSDJdW0NIMl1bQ0gyXVtDQEhdKFtDSDJdMilOM1tDSDJdW0NIMl1bQ0gyXVtDSDJdMw==

> <s_epik_cmdline>
J2VwaWtfcHl0aG9uJywgJy1waCcsICc3LjAnLCAnLXRuJywgJzgnLCAnLW1hJywgJzIwMCcsICctbWV0YWxfYmluZGluZycsICctaW1hZScsICc8aW5maWxlLm1hZT4nLCAnLW9tYWUnLCAnPG91dGZpbGUubWFlPic=

> <r_lp_tautomer_probability>
1

> <r_epik_Ionization_Penalty>
0.618392

> <r_epik_Ionization_Penalty_Charging>
0.618355

> <r_epik_Ionization_Penalty_Neutral>
3.68592e-05

> <r_epik_State_Penalty>
0.635579

> <r_epik_Charging_Adjusted_Penalty>
1.25393

> <i_epik_Tot_Q>
1

> <i_epik_Tot_abs_Q>
1

> <r_epik_Metal_State_Penalty>
0.306847

> <b_epik_Metal_Only>
0

> <s_lp_Force_Field>
OPLS_2005

> <r_lp_Energy>
57.1272

> <b_lp_Chiralities_Consistent>
1

> <s_lp_Variant>
AV-unprocessed.smi:3055-4

> <Gold.Version>
5.8.1

> <Gold.Id.Protein>
6NUR|6NUR_protein|mol2

> <Gold.PLP.Fitness>
45.8119

> <Gold.PLP.PLP>
-37.1946

> <Gold.PLP.part.hbond>
-2.9301

> <Gold.PLP.part.metal>
0.0000

> <Gold.PLP.part.buried>
-3.4137

> <Gold.PLP.part.nonpolar>
-31.7420

> <Gold.PLP.part.repulsive>
0.4437

> <Gold.PLP.ligand.clash>
0.0000

> <Gold.PLP.ligand.torsion>
0.2305

> <Gold.PLP.Chemscore.Hbond>
2.0000

> <Gold.PLP.Chemscore.CHOScore>
1.0000

> <Gold.PLP.Chemscore.Metal>
0.0000

> <Gold.Chemscore.Hbonds>
donor molecule, donor type, donor heavy atom, donor atom, acceptor molecule, acceptor atom, score
      L1  H    16    47       P1  7948  2.00
      L1  C    10    29       P1  8029  1.00

> <Gold.PLP.Chemscore.Internal.Correction>
0.0784

> <Gold.Rescore>
     Score         DG    S(hbond)    S(metal)    S(lipo)     H(rot)  DE(clash)    DE(int)     intcor
     12.55     -14.03       1.00        0.00      84.11       1.81       0.09       1.39       ----

> <Gold.Chemscore.Fitness>
12.5488

> <Gold.Chemscore.DG>
-14.0326

> <Gold.Chemscore.ZeroCoef>
-5.4800

> <Gold.Chemscore.Hbond>
0.9990

> <Gold.Chemscore.Metal>
0.0000

> <Gold.Chemscore.Lipo>
84.1110

> <Gold.Chemscore.Internal_Hbond>
0.0000

> <Gold.Chemscore.DEClash>
0.0947

> <Gold.Chemscore.DEInternal>
1.3891

> <Gold.Chemscore.Rot>
1.8066

> <Gold.Chemscore.Internal.Correction>
   9.000000E+99

> <Gold.Chemscore.Hbonds>
donor molecule, donor type, donor heavy atom, donor atom, acceptor molecule, acceptor atom, score
      L1  H    16    47       P1  7948  1.00

> <Gold.Chemscore.Hbond.Weighted>
-3.3366

> <Gold.Chemscore.Metal.Weighted>
-0.0000

> <Gold.Chemscore.Lipo.Weighted>
-9.8410

> <Gold.Chemscore.Internal_Hbond.Weighted>
0.0000

> <Gold.Chemscore.DEClash.Weighted>
0.0947

> <Gold.Chemscore.DEInternal.Weighted>
1.3891

> <Gold.Chemscore.Rot.Weighted>
4.6249

> <Gold.Chemscore.Internal.Correction.Weighted>
   9.000000E+99

> <Gold.Protein.RotatedTorsions>
[ 6907 6896 6895 6894 ] final  -48.06 input  -60.11 | X-H torsion
[ 7974 7965 7964 7962 ] final -156.01 input  175.53 | X-H torsion
[ 8008 7997 7996 7995 ] final   31.82 input   59.86 | X-H torsion
[ 10167 10162 10161 10158 ] final  -55.32 input  -65.29 | X-H torsion
[ 10718 10713 10712 10709 ] final  -39.40 input   66.30 | X-H torsion
[ 10763 10752 10751 10750 ] final  -61.12 input  -60.55 | X-H torsion
[ 11005 11000 10999 10996 ] final -103.01 input  -57.11 | X-H torsion

> <Gold.Protein.ActiveResidues>
 VAL166  LYS551  ARG553  GLY616  TRP617  ASP618  TYR619  PRO620  LYS621  CYS622 
 ASP623  PHE694  ASN695  SER759  ASP760  ASP761  ALA762  ILE779  LEU786  VAL792 
 PHE793  MET794  SER795  GLU796  ALA797  LYS798  CYS799  TRP800  GLU811  SER814 

> <Gold.Protein.RotatedAtoms>
  150.8944  134.8350  159.7315 H   0  0  0  0  0  0  0  0  0  0  0  0  # atno 6907 bound_to 6896
  152.4856  134.4599  159.9611 H   0  0  0  0  0  0  0  0  0  0  0  0  # atno 6908 bound_to 6896
  151.4658  133.3542  159.2851 H   0  0  0  0  0  0  0  0  0  0  0  0  # atno 6909 bound_to 6896
  144.7613  140.4170  143.5974 H   0  0  0  0  0  0  0  0  0  0  0  0  # atno 7974 bound_to 7965
  155.1125  140.3240  155.4518 H   0  0  0  0  0  0  0  0  0  0  0  0  # atno 8008 bound_to 7997
  156.2686  140.2041  156.6197 H   0  0  0  0  0  0  0  0  0  0  0  0  # atno 8009 bound_to 7997
  154.6745  140.0533  157.0188 H   0  0  0  0  0  0  0  0  0  0  0  0  # atno 8010 bound_to 7997
  140.6381  143.2493  151.5063 H   0  0  0  0  0  0  0  0  0  0  0  0  # atno 10167 bound_to 10162
  156.2929  130.4230  149.8220 H   0  0  0  0  0  0  0  0  0  0  0  0  # atno 10718 bound_to 10713
  154.2797  135.6274  153.5342 H   0  0  0  0  0  0  0  0  0  0  0  0  # atno 10763 bound_to 10752
  152.9867  135.5630  154.5509 H   0  0  0  0  0  0  0  0  0  0  0  0  # atno 10764 bound_to 10752
  154.5097  135.2876  155.1328 H   0  0  0  0  0  0  0  0  0  0  0  0  # atno 10765 bound_to 10752
  141.1164  133.8605  157.1432 H   0  0  0  0  0  0  0  0  0  0  0  0  # atno 11005 bound_to 11000
  145.6610  139.1581  143.2808 LP  0  0  0  0  0  0  0  0  0  0  0  0  # atno 17320 bound_to 7965
  146.1679  140.6691  142.9247 LP  0  0  0  0  0  0  0  0  0  0  0  0  # atno 17321 bound_to 7965
  139.5591  144.2201  152.1661 LP  0  0  0  0  0  0  0  0  0  0  0  0  # atno 17342 bound_to 10162
  140.1464  144.5155  150.6713 LP  0  0  0  0  0  0  0  0  0  0  0  0  # atno 17343 bound_to 10162
  156.5626  130.8390  151.3333 LP  0  0  0  0  0  0  0  0  0  0  0  0  # atno 17370 bound_to 10713
  157.7347  130.9751  150.2045 LP  0  0  0  0  0  0  0  0  0  0  0  0  # atno 17371 bound_to 10713
  140.0090  134.9996  157.0354 LP  0  0  0  0  0  0  0  0  0  0  0  0  # atno 17394 bound_to 11000
  140.4633  134.1462  155.7194 LP  0  0  0  0  0  0  0  0  0  0  0  0  # atno 17395 bound_to 11000

$$$$
