AV-unprocessed.smi:1438|AV-procd|sdf|5868|dock5
  -GOLD-   22720 5543D 1   1.00000     0.00000
 Structure written by MMmdl.
 43 44  0  0  0  0  0  0  0  0  1 V2000
  147.7385  133.8530  160.3127 C   0  0  0  0  0  0  0  0  0  0  0  0
  148.2860  135.2891  160.3379 C   0  0  1  0  0  0  0  0  0  0  0  0
  148.2175  135.9484  158.9546 C   0  0  0  0  0  0  0  0  0  0  0  0
  147.6040  135.4073  158.0345 O   0  0  0  0  0  0  0  0  0  0  0  0
  148.8417  137.1296  158.8256 N   0  0  0  0  0  0  0  0  0  0  0  0
  148.8018  137.9666  157.6335 C   0  0  0  0  0  0  0  0  0  0  0  0
  150.1432  138.6190  157.3568 C   0  0  0  0  0  0  0  0  0  0  0  0
  151.0639  138.0253  156.4724 C   0  0  0  0  0  0  0  0  0  0  0  0
  152.2784  138.6918  156.2286 C   0  0  0  0  0  0  0  0  0  0  0  0
  152.6050  139.8681  156.8039 N   0  0  0  0  0  0  0  0  0  0  0  0
  151.7283  140.4465  157.6624 C   0  0  0  0  0  0  0  0  0  0  0  0
  152.0886  141.6726  158.2634 N   0  0  0  0  0  0  0  0  0  0  0  0
  151.3569  142.8442  157.7867 C   0  0  0  0  0  0  0  0  0  0  0  0
  152.0236  144.1367  158.2890 C   0  0  0  0  0  0  0  0  0  0  0  0
  152.1435  144.0992  159.7070 O   0  0  0  0  0  0  0  0  0  0  0  0
  152.9573  143.0144  160.1401 C   0  0  0  0  0  0  0  0  0  0  0  0
  152.3186  141.6838  159.7074 C   0  0  0  0  0  0  0  0  0  0  0  0
  150.4778  139.8509  157.9558 C   0  0  0  0  0  0  0  0  0  0  0  0
  147.3389  136.3062  161.5664 S   0  0  0  0  0  0  0  0  0  0  0  0
  146.2483  135.0667  162.3863 C   0  0  0  0  0  0  0  0  0  0  0  0
  148.2722  136.8299  162.5759 O   0  0  0  0  0  0  0  0  0  0  0  0
  146.4874  137.2439  160.8184 O   0  0  0  0  0  0  0  0  0  0  0  0
  148.2686  133.2391  159.5836 H   0  0  0  0  0  0  0  0  0  0  0  0
  146.6774  133.8319  160.0611 H   0  0  0  0  0  0  0  0  0  0  0  0
  147.8540  133.3773  161.2868 H   0  0  0  0  0  0  0  0  0  0  0  0
  149.3225  135.2618  160.6757 H   0  0  0  0  0  0  0  0  0  0  0  0
  149.3320  137.5013  159.6259 H   0  0  0  0  0  0  0  0  0  0  0  0
  148.5271  137.3425  156.7830 H   0  0  0  0  0  0  0  0  0  0  0  0
  148.0233  138.7268  157.7187 H   0  0  0  0  0  0  0  0  0  0  0  0
  150.8425  137.0882  155.9827 H   0  0  0  0  0  0  0  0  0  0  0  0
  153.0071  138.2700  155.5524 H   0  0  0  0  0  0  0  0  0  0  0  0
  151.3055  142.8740  156.6994 H   0  0  0  0  0  0  0  0  0  0  0  0
  150.3301  142.7895  158.1511 H   0  0  0  0  0  0  0  0  0  0  0  0
  153.0058  144.2697  157.8327 H   0  0  0  0  0  0  0  0  0  0  0  0
  151.4228  145.0016  158.0072 H   0  0  0  0  0  0  0  0  0  0  0  0
  153.9641  143.1143  159.7314 H   0  0  0  0  0  0  0  0  0  0  0  0
  153.0492  143.0508  161.2257 H   0  0  0  0  0  0  0  0  0  0  0  0
  151.3691  141.5408  160.2256 H   0  0  0  0  0  0  0  0  0  0  0  0
  152.9741  140.8595  159.9918 H   0  0  0  0  0  0  0  0  0  0  0  0
  149.7725  140.3302  158.6184 H   0  0  0  0  0  0  0  0  0  0  0  0
  145.5706  135.5804  163.0678 H   0  0  0  0  0  0  0  0  0  0  0  0
  146.8506  134.3586  162.9551 H   0  0  0  0  0  0  0  0  0  0  0  0
  145.6674  134.5333  161.6345 H   0  0  0  0  0  0  0  0  0  0  0  0
  1  2  1  0  0  0  0
  1 23  1  0  0  0  0
  1 24  1  0  0  0  0
  1 25  1  0  0  0  0
  2  3  1  0  0  0  0
  2 19  1  0  0  0  0
  2 26  1  0  0  0  0
  3  4  2  0  0  0  0
  3  5  1  0  0  0  0
  5  6  1  0  0  0  0
  5 27  1  0  0  0  0
  6  7  1  0  0  0  0
  6 28  1  0  0  0  0
  6 29  1  0  0  0  0
  7 18  1  0  0  0  0
  7  8  2  0  0  0  0
  8  9  1  0  0  0  0
  8 30  1  0  0  0  0
  9 10  2  0  0  0  0
  9 31  1  0  0  0  0
 10 11  1  0  0  0  0
 11 12  1  0  0  0  0
 11 18  2  0  0  0  0
 12 17  1  0  0  0  0
 12 13  1  0  0  0  0
 13 14  1  0  0  0  0
 13 32  1  0  0  0  0
 13 33  1  0  0  0  0
 14 15  1  0  0  0  0
 14 34  1  0  0  0  0
 14 35  1  0  0  0  0
 15 16  1  0  0  0  0
 16 17  1  0  0  0  0
 16 36  1  0  0  0  0
 16 37  1  0  0  0  0
 17 38  1  0  0  0  0
 17 39  1  0  0  0  0
 18 40  1  0  0  0  0
 19 20  1  0  0  0  0
 19 21  2  0  0  0  0
 19 22  2  0  0  0  0
 20 41  1  0  0  0  0
 20 42  1  0  0  0  0
 20 43  1  0  0  0  0
M  END
> <s_m_source_file>
AV-unprocessed.smi

> <i_m_source_file_index>
1438

> <i_lp_mmshare_version>
43012

> <i_f3d_flags>
0

> <s_epik_input>
W0NIM11TKD1PKSg9TylbQ0BIXShbQ0gzXSlDKD1PKVtOSF1bQ0gyXWMxW2NIXVtjSF1uYyhbY0hdMSlOMltDSDJdW0NIMl1PW0NIMl1bQ0gyXTI=

> <s_epik_cmdline>
J2VwaWtfcHl0aG9uJywgJy1waCcsICc3LjAnLCAnLXRuJywgJzgnLCAnLW1hJywgJzIwMCcsICctbWV0YWxfYmluZGluZycsICctaW1hZScsICc8aW5maWxlLm1hZT4nLCAnLW9tYWUnLCAnPG91dGZpbGUubWFlPic=

> <r_lp_tautomer_probability>
1

> <r_epik_Ionization_Penalty>
0.00387635

> <r_epik_Ionization_Penalty_Charging>
0

> <r_epik_Ionization_Penalty_Neutral>
0.00387635

> <r_epik_State_Penalty>
0.0027681

> <r_epik_Charging_Adjusted_Penalty>
0.0027681

> <i_epik_Tot_Q>
0

> <i_epik_Tot_abs_Q>
0

> <r_epik_Metal_State_Penalty>
-0

> <b_epik_Metal_Only>
0

> <s_lp_Force_Field>
OPLS_2005

> <r_lp_Energy>
13.2689

> <b_lp_Chiralities_Consistent>
1

> <s_lp_Variant>
AV-unprocessed.smi:1438-2

> <Gold.Version>
5.8.1

> <Gold.Id.Protein>
6NUR|6NUR_protein|mol2

> <Gold.PLP.Fitness>
43.0601

> <Gold.PLP.PLP>
-35.7428

> <Gold.PLP.part.hbond>
-3.0000

> <Gold.PLP.part.metal>
0.0000

> <Gold.PLP.part.buried>
-6.1264

> <Gold.PLP.part.nonpolar>
-27.3666

> <Gold.PLP.part.repulsive>
0.1976

> <Gold.PLP.ligand.clash>
0.0000

> <Gold.PLP.ligand.torsion>
1.0471

> <Gold.PLP.Chemscore.Hbond>
2.9760

> <Gold.PLP.Chemscore.CHOScore>
0.0000

> <Gold.PLP.Chemscore.Metal>
0.0000

> <Gold.Chemscore.Hbonds>
donor molecule, donor type, donor heavy atom, donor atom, acceptor molecule, acceptor atom, score
      P1  H  6931  6943       L1    21  1.00
      P1  H  6934  6947       L1    22  1.00
      P1  H  7997  8008       L1    10  1.00

> <Gold.PLP.Chemscore.Internal.Correction>
0.4835

> <Gold.Rescore>
     Score         DG    S(hbond)    S(metal)    S(lipo)     H(rot)  DE(clash)    DE(int)     intcor
     16.75     -17.98       2.52        0.00      80.21       2.08       0.00       1.23       ----

> <Gold.Chemscore.Fitness>
16.7486

> <Gold.Chemscore.DG>
-17.9799

> <Gold.Chemscore.ZeroCoef>
-5.4800

> <Gold.Chemscore.Hbond>
2.5242

> <Gold.Chemscore.Metal>
0.0000

> <Gold.Chemscore.Lipo>
80.2113

> <Gold.Chemscore.Internal_Hbond>
0.0000

> <Gold.Chemscore.DEClash>
0.0015

> <Gold.Chemscore.DEInternal>
1.2298

> <Gold.Chemscore.Rot>
2.0764

> <Gold.Chemscore.Internal.Correction>
   9.000000E+99

> <Gold.Chemscore.Hbonds>
donor molecule, donor type, donor heavy atom, donor atom, acceptor molecule, acceptor atom, score
      P1  H  6931  6943       L1    21  0.68
      P1  H  6934  6947       L1    22  0.78
      P1  H  7997  8008       L1    10  0.65

> <Gold.Chemscore.Hbond.Weighted>
-8.4307

> <Gold.Chemscore.Metal.Weighted>
-0.0000

> <Gold.Chemscore.Lipo.Weighted>
-9.3847

> <Gold.Chemscore.Internal_Hbond.Weighted>
0.0000

> <Gold.Chemscore.DEClash.Weighted>
0.0015

> <Gold.Chemscore.DEInternal.Weighted>
1.2298

> <Gold.Chemscore.Rot.Weighted>
5.3155

> <Gold.Chemscore.Internal.Correction.Weighted>
   9.000000E+99

> <Gold.Protein.RotatedTorsions>
[ 6907 6896 6895 6894 ] final  -80.44 input  -60.11 | X-H torsion
[ 7974 7965 7964 7962 ] final   48.22 input  175.53 | X-H torsion
[ 8008 7997 7996 7995 ] final  -58.02 input   59.86 | X-H torsion
[ 10167 10162 10161 10158 ] final  146.50 input  -65.29 | X-H torsion
[ 10718 10713 10712 10709 ] final  126.06 input   66.30 | X-H torsion
[ 10763 10752 10751 10750 ] final   94.84 input  -60.55 | X-H torsion
[ 11005 11000 10999 10996 ] final  -61.25 input  -57.11 | X-H torsion

> <Gold.Protein.ActiveResidues>
 VAL166  LYS551  ARG553  GLY616  TRP617  ASP618  TYR619  PRO620  LYS621  CYS622 
 ASP623  PHE694  ASN695  SER759  ASP760  ASP761  ALA762  ILE779  LEU786  VAL792 
 PHE793  MET794  SER795  GLU796  ALA797  LYS798  CYS799  TRP800  GLU811  SER814 

> <Gold.Protein.RotatedAtoms>
  150.6929  134.3969  159.5101 H   0  0  0  0  0  0  0  0  0  0  0  0  # atno 6907 bound_to 6896
  152.1749  134.8800  160.0540 H   0  0  0  0  0  0  0  0  0  0  0  0  # atno 6908 bound_to 6896
  151.9813  133.3724  159.4145 H   0  0  0  0  0  0  0  0  0  0  0  0  # atno 6909 bound_to 6896
  146.0224  139.4667  142.9888 H   0  0  0  0  0  0  0  0  0  0  0  0  # atno 7974 bound_to 7965
  154.4291  140.1093  156.5890 H   0  0  0  0  0  0  0  0  0  0  0  0  # atno 8008 bound_to 7997
  155.6032  140.3493  155.4581 H   0  0  0  0  0  0  0  0  0  0  0  0  # atno 8009 bound_to 7997
  156.0157  140.1229  157.0398 H   0  0  0  0  0  0  0  0  0  0  0  0  # atno 8010 bound_to 7997
  139.4906  144.5825  151.6844 H   0  0  0  0  0  0  0  0  0  0  0  0  # atno 10167 bound_to 10162
  157.5450  131.1096  150.8796 H   0  0  0  0  0  0  0  0  0  0  0  0  # atno 10718 bound_to 10713
  153.2463  135.4275  155.0750 H   0  0  0  0  0  0  0  0  0  0  0  0  # atno 10763 bound_to 10752
  154.8362  135.3415  154.6577 H   0  0  0  0  0  0  0  0  0  0  0  0  # atno 10764 bound_to 10752
  153.7000  135.7029  153.5122 H   0  0  0  0  0  0  0  0  0  0  0  0  # atno 10765 bound_to 10752
  141.1317  133.6628  156.5347 H   0  0  0  0  0  0  0  0  0  0  0  0  # atno 11005 bound_to 11000
  145.7171  141.0087  143.1422 LP  0  0  0  0  0  0  0  0  0  0  0  0  # atno 17320 bound_to 7965
  144.6995  139.8826  143.7448 LP  0  0  0  0  0  0  0  0  0  0  0  0  # atno 17321 bound_to 7965
  140.5434  144.0542  150.6097 LP  0  0  0  0  0  0  0  0  0  0  0  0  # atno 17342 bound_to 10162
  140.3572  143.2929  152.0423 LP  0  0  0  0  0  0  0  0  0  0  0  0  # atno 17343 bound_to 10162
  156.9337  130.5359  149.5279 LP  0  0  0  0  0  0  0  0  0  0  0  0  # atno 17370 bound_to 10713
  156.0528  130.5595  150.9027 LP  0  0  0  0  0  0  0  0  0  0  0  0  # atno 17371 bound_to 10713
  140.4188  134.7206  157.4878 LP  0  0  0  0  0  0  0  0  0  0  0  0  # atno 17394 bound_to 11000
  140.0375  134.6316  155.9024 LP  0  0  0  0  0  0  0  0  0  0  0  0  # atno 17395 bound_to 11000

$$$$
