AV-unprocessed.smi:937|AV-procd|sdf|4216|dock8
  -GOLD-   22720 2123D 1   1.00000     0.00000
 Structure written by MMmdl.
 46 47  0  0  0  0  0  0  0  0  2 V2000
  150.8085  143.1011  158.3844 C   0  0  0  0  0  0  0  0  0  0  0  0
  150.7759  141.9577  157.3926 C   0  0  0  0  0  0  0  0  0  0  0  0
  151.3886  140.7131  157.6541 C   0  0  0  0  0  0  0  0  0  0  0  0
  151.3222  139.6947  156.6804 C   0  0  0  0  0  0  0  0  0  0  0  0
  150.6440  139.9404  155.4662 C   0  0  0  0  0  0  0  0  0  0  0  0
  150.5641  138.8723  154.3929 C   0  0  0  0  0  0  0  0  0  0  0  0
  150.9715  137.4920  154.9249 C   0  0  0  0  0  0  0  0  0  0  0  0
  149.9597  136.4960  154.6015 N   0  0  0  0  0  0  0  0  0  0  0  0
  149.3827  135.6787  155.4973 C   0  0  0  0  0  0  0  0  0  0  0  0
  149.6483  135.6969  156.6974 O   0  0  0  0  0  0  0  0  0  0  0  0
  148.4889  134.8159  154.9816 N   0  0  0  0  0  0  0  0  0  0  0  0
  147.6903  133.8003  155.6756 C   0  0  1  0  0  0  0  0  0  0  0  0
  147.0063  132.8316  154.6863 C   0  0  0  0  0  0  0  0  0  0  0  0
  148.0186  131.9109  153.9862 C   0  0  0  0  0  0  0  0  0  0  0  0
  148.8712  131.1416  155.0069 C   0  0  0  0  0  0  0  0  0  0  0  0
  149.5962  132.0959  155.9790 C   0  0  2  0  0  0  0  0  0  0  0  0
  150.4656  131.3317  156.9989 C   0  0  0  0  0  0  0  0  0  0  0  0
  151.3349  130.5332  156.3785 F   0  0  0  0  0  0  0  0  0  0  0  0
  151.1398  132.1928  157.7612 F   0  0  0  0  0  0  0  0  0  0  0  0
  149.6917  130.5916  157.7931 F   0  0  0  0  0  0  0  0  0  0  0  0
  148.5748  133.0263  156.6740 C   0  0  0  0  0  0  0  0  0  0  0  0
  150.0489  141.2036  155.2613 C   0  0  0  0  0  0  0  0  0  0  0  0
  150.1356  142.1532  156.2182 N   0  3  0  0  0  0  0  0  0  0  0  0
  151.3448  142.8203  159.2913 H   0  0  0  0  0  0  0  0  0  0  0  0
  149.7955  143.3917  158.6639 H   0  0  0  0  0  0  0  0  0  0  0  0
  151.3079  143.9668  157.9483 H   0  0  0  0  0  0  0  0  0  0  0  0
  151.9059  140.5391  158.5866 H   0  0  0  0  0  0  0  0  0  0  0  0
  151.7901  138.7385  156.8650 H   0  0  0  0  0  0  0  0  0  0  0  0
  149.5489  138.8370  153.9947 H   0  0  0  0  0  0  0  0  0  0  0  0
  151.2111  139.1595  153.5627 H   0  0  0  0  0  0  0  0  0  0  0  0
  151.9304  137.1997  154.4932 H   0  0  0  0  0  0  0  0  0  0  0  0
  151.1019  137.5258  156.0075 H   0  0  0  0  0  0  0  0  0  0  0  0
  149.6836  136.4135  153.6338 H   0  0  0  0  0  0  0  0  0  0  0  0
  148.3663  134.8520  153.9799 H   0  0  0  0  0  0  0  0  0  0  0  0
  146.9192  134.3101  156.2557 H   0  0  0  0  0  0  0  0  0  0  0  0
  146.2884  132.2175  155.2315 H   0  0  0  0  0  0  0  0  0  0  0  0
  146.4262  133.3789  153.9429 H   0  0  0  0  0  0  0  0  0  0  0  0
  147.4924  131.2076  153.3401 H   0  0  0  0  0  0  0  0  0  0  0  0
  148.6659  132.4996  153.3349 H   0  0  0  0  0  0  0  0  0  0  0  0
  148.2346  130.4560  155.5676 H   0  0  0  0  0  0  0  0  0  0  0  0
  149.5963  130.5236  154.4770 H   0  0  0  0  0  0  0  0  0  0  0  0
  150.2696  132.7185  155.3877 H   0  0  0  0  0  0  0  0  0  0  0  0
  149.0913  133.7299  157.3282 H   0  0  0  0  0  0  0  0  0  0  0  0
  147.9330  132.4301  157.3239 H   0  0  0  0  0  0  0  0  0  0  0  0
  149.5144  141.4835  154.3652 H   0  0  0  0  0  0  0  0  0  0  0  0
  149.7003  143.0595  156.0453 H   0  0  0  0  0  0  0  0  0  0  0  0
  1  2  1  0  0  0  0
  1 24  1  0  0  0  0
  1 25  1  0  0  0  0
  1 26  1  0  0  0  0
  2 23  1  0  0  0  0
  2  3  2  0  0  0  0
  3  4  1  0  0  0  0
  3 27  1  0  0  0  0
  4  5  2  0  0  0  0
  4 28  1  0  0  0  0
  5  6  1  0  0  0  0
  5 22  1  0  0  0  0
  6  7  1  0  0  0  0
  6 29  1  0  0  0  0
  6 30  1  0  0  0  0
  7  8  1  0  0  0  0
  7 31  1  0  0  0  0
  7 32  1  0  0  0  0
  8  9  1  0  0  0  0
  8 33  1  0  0  0  0
  9 10  2  0  0  0  0
  9 11  1  0  0  0  0
 11 12  1  0  0  0  0
 11 34  1  0  0  0  0
 12 21  1  0  0  0  0
 12 13  1  0  0  0  0
 12 35  1  0  0  0  0
 13 14  1  0  0  0  0
 13 36  1  0  0  0  0
 13 37  1  0  0  0  0
 14 15  1  0  0  0  0
 14 38  1  0  0  0  0
 14 39  1  0  0  0  0
 15 16  1  0  0  0  0
 15 40  1  0  0  0  0
 15 41  1  0  0  0  0
 16 17  1  0  0  0  0
 16 21  1  0  0  0  0
 16 42  1  0  0  0  0
 17 18  1  0  0  0  0
 17 19  1  0  0  0  0
 17 20  1  0  0  0  0
 21 43  1  0  0  0  0
 21 44  1  0  0  0  0
 22 23  2  0  0  0  0
 22 45  1  0  0  0  0
 23 46  1  0  0  0  0
M  CHG  1  23   1
M  END
> <s_m_source_file>
AV-unprocessed.smi

> <i_m_source_file_index>
937

> <i_lp_mmshare_version>
43012

> <i_f3d_flags>
0

> <s_epik_input>
W0NIM11jMVtjSF1bY0hdYyhbY0hdbjEpW0NIMl1bQ0gyXVtOSF1DKD1PKVtOSF1bQ0BASF0yW0NIMl1bQ0gyXVtDSDJdW0NAQEhdKEMoRikoRilGKVtDSDJdMg==

> <s_epik_cmdline>
J2VwaWtfcHl0aG9uJywgJy1waCcsICc3LjAnLCAnLXRuJywgJzgnLCAnLW1hJywgJzIwMCcsICctbWV0YWxfYmluZGluZycsICctaW1hZScsICc8aW5maWxlLm1hZT4nLCAnLW9tYWUnLCAnPG91dGZpbGUubWFlPic=

> <r_epik_Ionization_Penalty>
1.4226

> <r_epik_Ionization_Penalty_Charging>
1.42255

> <r_epik_Ionization_Penalty_Neutral>
5.16456e-05

> <r_epik_State_Penalty>
1.50646

> <r_epik_Charging_Adjusted_Penalty>
2.92901

> <i_epik_Tot_Q>
1

> <i_epik_Tot_abs_Q>
1

> <r_epik_Metal_State_Penalty>
1.55846

> <b_epik_Metal_Only>
0

> <s_lp_Force_Field>
OPLS_2005

> <r_lp_Energy>
25.1059

> <b_lp_Chiralities_Consistent>
1

> <s_lp_Variant>
AV-unprocessed.smi:937-8

> <Gold.Version>
5.8.1

> <Gold.Id.Protein>
6NUR|6NUR_protein|mol2

> <Gold.PLP.Fitness>
46.0588

> <Gold.PLP.PLP>
-39.0537

> <Gold.PLP.part.hbond>
-2.9414

> <Gold.PLP.part.metal>
0.0000

> <Gold.PLP.part.buried>
-4.0701

> <Gold.PLP.part.nonpolar>
-31.4026

> <Gold.PLP.part.repulsive>
0.1789

> <Gold.PLP.ligand.clash>
0.0000

> <Gold.PLP.ligand.torsion>
0.7133

> <Gold.PLP.Chemscore.Hbond>
2.8000

> <Gold.PLP.Chemscore.CHOScore>
0.0000

> <Gold.PLP.Chemscore.Metal>
0.0000

> <Gold.Chemscore.Hbonds>
donor molecule, donor type, donor heavy atom, donor atom, acceptor molecule, acceptor atom, score
      L1  H     8    33       P1  7948  1.00
      L1  H    23    46       P1  8028  2.00

> <Gold.PLP.Chemscore.Internal.Correction>
0.0318

> <Gold.Rescore>
     Score         DG    S(hbond)    S(metal)    S(lipo)     H(rot)  DE(clash)    DE(int)     intcor
     16.15     -18.07       1.87        0.00      90.55       1.66       0.05       1.88       ----

> <Gold.Chemscore.Fitness>
16.1476

> <Gold.Chemscore.DG>
-18.0741

> <Gold.Chemscore.ZeroCoef>
-5.4800

> <Gold.Chemscore.Hbond>
1.8698

> <Gold.Chemscore.Metal>
0.0000

> <Gold.Chemscore.Lipo>
90.5544

> <Gold.Chemscore.Internal_Hbond>
0.0000

> <Gold.Chemscore.DEClash>
0.0471

> <Gold.Chemscore.DEInternal>
1.8794

> <Gold.Chemscore.Rot>
1.6585

> <Gold.Chemscore.Internal.Correction>
   9.000000E+99

> <Gold.Chemscore.Hbonds>
donor molecule, donor type, donor heavy atom, donor atom, acceptor molecule, acceptor atom, score
      L1  H     8    33       P1  7948  0.45
      L1  H    23    46       P1  8028  1.00

> <Gold.Chemscore.Hbond.Weighted>
-6.2450

> <Gold.Chemscore.Metal.Weighted>
-0.0000

> <Gold.Chemscore.Lipo.Weighted>
-10.5949

> <Gold.Chemscore.Internal_Hbond.Weighted>
0.0000

> <Gold.Chemscore.DEClash.Weighted>
0.0471

> <Gold.Chemscore.DEInternal.Weighted>
1.8794

> <Gold.Chemscore.Rot.Weighted>
4.2457

> <Gold.Chemscore.Internal.Correction.Weighted>
   9.000000E+99

> <Gold.Protein.RotatedTorsions>
[ 6907 6896 6895 6894 ] final   70.95 input  -60.11 | X-H torsion
[ 7974 7965 7964 7962 ] final   88.09 input  175.53 | X-H torsion
[ 8008 7997 7996 7995 ] final  -28.54 input   59.86 | X-H torsion
[ 10167 10162 10161 10158 ] final -148.62 input  -65.29 | X-H torsion
[ 10718 10713 10712 10709 ] final  -31.35 input   66.30 | X-H torsion
[ 10763 10752 10751 10750 ] final -115.28 input  -60.55 | X-H torsion
[ 11005 11000 10999 10996 ] final  -74.10 input  -57.11 | X-H torsion

> <Gold.Protein.ActiveResidues>
 VAL166  LYS551  ARG553  GLY616  TRP617  ASP618  TYR619  PRO620  LYS621  CYS622 
 ASP623  PHE694  ASN695  SER759  ASP760  ASP761  ALA762  ILE779  LEU786  VAL792 
 PHE793  MET794  SER795  GLU796  ALA797  LYS798  CYS799  TRP800  GLU811  SER814 

> <Gold.Protein.RotatedAtoms>
  152.4781  134.4792  159.9659 H   0  0  0  0  0  0  0  0  0  0  0  0  # atno 6907 bound_to 6896
  151.4804  133.3542  159.2845 H   0  0  0  0  0  0  0  0  0  0  0  0  # atno 6908 bound_to 6896
  150.8833  134.8253  159.7302 H   0  0  0  0  0  0  0  0  0  0  0  0  # atno 6909 bound_to 6896
  145.5503  139.2295  143.2516 H   0  0  0  0  0  0  0  0  0  0  0  0  # atno 7974 bound_to 7965
  154.4328  140.1842  156.1106 H   0  0  0  0  0  0  0  0  0  0  0  0  # atno 8008 bound_to 7997
  156.0221  140.3339  155.7024 H   0  0  0  0  0  0  0  0  0  0  0  0  # atno 8009 bound_to 7997
  155.5962  140.0636  157.2736 H   0  0  0  0  0  0  0  0  0  0  0  0  # atno 8010 bound_to 7997
  139.7516  143.8510  152.2587 H   0  0  0  0  0  0  0  0  0  0  0  0  # atno 10167 bound_to 10162
  156.3884  130.4368  149.7414 H   0  0  0  0  0  0  0  0  0  0  0  0  # atno 10718 bound_to 10713
  154.8475  135.4387  154.1638 H   0  0  0  0  0  0  0  0  0  0  0  0  # atno 10763 bound_to 10752
  153.2768  135.6950  153.7431 H   0  0  0  0  0  0  0  0  0  0  0  0  # atno 10764 bound_to 10752
  153.6650  135.3428  155.3113 H   0  0  0  0  0  0  0  0  0  0  0  0  # atno 10765 bound_to 10752
  141.1631  133.6900  156.7313 H   0  0  0  0  0  0  0  0  0  0  0  0  # atno 11005 bound_to 11000
  146.1921  140.6325  142.9140 LP  0  0  0  0  0  0  0  0  0  0  0  0  # atno 17320 bound_to 7965
  144.7533  140.5245  143.6787 LP  0  0  0  0  0  0  0  0  0  0  0  0  # atno 17321 bound_to 7965
  139.8490  144.7173  150.9237 LP  0  0  0  0  0  0  0  0  0  0  0  0  # atno 17342 bound_to 10162
  140.7798  143.3916  151.1301 LP  0  0  0  0  0  0  0  0  0  0  0  0  # atno 17343 bound_to 10162
  156.4477  130.7891  151.2913 LP  0  0  0  0  0  0  0  0  0  0  0  0  # atno 17370 bound_to 10713
  157.7497  131.0105  150.3309 LP  0  0  0  0  0  0  0  0  0  0  0  0  # atno 17371 bound_to 10713
  140.2743  134.8367  157.3876 LP  0  0  0  0  0  0  0  0  0  0  0  0  # atno 17394 bound_to 11000
  140.1492  134.4871  155.7973 LP  0  0  0  0  0  0  0  0  0  0  0  0  # atno 17395 bound_to 11000

$$$$
