AV-unprocessed.smi:1333|AV-procd|sdf|5490|dock8
  -GOLD-   22720 5 63D 1   1.00000     0.00000
 Structure written by MMmdl.
 33 34  0  0  0  0  0  0  0  0  1 V2000
  144.1984  135.8342  151.8635 O   0  0  0  0  0  0  0  0  0  0  0  0
  145.4102  135.7401  151.6494 C   0  0  0  0  0  0  0  0  0  0  0  0
  145.9371  134.7273  150.6237 C   0  0  0  0  0  0  0  0  0  0  0  0
  145.2545  133.4457  150.6846 N   0  0  0  0  0  0  0  0  0  0  0  0
  143.9008  133.2056  150.4845 C   0  0  0  0  0  0  0  0  0  0  0  0
  143.7134  131.8515  150.6472 C   0  0  0  0  0  0  0  0  0  0  0  0
  144.9301  131.2422  150.9452 N   0  0  0  0  0  0  0  0  0  0  0  0
  145.7951  132.2483  150.9516 C   0  0  0  0  0  0  0  0  0  0  0  0
  146.3735  136.4727  152.2545 N   0  0  0  0  0  0  0  0  0  0  0  0
  146.2958  137.4435  153.1958 C   0  0  0  0  0  0  0  0  0  0  0  0
  145.2340  137.6700  153.7740 O   0  0  0  0  0  0  0  0  0  0  0  0
  147.4197  138.1369  153.4584 N   0  0  0  0  0  0  0  0  0  0  0  0
  147.5424  139.2171  154.4332 C   0  0  0  0  0  0  0  0  0  0  0  0
  146.6540  140.4207  154.0591 C   0  0  0  0  0  0  0  0  0  0  0  0
  147.6082  141.5141  153.5783 C   0  0  0  0  0  0  0  0  0  0  0  0
  148.8836  141.2729  154.3791 C   0  0  0  0  0  0  0  0  0  0  0  0
  148.9879  139.7496  154.4764 C   0  0  0  0  0  0  0  0  0  0  0  0
  145.8242  135.1346  149.6179 H   0  0  0  0  0  0  0  0  0  0  0  0
  147.0030  134.5643  150.7888 H   0  0  0  0  0  0  0  0  0  0  0  0
  143.2021  133.9961  150.2529 H   0  0  0  0  0  0  0  0  0  0  0  0
  142.8037  131.2742  150.5747 H   0  0  0  0  0  0  0  0  0  0  0  0
  146.8467  132.1112  151.1574 H   0  0  0  0  0  0  0  0  0  0  0  0
  147.3140  136.2608  151.9549 H   0  0  0  0  0  0  0  0  0  0  0  0
  148.2530  137.8950  152.9410 H   0  0  0  0  0  0  0  0  0  0  0  0
  147.2608  138.8484  155.4213 H   0  0  0  0  0  0  0  0  0  0  0  0
  145.8924  140.1880  153.3135 H   0  0  0  0  0  0  0  0  0  0  0  0
  146.1303  140.7682  154.9505 H   0  0  0  0  0  0  0  0  0  0  0  0
  147.8114  141.3838  152.5146 H   0  0  0  0  0  0  0  0  0  0  0  0
  147.2042  142.5168  153.7214 H   0  0  0  0  0  0  0  0  0  0  0  0
  149.7617  141.7257  153.9179 H   0  0  0  0  0  0  0  0  0  0  0  0
  148.7746  141.6989  155.3774 H   0  0  0  0  0  0  0  0  0  0  0  0
  149.5155  139.4355  155.3778 H   0  0  0  0  0  0  0  0  0  0  0  0
  149.5605  139.3791  153.6242 H   0  0  0  0  0  0  0  0  0  0  0  0
  1  2  2  0  0  0  0
  2  3  1  0  0  0  0
  2  9  1  0  0  0  0
  3  4  1  0  0  0  0
  3 18  1  0  0  0  0
  3 19  1  0  0  0  0
  4  8  1  0  0  0  0
  4  5  1  0  0  0  0
  5  6  2  0  0  0  0
  5 20  1  0  0  0  0
  6  7  1  0  0  0  0
  6 21  1  0  0  0  0
  7  8  2  0  0  0  0
  8 22  1  0  0  0  0
  9 10  1  0  0  0  0
  9 23  1  0  0  0  0
 10 11  2  0  0  0  0
 10 12  1  0  0  0  0
 12 13  1  0  0  0  0
 12 24  1  0  0  0  0
 13 17  1  0  0  0  0
 13 14  1  0  0  0  0
 13 25  1  0  0  0  0
 14 15  1  0  0  0  0
 14 26  1  0  0  0  0
 14 27  1  0  0  0  0
 15 16  1  0  0  0  0
 15 28  1  0  0  0  0
 15 29  1  0  0  0  0
 16 17  1  0  0  0  0
 16 30  1  0  0  0  0
 16 31  1  0  0  0  0
 17 32  1  0  0  0  0
 17 33  1  0  0  0  0
M  END
> <s_m_source_file>
AV-unprocessed.smi

> <i_m_source_file_index>
1333

> <i_lp_mmshare_version>
43012

> <i_f3d_flags>
0

> <s_epik_input>
W2NIXTFuW2NIXVtjSF1uMVtDSDJdQyg9TylbTkhdQyg9TylbTkhdW0NIXTJbQ0gyXVtDSDJdW0NIMl1bQ0gyXTI=

> <s_epik_cmdline>
J2VwaWtfcHl0aG9uJywgJy1waCcsICc3LjAnLCAnLXRuJywgJzgnLCAnLW1hJywgJzIwMCcsICctbWV0YWxfYmluZGluZycsICctaW1hZScsICc8aW5maWxlLm1hZT4nLCAnLW9tYWUnLCAnPG91dGZpbGUubWFlPic=

> <r_lp_tautomer_probability>
1

> <r_epik_Ionization_Penalty>
0.171964

> <r_epik_Ionization_Penalty_Charging>
0.171937

> <r_epik_Ionization_Penalty_Neutral>
2.73302e-05

> <r_epik_State_Penalty>
0.161333

> <r_epik_Charging_Adjusted_Penalty>
0.33327

> <i_epik_Tot_Q>
0

> <i_epik_Tot_abs_Q>
0

> <r_epik_Metal_State_Penalty>
0.124658

> <b_epik_Metal_Only>
0

> <s_lp_Force_Field>
OPLS_2005

> <r_lp_Energy>
24.334

> <b_lp_Chiralities_Consistent>
1

> <s_lp_Variant>
AV-unprocessed.smi:1333-1

> <Gold.Version>
5.8.1

> <Gold.Id.Protein>
6NUR|6NUR_protein|mol2

> <Gold.PLP.Fitness>
40.8371

> <Gold.PLP.PLP>
-27.2584

> <Gold.PLP.part.hbond>
-1.9489

> <Gold.PLP.part.metal>
0.0000

> <Gold.PLP.part.buried>
-4.1223

> <Gold.PLP.part.nonpolar>
-21.7059

> <Gold.PLP.part.repulsive>
0.4554

> <Gold.PLP.ligand.clash>
0.0000

> <Gold.PLP.ligand.torsion>
0.2905

> <Gold.PLP.Chemscore.Hbond>
1.7200

> <Gold.PLP.Chemscore.CHOScore>
2.9968

> <Gold.PLP.Chemscore.Metal>
0.0000

> <Gold.Chemscore.Hbonds>
donor molecule, donor type, donor heavy atom, donor atom, acceptor molecule, acceptor atom, score
      L1  H     9    23       P1  7948  1.00
      L1  H    12    24       P1  7948  0.65
      L1  C     5    20       P1 10186  1.00
      L1  C     6    21       P1 10952  1.00
      L1  C     8    22       P1 10747  0.77

> <Gold.PLP.Chemscore.Internal.Correction>
0.0091

> <Gold.Rescore>
     Score         DG    S(hbond)    S(metal)    S(lipo)     H(rot)  DE(clash)    DE(int)     intcor
     11.72     -13.56       1.76        0.00      56.46       1.73       0.10       1.74       ----

> <Gold.Chemscore.Fitness>
11.7165

> <Gold.Chemscore.DG>
-13.5581

> <Gold.Chemscore.ZeroCoef>
-5.4800

> <Gold.Chemscore.Hbond>
1.7640

> <Gold.Chemscore.Metal>
0.0000

> <Gold.Chemscore.Lipo>
56.4574

> <Gold.Chemscore.Internal_Hbond>
0.0000

> <Gold.Chemscore.DEClash>
0.1020

> <Gold.Chemscore.DEInternal>
1.7395

> <Gold.Chemscore.Rot>
1.7263

> <Gold.Chemscore.Internal.Correction>
   9.000000E+99

> <Gold.Chemscore.Hbonds>
donor molecule, donor type, donor heavy atom, donor atom, acceptor molecule, acceptor atom, score
      L1  H     9    23       P1  7948  0.99
      L1  H    12    24       P1  7948  0.64

> <Gold.Chemscore.Hbond.Weighted>
-5.8918

> <Gold.Chemscore.Metal.Weighted>
-0.0000

> <Gold.Chemscore.Lipo.Weighted>
-6.6055

> <Gold.Chemscore.Internal_Hbond.Weighted>
0.0000

> <Gold.Chemscore.DEClash.Weighted>
0.1020

> <Gold.Chemscore.DEInternal.Weighted>
1.7395

> <Gold.Chemscore.Rot.Weighted>
4.4193

> <Gold.Chemscore.Internal.Correction.Weighted>
   9.000000E+99

> <Gold.Protein.RotatedTorsions>
[ 6907 6896 6895 6894 ] final   75.32 input  -60.11 | X-H torsion
[ 7974 7965 7964 7962 ] final  -79.45 input  175.53 | X-H torsion
[ 8008 7997 7996 7995 ] final -179.36 input   59.86 | X-H torsion
[ 10167 10162 10161 10158 ] final  -90.99 input  -65.29 | X-H torsion
[ 10718 10713 10712 10709 ] final   -2.34 input   66.30 | X-H torsion
[ 10763 10752 10751 10750 ] final   77.61 input  -60.55 | X-H torsion
[ 11005 11000 10999 10996 ] final -169.13 input  -57.11 | X-H torsion

> <Gold.Protein.ActiveResidues>
 VAL166  LYS551  ARG553  GLY616  TRP617  ASP618  TYR619  PRO620  LYS621  CYS622 
 ASP623  PHE694  ASN695  SER759  ASP760  ASP761  ALA762  ILE779  LEU786  VAL792 
 PHE793  MET794  SER795  GLU796  ALA797  LYS798  CYS799  TRP800  GLU811  SER814 

> <Gold.Protein.RotatedAtoms>
  152.5020  134.4138  159.9457 H   0  0  0  0  0  0  0  0  0  0  0  0  # atno 6907 bound_to 6896
  151.4108  133.3722  159.2751 H   0  0  0  0  0  0  0  0  0  0  0  0  # atno 6908 bound_to 6896
  150.9293  134.8730  159.7600 H   0  0  0  0  0  0  0  0  0  0  0  0  # atno 6909 bound_to 6896
  145.5730  140.9462  143.1385 H   0  0  0  0  0  0  0  0  0  0  0  0  # atno 7974 bound_to 7965
  156.0296  140.1279  157.0272 H   0  0  0  0  0  0  0  0  0  0  0  0  # atno 8008 bound_to 7997
  154.4344  140.1052  156.6150 H   0  0  0  0  0  0  0  0  0  0  0  0  # atno 8009 bound_to 7997
  155.5827  140.3468  155.4547 H   0  0  0  0  0  0  0  0  0  0  0  0  # atno 8010 bound_to 7997
  140.3493  143.2900  151.9744 H   0  0  0  0  0  0  0  0  0  0  0  0  # atno 10167 bound_to 10162
  156.7923  130.5366  149.5734 H   0  0  0  0  0  0  0  0  0  0  0  0  # atno 10718 bound_to 10713
  153.0811  135.4908  154.8505 H   0  0  0  0  0  0  0  0  0  0  0  0  # atno 10763 bound_to 10752
  154.7152  135.3028  154.9137 H   0  0  0  0  0  0  0  0  0  0  0  0  # atno 10764 bound_to 10752
  153.9818  135.6789  153.4803 H   0  0  0  0  0  0  0  0  0  0  0  0  # atno 10765 bound_to 10752
  140.5342  134.5586  157.5083 H   0  0  0  0  0  0  0  0  0  0  0  0  # atno 11005 bound_to 11000
  144.7429  139.7400  143.7304 LP  0  0  0  0  0  0  0  0  0  0  0  0  # atno 17320 bound_to 7965
  146.1770  139.4946  142.9891 LP  0  0  0  0  0  0  0  0  0  0  0  0  # atno 17321 bound_to 7965
  139.4828  144.6089  151.7469 LP  0  0  0  0  0  0  0  0  0  0  0  0  # atno 17342 bound_to 10162
  140.5234  144.0843  150.6030 LP  0  0  0  0  0  0  0  0  0  0  0  0  # atno 17343 bound_to 10162
  156.1151  130.6069  151.0108 LP  0  0  0  0  0  0  0  0  0  0  0  0  # atno 17370 bound_to 10713
  157.6594  131.0883  150.7872 LP  0  0  0  0  0  0  0  0  0  0  0  0  # atno 17371 bound_to 10713
  139.9538  134.7570  156.0387 LP  0  0  0  0  0  0  0  0  0  0  0  0  # atno 17394 bound_to 11000
  141.1264  133.6598  156.3348 LP  0  0  0  0  0  0  0  0  0  0  0  0  # atno 17395 bound_to 11000

$$$$
