#       Name:                AV-unprocessed.smi:1958
#       Creating user name   scv26
#       Creation time:       Fri Mar 27 10:06:31 2020


#       File generated by GOLD software.
#

@<TRIPOS>MOLECULE
AV-unprocessed.smi:1958
    57    58     1
SMALL
NO_CHARGES


@<TRIPOS>ATOM
      1 ****        -2.7771  -0.9469   4.4668 C.3            1 S1                 0.0000
      2 ****        -2.5863  -0.6873   3.0873 O.3            1 S1                 0.0000
      3 ****        -3.8108  -0.5832   2.3790 C.3            1 S1                 0.0000
      4 ****        -3.5218  -0.2863   0.8983 C.3            1 S1                 0.0000
      5 ****        -2.9371   1.0467   0.7137 N.am           1 S1                 0.0000
      6 ****        -1.5561   1.0467   0.6143 N.2            1 S1                 0.0000
      7 ****        -0.9139   2.1606   0.4684 C.2            1 S1                 0.0000
      8 ****         0.5707   2.2028   0.3633 C.2            1 S1                 0.0000
      9 ****         1.1831   3.2614   0.2128 O.2            1 S1                 0.0000
     10 ****         1.1826   1.0074   0.4356 N.am           1 S1                 0.0000
     11 ****         2.6186   0.7668   0.3142 C.3            1 S1                 0.0000
     12 ****         3.0189   0.2833  -1.1049 C.3            1 S1                 0.0000
     13 ****         2.9703   1.4915  -2.0672 C.3            1 S1                 0.0000
     14 ****         2.2438  -0.8829  -1.5826 N.3            1 S1                 0.0000
     15 ****         2.3420  -2.0318  -0.6773 C.3            1 S1                 0.0000
     16 ****         1.5437  -3.2474  -1.1783 C.3            1 S1                 0.0000
     17 ****         1.9889  -3.6077  -2.4793 O.3            1 S1                 0.0000
     18 ****         1.8511  -2.5417  -3.4098 C.3            1 S1                 0.0000
     19 ****         2.6489  -1.3201  -2.9215 C.3            1 S1                 0.0000
     20 ****        -1.6254   3.4257   0.3995 C.2            1 S1                 0.0000
     21 ****        -2.9729   3.4099   0.4977 C.2            1 S1                 0.0000
     22 ****        -3.7228   2.1648   0.6701 C.2            1 S1                 0.0000
     23 ****        -4.9487   2.1260   0.7715 O.2            1 S1                 0.0000
     24 ****        -1.8093  -1.0214   4.9629 H              1 S1                 0.0000
     25 ****        -3.3077  -1.8872   4.6216 H              1 S1                 0.0000
     26 ****        -3.3396  -0.1441   4.9453 H              1 S1                 0.0000
     27 ****        -4.3582  -1.5230   2.4612 H              1 S1                 0.0000
     28 ****        -4.4394   0.1955   2.8135 H              1 S1                 0.0000
     29 ****        -2.8578  -1.0526   0.4941 H              1 S1                 0.0000
     30 ****        -4.4435  -0.3714   0.3199 H              1 S1                 0.0000
     31 ****         0.5991   0.1919   0.5561 H              1 S1                 0.0000
     32 ****         3.1854   1.6587   0.5861 H              1 S1                 0.0000
     33 ****         2.8991   0.0280   1.0643 H              1 S1                 0.0000
     34 ****         4.0670  -0.0139  -1.0417 H              1 S1                 0.0000
     35 ****         3.4492   2.3667  -1.6278 H              1 S1                 0.0000
     36 ****         1.9443   1.7669  -2.3133 H              1 S1                 0.0000
     37 ****         3.4982   1.2933  -2.9994 H              1 S1                 0.0000
     38 ****         3.3882  -2.3140  -0.5501 H              1 S1                 0.0000
     39 ****         1.9625  -1.7753   0.3104 H              1 S1                 0.0000
     40 ****         1.6835  -4.0950  -0.5072 H              1 S1                 0.0000
     41 ****         0.4753  -3.0269  -1.1978 H              1 S1                 0.0000
     42 ****         2.2179  -2.8688  -4.3828 H              1 S1                 0.0000
     43 ****         0.7965  -2.2900  -3.5327 H              1 S1                 0.0000
     44 ****         2.4984  -0.5211  -3.6460 H              1 S1                 0.0000
     45 ****         3.7141  -1.5561  -2.9275 H              1 S1                 0.0000
     46 ****        -1.0979   4.3600   0.2729 H              1 S1                 0.0000
     47 ****        -3.5147   4.3432   0.4487 H              1 S1                 0.0000
     48 ****        -2.0497  -1.4329   2.6920 LP             1 S1                 0.0000
     49 ****        -2.0851   0.1724   2.9892 LP             1 S1                 0.0000
     50 ****        -1.0534   0.1832   0.6553 LP             1 S1                 0.0000
     51 ****         0.6824   4.1252   0.1578 LP             1 S1                 0.0000
     52 ****         2.1808   3.2566   0.1455 LP             1 S1                 0.0000
     53 ****         1.2971  -0.5622  -1.6119 LP             1 S1                 0.0000
     54 ****         1.4496  -4.3864  -2.7999 LP             1 S1                 0.0000
     55 ****         2.9530  -3.8683  -2.4289 LP             1 S1                 0.0000
     56 ****        -5.4129   1.2485   0.8918 LP             1 S1                 0.0000
     57 ****        -5.4806   2.9719   0.7335 LP             1 S1                 0.0000
@<TRIPOS>BOND
    1    1    2 1     
    2    1   24 1     
    3    1   25 1     
    4    1   26 1     
    5    2    3 1     
    6    3    4 1     
    7    3   27 1     
    8    3   28 1     
    9    4    5 1     
   10    4   29 1     
   11    4   30 1     
   12    5   22 am    
   13    5    6 1     
   14    6    7 2     
   15    7    8 1     
   16    7   20 1     
   17    8    9 2     
   18    8   10 am    
   19   10   11 1     
   20   10   31 1     
   21   11   12 1     
   22   11   32 1     
   23   11   33 1     
   24   12   13 1     
   25   12   14 1     
   26   12   34 1     
   27   13   35 1     
   28   13   36 1     
   29   13   37 1     
   30   14   19 1     
   31   14   15 1     
   32   15   16 1     
   33   15   38 1     
   34   15   39 1     
   35   16   17 1     
   36   16   40 1     
   37   16   41 1     
   38   17   18 1     
   39   18   19 1     
   40   18   42 1     
   41   18   43 1     
   42   19   44 1     
   43   19   45 1     
   44   20   21 2     
   45   20   46 1     
   46   21   22 1     
   47   21   47 1     
   48   22   23 2     
   49    2   48 1     
   50    2   49 1     
   51    6   50 1     
   52    9   51 1     
   53    9   52 1     
   54   14   53 1     
   55   17   54 1     
   56   17   55 1     
   57   23   56 1     
   58   23   57 1     
@<TRIPOS>SUBSTRUCTURE
      1 S1             1
@<TRIPOS>SET
LONE_PAIRS      STATIC     ATOMS    <user>   **** ""
10 48 49 50 51 52 53 54 55 56 57
DONOR_HYDROGENS      STATIC     ATOMS    <user>   **** ""
1 31
ATOM$BLUE        STATIC     ATOMS    COLORGROUP SYSTEM
10 48 49 50 51 52 53 54 55 56 57
ATOM$RED        STATIC     ATOMS    COLORGROUP SYSTEM
1 31
