#       Name:                AV-unprocessed.smi:1041
#       Creating user name   scv26
#       Creation time:       Fri Mar 27 02:56:00 2020


#       File generated by GOLD software.
#

@<TRIPOS>MOLECULE
AV-unprocessed.smi:1041
    60    61     1
SMALL
NO_CHARGES


@<TRIPOS>ATOM
      1 ****        -4.9887  -4.2616  -2.5778 C.3            1 S1                 0.0000
      2 ****        -3.9423  -3.6880  -1.8138 O.3            1 S1                 0.0000
      3 ****        -2.6777  -3.8179  -2.4417 C.3            1 S1                 0.0000
      4 ****        -1.6100  -3.1592  -1.5537 C.3            1 S1                 0.0000
      5 ****        -1.8295  -1.7001  -1.3846 N.4            1 S1                 1.0000
      6 ****        -1.4718  -0.9029  -2.5884 C.3            1 S1                 0.0000
      7 ****        -1.8317   0.5830  -2.4028 C.3            1 S1                 0.0000
      8 ****        -1.1881   1.1873  -1.1418 C.3            1 S1                 0.0000
      9 ****         0.3287   1.4376  -1.3215 C.3            1 S1                 0.0000
     10 ****         0.9406   1.9973  -0.1236 N.am           1 S1                 0.0000
     11 ****         0.8416   3.2729   0.2835 C.2            1 S1                 0.0000
     12 ****         0.2775   4.1457  -0.3754 O.2            1 S1                 0.0000
     13 ****         1.4390   3.6239   1.6513 C.3            1 S1                 0.0000
     14 ****         2.1910   2.5105   2.3845 C.2            1 S1                 0.0000
     15 ****         3.5257   2.2790   2.2298 C.2            1 S1                 0.0000
     16 ****         4.4085   3.1157   1.3208 C.3            1 S1                 0.0000
     17 ****         4.1645   1.2295   2.9114 N.2            1 S1                 0.0000
     18 ****         3.4817   0.4710   3.6815 C.2            1 S1                 0.0000
     19 ****         4.1785  -0.6565   4.4128 C.3            1 S1                 0.0000
     20 ****         2.1275   0.6080   3.8914 N.pl3          1 S1                -1.0000
     21 ****         1.4379   1.6092   3.2749 C.2            1 S1                 0.0000
     22 ****         0.2265   1.7604   3.4285 O.2            1 S1                 0.0000
     23 ****        -1.5418   0.3014   0.0715 C.3            1 S1                 0.0000
     24 ****        -1.1712  -1.1724  -0.1621 C.3            1 S1                 0.0000
     25 ****        -5.9354  -4.1439  -2.0509 H              1 S1                 0.0000
     26 ****        -4.8225  -5.3276  -2.7377 H              1 S1                 0.0000
     27 ****        -5.0804  -3.7716  -3.5481 H              1 S1                 0.0000
     28 ****        -2.4425  -4.8763  -2.5637 H              1 S1                 0.0000
     29 ****        -2.6951  -3.3812  -3.4403 H              1 S1                 0.0000
     30 ****        -1.6346  -3.6496  -0.5795 H              1 S1                 0.0000
     31 ****        -0.6130  -3.3351  -1.9602 H              1 S1                 0.0000
     32 ****        -0.4081  -1.0163  -2.8008 H              1 S1                 0.0000
     33 ****        -2.0028  -1.2779  -3.4619 H              1 S1                 0.0000
     34 ****        -1.5401   1.1528  -3.2857 H              1 S1                 0.0000
     35 ****        -2.9161   0.6764  -2.3291 H              1 S1                 0.0000
     36 ****        -1.6521   2.1609  -0.9789 H              1 S1                 0.0000
     37 ****         0.8508   0.5092  -1.5499 H              1 S1                 0.0000
     38 ****         0.5068   2.1025  -2.1683 H              1 S1                 0.0000
     39 ****         1.4297   1.3523   0.4809 H              1 S1                 0.0000
     40 ****         2.1081   4.4722   1.5089 H              1 S1                 0.0000
     41 ****         0.6400   4.0084   2.2860 H              1 S1                 0.0000
     42 ****         4.4868   4.1351   1.6994 H              1 S1                 0.0000
     43 ****         3.9982   3.1495   0.3113 H              1 S1                 0.0000
     44 ****         5.4158   2.7019   1.2586 H              1 S1                 0.0000
     45 ****         3.8029  -0.7438   5.4330 H              1 S1                 0.0000
     46 ****         5.2544  -0.4834   4.4627 H              1 S1                 0.0000
     47 ****         4.0052  -1.6016   3.8976 H              1 S1                 0.0000
     48 ****        -1.0635   0.6680   0.9801 H              1 S1                 0.0000
     49 ****        -2.6145   0.3684   0.2584 H              1 S1                 0.0000
     50 ****        -1.4857  -1.7554   0.7045 H              1 S1                 0.0000
     51 ****        -0.0895  -1.2890  -0.2428 H              1 S1                 0.0000
     52 ****        -2.8217  -1.5806  -1.2373 H              1 S1                 0.0000
     53 ****        -3.9072  -4.1441  -0.9246 LP             1 S1                 0.0000
     54 ****        -4.1368  -2.7159  -1.6824 LP             1 S1                 0.0000
     55 ****        -0.1338   3.9184  -1.2581 LP             1 S1                 0.0000
     56 ****         0.2304   5.0823  -0.0282 LP             1 S1                 0.0000
     57 ****         5.1460   1.0770   2.7950 LP             1 S1                 0.0000
     58 ****         1.6494  -0.0280   4.4970 LP             1 S1                 0.0000
     59 ****        -0.2503   2.4968   2.9484 LP             1 S1                 0.0000
     60 ****        -0.2812   1.1470   4.0334 LP             1 S1                 0.0000
@<TRIPOS>BOND
    1    1    2 1     
    2    1   25 1     
    3    1   26 1     
    4    1   27 1     
    5    2    3 1     
    6    3    4 1     
    7    3   28 1     
    8    3   29 1     
    9    4    5 1     
   10    4   30 1     
   11    4   31 1     
   12    5   24 1     
   13    5    6 1     
   14    5   52 1     
   15    6    7 1     
   16    6   32 1     
   17    6   33 1     
   18    7    8 1     
   19    7   34 1     
   20    7   35 1     
   21    8    9 1     
   22    8   23 1     
   23    8   36 1     
   24    9   10 1     
   25    9   37 1     
   26    9   38 1     
   27   10   11 am    
   28   10   39 1     
   29   11   12 2     
   30   11   13 1     
   31   13   14 1     
   32   13   40 1     
   33   13   41 1     
   34   14   21 1     
   35   14   15 2     
   36   15   16 1     
   37   15   17 1     
   38   16   42 1     
   39   16   43 1     
   40   16   44 1     
   41   17   18 2     
   42   18   19 1     
   43   18   20 1     
   44   19   45 1     
   45   19   46 1     
   46   19   47 1     
   47   20   21 1     
   48   21   22 2     
   49   23   24 1     
   50   23   48 1     
   51   23   49 1     
   52   24   50 1     
   53   24   51 1     
   54    2   53 1     
   55    2   54 1     
   56   12   55 1     
   57   12   56 1     
   58   17   57 1     
   59   20   58 1     
   60   22   59 1     
   61   22   60 1     
@<TRIPOS>SUBSTRUCTURE
      1 S1             1
@<TRIPOS>SET
LONE_PAIRS      STATIC     ATOMS    <user>   **** ""
8 53 54 55 56 57 58 59 60
DONOR_HYDROGENS      STATIC     ATOMS    <user>   **** ""
2 52 39
ATOM$BLUE        STATIC     ATOMS    COLORGROUP SYSTEM
8 53 54 55 56 57 58 59 60
ATOM$RED        STATIC     ATOMS    COLORGROUP SYSTEM
2 52 39
