#       Name:                AV-unprocessed.smi:532
#       Creating user name   scv26
#       Creation time:       Thu Mar 26 23:34:26 2020


#       File generated by GOLD software.
#

@<TRIPOS>MOLECULE
AV-unprocessed.smi:532
    56    58     1
SMALL
NO_CHARGES


@<TRIPOS>ATOM
      1 ****        -4.0140   2.3339  -1.0439 C.3            1 S1                 0.0000
      2 ****        -3.3968   1.0596  -1.0013 O.3            1 S1                 0.0000
      3 ****        -2.0185   1.1160  -1.3266 C.3            1 S1                 0.0000
      4 ****        -1.4278  -0.2963  -1.2423 C.3            1 S1                 0.0000
      5 ****         0.0172  -0.2828  -1.4275 N.pl3          1 S1                 0.0000
      6 ****         0.9748  -0.2595  -0.4661 C.2            1 S1                 0.0000
      7 ****         0.6439  -0.2312   0.8861 N.pl3          1 S1                 0.0000
      8 ****         0.5785   1.0126   1.6544 C.3            1 S1                 0.0000
      9 ****        -0.4680   0.9908   2.7914 C.3            1 S1                 0.0000
     10 ****        -1.9129   1.1352   2.2863 C.3            1 S1                 0.0000
     11 ****        -0.2728  -0.2452   3.6862 C.3            1 S1                 0.0000
     12 ****        -0.1825  -1.5303   2.8473 C.3            1 S1                 0.0000
     13 ****         0.0870  -2.7575   3.7285 C.3            1 S1                 0.0000
     14 ****         0.9016  -1.3673   1.7668 C.3            1 S1                 0.0000
     15 ****         2.2290  -0.2719  -0.9211 N.2            1 S1                 0.0000
     16 ****         2.0512  -0.2882  -2.2970 C.2            1 S1                 0.0000
     17 ****         0.7324  -0.2890  -2.6273 C.2            1 S1                 0.0000
     18 ****         0.2318  -0.2938  -4.0176 C.2            1 S1                 0.0000
     19 ****        -0.9739  -0.2772  -4.2574 O.2            1 S1                 0.0000
     20 ****         1.2529  -0.3137  -4.9321 N.pl3          1 S1                -1.0000
     21 ****         2.6018  -0.3170  -4.6436 C.2            1 S1                 0.0000
     22 ****         3.4508  -0.3335  -5.5350 O.2            1 S1                 0.0000
     23 ****         3.0183  -0.3012  -3.3362 N.am           1 S1                 0.0000
     24 ****         4.4313  -0.2996  -2.9452 C.3            1 S1                 0.0000
     25 ****        -5.0693   2.2395  -0.7887 H              1 S1                 0.0000
     26 ****        -3.9464   2.7711  -2.0410 H              1 S1                 0.0000
     27 ****        -3.5553   3.0180  -0.3289 H              1 S1                 0.0000
     28 ****        -1.8838   1.5230  -2.3296 H              1 S1                 0.0000
     29 ****        -1.5004   1.7806  -0.6345 H              1 S1                 0.0000
     30 ****        -1.6578  -0.7509  -0.2798 H              1 S1                 0.0000
     31 ****        -1.8823  -0.9510  -1.9849 H              1 S1                 0.0000
     32 ****         1.5676   1.1979   2.0752 H              1 S1                 0.0000
     33 ****         0.3771   1.8448   0.9790 H              1 S1                 0.0000
     34 ****        -0.2820   1.8689   3.4110 H              1 S1                 0.0000
     35 ****        -2.2128   0.2984   1.6588 H              1 S1                 0.0000
     36 ****        -2.0351   2.0489   1.7048 H              1 S1                 0.0000
     37 ****        -2.6140   1.1852   3.1195 H              1 S1                 0.0000
     38 ****         0.6489  -0.1264   4.2578 H              1 S1                 0.0000
     39 ****        -1.0783  -0.3187   4.4178 H              1 S1                 0.0000
     40 ****        -1.1391  -1.6907   2.3484 H              1 S1                 0.0000
     41 ****         1.0417  -2.6713   4.2484 H              1 S1                 0.0000
     42 ****         0.1135  -3.6697   3.1318 H              1 S1                 0.0000
     43 ****        -0.6927  -2.8790   4.4809 H              1 S1                 0.0000
     44 ****         0.9563  -2.2741   1.1628 H              1 S1                 0.0000
     45 ****         1.8824  -1.2426   2.2279 H              1 S1                 0.0000
     46 ****         5.1312  -0.3181  -3.7808 H              1 S1                 0.0000
     47 ****         4.6443  -1.1708  -2.3250 H              1 S1                 0.0000
     48 ****         4.6513   0.5919  -2.3573 H              1 S1                 0.0000
     49 ****        -3.8566   0.4580  -1.6545 LP             1 S1                 0.0000
     50 ****        -3.4941   0.6863  -0.0787 LP             1 S1                 0.0000
     51 ****         3.0830  -0.2699  -0.4009 LP             1 S1                 0.0000
     52 ****        -1.6330  -0.2601  -3.5056 LP             1 S1                 0.0000
     53 ****        -1.2955  -0.2807  -5.2043 LP             1 S1                 0.0000
     54 ****         0.9959  -0.3270  -5.8984 LP             1 S1                 0.0000
     55 ****         3.1685  -0.3448  -6.4943 LP             1 S1                 0.0000
     56 ****         4.4227  -0.3355  -5.2998 LP             1 S1                 0.0000
@<TRIPOS>BOND
    1    1    2 1     
    2    1   25 1     
    3    1   26 1     
    4    1   27 1     
    5    2    3 1     
    6    3    4 1     
    7    3   28 1     
    8    3   29 1     
    9    4    5 1     
   10    4   30 1     
   11    4   31 1     
   12    5   17 1     
   13    5    6 1     
   14    6    7 1     
   15    6   15 2     
   16    7   14 1     
   17    7    8 1     
   18    8    9 1     
   19    8   32 1     
   20    8   33 1     
   21    9   10 1     
   22    9   11 1     
   23    9   34 1     
   24   10   35 1     
   25   10   36 1     
   26   10   37 1     
   27   11   12 1     
   28   11   38 1     
   29   11   39 1     
   30   12   13 1     
   31   12   14 1     
   32   12   40 1     
   33   13   41 1     
   34   13   42 1     
   35   13   43 1     
   36   14   44 1     
   37   14   45 1     
   38   15   16 1     
   39   16   23 1     
   40   16   17 2     
   41   17   18 1     
   42   18   19 2     
   43   18   20 1     
   44   20   21 1     
   45   21   22 2     
   46   21   23 am    
   47   23   24 1     
   48   24   46 1     
   49   24   47 1     
   50   24   48 1     
   51    2   49 1     
   52    2   50 1     
   53   15   51 1     
   54   19   52 1     
   55   19   53 1     
   56   20   54 1     
   57   22   55 1     
   58   22   56 1     
@<TRIPOS>SUBSTRUCTURE
      1 S1             1
@<TRIPOS>SET
LONE_PAIRS      STATIC     ATOMS    <user>   **** ""
8 49 50 51 52 53 54 55 56
ATOM$BLUE        STATIC     ATOMS    COLORGROUP SYSTEM
8 49 50 51 52 53 54 55 56
