AV-unprocessed.smi:30|AV-procd|sdf|194|dock3
  -GOLD-   2262015463D 1   1.00000     0.00000
 Structure written by MMmdl.
 54 57  0  0  0  0  0  0  0  0  1 V2000
  150.1323  134.1019  157.2840 O   0  0  0  0  0  0  0  0  0  0  0  0
  149.9999  134.3117  156.0775 C   0  0  0  0  0  0  0  0  0  0  0  0
  149.4168  133.2286  155.1558 C   0  0  0  0  0  0  0  0  0  0  0  0
  148.0634  133.5434  154.6474 N   0  0  0  0  0  0  0  0  0  0  0  0
  147.0719  133.9574  155.5721 C   0  0  0  0  0  0  0  0  0  0  0  0
  147.3246  134.0639  156.7731 O   0  0  0  0  0  0  0  0  0  0  0  0
  145.7561  134.2316  155.0055 C   0  0  0  0  0  0  0  0  0  0  0  0
  144.7527  134.6219  155.8097 F   0  0  0  0  0  0  0  0  0  0  0  0
  145.5283  134.0967  153.6830 C   0  0  0  0  0  0  0  0  0  0  0  0
  146.5071  133.6987  152.7918 N   0  0  0  0  0  0  0  0  0  0  0  0
  146.2025  133.5489  151.3195 C   0  0  1  0  0  0  0  0  0  0  0  0
  146.3765  132.0883  150.8859 C   0  0  0  0  0  0  0  0  0  0  0  0
  144.9492  131.5836  150.8851 C   0  0  0  0  0  0  0  0  0  0  0  0
  144.1831  132.8319  150.4651 C   0  0  0  0  0  0  0  0  0  0  0  0
  144.8692  133.9077  151.0959 O   0  0  0  0  0  0  0  0  0  0  0  0
  147.8017  133.3921  153.2645 C   0  0  0  0  0  0  0  0  0  0  0  0
  148.6766  132.9927  152.4935 O   0  0  0  0  0  0  0  0  0  0  0  0
  150.3670  135.4477  155.4569 N   0  0  0  0  0  0  0  0  0  0  0  0
  150.8935  136.6413  156.0213 C   0  0  0  0  0  0  0  0  0  0  0  0
  151.0946  137.7330  155.1537 C   0  0  0  0  0  0  0  0  0  0  0  0
  151.5841  138.9573  155.6469 C   0  0  0  0  0  0  0  0  0  0  0  0
  151.8709  139.1211  157.0169 C   0  0  0  0  0  0  0  0  0  0  0  0
  152.3381  140.3551  157.4167 O   0  0  0  0  0  0  0  0  0  0  0  0
  152.4331  140.6204  158.8107 C   0  0  0  0  0  0  0  0  0  0  0  0
  152.2238  142.0905  159.1199 C   0  0  0  0  0  0  0  0  0  0  0  0
  152.3253  142.5575  160.4477 C   0  0  0  0  0  0  0  0  0  0  0  0
  152.1123  143.9193  160.7383 C   0  0  0  0  0  0  0  0  0  0  0  0
  151.7911  144.8189  159.7034 C   0  0  0  0  0  0  0  0  0  0  0  0
  151.6813  144.3556  158.3781 C   0  0  0  0  0  0  0  0  0  0  0  0
  151.8940  142.9938  158.0871 C   0  0  0  0  0  0  0  0  0  0  0  0
  151.6584  138.0265  157.8915 C   0  0  0  0  0  0  0  0  0  0  0  0
  151.1702  136.8003  157.3996 C   0  0  0  0  0  0  0  0  0  0  0  0
  150.1077  133.0670  154.3264 H   0  0  0  0  0  0  0  0  0  0  0  0
  149.4264  132.2793  155.6934 H   0  0  0  0  0  0  0  0  0  0  0  0
  144.5343  134.3066  153.3169 H   0  0  0  0  0  0  0  0  0  0  0  0
  146.8556  134.2444  150.7901 H   0  0  0  0  0  0  0  0  0  0  0  0
  146.7874  132.0727  149.8757 H   0  0  0  0  0  0  0  0  0  0  0  0
  147.0436  131.5341  151.5475 H   0  0  0  0  0  0  0  0  0  0  0  0
  144.7936  130.7405  150.2118 H   0  0  0  0  0  0  0  0  0  0  0  0
  144.6547  131.2784  151.8900 H   0  0  0  0  0  0  0  0  0  0  0  0
  144.2353  132.9655  149.3838 H   0  0  0  0  0  0  0  0  0  0  0  0
  143.1329  132.8008  150.7551 H   0  0  0  0  0  0  0  0  0  0  0  0
  150.3002  135.4395  154.4497 H   0  0  0  0  0  0  0  0  0  0  0  0
  150.8755  137.6359  154.1003 H   0  0  0  0  0  0  0  0  0  0  0  0
  151.7358  139.7822  154.9664 H   0  0  0  0  0  0  0  0  0  0  0  0
  151.6886  140.0316  159.3493 H   0  0  0  0  0  0  0  0  0  0  0  0
  153.4194  140.3378  159.1816 H   0  0  0  0  0  0  0  0  0  0  0  0
  152.5663  141.8725  161.2473 H   0  0  0  0  0  0  0  0  0  0  0  0
  152.1929  144.2730  161.7556 H   0  0  0  0  0  0  0  0  0  0  0  0
  151.6265  145.8626  159.9262 H   0  0  0  0  0  0  0  0  0  0  0  0
  151.4321  145.0444  157.5846 H   0  0  0  0  0  0  0  0  0  0  0  0
  151.8035  142.6469  157.0681 H   0  0  0  0  0  0  0  0  0  0  0  0
  151.8562  138.1028  158.9496 H   0  0  0  0  0  0  0  0  0  0  0  0
  150.9993  136.0005  158.1033 H   0  0  0  0  0  0  0  0  0  0  0  0
  1  2  2  0  0  0  0
  2  3  1  0  0  0  0
  2 18  1  0  0  0  0
  3  4  1  0  0  0  0
  3 33  1  0  0  0  0
  3 34  1  0  0  0  0
  4 16  1  0  0  0  0
  4  5  1  0  0  0  0
  5  6  2  0  0  0  0
  5  7  1  0  0  0  0
  7  8  1  0  0  0  0
  7  9  2  0  0  0  0
  9 10  1  0  0  0  0
  9 35  1  0  0  0  0
 10 11  1  0  0  0  0
 10 16  1  0  0  0  0
 11 15  1  0  0  0  0
 11 12  1  0  0  0  0
 11 36  1  0  0  0  0
 12 13  1  0  0  0  0
 12 37  1  0  0  0  0
 12 38  1  0  0  0  0
 13 14  1  0  0  0  0
 13 39  1  0  0  0  0
 13 40  1  0  0  0  0
 14 15  1  0  0  0  0
 14 41  1  0  0  0  0
 14 42  1  0  0  0  0
 16 17  2  0  0  0  0
 18 19  1  0  0  0  0
 18 43  1  0  0  0  0
 19 32  1  0  0  0  0
 19 20  2  0  0  0  0
 20 21  1  0  0  0  0
 20 44  1  0  0  0  0
 21 22  2  0  0  0  0
 21 45  1  0  0  0  0
 22 23  1  0  0  0  0
 22 31  1  0  0  0  0
 23 24  1  0  0  0  0
 24 25  1  0  0  0  0
 24 46  1  0  0  0  0
 24 47  1  0  0  0  0
 25 30  1  0  0  0  0
 25 26  2  0  0  0  0
 26 27  1  0  0  0  0
 26 48  1  0  0  0  0
 27 28  2  0  0  0  0
 27 49  1  0  0  0  0
 28 29  1  0  0  0  0
 28 50  1  0  0  0  0
 29 30  2  0  0  0  0
 29 51  1  0  0  0  0
 30 52  1  0  0  0  0
 31 32  2  0  0  0  0
 31 53  1  0  0  0  0
 32 54  1  0  0  0  0
M  END
> <s_m_source_file>
AV-unprocessed.smi

> <i_m_source_file_index>
30

> <i_lp_mmshare_version>
43012

> <i_f3d_flags>
0

> <s_epik_input>
TzFbQ0gyXVtDSDJdW0NIMl1bQ0BIXTFuKGMyPU8pW2NIXWMoRiljKD1PKW4yW0NIMl1DKD1PKVtOSF1jM1tjSF1bY0hdYyhbY0hdW2NIXTMpT1tDSDJdYzRbY0hdW2NIXVtjSF1bY0hdW2NIXTQ=

> <s_epik_cmdline>
J2VwaWtfcHl0aG9uJywgJy1waCcsICc3LjAnLCAnLXRuJywgJzgnLCAnLW1hJywgJzIwMCcsICctbWV0YWxfYmluZGluZycsICctaW1hZScsICc8aW5maWxlLm1hZT4nLCAnLW9tYWUnLCAnPG91dGZpbGUubWFlPic=

> <r_lp_tautomer_probability>
1

> <r_epik_Ionization_Penalty>
1.04818e-05

> <r_epik_Ionization_Penalty_Charging>
3.88729e-08

> <r_epik_Ionization_Penalty_Neutral>
1.04429e-05

> <r_epik_State_Penalty>
-0

> <r_epik_Charging_Adjusted_Penalty>
3.88729e-08

> <i_epik_Tot_Q>
0

> <i_epik_Tot_abs_Q>
0

> <r_epik_Metal_State_Penalty>
-0

> <b_epik_Metal_Only>
0

> <s_epik_Chemistry_Notes>
This compound contains an acetal/aminal-like group ( X-CH(R)-Y where X, Y are N, S, or O) that may be acid/base labile, releasing an aldehyde.

> <s_lp_Force_Field>
OPLS_2005

> <r_lp_Energy>
44.0701

> <b_lp_Chiralities_Consistent>
1

> <s_lp_Variant>
AV-unprocessed.smi:30-2

> <Gold.Version>
5.8.1

> <Gold.Id.Protein>
6NUR|6NUR_protein|mol2

> <Gold.PLP.Fitness>
56.6468

> <Gold.PLP.PLP>
-52.1738

> <Gold.PLP.part.hbond>
-2.0000

> <Gold.PLP.part.metal>
0.0000

> <Gold.PLP.part.buried>
-8.4248

> <Gold.PLP.part.nonpolar>
-43.0824

> <Gold.PLP.part.repulsive>
0.4434

> <Gold.PLP.ligand.clash>
0.0000

> <Gold.PLP.ligand.torsion>
0.5361

> <Gold.PLP.Chemscore.Hbond>
1.8167

> <Gold.PLP.Chemscore.CHOScore>
0.0000

> <Gold.PLP.Chemscore.Metal>
0.0000

> <Gold.Chemscore.Hbonds>
donor molecule, donor type, donor heavy atom, donor atom, acceptor molecule, acceptor atom, score
      P1  H  6896  6907       L1     1  0.72
      P1  H  7997  8009       L1    23  0.49

> <Gold.PLP.Chemscore.Internal.Correction>
0.0950

> <Gold.Rescore>
     Score         DG    S(hbond)    S(metal)    S(lipo)     H(rot)  DE(clash)    DE(int)     intcor
     15.27     -20.98       1.58        0.00     135.38       2.20       0.06       5.65       ----

> <Gold.Chemscore.Fitness>
15.2706

> <Gold.Chemscore.DG>
-20.9814

> <Gold.Chemscore.ZeroCoef>
-5.4800

> <Gold.Chemscore.Hbond>
1.5813

> <Gold.Chemscore.Metal>
0.0000

> <Gold.Chemscore.Lipo>
135.3808

> <Gold.Chemscore.Internal_Hbond>
0.0000

> <Gold.Chemscore.DEClash>
0.0640

> <Gold.Chemscore.DEInternal>
5.6469

> <Gold.Chemscore.Rot>
2.1952

> <Gold.Chemscore.Internal.Correction>
   9.000000E+99

> <Gold.Chemscore.Hbonds>
donor molecule, donor type, donor heavy atom, donor atom, acceptor molecule, acceptor atom, score
      P1  H  6896  6907       L1     1  0.70
      P1  H  7997  8009       L1    23  0.04

> <Gold.Chemscore.Hbond.Weighted>
-5.2815

> <Gold.Chemscore.Metal.Weighted>
-0.0000

> <Gold.Chemscore.Lipo.Weighted>
-15.8396

> <Gold.Chemscore.Internal_Hbond.Weighted>
0.0000

> <Gold.Chemscore.DEClash.Weighted>
0.0640

> <Gold.Chemscore.DEInternal.Weighted>
5.6469

> <Gold.Chemscore.Rot.Weighted>
5.6196

> <Gold.Chemscore.Internal.Correction.Weighted>
   9.000000E+99

> <Gold.Protein.RotatedTorsions>
[ 6907 6896 6895 6894 ] final -120.65 input  -60.11 | X-H torsion
[ 7974 7965 7964 7962 ] final   55.04 input  175.53 | X-H torsion
[ 8008 7997 7996 7995 ] final  173.66 input   59.86 | X-H torsion
[ 10167 10162 10161 10158 ] final   44.81 input  -65.29 | X-H torsion
[ 10718 10713 10712 10709 ] final  143.52 input   66.30 | X-H torsion
[ 10763 10752 10751 10750 ] final    0.02 input  -60.55 | X-H torsion
[ 11005 11000 10999 10996 ] final   60.58 input  -57.11 | X-H torsion

> <Gold.Protein.ActiveResidues>
 VAL166  LYS551  ARG553  GLY616  TRP617  ASP618  TYR619  PRO620  LYS621  CYS622 
 ASP623  PHE694  ASN695  SER759  ASP760  ASP761  ALA762  ILE779  LEU786  VAL792 
 PHE793  MET794  SER795  GLU796  ALA797  LYS798  CYS799  TRP800  GLU811  SER814 

> <Gold.Protein.RotatedAtoms>
  150.8412  133.7933  159.3060 H   0  0  0  0  0  0  0  0  0  0  0  0  # atno 6907 bound_to 6896
  151.5634  135.1063  159.9987 H   0  0  0  0  0  0  0  0  0  0  0  0  # atno 6908 bound_to 6896
  152.4475  133.7522  159.6756 H   0  0  0  0  0  0  0  0  0  0  0  0  # atno 6909 bound_to 6896
  145.9545  139.4002  143.0285 H   0  0  0  0  0  0  0  0  0  0  0  0  # atno 7974 bound_to 7965
  156.1053  140.1454  156.9412 H   0  0  0  0  0  0  0  0  0  0  0  0  # atno 8008 bound_to 7997
  154.4730  140.0903  156.7236 H   0  0  0  0  0  0  0  0  0  0  0  0  # atno 8009 bound_to 7997
  155.4690  140.3441  155.4325 H   0  0  0  0  0  0  0  0  0  0  0  0  # atno 8010 bound_to 7997
  140.3305  144.2594  150.6169 H   0  0  0  0  0  0  0  0  0  0  0  0  # atno 10167 bound_to 10162
  157.3680  131.0975  151.0855 H   0  0  0  0  0  0  0  0  0  0  0  0  # atno 10718 bound_to 10713
  153.3260  135.6972  153.6989 H   0  0  0  0  0  0  0  0  0  0  0  0  # atno 10763 bound_to 10752
  153.5810  135.3498  155.2875 H   0  0  0  0  0  0  0  0  0  0  0  0  # atno 10764 bound_to 10752
  154.8608  135.4295  154.2436 H   0  0  0  0  0  0  0  0  0  0  0  0  # atno 10765 bound_to 10752
  140.0222  134.6136  155.9624 H   0  0  0  0  0  0  0  0  0  0  0  0  # atno 11005 bound_to 11000
  145.8125  140.9719  143.0941 LP  0  0  0  0  0  0  0  0  0  0  0  0  # atno 17320 bound_to 7965
  144.6802  139.9939  143.7484 LP  0  0  0  0  0  0  0  0  0  0  0  0  # atno 17321 bound_to 7965
  140.5401  143.2225  151.8098 LP  0  0  0  0  0  0  0  0  0  0  0  0  # atno 17342 bound_to 10162
  139.4857  144.4611  151.9540 LP  0  0  0  0  0  0  0  0  0  0  0  0  # atno 17343 bound_to 10162
  157.1970  130.6377  149.5725 LP  0  0  0  0  0  0  0  0  0  0  0  0  # atno 17370 bound_to 10713
  155.9750  130.4703  150.6426 LP  0  0  0  0  0  0  0  0  0  0  0  0  # atno 17371 bound_to 10713
  141.1780  133.6542  156.4907 LP  0  0  0  0  0  0  0  0  0  0  0  0  # atno 17394 bound_to 11000
  140.4368  134.7051  157.4971 LP  0  0  0  0  0  0  0  0  0  0  0  0  # atno 17395 bound_to 11000

$$$$
