AV-unprocessed.smi:2899|AV-procd|sdf|11146|dock3
  -GOLD-   2272016 23D 1   1.00000     0.00000
 Structure written by MMmdl.
 30 32  0  0  0  0  0  0  0  0  1 V2000
  152.9752  141.5089  160.3951 C   0  0  0  0  0  0  0  0  0  0  0  0
  152.5022  142.5099  159.3628 C   0  0  0  0  0  0  0  0  0  0  0  0
  152.9679  143.8412  159.3574 C   0  0  0  0  0  0  0  0  0  0  0  0
  152.4530  144.6747  158.3444 C   0  0  0  0  0  0  0  0  0  0  0  0
  151.5634  144.2221  157.4339 N   0  0  0  0  0  0  0  0  0  0  0  0
  151.1879  142.9444  157.5334 C   0  0  0  0  0  0  0  0  0  0  0  0
  150.2713  142.5198  156.5891 N   0  0  0  0  0  0  0  0  0  0  0  0
  149.8361  141.1389  156.4187 C   0  0  1  0  0  0  0  0  0  0  0  0
  148.6149  141.0035  155.5004 C   0  0  0  0  0  0  0  0  0  0  0  0
  149.1322  140.0395  154.4253 C   0  0  2  0  0  0  0  0  0  0  0  0
  149.3432  138.6200  154.9692 C   0  0  0  0  0  0  0  0  0  0  0  0
  150.5969  138.7970  155.8257 C   0  0  0  0  0  0  0  0  0  0  0  0
  150.8799  140.2970  155.6661 C   0  0  1  0  0  0  0  0  0  0  0  0
  150.4741  140.4808  154.3192 O   0  0  0  0  0  0  0  0  0  0  0  0
  151.6118  142.0645  158.4491 N   0  0  0  0  0  0  0  0  0  0  0  0
  153.7349  141.9435  161.0454 H   0  0  0  0  0  0  0  0  0  0  0  0
  153.4051  140.6338  159.9070 H   0  0  0  0  0  0  0  0  0  0  0  0
  152.1406  141.1821  161.0161 H   0  0  0  0  0  0  0  0  0  0  0  0
  153.6781  144.2057  160.0850 H   0  0  0  0  0  0  0  0  0  0  0  0
  152.7552  145.7084  158.2643 H   0  0  0  0  0  0  0  0  0  0  0  0
  149.7810  143.2352  156.0721 H   0  0  0  0  0  0  0  0  0  0  0  0
  149.6453  140.7054  157.4015 H   0  0  0  0  0  0  0  0  0  0  0  0
  147.7396  140.6154  156.0220 H   0  0  0  0  0  0  0  0  0  0  0  0
  148.3418  141.9586  155.0487 H   0  0  0  0  0  0  0  0  0  0  0  0
  148.5714  140.0774  153.4909 H   0  0  0  0  0  0  0  0  0  0  0  0
  148.4852  138.2636  155.5400 H   0  0  0  0  0  0  0  0  0  0  0  0
  149.5311  137.9164  154.1577 H   0  0  0  0  0  0  0  0  0  0  0  0
  150.4449  138.5087  156.8665 H   0  0  0  0  0  0  0  0  0  0  0  0
  151.4199  138.2041  155.4246 H   0  0  0  0  0  0  0  0  0  0  0  0
  151.9162  140.5687  155.8713 H   0  0  0  0  0  0  0  0  0  0  0  0
  1  2  1  0  0  0  0
  1 16  1  0  0  0  0
  1 17  1  0  0  0  0
  1 18  1  0  0  0  0
  2 15  1  0  0  0  0
  2  3  2  0  0  0  0
  3  4  1  0  0  0  0
  3 19  1  0  0  0  0
  4  5  2  0  0  0  0
  4 20  1  0  0  0  0
  5  6  1  0  0  0  0
  6  7  1  0  0  0  0
  6 15  2  0  0  0  0
  7  8  1  0  0  0  0
  7 21  1  0  0  0  0
  8 13  1  0  0  0  0
  8  9  1  0  0  0  0
  8 22  1  0  0  0  0
  9 10  1  0  0  0  0
  9 23  1  0  0  0  0
  9 24  1  0  0  0  0
 10 14  1  0  0  0  0
 10 11  1  0  0  0  0
 10 25  1  0  0  0  0
 11 12  1  0  0  0  0
 11 26  1  0  0  0  0
 11 27  1  0  0  0  0
 12 13  1  0  0  0  0
 12 28  1  0  0  0  0
 12 29  1  0  0  0  0
 13 14  1  0  0  0  0
 13 30  1  0  0  0  0
M  END
> <s_m_source_file>
AV-unprocessed.smi

> <i_m_source_file_index>
2899

> <i_lp_mmshare_version>
43012

> <i_f3d_flags>
0

> <s_epik_input>
W0NIM11jMVtjSF1bY0hdbmMobjEpW05IXVtDQEhdKFtDSDJdW0NAQEhdMjMpW0NAQEhdKE8zKVtDSDJdW0NIMl0y

> <s_epik_cmdline>
J2VwaWtfcHl0aG9uJywgJy1waCcsICc3LjAnLCAnLXRuJywgJzgnLCAnLW1hJywgJzIwMCcsICctbWV0YWxfYmluZGluZycsICctaW1hZScsICc8aW5maWxlLm1hZT4nLCAnLW9tYWUnLCAnPG91dGZpbGUubWFlPic=

> <r_lp_tautomer_probability>
1

> <r_epik_Ionization_Penalty>
0.00589655

> <r_epik_Ionization_Penalty_Charging>
0

> <r_epik_Ionization_Penalty_Neutral>
0.00589655

> <r_epik_State_Penalty>
0.00375391

> <r_epik_Charging_Adjusted_Penalty>
0.00375391

> <i_epik_Tot_Q>
0

> <i_epik_Tot_abs_Q>
0

> <r_epik_Metal_State_Penalty>
-0

> <b_epik_Metal_Only>
0

> <s_lp_Force_Field>
OPLS_2005

> <r_lp_Energy>
31.4606

> <b_lp_Chiralities_Consistent>
1

> <s_lp_Variant>
AV-unprocessed.smi:2899-4

> <Gold.Version>
5.8.1

> <Gold.Id.Protein>
6NUR|6NUR_protein|mol2

> <Gold.PLP.Fitness>
37.9308

> <Gold.PLP.PLP>
-32.4937

> <Gold.PLP.part.hbond>
-1.6746

> <Gold.PLP.part.metal>
0.0000

> <Gold.PLP.part.buried>
-4.8429

> <Gold.PLP.part.nonpolar>
-26.2987

> <Gold.PLP.part.repulsive>
0.3394

> <Gold.PLP.ligand.clash>
0.0000

> <Gold.PLP.ligand.torsion>
0.1948

> <Gold.PLP.Chemscore.Hbond>
1.9357

> <Gold.PLP.Chemscore.CHOScore>
0.0000

> <Gold.PLP.Chemscore.Metal>
0.0000

> <Gold.Chemscore.Hbonds>
donor molecule, donor type, donor heavy atom, donor atom, acceptor molecule, acceptor atom, score
      L1  H     7    21       P1  8028  1.00
      P1  H  7989  7998       L1    14  0.82

> <Gold.PLP.Chemscore.Internal.Correction>
0.0194

> <Gold.Rescore>
     Score         DG    S(hbond)    S(metal)    S(lipo)     H(rot)  DE(clash)    DE(int)     intcor
     18.61     -18.85       1.96        0.00      80.28       1.00       0.01       0.23       ----

> <Gold.Chemscore.Fitness>
18.6121

> <Gold.Chemscore.DG>
-18.8522

> <Gold.Chemscore.ZeroCoef>
-5.4800

> <Gold.Chemscore.Hbond>
1.9578

> <Gold.Chemscore.Metal>
0.0000

> <Gold.Chemscore.Lipo>
80.2835

> <Gold.Chemscore.Internal_Hbond>
0.0000

> <Gold.Chemscore.DEClash>
0.0110

> <Gold.Chemscore.DEInternal>
0.2291

> <Gold.Chemscore.Rot>
1.0000

> <Gold.Chemscore.Internal.Correction>
   9.000000E+99

> <Gold.Chemscore.Hbonds>
donor molecule, donor type, donor heavy atom, donor atom, acceptor molecule, acceptor atom, score
      L1  H     7    21       P1  8028  1.00
      P1  H  7989  7998       L1    14  0.60

> <Gold.Chemscore.Hbond.Weighted>
-6.5391

> <Gold.Chemscore.Metal.Weighted>
-0.0000

> <Gold.Chemscore.Lipo.Weighted>
-9.3932

> <Gold.Chemscore.Internal_Hbond.Weighted>
0.0000

> <Gold.Chemscore.DEClash.Weighted>
0.0110

> <Gold.Chemscore.DEInternal.Weighted>
0.2291

> <Gold.Chemscore.Rot.Weighted>
2.5600

> <Gold.Chemscore.Internal.Correction.Weighted>
   9.000000E+99

> <Gold.Protein.RotatedTorsions>
[ 6907 6896 6895 6894 ] final   91.34 input  -60.11 | X-H torsion
[ 7974 7965 7964 7962 ] final -136.48 input  175.53 | X-H torsion
[ 8008 7997 7996 7995 ] final   32.36 input   59.86 | X-H torsion
[ 10167 10162 10161 10158 ] final   27.38 input  -65.29 | X-H torsion
[ 10718 10713 10712 10709 ] final  124.62 input   66.30 | X-H torsion
[ 10763 10752 10751 10750 ] final -138.69 input  -60.55 | X-H torsion
[ 11005 11000 10999 10996 ] final  -84.21 input  -57.11 | X-H torsion

> <Gold.Protein.ActiveResidues>
 VAL166  LYS551  ARG553  GLY616  TRP617  ASP618  TYR619  PRO620  LYS621  CYS622 
 ASP623  PHE694  ASN695  SER759  ASP760  ASP761  ALA762  ILE779  LEU786  VAL792 
 PHE793  MET794  SER795  GLU796  ALA797  LYS798  CYS799  TRP800  GLU811  SER814 

> <Gold.Protein.RotatedAtoms>
  152.5449  134.1673  159.8581 H   0  0  0  0  0  0  0  0  0  0  0  0  # atno 6907 bound_to 6896
  151.1686  133.4792  159.2601 H   0  0  0  0  0  0  0  0  0  0  0  0  # atno 6908 bound_to 6896
  151.1299  135.0135  159.8632 H   0  0  0  0  0  0  0  0  0  0  0  0  # atno 6909 bound_to 6896
  144.8923  140.6659  143.5137 H   0  0  0  0  0  0  0  0  0  0  0  0  # atno 7974 bound_to 7965
  155.1212  140.3248  155.4497 H   0  0  0  0  0  0  0  0  0  0  0  0  # atno 8008 bound_to 7997
  156.2662  140.2027  156.6283 H   0  0  0  0  0  0  0  0  0  0  0  0  # atno 8009 bound_to 7997
  154.6682  140.0539  157.0124 H   0  0  0  0  0  0  0  0  0  0  0  0  # atno 8010 bound_to 7997
  140.4943  144.0417  150.6308 H   0  0  0  0  0  0  0  0  0  0  0  0  # atno 10167 bound_to 10162
  157.5570  131.1091  150.8604 H   0  0  0  0  0  0  0  0  0  0  0  0  # atno 10718 bound_to 10713
  154.8630  135.3604  154.5426 H   0  0  0  0  0  0  0  0  0  0  0  0  # atno 10763 bound_to 10752
  153.6047  135.7011  153.5375 H   0  0  0  0  0  0  0  0  0  0  0  0  # atno 10764 bound_to 10752
  153.3260  135.4138  155.1417 H   0  0  0  0  0  0  0  0  0  0  0  0  # atno 10765 bound_to 10752
  141.1652  133.7334  156.8834 H   0  0  0  0  0  0  0  0  0  0  0  0  # atno 11005 bound_to 11000
  145.3761  139.1647  143.4306 LP  0  0  0  0  0  0  0  0  0  0  0  0  # atno 17320 bound_to 7965
  146.3061  140.3838  142.8687 LP  0  0  0  0  0  0  0  0  0  0  0  0  # atno 17321 bound_to 7965
  140.3695  143.2863  152.0294 LP  0  0  0  0  0  0  0  0  0  0  0  0  # atno 17342 bound_to 10162
  139.4858  144.6241  151.7198 LP  0  0  0  0  0  0  0  0  0  0  0  0  # atno 17343 bound_to 10162
  156.9113  130.5281  149.5280 LP  0  0  0  0  0  0  0  0  0  0  0  0  # atno 17370 bound_to 10713
  156.0628  130.5677  150.9227 LP  0  0  0  0  0  0  0  0  0  0  0  0  # atno 17371 bound_to 10713
  140.1699  134.9107  157.2820 LP  0  0  0  0  0  0  0  0  0  0  0  0  # atno 17394 bound_to 11000
  140.2514  134.3679  155.7441 LP  0  0  0  0  0  0  0  0  0  0  0  0  # atno 17395 bound_to 11000

$$$$
