#       Name:                AV-unprocessed.smi:3056
#       Creating user name   scv26
#       Creation time:       Fri Mar 27 17:06:28 2020


#       File generated by GOLD software.
#

@<TRIPOS>MOLECULE
AV-unprocessed.smi:3056
    53    54     1
SMALL
NO_CHARGES


@<TRIPOS>ATOM
      1 ****        -3.3178  -2.6946   2.7802 C.3            1 S1                 0.0000
      2 ****        -3.3037  -1.5348   1.8272 C.2            1 S1                 0.0000
      3 ****        -3.5651  -0.1661   2.1156 C.2            1 S1                 0.0000
      4 ****        -3.4530   0.6130   1.0531 N.2            1 S1                 0.0000
      5 ****        -3.1322  -0.2280   0.0431 N.pl3          1 S1                 0.0000
      6 ****        -2.8649   0.2784  -1.3004 C.3            1 S1                 0.0000
      7 ****        -3.8086   1.4377  -1.6890 C.3            1 S1                 0.0000
      8 ****        -1.3557   0.5846  -1.4901 C.3            1 S1                 0.0000
      9 ****        -0.9869   0.9007  -2.9514 C.3            1 S1                 0.0000
     10 ****        -0.9498   1.6932  -0.6232 N.3            1 S1                 0.0000
     11 ****         0.4682   1.6714  -0.2207 C.3            1 S1                 0.0000
     12 ****         0.8431   0.5606   0.7821 C.2            1 S1                 0.0000
     13 ****        -0.0573  -0.0598   1.3506 O.2            1 S1                 0.0000
     14 ****         2.1510   0.2982   1.0166 N.am           1 S1                 0.0000
     15 ****         2.6095  -0.8214   1.8419 C.3            1 S1                 0.0000
     16 ****         3.3422  -1.8160   0.9230 C.3            1 S1                 0.0000
     17 ****         4.4188  -1.1578   0.2562 O.3            1 S1                 0.0000
     18 ****         4.0085  -0.0313  -0.5195 C.3            1 S1                 0.0000
     19 ****         5.2497   0.5701  -1.1872 C.3            1 S1                 0.0000
     20 ****         3.2960   0.9764   0.4040 C.3            1 S1                 0.0000
     21 ****        -3.0253  -1.5289   0.4899 C.2            1 S1                 0.0000
     22 ****        -4.1462  -2.6263   3.4853 H              1 S1                 0.0000
     23 ****        -2.3994  -2.7419   3.3655 H              1 S1                 0.0000
     24 ****        -3.4173  -3.6471   2.2594 H              1 S1                 0.0000
     25 ****        -3.8234   0.2834   3.0629 H              1 S1                 0.0000
     26 ****        -3.1061  -0.5444  -1.9750 H              1 S1                 0.0000
     27 ****        -3.7092   1.6960  -2.7427 H              1 S1                 0.0000
     28 ****        -3.6119   2.3391  -1.1081 H              1 S1                 0.0000
     29 ****        -4.8504   1.1607  -1.5254 H              1 S1                 0.0000
     30 ****        -0.8185  -0.3223  -1.2105 H              1 S1                 0.0000
     31 ****        -1.3431   0.1171  -3.6202 H              1 S1                 0.0000
     32 ****         0.0919   0.9710  -3.0876 H              1 S1                 0.0000
     33 ****        -1.4204   1.8439  -3.2842 H              1 S1                 0.0000
     34 ****        -1.5533   1.7194   0.1876 H              1 S1                 0.0000
     35 ****         1.0828   1.5911  -1.1166 H              1 S1                 0.0000
     36 ****         0.7054   2.6302   0.2404 H              1 S1                 0.0000
     37 ****         3.2836  -0.4540   2.6169 H              1 S1                 0.0000
     38 ****         1.7971  -1.3293   2.3630 H              1 S1                 0.0000
     39 ****         3.7421  -2.6456   1.5059 H              1 S1                 0.0000
     40 ****         2.6565  -2.2418   0.1887 H              1 S1                 0.0000
     41 ****         3.3207  -0.3660  -1.2984 H              1 S1                 0.0000
     42 ****         4.9865   1.4345  -1.7972 H              1 S1                 0.0000
     43 ****         5.7347  -0.1589  -1.8366 H              1 S1                 0.0000
     44 ****         5.9798   0.8935  -0.4449 H              1 S1                 0.0000
     45 ****         3.0294   1.8776  -0.1454 H              1 S1                 0.0000
     46 ****         3.9760   1.3090   1.1898 H              1 S1                 0.0000
     47 ****        -2.7531  -2.3357  -0.1745 H              1 S1                 0.0000
     48 ****        -3.5777   1.6041   1.0065 LP             1 S1                 0.0000
     49 ****        -1.0482   2.5285  -1.1642 LP             1 S1                 0.0000
     50 ****        -1.0139   0.1598   1.1591 LP             1 S1                 0.0000
     51 ****         0.1687  -0.7828   2.0034 LP             1 S1                 0.0000
     52 ****         4.8630  -1.8155  -0.3522 LP             1 S1                 0.0000
     53 ****         5.0734  -0.8458   0.9448 LP             1 S1                 0.0000
@<TRIPOS>BOND
    1    1    2 1     
    2    1   22 1     
    3    1   23 1     
    4    1   24 1     
    5    2   21 2     
    6    2    3 1     
    7    3    4 2     
    8    3   25 1     
    9    4    5 1     
   10    5    6 1     
   11    5   21 1     
   12    6    7 1     
   13    6    8 1     
   14    6   26 1     
   15    7   27 1     
   16    7   28 1     
   17    7   29 1     
   18    8    9 1     
   19    8   10 1     
   20    8   30 1     
   21    9   31 1     
   22    9   32 1     
   23    9   33 1     
   24   10   11 1     
   25   10   34 1     
   26   11   12 1     
   27   11   35 1     
   28   11   36 1     
   29   12   13 2     
   30   12   14 am    
   31   14   20 1     
   32   14   15 1     
   33   15   16 1     
   34   15   37 1     
   35   15   38 1     
   36   16   17 1     
   37   16   39 1     
   38   16   40 1     
   39   17   18 1     
   40   18   19 1     
   41   18   20 1     
   42   18   41 1     
   43   19   42 1     
   44   19   43 1     
   45   19   44 1     
   46   20   45 1     
   47   20   46 1     
   48   21   47 1     
   49    4   48 1     
   50   10   49 1     
   51   13   50 1     
   52   13   51 1     
   53   17   52 1     
   54   17   53 1     
@<TRIPOS>SUBSTRUCTURE
      1 S1             1
@<TRIPOS>SET
LONE_PAIRS      STATIC     ATOMS    <user>   **** ""
6 48 49 50 51 52 53
DONOR_HYDROGENS      STATIC     ATOMS    <user>   **** ""
1 34
ATOM$BLUE        STATIC     ATOMS    COLORGROUP SYSTEM
6 48 49 50 51 52 53
ATOM$RED        STATIC     ATOMS    COLORGROUP SYSTEM
1 34
