AV-unprocessed.smi:1513|AV-procd|sdf|6108|dock10
  -GOLD-   22720 6243D 1   1.00000     0.00000
 Structure written by MMmdl.
 34 35  0  0  0  0  0  0  0  0  1 V2000
  147.1008  141.4235  157.0116 N   0  0  0  0  0  0  0  0  0  0  0  0
  148.1755  140.4087  156.1355 S   0  0  0  0  0  0  0  0  0  0  0  0
  147.9197  139.0092  156.5073 O   0  0  0  0  0  0  0  0  0  0  0  0
  148.1955  140.8411  154.7300 O   0  0  0  0  0  0  0  0  0  0  0  0
  149.6516  140.8983  156.8723 N   0  0  0  0  0  0  0  0  0  0  0  0
  149.8154  140.7688  158.3191 C   0  0  0  0  0  0  0  0  0  0  0  0
  151.2771  140.6987  158.7330 C   0  0  0  0  0  0  0  0  0  0  0  0
  151.7937  141.6437  159.6444 C   0  0  0  0  0  0  0  0  0  0  0  0
  153.1504  141.5719  160.0102 C   0  0  0  0  0  0  0  0  0  0  0  0
  153.9411  140.5534  159.4462 C   0  0  0  0  0  0  0  0  0  0  0  0
  153.4618  139.6429  158.5730 N   0  0  0  0  0  0  0  0  0  0  0  0
  152.1553  139.7098  158.2192 C   0  0  0  0  0  0  0  0  0  0  0  0
  151.6763  138.7435  157.3200 N   0  0  0  0  0  0  0  0  0  0  0  0
  152.1029  138.9082  155.9364 C   0  0  0  0  0  0  0  0  0  0  0  0
  151.3584  137.9019  155.0432 C   0  0  0  0  0  0  0  0  0  0  0  0
  151.5863  136.5801  155.5249 O   0  0  0  0  0  0  0  0  0  0  0  0
  151.1089  136.4031  156.8563 C   0  0  0  0  0  0  0  0  0  0  0  0
  151.8309  137.3783  157.8025 C   0  0  0  0  0  0  0  0  0  0  0  0
  147.4016  142.3980  157.0107 H   0  0  0  0  0  0  0  0  0  0  0  0
  146.8972  141.0601  157.9425 H   0  0  0  0  0  0  0  0  0  0  0  0
  150.4830  140.6661  156.3298 H   0  0  0  0  0  0  0  0  0  0  0  0
  149.3175  141.6076  158.8064 H   0  0  0  0  0  0  0  0  0  0  0  0
  149.3083  139.8666  158.6630 H   0  0  0  0  0  0  0  0  0  0  0  0
  151.1617  142.4161  160.0573 H   0  0  0  0  0  0  0  0  0  0  0  0
  153.5747  142.2812  160.7054 H   0  0  0  0  0  0  0  0  0  0  0  0
  154.9864  140.4669  159.7033 H   0  0  0  0  0  0  0  0  0  0  0  0
  151.8999  139.9276  155.6059 H   0  0  0  0  0  0  0  0  0  0  0  0
  153.1789  138.7471  155.8573 H   0  0  0  0  0  0  0  0  0  0  0  0
  150.2883  138.1151  155.0244 H   0  0  0  0  0  0  0  0  0  0  0  0
  151.7161  137.9734  154.0161 H   0  0  0  0  0  0  0  0  0  0  0  0
  150.0297  136.5577  156.8889 H   0  0  0  0  0  0  0  0  0  0  0  0
  151.2916  135.3742  157.1659 H   0  0  0  0  0  0  0  0  0  0  0  0
  152.8919  137.1303  157.8567 H   0  0  0  0  0  0  0  0  0  0  0  0
  151.4261  137.2905  158.8115 H   0  0  0  0  0  0  0  0  0  0  0  0
  1  2  1  0  0  0  0
  1 19  1  0  0  0  0
  1 20  1  0  0  0  0
  2  3  2  0  0  0  0
  2  4  2  0  0  0  0
  2  5  1  0  0  0  0
  5  6  1  0  0  0  0
  5 21  1  0  0  0  0
  6  7  1  0  0  0  0
  6 22  1  0  0  0  0
  6 23  1  0  0  0  0
  7 12  1  0  0  0  0
  7  8  2  0  0  0  0
  8  9  1  0  0  0  0
  8 24  1  0  0  0  0
  9 10  2  0  0  0  0
  9 25  1  0  0  0  0
 10 11  1  0  0  0  0
 10 26  1  0  0  0  0
 11 12  2  0  0  0  0
 12 13  1  0  0  0  0
 13 18  1  0  0  0  0
 13 14  1  0  0  0  0
 14 15  1  0  0  0  0
 14 27  1  0  0  0  0
 14 28  1  0  0  0  0
 15 16  1  0  0  0  0
 15 29  1  0  0  0  0
 15 30  1  0  0  0  0
 16 17  1  0  0  0  0
 17 18  1  0  0  0  0
 17 31  1  0  0  0  0
 17 32  1  0  0  0  0
 18 33  1  0  0  0  0
 18 34  1  0  0  0  0
M  END
> <s_m_source_file>
AV-unprocessed.smi

> <i_m_source_file_index>
1513

> <i_lp_mmshare_version>
43012

> <i_f3d_flags>
0

> <s_epik_input>
W05IMl1TKD1PKSg9TylbTkhdW0NIMl1jMVtjSF1bY0hdW2NIXW5jMU4yW0NIMl1bQ0gyXU9bQ0gyXVtDSDJdMg==

> <s_epik_cmdline>
J2VwaWtfcHl0aG9uJywgJy1waCcsICc3LjAnLCAnLXRuJywgJzgnLCAnLW1hJywgJzIwMCcsICctbWV0YWxfYmluZGluZycsICctaW1hZScsICc8aW5maWxlLm1hZT4nLCAnLW9tYWUnLCAnPG91dGZpbGUubWFlPic=

> <r_lp_tautomer_probability>
1

> <r_epik_Ionization_Penalty>
0.193648

> <r_epik_Ionization_Penalty_Charging>
0

> <r_epik_Ionization_Penalty_Neutral>
0.193648

> <r_epik_State_Penalty>
0.187016

> <r_epik_Charging_Adjusted_Penalty>
0.187016

> <i_epik_Tot_Q>
0

> <i_epik_Tot_abs_Q>
0

> <r_epik_Metal_State_Penalty>
0.77957

> <b_epik_Metal_Only>
0

> <s_lp_Force_Field>
OPLS_2005

> <r_lp_Energy>
22.2983

> <b_lp_Chiralities_Consistent>
1

> <s_lp_Variant>
AV-unprocessed.smi:1513-1

> <Gold.Version>
5.8.1

> <Gold.Id.Protein>
6NUR|6NUR_protein|mol2

> <Gold.PLP.Fitness>
38.7126

> <Gold.PLP.PLP>
-28.1013

> <Gold.PLP.part.hbond>
-5.0000

> <Gold.PLP.part.metal>
0.0000

> <Gold.PLP.part.buried>
-3.8365

> <Gold.PLP.part.nonpolar>
-19.2811

> <Gold.PLP.part.repulsive>
0.4653

> <Gold.PLP.ligand.clash>
0.0000

> <Gold.PLP.ligand.torsion>
0.3324

> <Gold.PLP.Chemscore.Hbond>
3.6720

> <Gold.PLP.Chemscore.CHOScore>
0.0000

> <Gold.PLP.Chemscore.Metal>
0.0000

> <Gold.Chemscore.Hbonds>
donor molecule, donor type, donor heavy atom, donor atom, acceptor molecule, acceptor atom, score
      P1  H  7997  8009       L1    11  0.90
      P1  H 10752 10764       L1    16  1.00

> <Gold.PLP.Chemscore.Internal.Correction>
0.2601

> <Gold.Rescore>
     Score         DG    S(hbond)    S(metal)    S(lipo)     H(rot)  DE(clash)    DE(int)     intcor
     13.95     -17.23       3.27        0.00      60.98       2.47       1.69       1.59       ----

> <Gold.Chemscore.Fitness>
13.9480

> <Gold.Chemscore.DG>
-17.2282

> <Gold.Chemscore.ZeroCoef>
-5.4800

> <Gold.Chemscore.Hbond>
3.2721

> <Gold.Chemscore.Metal>
0.0000

> <Gold.Chemscore.Lipo>
60.9844

> <Gold.Chemscore.Internal_Hbond>
0.0000

> <Gold.Chemscore.DEClash>
1.6885

> <Gold.Chemscore.DEInternal>
1.5917

> <Gold.Chemscore.Rot>
2.4671

> <Gold.Chemscore.Internal.Correction>
   9.000000E+99

> <Gold.Chemscore.Hbonds>
donor molecule, donor type, donor heavy atom, donor atom, acceptor molecule, acceptor atom, score
      P1  H  7997  8009       L1    11  0.15
      P1  H 10752 10764       L1    16  0.77

> <Gold.Chemscore.Hbond.Weighted>
-10.9287

> <Gold.Chemscore.Metal.Weighted>
-0.0000

> <Gold.Chemscore.Lipo.Weighted>
-7.1352

> <Gold.Chemscore.Internal_Hbond.Weighted>
0.0000

> <Gold.Chemscore.DEClash.Weighted>
1.6885

> <Gold.Chemscore.DEInternal.Weighted>
1.5917

> <Gold.Chemscore.Rot.Weighted>
6.3157

> <Gold.Chemscore.Internal.Correction.Weighted>
   9.000000E+99

> <Gold.Protein.RotatedTorsions>
[ 6907 6896 6895 6894 ] final  115.05 input  -60.11 | X-H torsion
[ 7974 7965 7964 7962 ] final  161.90 input  175.53 | X-H torsion
[ 8008 7997 7996 7995 ] final  149.18 input   59.86 | X-H torsion
[ 10167 10162 10161 10158 ] final -176.01 input  -65.29 | X-H torsion
[ 10718 10713 10712 10709 ] final -160.28 input   66.30 | X-H torsion
[ 10763 10752 10751 10750 ] final  -68.27 input  -60.55 | X-H torsion
[ 11005 11000 10999 10996 ] final   75.94 input  -57.11 | X-H torsion

> <Gold.Protein.ActiveResidues>
 VAL166  LYS551  ARG553  GLY616  TRP617  ASP618  TYR619  PRO620  LYS621  CYS622 
 ASP623  PHE694  ASN695  SER759  ASP760  ASP761  ALA762  ILE779  LEU786  VAL792 
 PHE793  MET794  SER795  GLU796  ALA797  LYS798  CYS799  TRP800  GLU811  SER814 

> <Gold.Protein.RotatedAtoms>
  152.4765  133.8152  159.7024 H   0  0  0  0  0  0  0  0  0  0  0  0  # atno 6907 bound_to 6896
  150.8786  133.7394  159.2945 H   0  0  0  0  0  0  0  0  0  0  0  0  # atno 6908 bound_to 6896
  151.4905  135.1060  159.9854 H   0  0  0  0  0  0  0  0  0  0  0  0  # atno 6909 bound_to 6896
  144.7663  139.7963  143.6314 H   0  0  0  0  0  0  0  0  0  0  0  0  # atno 7974 bound_to 7965
  156.2764  140.2108  156.5818 H   0  0  0  0  0  0  0  0  0  0  0  0  # atno 8008 bound_to 7997
  154.7053  140.0517  157.0521 H   0  0  0  0  0  0  0  0  0  0  0  0  # atno 8009 bound_to 7997
  155.0679  140.3173  155.4642 H   0  0  0  0  0  0  0  0  0  0  0  0  # atno 8010 bound_to 7997
  139.5551  144.2009  152.1146 H   0  0  0  0  0  0  0  0  0  0  0  0  # atno 10167 bound_to 10162
  156.5799  130.8725  151.2861 H   0  0  0  0  0  0  0  0  0  0  0  0  # atno 10718 bound_to 10713
  154.3865  135.6062  153.5819 H   0  0  0  0  0  0  0  0  0  0  0  0  # atno 10763 bound_to 10752
  152.9787  135.5873  154.4348 H   0  0  0  0  0  0  0  0  0  0  0  0  # atno 10764 bound_to 10752
  154.4125  135.2844  155.2005 H   0  0  0  0  0  0  0  0  0  0  0  0  # atno 10765 bound_to 10752
  139.9321  134.7559  156.1333 H   0  0  0  0  0  0  0  0  0  0  0  0  # atno 11005 bound_to 11000
  146.1773  139.4949  142.9889 LP  0  0  0  0  0  0  0  0  0  0  0  0  # atno 17320 bound_to 7965
  145.6461  141.0273  143.1785 LP  0  0  0  0  0  0  0  0  0  0  0  0  # atno 17321 bound_to 7965
  140.1512  144.5113  150.6686 LP  0  0  0  0  0  0  0  0  0  0  0  0  # atno 17342 bound_to 10162
  140.6822  143.2332  151.5353 LP  0  0  0  0  0  0  0  0  0  0  0  0  # atno 17343 bound_to 10162
  157.7329  130.9722  150.1950 LP  0  0  0  0  0  0  0  0  0  0  0  0  # atno 17370 bound_to 10713
  156.2640  130.3714  149.8100 LP  0  0  0  0  0  0  0  0  0  0  0  0  # atno 17371 bound_to 10713
  141.0915  133.6712  156.2551 LP  0  0  0  0  0  0  0  0  0  0  0  0  # atno 17394 bound_to 11000
  140.6175  134.5396  157.5543 LP  0  0  0  0  0  0  0  0  0  0  0  0  # atno 17395 bound_to 11000

$$$$
