AV-unprocessed.smi:1116|AV-procd|sdf|4811|dock1
  -GOLD-   22720 3363D 1   1.00000     0.00000
 Structure written by MMmdl.
 35 36  0  0  0  0  0  0  0  0  2 V2000
  152.5537  143.7903  161.6850 C   0  0  0  0  0  0  0  0  0  0  0  0
  151.9549  143.8414  160.3211 C   0  0  0  0  0  0  0  0  0  0  0  0
  151.2971  142.8217  159.7630 N   0  0  0  0  0  0  0  0  0  0  0  0
  150.8287  143.1213  158.4797 C   0  0  0  0  0  0  0  0  0  0  0  0
  150.0684  142.0922  157.6995 C   0  0  0  0  0  0  0  0  0  0  0  0
  150.9574  140.9130  157.2708 C   0  0  0  0  0  0  0  0  0  0  0  0
  150.2175  139.9454  156.4686 N   0  0  0  0  0  0  0  0  0  0  0  0
  150.5937  139.4951  155.2617 C   0  0  0  0  0  0  0  0  0  0  0  0
  151.6270  139.8588  154.6994 O   0  0  0  0  0  0  0  0  0  0  0  0
  149.6493  138.4954  154.5877 C   0  0  0  0  0  0  0  0  0  0  0  0
  149.3194  137.2801  155.4761 C   0  0  0  0  0  0  0  0  0  0  0  0
  150.3280  136.1261  155.3104 C   0  0  2  0  0  0  0  0  0  0  0  0
  149.7890  135.0740  154.4762 N   0  0  0  0  0  0  0  0  0  0  0  0
  149.7748  133.9064  155.1156 C   0  0  0  0  0  0  0  0  0  0  0  0
  149.3753  132.8783  154.5735 O   0  0  0  0  0  0  0  0  0  0  0  0
  150.2394  134.0590  156.3710 N   0  5  0  0  0  0  0  0  0  0  0  0
  150.5868  135.3442  156.5981 C   0  0  0  0  0  0  0  0  0  0  0  0
  151.0428  135.8785  157.6077 O   0  0  0  0  0  0  0  0  0  0  0  0
  151.1490  144.3914  158.0697 C   0  0  0  0  0  0  0  0  0  0  0  0
  152.0472  145.2595  159.2840 S   0  0  0  0  0  0  0  0  0  0  0  0
  152.3708  142.8211  162.1500 H   0  0  0  0  0  0  0  0  0  0  0  0
  152.1163  144.5669  162.3126 H   0  0  0  0  0  0  0  0  0  0  0  0
  153.6299  143.9525  161.6249 H   0  0  0  0  0  0  0  0  0  0  0  0
  149.2329  141.7201  158.2940 H   0  0  0  0  0  0  0  0  0  0  0  0
  149.6228  142.5563  156.8189 H   0  0  0  0  0  0  0  0  0  0  0  0
  151.8267  141.2712  156.7165 H   0  0  0  0  0  0  0  0  0  0  0  0
  151.3419  140.3974  158.1513 H   0  0  0  0  0  0  0  0  0  0  0  0
  149.3548  139.5935  156.8581 H   0  0  0  0  0  0  0  0  0  0  0  0
  148.7277  139.0073  154.3068 H   0  0  0  0  0  0  0  0  0  0  0  0
  150.1146  138.1600  153.6604 H   0  0  0  0  0  0  0  0  0  0  0  0
  149.3174  137.5913  156.5220 H   0  0  0  0  0  0  0  0  0  0  0  0
  148.3088  136.9269  155.2626 H   0  0  0  0  0  0  0  0  0  0  0  0
  151.2747  136.4819  154.9016 H   0  0  0  0  0  0  0  0  0  0  0  0
  149.4891  135.2150  153.5230 H   0  0  0  0  0  0  0  0  0  0  0  0
  150.9119  144.8670  157.1293 H   0  0  0  0  0  0  0  0  0  0  0  0
  1  2  1  0  0  0  0
  1 21  1  0  0  0  0
  1 22  1  0  0  0  0
  1 23  1  0  0  0  0
  2 20  1  0  0  0  0
  2  3  2  0  0  0  0
  3  4  1  0  0  0  0
  4  5  1  0  0  0  0
  4 19  2  0  0  0  0
  5  6  1  0  0  0  0
  5 24  1  0  0  0  0
  5 25  1  0  0  0  0
  6  7  1  0  0  0  0
  6 26  1  0  0  0  0
  6 27  1  0  0  0  0
  7  8  1  0  0  0  0
  7 28  1  0  0  0  0
  8  9  2  0  0  0  0
  8 10  1  0  0  0  0
 10 11  1  0  0  0  0
 10 29  1  0  0  0  0
 10 30  1  0  0  0  0
 11 12  1  0  0  0  0
 11 31  1  0  0  0  0
 11 32  1  0  0  0  0
 12 17  1  0  0  0  0
 12 13  1  0  0  0  0
 12 33  1  0  0  0  0
 13 14  1  0  0  0  0
 13 34  1  0  0  0  0
 14 15  2  0  0  0  0
 14 16  1  0  0  0  0
 16 17  1  0  0  0  0
 17 18  2  0  0  0  0
 19 20  1  0  0  0  0
 19 35  1  0  0  0  0
M  CHG  1  16  -1
M  END
> <s_m_source_file>
AV-unprocessed.smi

> <i_m_source_file_index>
1116

> <i_lp_mmshare_version>
43012

> <i_f3d_flags>
0

> <s_epik_input>
W0NIM11jMW5jKFtjSF1zMSlbQ0gyXVtDSDJdW05IXUMoPU8pW0NIMl1bQ0gyXVtDQEBIXTJbTkhdQyg9TylbTkhdQzI9Tw==

> <s_epik_cmdline>
J2VwaWtfcHl0aG9uJywgJy1waCcsICc3LjAnLCAnLXRuJywgJzgnLCAnLW1hJywgJzIwMCcsICctbWV0YWxfYmluZGluZycsICctaW1hZScsICc8aW5maWxlLm1hZT4nLCAnLW9tYWUnLCAnPG91dGZpbGUubWFlPic=

> <r_lp_tautomer_probability>
1

> <r_epik_Ionization_Penalty>
2.5713

> <r_epik_Ionization_Penalty_Charging>
2.57023

> <r_epik_Ionization_Penalty_Neutral>
0.00106405

> <r_epik_State_Penalty>
2.56828

> <r_epik_Charging_Adjusted_Penalty>
5.13851

> <i_epik_Tot_Q>
-1

> <i_epik_Tot_abs_Q>
1

> <r_epik_Metal_State_Penalty>
0.44525

> <b_epik_Metal_Only>
1

> <s_lp_Force_Field>
OPLS_2005

> <r_lp_Energy>
1.68608

> <b_lp_Chiralities_Consistent>
1

> <s_lp_Variant>
AV-unprocessed.smi:1116-5

> <Gold.Version>
5.8.1

> <Gold.Id.Protein>
6NUR|6NUR_protein|mol2

> <Gold.PLP.Fitness>
44.1142

> <Gold.PLP.PLP>
-37.7936

> <Gold.PLP.part.hbond>
-3.5399

> <Gold.PLP.part.metal>
0.0000

> <Gold.PLP.part.buried>
-6.9374

> <Gold.PLP.part.nonpolar>
-27.5488

> <Gold.PLP.part.repulsive>
0.2428

> <Gold.PLP.ligand.clash>
0.0000

> <Gold.PLP.ligand.torsion>
0.8470

> <Gold.PLP.Chemscore.Hbond>
1.6500

> <Gold.PLP.Chemscore.CHOScore>
1.0000

> <Gold.PLP.Chemscore.Metal>
0.0000

> <Gold.Chemscore.Hbonds>
donor molecule, donor type, donor heavy atom, donor atom, acceptor molecule, acceptor atom, score
      L1  H    13    34       P1  7948  0.70
      P1  H  7989  7998       L1     9  1.00
      L1  C    19    35       P1  8028  1.00

> <Gold.PLP.Chemscore.Internal.Correction>
0.0647

> <Gold.Rescore>
     Score         DG    S(hbond)    S(metal)    S(lipo)     H(rot)  DE(clash)    DE(int)     intcor
     11.46     -12.53       1.29        0.00      83.95       2.77       0.18       0.88       ----

> <Gold.Chemscore.Fitness>
11.4633

> <Gold.Chemscore.DG>
-12.5270

> <Gold.Chemscore.ZeroCoef>
-5.4800

> <Gold.Chemscore.Hbond>
1.2914

> <Gold.Chemscore.Metal>
0.0000

> <Gold.Chemscore.Lipo>
83.9532

> <Gold.Chemscore.Internal_Hbond>
0.0000

> <Gold.Chemscore.DEClash>
0.1815

> <Gold.Chemscore.DEInternal>
0.8823

> <Gold.Chemscore.Rot>
2.7691

> <Gold.Chemscore.Internal.Correction>
   9.000000E+99

> <Gold.Chemscore.Hbonds>
donor molecule, donor type, donor heavy atom, donor atom, acceptor molecule, acceptor atom, score
      L1  H    13    34       P1  7948  0.07
      P1  H  7989  7998       L1     9  0.94

> <Gold.Chemscore.Hbond.Weighted>
-4.3134

> <Gold.Chemscore.Metal.Weighted>
-0.0000

> <Gold.Chemscore.Lipo.Weighted>
-9.8225

> <Gold.Chemscore.Internal_Hbond.Weighted>
0.0000

> <Gold.Chemscore.DEClash.Weighted>
0.1815

> <Gold.Chemscore.DEInternal.Weighted>
0.8823

> <Gold.Chemscore.Rot.Weighted>
7.0889

> <Gold.Chemscore.Internal.Correction.Weighted>
   9.000000E+99

> <Gold.Protein.RotatedTorsions>
[ 6907 6896 6895 6894 ] final -100.54 input  -60.11 | X-H torsion
[ 7974 7965 7964 7962 ] final  131.95 input  175.53 | X-H torsion
[ 8008 7997 7996 7995 ] final   69.72 input   59.86 | X-H torsion
[ 10167 10162 10161 10158 ] final  -11.76 input  -65.29 | X-H torsion
[ 10718 10713 10712 10709 ] final  -19.45 input   66.30 | X-H torsion
[ 10763 10752 10751 10750 ] final  -85.88 input  -60.55 | X-H torsion
[ 11005 11000 10999 10996 ] final  -69.84 input  -57.11 | X-H torsion

> <Gold.Protein.ActiveResidues>
 VAL166  LYS551  ARG553  GLY616  TRP617  ASP618  TYR619  PRO620  LYS621  CYS622 
 ASP623  PHE694  ASN695  SER759  ASP760  ASP761  ALA762  ILE779  LEU786  VAL792 
 PHE793  MET794  SER795  GLU796  ALA797  LYS798  CYS799  TRP800  GLU811  SER814 

> <Gold.Protein.RotatedAtoms>
  150.7120  134.0871  159.3918 H   0  0  0  0  0  0  0  0  0  0  0  0  # atno 6907 bound_to 6896
  151.8856  135.0434  160.0502 H   0  0  0  0  0  0  0  0  0  0  0  0  # atno 6908 bound_to 6896
  152.2533  133.5198  159.5375 H   0  0  0  0  0  0  0  0  0  0  0  0  # atno 6909 bound_to 6896
  145.0019  139.4303  143.5288 H   0  0  0  0  0  0  0  0  0  0  0  0  # atno 7974 bound_to 7965
  155.7279  140.3492  155.5046 H   0  0  0  0  0  0  0  0  0  0  0  0  # atno 8008 bound_to 7997
  155.9209  140.1067  157.1229 H   0  0  0  0  0  0  0  0  0  0  0  0  # atno 8009 bound_to 7997
  154.4069  140.1249  156.4665 H   0  0  0  0  0  0  0  0  0  0  0  0  # atno 8010 bound_to 7997
  140.7146  143.5605  150.9201 H   0  0  0  0  0  0  0  0  0  0  0  0  # atno 10167 bound_to 10162
  156.5456  130.4689  149.6477 H   0  0  0  0  0  0  0  0  0  0  0  0  # atno 10718 bound_to 10713
  154.6161  135.5469  153.7525 H   0  0  0  0  0  0  0  0  0  0  0  0  # atno 10763 bound_to 10752
  153.0217  135.6401  154.1508 H   0  0  0  0  0  0  0  0  0  0  0  0  # atno 10764 bound_to 10752
  154.1444  135.2906  155.3132 H   0  0  0  0  0  0  0  0  0  0  0  0  # atno 10765 bound_to 10752
  141.1562  133.6774  156.6661 H   0  0  0  0  0  0  0  0  0  0  0  0  # atno 11005 bound_to 11000
  146.3453  139.9413  142.8740 LP  0  0  0  0  0  0  0  0  0  0  0  0  # atno 17320 bound_to 7965
  145.2141  140.9908  143.4083 LP  0  0  0  0  0  0  0  0  0  0  0  0  # atno 17321 bound_to 7965
  139.9330  143.6470  152.3072 LP  0  0  0  0  0  0  0  0  0  0  0  0  # atno 17342 bound_to 10162
  139.6928  144.7645  151.1409 LP  0  0  0  0  0  0  0  0  0  0  0  0  # atno 17343 bound_to 10162
  156.2932  130.7135  151.1989 LP  0  0  0  0  0  0  0  0  0  0  0  0  # atno 17370 bound_to 10713
  157.7397  131.0526  150.5213 LP  0  0  0  0  0  0  0  0  0  0  0  0  # atno 17371 bound_to 10713
  140.3210  134.8008  157.4252 LP  0  0  0  0  0  0  0  0  0  0  0  0  # atno 17394 bound_to 11000
  140.1097  134.5362  155.8277 LP  0  0  0  0  0  0  0  0  0  0  0  0  # atno 17395 bound_to 11000

$$$$
