AV-unprocessed.smi:3162|AV-procd|sdf|12069|dock5
  -GOLD-   2272017503D 1   1.00000     0.00000
 Structure written by MMmdl.
 36 36  0  0  0  0  0  0  0  0  1 V2000
  147.9784  138.5731  154.4716 C   0  0  0  0  0  0  0  0  0  0  0  0
  149.4926  138.5056  154.2161 C   0  0  0  0  0  0  0  0  0  0  0  0
  150.3440  139.3425  155.1968 C   0  0  2  0  0  0  0  0  0  0  0  0
  149.9083  140.7511  155.1397 N   0  0  0  0  0  0  0  0  0  0  0  0
  150.0160  141.5059  156.3871 C   0  0  1  0  0  0  0  0  0  0  0  0
  149.1503  140.8352  157.4707 C   0  0  0  0  0  0  0  0  0  0  0  0
  151.5094  141.5604  156.7694 C   0  0  0  0  0  0  0  0  0  0  0  0
  151.7689  142.4185  157.9115 N   0  0  0  0  0  0  0  0  0  0  0  0
  151.2365  143.6591  158.1919 C   0  0  0  0  0  0  0  0  0  0  0  0
  151.7710  144.0776  159.3777 C   0  0  0  0  0  0  0  0  0  0  0  0
  151.5228  145.3583  160.1209 C   0  0  0  0  0  0  0  0  0  0  0  0
  152.6296  143.0044  159.7503 C   0  0  0  0  0  0  0  0  0  0  0  0
  152.6245  142.0131  158.8740 N   0  0  0  0  0  0  0  0  0  0  0  0
  151.8521  139.1716  154.9354 C   0  0  0  0  0  0  0  0  0  0  0  0
  152.3667  137.9503  155.1008 N   0  0  0  0  0  0  0  0  0  0  0  0
  152.5445  140.1332  154.6066 O   0  0  0  0  0  0  0  0  0  0  0  0
  147.4332  138.0257  153.7024 H   0  0  0  0  0  0  0  0  0  0  0  0
  147.6226  139.6036  154.4591 H   0  0  0  0  0  0  0  0  0  0  0  0
  147.7108  138.1360  155.4337 H   0  0  0  0  0  0  0  0  0  0  0  0
  149.8158  137.4636  154.2315 H   0  0  0  0  0  0  0  0  0  0  0  0
  149.6778  138.8574  153.2002 H   0  0  0  0  0  0  0  0  0  0  0  0
  150.1306  138.9764  156.2031 H   0  0  0  0  0  0  0  0  0  0  0  0
  150.3487  141.2553  154.3832 H   0  0  0  0  0  0  0  0  0  0  0  0
  149.6750  142.5317  156.2393 H   0  0  0  0  0  0  0  0  0  0  0  0
  149.1813  141.3961  158.4050 H   0  0  0  0  0  0  0  0  0  0  0  0
  149.4946  139.8223  157.6820 H   0  0  0  0  0  0  0  0  0  0  0  0
  148.1040  140.7731  157.1731 H   0  0  0  0  0  0  0  0  0  0  0  0
  151.8796  140.5605  157.0015 H   0  0  0  0  0  0  0  0  0  0  0  0
  152.1035  141.9243  155.9294 H   0  0  0  0  0  0  0  0  0  0  0  0
  150.5301  144.1378  157.5296 H   0  0  0  0  0  0  0  0  0  0  0  0
  151.5980  145.2204  161.1998 H   0  0  0  0  0  0  0  0  0  0  0  0
  150.5291  145.7584  159.9180 H   0  0  0  0  0  0  0  0  0  0  0  0
  152.2426  146.1287  159.8439 H   0  0  0  0  0  0  0  0  0  0  0  0
  153.2519  142.9164  160.6287 H   0  0  0  0  0  0  0  0  0  0  0  0
  153.3504  137.7918  154.9371 H   0  0  0  0  0  0  0  0  0  0  0  0
  151.7684  137.1888  155.3861 H   0  0  0  0  0  0  0  0  0  0  0  0
  1  2  1  0  0  0  0
  1 17  1  0  0  0  0
  1 18  1  0  0  0  0
  1 19  1  0  0  0  0
  2  3  1  0  0  0  0
  2 20  1  0  0  0  0
  2 21  1  0  0  0  0
  3  4  1  0  0  0  0
  3 14  1  0  0  0  0
  3 22  1  0  0  0  0
  4  5  1  0  0  0  0
  4 23  1  0  0  0  0
  5  6  1  0  0  0  0
  5  7  1  0  0  0  0
  5 24  1  0  0  0  0
  6 25  1  0  0  0  0
  6 26  1  0  0  0  0
  6 27  1  0  0  0  0
  7  8  1  0  0  0  0
  7 28  1  0  0  0  0
  7 29  1  0  0  0  0
  8 13  1  0  0  0  0
  8  9  1  0  0  0  0
  9 10  2  0  0  0  0
  9 30  1  0  0  0  0
 10 11  1  0  0  0  0
 10 12  1  0  0  0  0
 11 31  1  0  0  0  0
 11 32  1  0  0  0  0
 11 33  1  0  0  0  0
 12 13  2  0  0  0  0
 12 34  1  0  0  0  0
 14 15  1  0  0  0  0
 14 16  2  0  0  0  0
 15 35  1  0  0  0  0
 15 36  1  0  0  0  0
M  END
> <s_m_source_file>
AV-unprocessed.smi

> <i_m_source_file_index>
3162

> <i_lp_mmshare_version>
43012

> <i_f3d_flags>
0

> <s_epik_input>
W0NIM11bQ0gyXVtDQEBIXShDKD1PKVtOSDJdKVtOSF1bQ0BIXShbQ0gzXSlbQ0gyXW4xW2NIXWMoW0NIM10pW2NIXW4x

> <s_epik_cmdline>
J2VwaWtfcHl0aG9uJywgJy1waCcsICc3LjAnLCAnLXRuJywgJzgnLCAnLW1hJywgJzIwMCcsICctbWV0YWxfYmluZGluZycsICctaW1hZScsICc8aW5maWxlLm1hZT4nLCAnLW9tYWUnLCAnPG91dGZpbGUubWFlPic=

> <r_lp_tautomer_probability>
1

> <r_epik_Ionization_Penalty>
1.04167

> <r_epik_Ionization_Penalty_Charging>
0

> <r_epik_Ionization_Penalty_Neutral>
1.04167

> <r_epik_State_Penalty>
1.09367

> <r_epik_Charging_Adjusted_Penalty>
1.09367

> <i_epik_Tot_Q>
0

> <i_epik_Tot_abs_Q>
0

> <r_epik_Metal_State_Penalty>
1.09362

> <b_epik_Metal_Only>
0

> <s_lp_Force_Field>
OPLS_2005

> <r_lp_Energy>
3.23366

> <b_lp_Chiralities_Consistent>
1

> <s_lp_Variant>
AV-unprocessed.smi:3162-7

> <Gold.Version>
5.8.1

> <Gold.Id.Protein>
6NUR|6NUR_protein|mol2

> <Gold.PLP.Fitness>
40.6133

> <Gold.PLP.PLP>
-34.5423

> <Gold.PLP.part.hbond>
-3.0000

> <Gold.PLP.part.metal>
0.0000

> <Gold.PLP.part.buried>
-4.3841

> <Gold.PLP.part.nonpolar>
-27.3541

> <Gold.PLP.part.repulsive>
0.1839

> <Gold.PLP.ligand.clash>
0.0000

> <Gold.PLP.ligand.torsion>
0.6767

> <Gold.PLP.Chemscore.Hbond>
1.4320

> <Gold.PLP.Chemscore.CHOScore>
0.9984

> <Gold.PLP.Chemscore.Metal>
0.0000

> <Gold.Chemscore.Hbonds>
donor molecule, donor type, donor heavy atom, donor atom, acceptor molecule, acceptor atom, score
      P1  H  7989  7998       L1    16  0.45
      P1  H  7997  8009       L1    16  0.34
      L1  C     9    30       P1  8028  1.00

> <Gold.PLP.Chemscore.Internal.Correction>
0.1332

> <Gold.Rescore>
     Score         DG    S(hbond)    S(metal)    S(lipo)     H(rot)  DE(clash)    DE(int)     intcor
     10.66     -12.26       1.01        0.00      82.35       2.43       0.86       0.73       ----

> <Gold.Chemscore.Fitness>
10.6632

> <Gold.Chemscore.DG>
-12.2559

> <Gold.Chemscore.ZeroCoef>
-5.4800

> <Gold.Chemscore.Hbond>
1.0086

> <Gold.Chemscore.Metal>
0.0000

> <Gold.Chemscore.Lipo>
82.3509

> <Gold.Chemscore.Internal_Hbond>
0.0000

> <Gold.Chemscore.DEClash>
0.8591

> <Gold.Chemscore.DEInternal>
0.7336

> <Gold.Chemscore.Rot>
2.4328

> <Gold.Chemscore.Internal.Correction>
   9.000000E+99

> <Gold.Chemscore.Hbonds>
donor molecule, donor type, donor heavy atom, donor atom, acceptor molecule, acceptor atom, score
      P1  H  7989  7998       L1    16  0.21
      P1  H  7997  8009       L1    16  0.26

> <Gold.Chemscore.Hbond.Weighted>
-3.3688

> <Gold.Chemscore.Metal.Weighted>
-0.0000

> <Gold.Chemscore.Lipo.Weighted>
-9.6351

> <Gold.Chemscore.Internal_Hbond.Weighted>
0.0000

> <Gold.Chemscore.DEClash.Weighted>
0.8591

> <Gold.Chemscore.DEInternal.Weighted>
0.7336

> <Gold.Chemscore.Rot.Weighted>
6.2279

> <Gold.Chemscore.Internal.Correction.Weighted>
   9.000000E+99

> <Gold.Protein.RotatedTorsions>
[ 6907 6896 6895 6894 ] final  -52.26 input  -60.11 | X-H torsion
[ 7974 7965 7964 7962 ] final   73.46 input  175.53 | X-H torsion
[ 8008 7997 7996 7995 ] final -136.48 input   59.86 | X-H torsion
[ 10167 10162 10161 10158 ] final    2.86 input  -65.29 | X-H torsion
[ 10718 10713 10712 10709 ] final -178.93 input   66.30 | X-H torsion
[ 10763 10752 10751 10750 ] final  105.82 input  -60.55 | X-H torsion
[ 11005 11000 10999 10996 ] final  140.97 input  -57.11 | X-H torsion

> <Gold.Protein.ActiveResidues>
 VAL166  LYS551  ARG553  GLY616  TRP617  ASP618  TYR619  PRO620  LYS621  CYS622 
 ASP623  PHE694  ASN695  SER759  ASP760  ASP761  ALA762  ILE779  LEU786  VAL792 
 PHE793  MET794  SER795  GLU796  ALA797  LYS798  CYS799  TRP800  GLU811  SER814 

> <Gold.Protein.RotatedAtoms>
  150.8535  134.7866  159.7026 H   0  0  0  0  0  0  0  0  0  0  0  0  # atno 6907 bound_to 6896
  152.4593  134.5217  159.9794 H   0  0  0  0  0  0  0  0  0  0  0  0  # atno 6908 bound_to 6896
  151.5334  133.3407  159.2958 H   0  0  0  0  0  0  0  0  0  0  0  0  # atno 6909 bound_to 6896
  145.7405  139.2719  143.1489 H   0  0  0  0  0  0  0  0  0  0  0  0  # atno 7974 bound_to 7965
  155.3960  140.0503  157.3039 H   0  0  0  0  0  0  0  0  0  0  0  0  # atno 8008 bound_to 7997
  154.5013  140.2158  155.9301 H   0  0  0  0  0  0  0  0  0  0  0  0  # atno 8009 bound_to 7997
  156.1471  140.3143  155.8593 H   0  0  0  0  0  0  0  0  0  0  0  0  # atno 8010 bound_to 7997
  140.6614  143.7293  150.7746 H   0  0  0  0  0  0  0  0  0  0  0  0  # atno 10167 bound_to 10162
  156.8517  130.9721  151.3091 H   0  0  0  0  0  0  0  0  0  0  0  0  # atno 10718 bound_to 10713
  153.3846  135.3897  155.1881 H   0  0  0  0  0  0  0  0  0  0  0  0  # atno 10763 bound_to 10752
  154.8712  135.3733  154.4814 H   0  0  0  0  0  0  0  0  0  0  0  0  # atno 10764 bound_to 10752
  153.5294  135.7086  153.5752 H   0  0  0  0  0  0  0  0  0  0  0  0  # atno 10765 bound_to 10752
  140.0366  134.9325  157.0765 H   0  0  0  0  0  0  0  0  0  0  0  0  # atno 11005 bound_to 11000
  146.0452  140.8125  142.9809 LP  0  0  0  0  0  0  0  0  0  0  0  0  # atno 17320 bound_to 7965
  144.6871  140.2970  143.7269 LP  0  0  0  0  0  0  0  0  0  0  0  0  # atno 17321 bound_to 7965
  140.0962  143.4831  152.2451 LP  0  0  0  0  0  0  0  0  0  0  0  0  # atno 17342 bound_to 10162
  139.5850  144.7527  151.3544 LP  0  0  0  0  0  0  0  0  0  0  0  0  # atno 17343 bound_to 10162
  157.6300  130.8721  149.9257 LP  0  0  0  0  0  0  0  0  0  0  0  0  # atno 17370 bound_to 10713
  156.0825  130.3671  150.0553 LP  0  0  0  0  0  0  0  0  0  0  0  0  # atno 17371 bound_to 10713
  140.4137  134.1954  155.7163 LP  0  0  0  0  0  0  0  0  0  0  0  0  # atno 17394 bound_to 11000
  141.1861  133.8310  157.1082 LP  0  0  0  0  0  0  0  0  0  0  0  0  # atno 17395 bound_to 11000

$$$$
