#       Name:                AV-unprocessed.smi:22
#       Creating user name   scv26
#       Creation time:       Thu Mar 26 15:41:58 2020


#       File generated by GOLD software.
#

@<TRIPOS>MOLECULE
AV-unprocessed.smi:22
    66    69     1
SMALL
NO_CHARGES


@<TRIPOS>ATOM
      1 ****        -4.9971   0.4749   3.7805 C.3            1 S1                 0.0000
      2 ****        -4.5273   0.3800   2.3767 N.4            1 S1                 1.0000
      3 ****        -5.2584  -0.6533   1.5932 C.3            1 S1                 0.0000
      4 ****        -6.6395  -0.1613   1.1293 C.3            1 S1                 0.0000
      5 ****        -6.4881   0.8824   0.1906 O.3            1 S1                 0.0000
      6 ****        -3.0398   0.3183   2.2764 C.3            1 S1                 0.0000
      7 ****        -2.5330   0.8245   0.9098 C.3            1 S1                 0.0000
      8 ****        -0.9969   0.8022   0.8529 C.3            1 S1                 0.0000
      9 ****        -0.4833  -0.5267   1.1845 N.3            1 S1                 0.0000
     10 ****         0.7999  -0.7527   0.8034 C.ar           1 S1                 0.0000
     11 ****         1.7512  -1.0103   1.7408 N.ar           1 S1                 0.0000
     12 ****         3.0182  -1.2265   1.3752 C.ar           1 S1                 0.0000
     13 ****         3.5430  -1.2330   0.1485 N.ar           1 S1                 0.0000
     14 ****         2.5937  -0.9811  -0.7974 C.ar           1 S1                 0.0000
     15 ****         1.2120  -0.7339  -0.5592 C.ar           1 S1                 0.0000
     16 ****         0.5526  -0.5352  -1.7665 N.2            1 S1                 0.0000
     17 ****         1.4923  -0.6474  -2.6653 C.2            1 S1                 0.0000
     18 ****         2.7501  -0.9089  -2.1706 N.pl3          1 S1                 0.0000
     19 ****         3.9702  -1.0817  -2.9439 C.3            1 S1                 0.0000
     20 ****         4.6524   0.2540  -3.3196 C.3            1 S1                 0.0000
     21 ****         3.7927   0.9840  -4.1785 O.3            1 S1                 0.0000
     22 ****         5.0048   1.1344  -2.1239 C.3            1 S1                 0.0000
     23 ****         6.2592   1.8573  -2.5939 C.3            1 S1                 0.0000
     24 ****         6.9547   0.8418  -3.2969 O.3            1 S1                 0.0000
     25 ****         6.0087   0.0698  -4.0299 C.3            1 S1                 0.0000
     26 ****        -0.9138  -1.0538   2.4807 C.3            1 S1                 0.0000
     27 ****        -2.4481  -1.0777   2.5801 C.3            1 S1                 0.0000
     28 ****        -4.7842  -0.4416   4.3314 H              1 S1                 0.0000
     29 ****        -6.0705   0.6540   3.8286 H              1 S1                 0.0000
     30 ****        -4.5122   1.3032   4.2979 H              1 S1                 0.0000
     31 ****        -4.6941  -0.9489   0.7096 H              1 S1                 0.0000
     32 ****        -5.3649  -1.5566   2.1956 H              1 S1                 0.0000
     33 ****        -7.1780  -0.9773   0.6470 H              1 S1                 0.0000
     34 ****        -7.2575   0.1771   1.9602 H              1 S1                 0.0000
     35 ****        -7.3439   1.1299  -0.1269 H              1 S1                 0.0000
     36 ****        -2.6416   1.0123   3.0186 H              1 S1                 0.0000
     37 ****        -2.9193   0.2099   0.0971 H              1 S1                 0.0000
     38 ****        -2.8914   1.8382   0.7271 H              1 S1                 0.0000
     39 ****        -0.6688   1.1246  -0.1347 H              1 S1                 0.0000
     40 ****        -0.5885   1.5208   1.5647 H              1 S1                 0.0000
     41 ****         3.7107  -1.4209   2.1808 H              1 S1                 0.0000
     42 ****         1.2936  -0.5386  -3.7217 H              1 S1                 0.0000
     43 ****         4.6558  -1.7019  -2.3648 H              1 S1                 0.0000
     44 ****         3.7299  -1.6511  -3.8430 H              1 S1                 0.0000
     45 ****         4.2204   1.7939  -4.4115 H              1 S1                 0.0000
     46 ****         4.2039   1.8100  -1.8202 H              1 S1                 0.0000
     47 ****         5.2623   0.5166  -1.2629 H              1 S1                 0.0000
     48 ****         6.0120   2.6745  -3.2735 H              1 S1                 0.0000
     49 ****         6.8514   2.2570  -1.7704 H              1 S1                 0.0000
     50 ****         6.3335  -0.9711  -4.0414 H              1 S1                 0.0000
     51 ****         5.9811   0.4126  -5.0655 H              1 S1                 0.0000
     52 ****        -0.5275  -2.0641   2.6226 H              1 S1                 0.0000
     53 ****        -0.4975  -0.4346   3.2768 H              1 S1                 0.0000
     54 ****        -2.7402  -1.4125   3.5754 H              1 S1                 0.0000
     55 ****        -2.8287  -1.8201   1.8783 H              1 S1                 0.0000
     56 ****        -4.7745   1.2619   1.9499 H              1 S1                 0.0000
     57 ****        -5.9233   0.5694  -0.5729 LP             1 S1                 0.0000
     58 ****        -6.0511   1.6682   0.6282 LP             1 S1                 0.0000
     59 ****        -0.9709  -1.1473   0.5703 LP             1 S1                 0.0000
     60 ****         1.5011  -1.0380   2.7086 LP             1 S1                 0.0000
     61 ****         4.5083  -1.4009  -0.0515 LP             1 S1                 0.0000
     62 ****        -0.4190  -0.3489  -1.9129 LP             1 S1                 0.0000
     63 ****         2.9322   1.1798  -3.7081 LP             1 S1                 0.0000
     64 ****         3.6074   0.4505  -5.0038 LP             1 S1                 0.0000
     65 ****         7.4395   0.2545  -2.6488 LP             1 S1                 0.0000
     66 ****         7.6115   1.2568  -3.9265 LP             1 S1                 0.0000
@<TRIPOS>BOND
    1    1    2 1     
    2    1   28 1     
    3    1   29 1     
    4    1   30 1     
    5    2    3 1     
    6    2    6 1     
    7    2   56 1     
    8    3    4 1     
    9    3   31 1     
   10    3   32 1     
   11    4    5 1     
   12    4   33 1     
   13    4   34 1     
   14    5   35 1     
   15    6   27 1     
   16    6    7 1     
   17    6   36 1     
   18    7    8 1     
   19    7   37 1     
   20    7   38 1     
   21    8    9 1     
   22    8   39 1     
   23    8   40 1     
   24    9   10 1     
   25    9   26 1     
   26   10   15 ar    
   27   10   11 ar    
   28   11   12 ar    
   29   12   13 ar    
   30   12   41 1     
   31   13   14 ar    
   32   14   18 1     
   33   14   15 ar    
   34   15   16 1     
   35   16   17 2     
   36   17   18 1     
   37   17   42 1     
   38   18   19 1     
   39   19   20 1     
   40   19   43 1     
   41   19   44 1     
   42   20   25 1     
   43   20   21 1     
   44   20   22 1     
   45   21   45 1     
   46   22   23 1     
   47   22   46 1     
   48   22   47 1     
   49   23   24 1     
   50   23   48 1     
   51   23   49 1     
   52   24   25 1     
   53   25   50 1     
   54   25   51 1     
   55   26   27 1     
   56   26   52 1     
   57   26   53 1     
   58   27   54 1     
   59   27   55 1     
   60    5   57 1     
   61    5   58 1     
   62    9   59 1     
   63   11   60 1     
   64   13   61 1     
   65   16   62 1     
   66   21   63 1     
   67   21   64 1     
   68   24   65 1     
   69   24   66 1     
@<TRIPOS>SUBSTRUCTURE
      1 S1             1
@<TRIPOS>SET
LONE_PAIRS      STATIC     ATOMS    <user>   **** ""
10 57 58 59 60 61 62 63 64 65 66
DONOR_HYDROGENS      STATIC     ATOMS    <user>   **** ""
3 56 35 45
ATOM$BLUE        STATIC     ATOMS    COLORGROUP SYSTEM
10 57 58 59 60 61 62 63 64 65 66
ATOM$RED        STATIC     ATOMS    COLORGROUP SYSTEM
3 56 35 45
