AV-unprocessed.smi:1863|AV-procd|sdf|7551|dock6
  -GOLD-   22720 9263D 1   1.00000     0.00000
 Structure written by MMmdl.
 37 38  0  0  0  0  0  0  0  0  1 V2000
  152.1052  137.2843  155.5205 C   0  0  0  0  0  0  0  0  0  0  0  0
  150.6505  137.5328  155.0985 C   0  0  1  0  0  0  0  0  0  0  0  0
  150.5344  138.8079  154.2316 C   0  0  0  0  0  0  0  0  0  0  0  0
  150.4066  140.0240  155.0333 N   0  0  0  0  0  0  0  0  0  0  0  0
  149.2722  140.9154  154.8545 C   0  0  0  0  0  0  0  0  0  0  0  0
  149.3377  141.8779  156.0481 C   0  0  0  0  0  0  0  0  0  0  0  0
  150.7575  141.7413  156.6079 C   0  0  0  0  0  0  0  0  0  0  0  0
  151.2635  140.4616  155.9639 C   0  0  0  0  0  0  0  0  0  0  0  0
  152.3213  139.9236  156.2877 O   0  0  0  0  0  0  0  0  0  0  0  0
  150.1795  136.3632  154.3582 N   0  0  0  0  0  0  0  0  0  0  0  0
  150.3030  135.0874  154.7535 C   0  0  0  0  0  0  0  0  0  0  0  0
  150.8491  134.7501  155.8037 O   0  0  0  0  0  0  0  0  0  0  0  0
  149.7288  134.2503  153.8731 N   0  0  0  0  0  0  0  0  0  0  0  0
  149.6070  132.8365  153.9476 C   0  0  0  0  0  0  0  0  0  0  0  0
  150.3588  132.0156  154.8227 C   0  0  0  0  0  0  0  0  0  0  0  0
  150.1562  130.6223  154.7891 C   0  0  0  0  0  0  0  0  0  0  0  0
  149.2170  130.1006  153.8785 C   0  0  0  0  0  0  0  0  0  0  0  0
  148.5037  130.8699  153.0294 N   0  0  0  0  0  0  0  0  0  0  0  0
  148.7038  132.2044  153.0669 C   0  0  0  0  0  0  0  0  0  0  0  0
  152.4919  138.1206  156.1038 H   0  0  0  0  0  0  0  0  0  0  0  0
  152.7552  137.1545  154.6542 H   0  0  0  0  0  0  0  0  0  0  0  0
  152.1884  136.3893  156.1379 H   0  0  0  0  0  0  0  0  0  0  0  0
  150.0694  137.6538  156.0143 H   0  0  0  0  0  0  0  0  0  0  0  0
  151.4232  138.9117  153.6071 H   0  0  0  0  0  0  0  0  0  0  0  0
  149.6927  138.7256  153.5423 H   0  0  0  0  0  0  0  0  0  0  0  0
  149.3855  141.4526  153.9120 H   0  0  0  0  0  0  0  0  0  0  0  0
  148.3285  140.3695  154.8259 H   0  0  0  0  0  0  0  0  0  0  0  0
  149.1059  142.9027  155.7573 H   0  0  0  0  0  0  0  0  0  0  0  0
  148.6134  141.5786  156.8071 H   0  0  0  0  0  0  0  0  0  0  0  0
  151.3896  142.5753  156.3015 H   0  0  0  0  0  0  0  0  0  0  0  0
  150.7666  141.6724  157.6959 H   0  0  0  0  0  0  0  0  0  0  0  0
  149.7110  136.5427  153.4823 H   0  0  0  0  0  0  0  0  0  0  0  0
  149.2565  134.6839  153.0933 H   0  0  0  0  0  0  0  0  0  0  0  0
  151.0914  132.4197  155.5035 H   0  0  0  0  0  0  0  0  0  0  0  0
  150.7125  129.9679  155.4439 H   0  0  0  0  0  0  0  0  0  0  0  0
  149.0388  129.0368  153.8262 H   0  0  0  0  0  0  0  0  0  0  0  0
  148.1181  132.7879  152.3713 H   0  0  0  0  0  0  0  0  0  0  0  0
  1  2  1  0  0  0  0
  1 20  1  0  0  0  0
  1 21  1  0  0  0  0
  1 22  1  0  0  0  0
  2  3  1  0  0  0  0
  2 10  1  0  0  0  0
  2 23  1  0  0  0  0
  3  4  1  0  0  0  0
  3 24  1  0  0  0  0
  3 25  1  0  0  0  0
  4  8  1  0  0  0  0
  4  5  1  0  0  0  0
  5  6  1  0  0  0  0
  5 26  1  0  0  0  0
  5 27  1  0  0  0  0
  6  7  1  0  0  0  0
  6 28  1  0  0  0  0
  6 29  1  0  0  0  0
  7  8  1  0  0  0  0
  7 30  1  0  0  0  0
  7 31  1  0  0  0  0
  8  9  2  0  0  0  0
 10 11  1  0  0  0  0
 10 32  1  0  0  0  0
 11 12  2  0  0  0  0
 11 13  1  0  0  0  0
 13 14  1  0  0  0  0
 13 33  1  0  0  0  0
 14 19  1  0  0  0  0
 14 15  2  0  0  0  0
 15 16  1  0  0  0  0
 15 34  1  0  0  0  0
 16 17  2  0  0  0  0
 16 35  1  0  0  0  0
 17 18  1  0  0  0  0
 17 36  1  0  0  0  0
 18 19  2  0  0  0  0
 19 37  1  0  0  0  0
M  END
> <s_m_source_file>
AV-unprocessed.smi

> <i_m_source_file_index>
1863

> <i_lp_mmshare_version>
43012

> <i_f3d_flags>
0

> <s_epik_input>
Tz1DMVtDSDJdW0NIMl1bQ0gyXU4xW0NIMl1bQ0BASF0oW0NIM10pW05IXUMoPU8pW05IXWMyW2NIXVtjSF1bY0hdbltjSF0y

> <s_epik_cmdline>
J2VwaWtfcHl0aG9uJywgJy1waCcsICc3LjAnLCAnLXRuJywgJzgnLCAnLW1hJywgJzIwMCcsICctbWV0YWxfYmluZGluZycsICctaW1hZScsICc8aW5maWxlLm1hZT4nLCAnLW9tYWUnLCAnPG91dGZpbGUubWFlPic=

> <r_epik_Ionization_Penalty>
0.0047799

> <r_epik_Ionization_Penalty_Charging>
0

> <r_epik_Ionization_Penalty_Neutral>
0.0047799

> <r_epik_State_Penalty>
0.0034394

> <r_epik_Charging_Adjusted_Penalty>
0.0034394

> <i_epik_Tot_Q>
0

> <i_epik_Tot_abs_Q>
0

> <r_epik_Metal_State_Penalty>
-0

> <b_epik_Metal_Only>
0

> <s_lp_Force_Field>
OPLS_2005

> <r_lp_Energy>
21.1293

> <b_lp_Chiralities_Consistent>
1

> <s_lp_Variant>
AV-unprocessed.smi:1863-2

> <Gold.Version>
5.8.1

> <Gold.Id.Protein>
6NUR|6NUR_protein|mol2

> <Gold.PLP.Fitness>
40.1562

> <Gold.PLP.PLP>
-32.9410

> <Gold.PLP.part.hbond>
-3.6571

> <Gold.PLP.part.metal>
0.0000

> <Gold.PLP.part.buried>
3.3089

> <Gold.PLP.part.nonpolar>
-32.1091

> <Gold.PLP.part.repulsive>
0.5022

> <Gold.PLP.ligand.clash>
0.0000

> <Gold.PLP.ligand.torsion>
0.4422

> <Gold.PLP.Chemscore.Hbond>
2.6944

> <Gold.PLP.Chemscore.CHOScore>
0.0000

> <Gold.PLP.Chemscore.Metal>
0.0000

> <Gold.Chemscore.Hbonds>
donor molecule, donor type, donor heavy atom, donor atom, acceptor molecule, acceptor atom, score
      L1  H    10    32       P1  7948  1.00
      L1  H    13    33       P1  7948  0.35
      P1  H  7997  8008       L1     9  0.99

> <Gold.PLP.Chemscore.Internal.Correction>
0.0164

> <Gold.Rescore>
     Score         DG    S(hbond)    S(metal)    S(lipo)     H(rot)  DE(clash)    DE(int)     intcor
     12.31     -16.37       2.32        0.00      60.50       1.54       1.17       2.89       ----

> <Gold.Chemscore.Fitness>
12.3096

> <Gold.Chemscore.DG>
-16.3708

> <Gold.Chemscore.ZeroCoef>
-5.4800

> <Gold.Chemscore.Hbond>
2.3239

> <Gold.Chemscore.Metal>
0.0000

> <Gold.Chemscore.Lipo>
60.5018

> <Gold.Chemscore.Internal_Hbond>
0.0000

> <Gold.Chemscore.DEClash>
1.1720

> <Gold.Chemscore.DEInternal>
2.8892

> <Gold.Chemscore.Rot>
1.5428

> <Gold.Chemscore.Internal.Correction>
   9.000000E+99

> <Gold.Chemscore.Hbonds>
donor molecule, donor type, donor heavy atom, donor atom, acceptor molecule, acceptor atom, score
      L1  H    10    32       P1  7948  0.45
      L1  H    13    33       P1  7948  0.01
      P1  H  7997  8008       L1     9  0.92

> <Gold.Chemscore.Hbond.Weighted>
-7.7618

> <Gold.Chemscore.Metal.Weighted>
-0.0000

> <Gold.Chemscore.Lipo.Weighted>
-7.0787

> <Gold.Chemscore.Internal_Hbond.Weighted>
0.0000

> <Gold.Chemscore.DEClash.Weighted>
1.1720

> <Gold.Chemscore.DEInternal.Weighted>
2.8892

> <Gold.Chemscore.Rot.Weighted>
3.9497

> <Gold.Chemscore.Internal.Correction.Weighted>
   9.000000E+99

> <Gold.Protein.RotatedTorsions>
[ 6907 6896 6895 6894 ] final -122.47 input  -60.11 | X-H torsion
[ 7974 7965 7964 7962 ] final  -89.50 input  175.53 | X-H torsion
[ 8008 7997 7996 7995 ] final  -36.09 input   59.86 | X-H torsion
[ 10167 10162 10161 10158 ] final   43.61 input  -65.29 | X-H torsion
[ 10718 10713 10712 10709 ] final -146.88 input   66.30 | X-H torsion
[ 10763 10752 10751 10750 ] final   28.81 input  -60.55 | X-H torsion
[ 11005 11000 10999 10996 ] final  -13.28 input  -57.11 | X-H torsion

> <Gold.Protein.ActiveResidues>
 VAL166  LYS551  ARG553  GLY616  TRP617  ASP618  TYR619  PRO620  LYS621  CYS622 
 ASP623  PHE694  ASN695  SER759  ASP760  ASP761  ALA762  ILE779  LEU786  VAL792 
 PHE793  MET794  SER795  GLU796  ALA797  LYS798  CYS799  TRP800  GLU811  SER814 

> <Gold.Protein.RotatedAtoms>
  150.8579  133.7687  159.3002 H   0  0  0  0  0  0  0  0  0  0  0  0  # atno 6907 bound_to 6896
  151.5339  135.1067  159.9919 H   0  0  0  0  0  0  0  0  0  0  0  0  # atno 6908 bound_to 6896
  152.4604  133.7766  159.6884 H   0  0  0  0  0  0  0  0  0  0  0  0  # atno 6909 bound_to 6896
  145.4389  140.9558  143.2086 H   0  0  0  0  0  0  0  0  0  0  0  0  # atno 7974 bound_to 7965
  154.4080  140.1640  156.2318 H   0  0  0  0  0  0  0  0  0  0  0  0  # atno 8008 bound_to 7997
  155.9276  140.3417  155.6200 H   0  0  0  0  0  0  0  0  0  0  0  0  # atno 8009 bound_to 7997
  155.7146  140.0761  157.2347 H   0  0  0  0  0  0  0  0  0  0  0  0  # atno 8010 bound_to 7997
  140.3426  144.2451  150.6154 H   0  0  0  0  0  0  0  0  0  0  0  0  # atno 10167 bound_to 10162
  156.4005  130.7931  151.2142 H   0  0  0  0  0  0  0  0  0  0  0  0  # atno 10718 bound_to 10713
  153.0469  135.6504  154.0795 H   0  0  0  0  0  0  0  0  0  0  0  0  # atno 10763 bound_to 10752
  154.0491  135.2897  155.3345 H   0  0  0  0  0  0  0  0  0  0  0  0  # atno 10764 bound_to 10752
  154.6732  135.5348  153.8231 H   0  0  0  0  0  0  0  0  0  0  0  0  # atno 10765 bound_to 10752
  140.7744  133.8412  155.9236 H   0  0  0  0  0  0  0  0  0  0  0  0  # atno 11005 bound_to 11000
  144.8134  139.5921  143.7019 LP  0  0  0  0  0  0  0  0  0  0  0  0  # atno 17320 bound_to 7965
  146.2567  139.6318  142.9390 LP  0  0  0  0  0  0  0  0  0  0  0  0  # atno 17321 bound_to 7965
  140.5295  143.2247  151.8262 LP  0  0  0  0  0  0  0  0  0  0  0  0  # atno 17342 bound_to 10162
  139.4838  144.4738  151.9392 LP  0  0  0  0  0  0  0  0  0  0  0  0  # atno 17343 bound_to 10162
  157.7503  131.0288  150.4065 LP  0  0  0  0  0  0  0  0  0  0  0  0  # atno 17370 bound_to 10713
  156.4344  130.3978  149.6739 LP  0  0  0  0  0  0  0  0  0  0  0  0  # atno 17371 bound_to 10713
  140.9542  134.1739  157.4704 LP  0  0  0  0  0  0  0  0  0  0  0  0  # atno 17394 bound_to 11000
  139.8751  134.9921  156.5579 LP  0  0  0  0  0  0  0  0  0  0  0  0  # atno 17395 bound_to 11000

$$$$
