#       Name:                AV-unprocessed.smi:933
#       Creating user name   scv26
#       Creation time:       Fri Mar 27 02:11:12 2020


#       File generated by GOLD software.
#

@<TRIPOS>MOLECULE
AV-unprocessed.smi:933
    45    46     1
SMALL
NO_CHARGES


@<TRIPOS>ATOM
      1 ****        -7.8739  -4.0323  -3.6512 C.3            1 S1                 0.0000
      2 ****        -6.9365  -4.8368  -2.7448 C.3            1 S1                 0.0000
      3 ****        -6.2644  -3.9897  -1.7167 C.2            1 S1                 0.0000
      4 ****        -5.1096  -3.3529  -1.9274 N.2            1 S1                 0.0000
      5 ****        -4.6946  -2.6072  -0.8196 C.2            1 S1                 0.0000
      6 ****        -3.4051  -1.8454  -0.8739 C.3            1 S1                 0.0000
      7 ****        -2.1852  -2.7653  -0.7295 C.3            1 S1                 0.0000
      8 ****        -0.9456  -1.9958  -0.7965 N.am           1 S1                 0.0000
      9 ****         0.3083  -2.4791  -0.8159 C.2            1 S1                 0.0000
     10 ****         0.5404  -3.6860  -0.7787 O.2            1 S1                 0.0000
     11 ****         1.2662  -1.5390  -0.8810 N.am           1 S1                 0.0000
     12 ****         2.7041  -1.7933  -0.8733 C.3            1 S1                 0.0000
     13 ****         3.4485  -0.6473  -1.5835 C.3            1 S1                 0.0000
     14 ****         4.1497   0.1448  -0.4812 C.3            1 S1                 0.0000
     15 ****         4.4758  -0.9067   0.5736 C.3            1 S1                 0.0000
     16 ****         3.2581  -1.8380   0.5709 C.3            1 S1                 0.0000
     17 ****         3.5790  -3.2542   1.0691 C.3            1 S1                 0.0000
     18 ****        -5.5702  -2.6730   0.2354 C.2            1 S1                 0.0000
     19 ****        -6.9472  -3.6777  -0.1250 S.3            1 S1                 0.0000
     20 ****        -8.3498  -4.6785  -4.3891 H              1 S1                 0.0000
     21 ****        -7.3297  -3.2561  -4.1899 H              1 S1                 0.0000
     22 ****        -8.6618  -3.5497  -3.0726 H              1 S1                 0.0000
     23 ****        -7.4955  -5.6234  -2.2371 H              1 S1                 0.0000
     24 ****        -6.1746  -5.3339  -3.3463 H              1 S1                 0.0000
     25 ****        -3.3395  -1.2975  -1.8150 H              1 S1                 0.0000
     26 ****        -3.3862  -1.0909  -0.0863 H              1 S1                 0.0000
     27 ****        -2.2298  -3.2978   0.2220 H              1 S1                 0.0000
     28 ****        -2.1936  -3.5139  -1.5235 H              1 S1                 0.0000
     29 ****        -1.0479  -0.9934  -0.8634 H              1 S1                 0.0000
     30 ****         0.9768  -0.5723  -0.9143 H              1 S1                 0.0000
     31 ****         2.9176  -2.7233  -1.4039 H              1 S1                 0.0000
     32 ****         4.2005  -1.0695  -2.2515 H              1 S1                 0.0000
     33 ****         2.7989  -0.0175  -2.1932 H              1 S1                 0.0000
     34 ****         5.0347   0.6711  -0.8397 H              1 S1                 0.0000
     35 ****         3.4646   0.8848  -0.0652 H              1 S1                 0.0000
     36 ****         5.3713  -1.4536   0.2742 H              1 S1                 0.0000
     37 ****         4.6665  -0.4699   1.5544 H              1 S1                 0.0000
     38 ****         2.5211  -1.4002   1.2468 H              1 S1                 0.0000
     39 ****         4.3238  -3.7393   0.4376 H              1 S1                 0.0000
     40 ****         2.6861  -3.8796   1.0717 H              1 S1                 0.0000
     41 ****         3.9686  -3.2303   2.0869 H              1 S1                 0.0000
     42 ****        -5.4899  -2.1925   1.1992 H              1 S1                 0.0000
     43 ****        -4.5971  -3.4038  -2.7846 LP             1 S1                 0.0000
     44 ****        -0.2153  -4.3393  -0.7326 LP             1 S1                 0.0000
     45 ****         1.4849  -4.0142  -0.7947 LP             1 S1                 0.0000
@<TRIPOS>BOND
    1    1    2 1     
    2    1   20 1     
    3    1   21 1     
    4    1   22 1     
    5    2    3 1     
    6    2   23 1     
    7    2   24 1     
    8    3   19 1     
    9    3    4 2     
   10    4    5 1     
   11    5    6 1     
   12    5   18 2     
   13    6    7 1     
   14    6   25 1     
   15    6   26 1     
   16    7    8 1     
   17    7   27 1     
   18    7   28 1     
   19    8    9 am    
   20    8   29 1     
   21    9   10 2     
   22    9   11 am    
   23   11   12 1     
   24   11   30 1     
   25   12   16 1     
   26   12   13 1     
   27   12   31 1     
   28   13   14 1     
   29   13   32 1     
   30   13   33 1     
   31   14   15 1     
   32   14   34 1     
   33   14   35 1     
   34   15   16 1     
   35   15   36 1     
   36   15   37 1     
   37   16   17 1     
   38   16   38 1     
   39   17   39 1     
   40   17   40 1     
   41   17   41 1     
   42   18   19 1     
   43   18   42 1     
   44    4   43 1     
   45   10   44 1     
   46   10   45 1     
@<TRIPOS>SUBSTRUCTURE
      1 S1             1
@<TRIPOS>SET
LONE_PAIRS      STATIC     ATOMS    <user>   **** ""
3 43 44 45
DONOR_HYDROGENS      STATIC     ATOMS    <user>   **** ""
2 29 30
ATOM$BLUE        STATIC     ATOMS    COLORGROUP SYSTEM
3 43 44 45
ATOM$RED        STATIC     ATOMS    COLORGROUP SYSTEM
2 29 30
