AV-unprocessed.smi:1005|AV-procd|sdf|4376|dock9
  -GOLD-   22720 2293D 1   1.00000     0.00000
 Structure written by MMmdl.
 57 59  0  0  0  0  0  0  0  0  3 V2000
  152.2730  144.4244  160.9269 C   0  0  0  0  0  0  0  0  0  0  0  0
  152.0780  143.4203  159.8035 C   0  0  0  0  0  0  0  0  0  0  0  0
  151.1243  143.7067  158.8012 C   0  0  0  0  0  0  0  0  0  0  0  0
  150.9727  142.7720  157.7840 C   0  0  0  0  0  0  0  0  0  0  0  0
  150.1343  142.7649  156.6673 N   0  3  0  0  0  0  0  0  0  0  0  0
  150.3467  141.6295  155.9465 C   0  0  0  0  0  0  0  0  0  0  0  0
  151.3097  140.9113  156.5853 N   0  0  0  0  0  0  0  0  0  0  0  0
  151.8998  139.6144  156.2251 C   0  0  0  0  0  0  0  0  0  0  0  0
  150.8471  138.5720  155.7983 C   0  0  2  0  0  0  0  0  0  0  0  0
  150.5395  138.8179  154.4422 O   0  0  0  0  0  0  0  0  0  0  0  0
  149.5391  138.6476  156.6155 C   0  0  0  0  0  0  0  0  0  0  0  0
  148.8833  137.3667  156.8822 N   0  0  0  0  0  0  0  0  0  0  0  0
  149.2459  136.8692  158.2048 C   0  0  0  0  0  0  0  0  0  0  0  0
  148.5756  135.5217  158.5155 C   0  0  0  0  0  0  0  0  0  0  0  0
  148.9248  134.5794  157.5077 O   0  0  0  0  0  0  0  0  0  0  0  0
  148.5387  134.9928  156.1991 C   0  0  2  0  0  0  0  0  0  0  0  0
  148.9733  133.8973  155.2095 C   0  0  0  0  0  0  0  0  0  0  0  0
  148.3437  134.0561  153.8737 N   0  3  0  0  0  0  0  0  0  0  0  0
  148.5915  132.9113  152.9671 C   0  0  0  0  0  0  0  0  0  0  0  0
  146.9012  134.3712  153.9697 C   0  0  0  0  0  0  0  0  0  0  0  0
  149.2114  136.3462  155.8878 C   0  0  0  0  0  0  0  0  0  0  0  0
  151.7269  141.5830  157.7414 C   0  0  0  0  0  0  0  0  0  0  0  0
  152.6678  141.2840  158.7244 C   0  0  0  0  0  0  0  0  0  0  0  0
  152.8412  142.2249  159.7644 C   0  0  0  0  0  0  0  0  0  0  0  0
  153.8683  141.9291  160.8442 C   0  0  0  0  0  0  0  0  0  0  0  0
  151.5725  145.2561  160.8447 H   0  0  0  0  0  0  0  0  0  0  0  0
  153.2829  144.8346  160.9004 H   0  0  0  0  0  0  0  0  0  0  0  0
  152.1156  143.9522  161.8968 H   0  0  0  0  0  0  0  0  0  0  0  0
  150.5405  144.6155  158.8236 H   0  0  0  0  0  0  0  0  0  0  0  0
  149.8423  141.3490  155.0330 H   0  0  0  0  0  0  0  0  0  0  0  0
  152.6526  139.7605  155.4501 H   0  0  0  0  0  0  0  0  0  0  0  0
  152.4374  139.2581  157.1050 H   0  0  0  0  0  0  0  0  0  0  0  0
  151.2959  137.5821  155.8723 H   0  0  0  0  0  0  0  0  0  0  0  0
  150.4481  137.9871  154.0008 H   0  0  0  0  0  0  0  0  0  0  0  0
  149.7304  139.1411  157.5685 H   0  0  0  0  0  0  0  0  0  0  0  0
  148.8485  139.3004  156.0790 H   0  0  0  0  0  0  0  0  0  0  0  0
  150.3293  136.7567  158.2744 H   0  0  0  0  0  0  0  0  0  0  0  0
  148.9593  137.5959  158.9660 H   0  0  0  0  0  0  0  0  0  0  0  0
  148.9066  135.1475  159.4844 H   0  0  0  0  0  0  0  0  0  0  0  0
  147.4910  135.6296  158.5655 H   0  0  0  0  0  0  0  0  0  0  0  0
  147.4566  135.1241  156.1669 H   0  0  0  0  0  0  0  0  0  0  0  0
  150.0589  133.8836  155.1013 H   0  0  0  0  0  0  0  0  0  0  0  0
  148.6950  132.9298  155.6303 H   0  0  0  0  0  0  0  0  0  0  0  0
  148.1695  131.9916  153.3744 H   0  0  0  0  0  0  0  0  0  0  0  0
  149.6565  132.7542  152.8008 H   0  0  0  0  0  0  0  0  0  0  0  0
  148.1361  133.0898  151.9924 H   0  0  0  0  0  0  0  0  0  0  0  0
  146.3510  133.5486  154.4289 H   0  0  0  0  0  0  0  0  0  0  0  0
  146.4799  134.5554  152.9808 H   0  0  0  0  0  0  0  0  0  0  0  0
  146.7386  135.2689  154.5674 H   0  0  0  0  0  0  0  0  0  0  0  0
  148.8954  136.6689  154.8966 H   0  0  0  0  0  0  0  0  0  0  0  0
  150.2934  136.2121  155.8419 H   0  0  0  0  0  0  0  0  0  0  0  0
  153.2520  140.3761  158.6966 H   0  0  0  0  0  0  0  0  0  0  0  0
  154.4149  141.0093  160.6342 H   0  0  0  0  0  0  0  0  0  0  0  0
  153.3812  141.8146  161.8127 H   0  0  0  0  0  0  0  0  0  0  0  0
  154.5962  142.7378  160.9151 H   0  0  0  0  0  0  0  0  0  0  0  0
  148.7764  134.8657  153.4508 H   0  0  0  0  0  0  0  0  0  0  0  0
  149.4646  143.4803  156.4140 H   0  0  0  0  0  0  0  0  0  0  0  0
  1  2  1  0  0  0  0
  1 26  1  0  0  0  0
  1 27  1  0  0  0  0
  1 28  1  0  0  0  0
  2 24  1  0  0  0  0
  2  3  2  0  0  0  0
  3  4  1  0  0  0  0
  3 29  1  0  0  0  0
  4 22  2  0  0  0  0
  4  5  1  0  0  0  0
  5  6  2  0  0  0  0
  5 57  1  0  0  0  0
  6  7  1  0  0  0  0
  6 30  1  0  0  0  0
  7  8  1  0  0  0  0
  7 22  1  0  0  0  0
  8  9  1  0  0  0  0
  8 31  1  0  0  0  0
  8 32  1  0  0  0  0
  9 10  1  0  0  0  0
  9 11  1  0  0  0  0
  9 33  1  0  0  0  0
 10 34  1  0  0  0  0
 11 12  1  0  0  0  0
 11 35  1  0  0  0  0
 11 36  1  0  0  0  0
 12 21  1  0  0  0  0
 12 13  1  0  0  0  0
 13 14  1  0  0  0  0
 13 37  1  0  0  0  0
 13 38  1  0  0  0  0
 14 15  1  0  0  0  0
 14 39  1  0  0  0  0
 14 40  1  0  0  0  0
 15 16  1  0  0  0  0
 16 17  1  0  0  0  0
 16 21  1  0  0  0  0
 16 41  1  0  0  0  0
 17 18  1  0  0  0  0
 17 42  1  0  0  0  0
 17 43  1  0  0  0  0
 18 19  1  0  0  0  0
 18 20  1  0  0  0  0
 18 56  1  0  0  0  0
 19 44  1  0  0  0  0
 19 45  1  0  0  0  0
 19 46  1  0  0  0  0
 20 47  1  0  0  0  0
 20 48  1  0  0  0  0
 20 49  1  0  0  0  0
 21 50  1  0  0  0  0
 21 51  1  0  0  0  0
 22 23  1  0  0  0  0
 23 24  2  0  0  0  0
 23 52  1  0  0  0  0
 24 25  1  0  0  0  0
 25 53  1  0  0  0  0
 25 54  1  0  0  0  0
 25 55  1  0  0  0  0
M  CHG  1   5   1
M  CHG  1  18   1
M  END
> <s_m_source_file>
AV-unprocessed.smi

> <i_m_source_file_index>
1005

> <i_lp_mmshare_version>
43012

> <i_f3d_flags>
0

> <s_epik_input>
W0NIM11jKFtjSF0xKWMoW0NIM10pW2NIXWMoYzEyKW4oW2NIXW4yKVtDSDJdW0NASF0oW09IXSlbQ0gyXU4zW0NIMl1bQ0gyXU9bQ0BIXShbQ0gyXTMpW0NIMl1OKFtDSDNdKVtDSDNd

> <s_epik_cmdline>
J2VwaWtfcHl0aG9uJywgJy1waCcsICc3LjAnLCAnLXRuJywgJzgnLCAnLW1hJywgJzIwMCcsICctbWV0YWxfYmluZGluZycsICctaW1hZScsICc8aW5maWxlLm1hZT4nLCAnLW9tYWUnLCAnPG91dGZpbGUubWFlPic=

> <r_epik_Ionization_Penalty>
1.3281

> <r_epik_Ionization_Penalty_Charging>
1.21988

> <r_epik_Ionization_Penalty_Neutral>
0.10822

> <r_epik_State_Penalty>
1.32886

> <r_epik_Charging_Adjusted_Penalty>
2.54875

> <i_epik_Tot_Q>
2

> <i_epik_Tot_abs_Q>
2

> <r_epik_Metal_State_Penalty>
5.33912

> <b_epik_Metal_Only>
0

> <s_lp_Force_Field>
OPLS_2005

> <r_lp_Energy>
45.8235

> <b_lp_Chiralities_Consistent>
1

> <s_lp_Variant>
AV-unprocessed.smi:1005-15

> <Gold.Version>
5.8.1

> <Gold.Id.Protein>
6NUR|6NUR_protein|mol2

> <Gold.PLP.Fitness>
51.6277

> <Gold.PLP.PLP>
-42.7256

> <Gold.PLP.part.hbond>
-1.9702

> <Gold.PLP.part.metal>
0.0000

> <Gold.PLP.part.buried>
-6.8788

> <Gold.PLP.part.nonpolar>
-34.9366

> <Gold.PLP.part.repulsive>
0.0557

> <Gold.PLP.ligand.clash>
0.0000

> <Gold.PLP.ligand.torsion>
1.5612

> <Gold.PLP.Chemscore.Hbond>
3.9840

> <Gold.PLP.Chemscore.CHOScore>
0.0000

> <Gold.PLP.Chemscore.Metal>
0.0000

> <Gold.Chemscore.Hbonds>
donor molecule, donor type, donor heavy atom, donor atom, acceptor molecule, acceptor atom, score
      L1  H     5    57       P1  8028  2.00
      L1  H    18    56       P1  7948  1.82

> <Gold.PLP.Chemscore.Internal.Correction>
0.0725

> <Gold.Rescore>
     Score         DG    S(hbond)    S(metal)    S(lipo)     H(rot)  DE(clash)    DE(int)     intcor
     18.18     -19.96       2.34        0.00     111.41       2.49       0.27       1.51       ----

> <Gold.Chemscore.Fitness>
18.1780

> <Gold.Chemscore.DG>
-19.9570

> <Gold.Chemscore.ZeroCoef>
-5.4800

> <Gold.Chemscore.Hbond>
2.3401

> <Gold.Chemscore.Metal>
0.0000

> <Gold.Chemscore.Lipo>
111.4097

> <Gold.Chemscore.Internal_Hbond>
0.0000

> <Gold.Chemscore.DEClash>
0.2693

> <Gold.Chemscore.DEInternal>
1.5097

> <Gold.Chemscore.Rot>
2.4897

> <Gold.Chemscore.Internal.Correction>
   9.000000E+99

> <Gold.Chemscore.Hbonds>
donor molecule, donor type, donor heavy atom, donor atom, acceptor molecule, acceptor atom, score
      L1  H     5    57       P1  8028  0.95
      L1  H    18    56       P1  7948  0.37
      P1  H  7989  7998       L1    10  0.01

> <Gold.Chemscore.Hbond.Weighted>
-7.8158

> <Gold.Chemscore.Metal.Weighted>
-0.0000

> <Gold.Chemscore.Lipo.Weighted>
-13.0349

> <Gold.Chemscore.Internal_Hbond.Weighted>
0.0000

> <Gold.Chemscore.DEClash.Weighted>
0.2693

> <Gold.Chemscore.DEInternal.Weighted>
1.5097

> <Gold.Chemscore.Rot.Weighted>
6.3737

> <Gold.Chemscore.Internal.Correction.Weighted>
   9.000000E+99

> <Gold.Protein.RotatedTorsions>
[ 6907 6896 6895 6894 ] final -134.19 input  -60.11 | X-H torsion
[ 7974 7965 7964 7962 ] final   46.84 input  175.53 | X-H torsion
[ 8008 7997 7996 7995 ] final   39.04 input   59.86 | X-H torsion
[ 10167 10162 10161 10158 ] final   90.84 input  -65.29 | X-H torsion
[ 10718 10713 10712 10709 ] final  -97.94 input   66.30 | X-H torsion
[ 10763 10752 10751 10750 ] final  -25.23 input  -60.55 | X-H torsion
[ 11005 11000 10999 10996 ] final -135.29 input  -57.11 | X-H torsion

> <Gold.Protein.ActiveResidues>
 VAL166  LYS551  ARG553  GLY616  TRP617  ASP618  TYR619  PRO620  LYS621  CYS622 
 ASP623  PHE694  ASN695  SER759  ASP760  ASP761  ALA762  ILE779  LEU786  VAL792 
 PHE793  MET794  SER795  GLU796  ALA797  LYS798  CYS799  TRP800  GLU811  SER814 

> <Gold.Protein.RotatedAtoms>
  150.9829  133.6227  159.2719 H   0  0  0  0  0  0  0  0  0  0  0  0  # atno 6907 bound_to 6896
  151.3476  135.0876  159.9402 H   0  0  0  0  0  0  0  0  0  0  0  0  # atno 6908 bound_to 6896
  152.5221  133.9428  159.7689 H   0  0  0  0  0  0  0  0  0  0  0  0  # atno 6909 bound_to 6896
  146.0352  139.4812  142.9812 H   0  0  0  0  0  0  0  0  0  0  0  0  # atno 7974 bound_to 7965
  155.2300  140.3337  155.4304 H   0  0  0  0  0  0  0  0  0  0  0  0  # atno 8008 bound_to 7997
  156.2299  140.1846  156.7316 H   0  0  0  0  0  0  0  0  0  0  0  0  # atno 8009 bound_to 7997
  154.5960  140.0630  156.9289 H   0  0  0  0  0  0  0  0  0  0  0  0  # atno 8010 bound_to 7997
  139.8434  144.6630  150.9256 H   0  0  0  0  0  0  0  0  0  0  0  0  # atno 10167 bound_to 10162
  156.0095  130.5216  150.6449 H   0  0  0  0  0  0  0  0  0  0  0  0  # atno 10718 bound_to 10713
  153.6966  135.6958  153.5075 H   0  0  0  0  0  0  0  0  0  0  0  0  # atno 10763 bound_to 10752
  153.2374  135.4317  155.0660 H   0  0  0  0  0  0  0  0  0  0  0  0  # atno 10764 bound_to 10752
  154.8357  135.3499  154.6506 H   0  0  0  0  0  0  0  0  0  0  0  0  # atno 10765 bound_to 10752
  140.8912  134.1810  157.4526 H   0  0  0  0  0  0  0  0  0  0  0  0  # atno 11005 bound_to 11000
  145.6975  141.0146  143.1522 LP  0  0  0  0  0  0  0  0  0  0  0  0  # atno 17320 bound_to 7965
  144.7049  139.8605  143.7433 LP  0  0  0  0  0  0  0  0  0  0  0  0  # atno 17321 bound_to 7965
  140.7795  143.3892  151.1339 LP  0  0  0  0  0  0  0  0  0  0  0  0  # atno 17342 bound_to 10162
  139.7537  143.8740  152.3083 LP  0  0  0  0  0  0  0  0  0  0  0  0  # atno 17343 bound_to 10162
  157.4222  131.0838  151.1120 LP  0  0  0  0  0  0  0  0  0  0  0  0  # atno 17370 bound_to 10713
  157.1718  130.6271  149.5643 LP  0  0  0  0  0  0  0  0  0  0  0  0  # atno 17371 bound_to 10713
  139.8730  134.9859  156.5301 LP  0  0  0  0  0  0  0  0  0  0  0  0  # atno 17394 bound_to 11000
  140.8345  133.8253  155.9015 LP  0  0  0  0  0  0  0  0  0  0  0  0  # atno 17395 bound_to 11000

$$$$
