AV-unprocessed.smi:2027|AV-procd|sdf|8219|dock10
  -GOLD-   2272010493D 1   1.00000     0.00000
 Structure written by MMmdl.
 51 53  0  0  0  0  0  0  0  0  3 V2000
  152.2003  143.3597  161.0052 C   0  0  0  0  0  0  0  0  0  0  0  0
  152.0054  142.5660  159.7247 C   0  0  0  0  0  0  0  0  0  0  0  0
  151.0455  143.0171  158.7915 C   0  0  0  0  0  0  0  0  0  0  0  0
  150.8916  142.2717  157.6290 C   0  0  0  0  0  0  0  0  0  0  0  0
  150.0450  142.4538  156.5342 N   0  3  0  0  0  0  0  0  0  0  0  0
  150.2553  141.4611  155.6270 C   0  0  0  0  0  0  0  0  0  0  0  0
  151.2203  140.6416  156.1281 N   0  0  0  0  0  0  0  0  0  0  0  0
  151.8191  139.4307  155.5407 C   0  0  0  0  0  0  0  0  0  0  0  0
  151.0158  138.1393  155.8097 C   0  0  2  0  0  0  0  0  0  0  0  0
  151.5926  137.4583  156.9074 O   0  0  0  0  0  0  0  0  0  0  0  0
  150.9618  137.1784  154.6023 C   0  0  0  0  0  0  0  0  0  0  0  0
  149.8188  136.2285  154.6556 N   0  3  2  0  0  0  0  0  0  0  0  0
  148.5648  136.8983  155.0685 C   0  0  0  0  0  0  0  0  0  0  0  0
  150.0797  134.9884  155.4340 C   0  0  0  0  0  0  0  0  0  0  0  0
  149.6094  133.7805  154.6705 C   0  0  0  0  0  0  0  0  0  0  0  0
  148.7470  133.7370  153.5372 C   0  0  0  0  0  0  0  0  0  0  0  0
  148.5229  132.5070  153.1071 N   0  0  0  0  0  0  0  0  0  0  0  0
  149.2407  131.7243  153.9379 N   0  0  0  0  0  0  0  0  0  0  0  0
  149.2278  130.2888  153.7540 C   0  0  0  0  0  0  0  0  0  0  0  0
  149.9097  132.4649  154.8881 C   0  0  0  0  0  0  0  0  0  0  0  0
  151.6514  141.1122  157.3756 C   0  0  0  0  0  0  0  0  0  0  0  0
  152.6007  140.6539  158.2870 C   0  0  0  0  0  0  0  0  0  0  0  0
  152.7721  141.3983  159.4760 C   0  0  0  0  0  0  0  0  0  0  0  0
  153.8013  140.9220  160.4872 C   0  0  0  0  0  0  0  0  0  0  0  0
  151.5752  144.2530  161.0199 H   0  0  0  0  0  0  0  0  0  0  0  0
  153.2379  143.6791  161.1051 H   0  0  0  0  0  0  0  0  0  0  0  0
  151.9383  142.7545  161.8733 H   0  0  0  0  0  0  0  0  0  0  0  0
  150.4579  143.9053  158.9745 H   0  0  0  0  0  0  0  0  0  0  0  0
  149.7465  141.3440  154.6809 H   0  0  0  0  0  0  0  0  0  0  0  0
  151.8956  139.6016  154.4659 H   0  0  0  0  0  0  0  0  0  0  0  0
  152.8438  139.3263  155.8962 H   0  0  0  0  0  0  0  0  0  0  0  0
  150.0072  138.4371  156.0912 H   0  0  0  0  0  0  0  0  0  0  0  0
  152.3604  137.9342  157.1872 H   0  0  0  0  0  0  0  0  0  0  0  0
  150.9140  137.7435  153.6703 H   0  0  0  0  0  0  0  0  0  0  0  0
  151.8897  136.6059  154.5660 H   0  0  0  0  0  0  0  0  0  0  0  0
  148.6342  137.2570  156.0964 H   0  0  0  0  0  0  0  0  0  0  0  0
  147.7207  136.2111  154.9995 H   0  0  0  0  0  0  0  0  0  0  0  0
  148.3464  137.7493  154.4224 H   0  0  0  0  0  0  0  0  0  0  0  0
  151.1390  134.9135  155.6835 H   0  0  0  0  0  0  0  0  0  0  0  0
  149.5690  135.0325  156.3971 H   0  0  0  0  0  0  0  0  0  0  0  0
  148.2743  134.5590  153.0200 H   0  0  0  0  0  0  0  0  0  0  0  0
  149.9768  129.8230  154.3947 H   0  0  0  0  0  0  0  0  0  0  0  0
  149.4506  130.0451  152.7148 H   0  0  0  0  0  0  0  0  0  0  0  0
  148.2448  129.8941  154.0118 H   0  0  0  0  0  0  0  0  0  0  0  0
  150.5335  131.9991  155.6369 H   0  0  0  0  0  0  0  0  0  0  0  0
  153.1888  139.7676  158.1027 H   0  0  0  0  0  0  0  0  0  0  0  0
  154.2641  139.9851  160.1757 H   0  0  0  0  0  0  0  0  0  0  0  0
  153.3371  140.7553  161.4596 H   0  0  0  0  0  0  0  0  0  0  0  0
  154.5929  141.6626  160.6036 H   0  0  0  0  0  0  0  0  0  0  0  0
  149.6627  135.9313  153.7026 H   0  0  0  0  0  0  0  0  0  0  0  0
  149.3749  143.2025  156.4105 H   0  0  0  0  0  0  0  0  0  0  0  0
  1  2  1  0  0  0  0
  1 25  1  0  0  0  0
  1 26  1  0  0  0  0
  1 27  1  0  0  0  0
  2 23  1  0  0  0  0
  2  3  2  0  0  0  0
  3  4  1  0  0  0  0
  3 28  1  0  0  0  0
  4 21  2  0  0  0  0
  4  5  1  0  0  0  0
  5  6  2  0  0  0  0
  5 51  1  0  0  0  0
  6  7  1  0  0  0  0
  6 29  1  0  0  0  0
  7  8  1  0  0  0  0
  7 21  1  0  0  0  0
  8  9  1  0  0  0  0
  8 30  1  0  0  0  0
  8 31  1  0  0  0  0
  9 10  1  0  0  0  0
  9 11  1  0  0  0  0
  9 32  1  0  0  0  0
 10 33  1  0  0  0  0
 11 12  1  0  0  0  0
 11 34  1  0  0  0  0
 11 35  1  0  0  0  0
 12 13  1  0  0  0  0
 12 14  1  0  0  0  0
 12 50  1  0  0  0  0
 13 36  1  0  0  0  0
 13 37  1  0  0  0  0
 13 38  1  0  0  0  0
 14 15  1  0  0  0  0
 14 39  1  0  0  0  0
 14 40  1  0  0  0  0
 15 20  2  0  0  0  0
 15 16  1  0  0  0  0
 16 17  2  0  0  0  0
 16 41  1  0  0  0  0
 17 18  1  0  0  0  0
 18 19  1  0  0  0  0
 18 20  1  0  0  0  0
 19 42  1  0  0  0  0
 19 43  1  0  0  0  0
 19 44  1  0  0  0  0
 20 45  1  0  0  0  0
 21 22  1  0  0  0  0
 22 23  2  0  0  0  0
 22 46  1  0  0  0  0
 23 24  1  0  0  0  0
 24 47  1  0  0  0  0
 24 48  1  0  0  0  0
 24 49  1  0  0  0  0
M  CHG  1   5   1
M  CHG  1  12   1
M  END
> <s_m_source_file>
AV-unprocessed.smi

> <i_m_source_file_index>
2027

> <i_lp_mmshare_version>
43012

> <i_f3d_flags>
0

> <s_epik_input>
W0NIM11jKFtjSF0xKWMoW0NIM10pW2NIXWMoYzEyKW4oW2NIXW4yKVtDSDJdW0NASF0oW09IXSlbQ0gyXU4oW0NIM10pW0NIMl1jM1tjSF1ubihbQ0gzXSlbY0hdMw==

> <s_epik_cmdline>
J2VwaWtfcHl0aG9uJywgJy1waCcsICc3LjAnLCAnLXRuJywgJzgnLCAnLW1hJywgJzIwMCcsICctbWV0YWxfYmluZGluZycsICctaW1hZScsICc8aW5maWxlLm1hZT4nLCAnLW9tYWUnLCAnPG91dGZpbGUubWFlPic=

> <r_lp_tautomer_probability>
1

> <r_epik_Ionization_Penalty>
1.77469

> <r_epik_Ionization_Penalty_Charging>
1.77463

> <r_epik_Ionization_Penalty_Neutral>
6.41153e-05

> <r_epik_State_Penalty>
1.85225

> <r_epik_Charging_Adjusted_Penalty>
3.62688

> <i_epik_Tot_Q>
2

> <i_epik_Tot_abs_Q>
2

> <r_epik_Metal_State_Penalty>
1.92669

> <b_epik_Metal_Only>
0

> <s_lp_Force_Field>
OPLS_2005

> <r_lp_Energy>
22.3184

> <b_lp_Chiralities_Consistent>
1

> <s_lp_Variant>
AV-unprocessed.smi:2027-11

> <Gold.Version>
5.8.1

> <Gold.Id.Protein>
6NUR|6NUR_protein|mol2

> <Gold.PLP.Fitness>
59.2444

> <Gold.PLP.PLP>
-48.1891

> <Gold.PLP.part.hbond>
-2.0000

> <Gold.PLP.part.metal>
0.0000

> <Gold.PLP.part.buried>
-4.9577

> <Gold.PLP.part.nonpolar>
-41.4120

> <Gold.PLP.part.repulsive>
0.2640

> <Gold.PLP.ligand.clash>
0.0000

> <Gold.PLP.ligand.torsion>
2.0714

> <Gold.PLP.Chemscore.Hbond>
4.0000

> <Gold.PLP.Chemscore.CHOScore>
1.0000

> <Gold.PLP.Chemscore.Metal>
0.0000

> <Gold.Chemscore.Hbonds>
donor molecule, donor type, donor heavy atom, donor atom, acceptor molecule, acceptor atom, score
      L1  H     5    51       P1  8028  2.00
      L1  H    12    50       P1  7948  2.00
      L1  C    16    41       P1  7948  1.00

> <Gold.PLP.Chemscore.Internal.Correction>
0.1982

> <Gold.Rescore>
     Score         DG    S(hbond)    S(metal)    S(lipo)     H(rot)  DE(clash)    DE(int)     intcor
     16.08     -18.31       1.80        0.00     114.73       2.58       0.04       2.20       ----

> <Gold.Chemscore.Fitness>
16.0758

> <Gold.Chemscore.DG>
-18.3115

> <Gold.Chemscore.ZeroCoef>
-5.4800

> <Gold.Chemscore.Hbond>
1.8029

> <Gold.Chemscore.Metal>
0.0000

> <Gold.Chemscore.Lipo>
114.7314

> <Gold.Chemscore.Internal_Hbond>
0.0000

> <Gold.Chemscore.DEClash>
0.0361

> <Gold.Chemscore.DEInternal>
2.1995

> <Gold.Chemscore.Rot>
2.5836

> <Gold.Chemscore.Internal.Correction>
   9.000000E+99

> <Gold.Chemscore.Hbonds>
donor molecule, donor type, donor heavy atom, donor atom, acceptor molecule, acceptor atom, score
      L1  H     5    51       P1  8028  0.95
      L1  H    12    50       P1  7948  0.24

> <Gold.Chemscore.Hbond.Weighted>
-6.0218

> <Gold.Chemscore.Metal.Weighted>
-0.0000

> <Gold.Chemscore.Lipo.Weighted>
-13.4236

> <Gold.Chemscore.Internal_Hbond.Weighted>
0.0000

> <Gold.Chemscore.DEClash.Weighted>
0.0361

> <Gold.Chemscore.DEInternal.Weighted>
2.1995

> <Gold.Chemscore.Rot.Weighted>
6.6139

> <Gold.Chemscore.Internal.Correction.Weighted>
   9.000000E+99

> <Gold.Protein.RotatedTorsions>
[ 6907 6896 6895 6894 ] final  -13.09 input  -60.11 | X-H torsion
[ 7974 7965 7964 7962 ] final -121.26 input  175.53 | X-H torsion
[ 8008 7997 7996 7995 ] final -100.96 input   59.86 | X-H torsion
[ 10167 10162 10161 10158 ] final  129.21 input  -65.29 | X-H torsion
[ 10718 10713 10712 10709 ] final  -55.79 input   66.30 | X-H torsion
[ 10763 10752 10751 10750 ] final   -9.53 input  -60.55 | X-H torsion
[ 11005 11000 10999 10996 ] final  -27.56 input  -57.11 | X-H torsion

> <Gold.Protein.ActiveResidues>
 VAL166  LYS551  ARG553  GLY616  TRP617  ASP618  TYR619  PRO620  LYS621  CYS622 
 ASP623  PHE694  ASN695  SER759  ASP760  ASP761  ALA762  ILE779  LEU786  VAL792 
 PHE793  MET794  SER795  GLU796  ALA797  LYS798  CYS799  TRP800  GLU811  SER814 

> <Gold.Protein.RotatedAtoms>
  151.3603  135.0902  159.9431 H   0  0  0  0  0  0  0  0  0  0  0  0  # atno 6907 bound_to 6896
  152.5164  133.9265  159.7570 H   0  0  0  0  0  0  0  0  0  0  0  0  # atno 6908 bound_to 6896
  150.9658  133.6342  159.2776 H   0  0  0  0  0  0  0  0  0  0  0  0  # atno 6909 bound_to 6896
  145.0423  140.8154  143.4259 H   0  0  0  0  0  0  0  0  0  0  0  0  # atno 7974 bound_to 7965
  154.8359  140.0437  157.1508 H   0  0  0  0  0  0  0  0  0  0  0  0  # atno 8008 bound_to 7997
  154.9101  140.3012  155.5251 H   0  0  0  0  0  0  0  0  0  0  0  0  # atno 8009 bound_to 7997
  156.2990  140.2360  156.4139 H   0  0  0  0  0  0  0  0  0  0  0  0  # atno 8010 bound_to 7997
  139.5489  144.6796  151.4386 H   0  0  0  0  0  0  0  0  0  0  0  0  # atno 10167 bound_to 10162
  156.1340  130.4158  150.0218 H   0  0  0  0  0  0  0  0  0  0  0  0  # atno 10718 bound_to 10713
  153.4561  135.7015  153.6079 H   0  0  0  0  0  0  0  0  0  0  0  0  # atno 10763 bound_to 10752
  153.4393  135.3784  155.2218 H   0  0  0  0  0  0  0  0  0  0  0  0  # atno 10764 bound_to 10752
  154.8728  135.3970  154.3980 H   0  0  0  0  0  0  0  0  0  0  0  0  # atno 10765 bound_to 10752
  140.9131  133.7448  156.0697 H   0  0  0  0  0  0  0  0  0  0  0  0  # atno 11005 bound_to 11000
  145.1632  139.2446  143.5381 LP  0  0  0  0  0  0  0  0  0  0  0  0  # atno 17320 bound_to 7965
  146.3510  140.1364  142.8595 LP  0  0  0  0  0  0  0  0  0  0  0  0  # atno 17321 bound_to 7965
  140.6745  143.8219  150.7041 LP  0  0  0  0  0  0  0  0  0  0  0  0  # atno 17342 bound_to 10162
  140.1654  143.4240  152.2038 LP  0  0  0  0  0  0  0  0  0  0  0  0  # atno 17343 bound_to 10162
  156.8122  130.9329  151.3644 LP  0  0  0  0  0  0  0  0  0  0  0  0  # atno 17370 bound_to 10713
  157.6515  130.8888  149.9643 LP  0  0  0  0  0  0  0  0  0  0  0  0  # atno 17371 bound_to 10713
  140.8085  134.3427  157.5419 LP  0  0  0  0  0  0  0  0  0  0  0  0  # atno 17394 bound_to 11000
  139.8761  134.9240  156.3339 LP  0  0  0  0  0  0  0  0  0  0  0  0  # atno 17395 bound_to 11000

$$$$
