AV-unprocessed.smi:2356|AV-procd|sdf|9397|dock1
  -GOLD-   2272013 33D 1   1.00000     0.00000
 Structure written by MMmdl.
 54 57  0  0  0  0  0  0  0  0  2 V2000
  147.1131  142.5368  153.9312 C   0  0  0  0  0  0  0  0  0  0  0  0
  148.2519  141.6518  154.4060 C   0  0  0  0  0  0  0  0  0  0  0  0
  149.1699  142.2060  155.2286 N   0  3  0  0  0  0  0  0  0  0  0  0
  150.2333  141.5389  155.7377 C   0  0  0  0  0  0  0  0  0  0  0  0
  151.1214  142.2290  156.5878 N   0  0  0  0  0  0  0  0  0  0  0  0
  151.0123  143.6739  156.7030 C   0  0  0  0  0  0  0  0  0  0  0  0
  151.9434  144.0668  157.8530 C   0  0  0  0  0  0  0  0  0  0  0  0
  152.1963  142.7724  158.6378 C   0  0  0  0  0  0  0  0  0  0  0  0
  151.4060  141.6851  157.9040 C   0  0  0  0  0  0  0  0  0  0  0  0
  150.4033  140.1794  155.3864 C   0  0  0  0  0  0  0  0  0  0  0  0
  149.4737  139.5545  154.5310 C   0  0  0  0  0  0  0  0  0  0  0  0
  148.3810  140.2970  154.0192 C   0  0  0  0  0  0  0  0  0  0  0  0
  147.3842  139.7431  153.1699 N   0  0  0  0  0  0  0  0  0  0  0  0
  146.7893  138.5359  153.2268 C   0  0  0  0  0  0  0  0  0  0  0  0
  147.0395  137.6702  154.0623 O   0  0  0  0  0  0  0  0  0  0  0  0
  145.8819  138.3267  152.2555 N   0  0  0  0  0  0  0  0  0  0  0  0
  145.0600  137.1360  152.0248 C   0  0  2  0  0  0  0  0  0  0  0  0
  143.7922  137.2046  152.8862 C   0  0  0  0  0  0  0  0  0  0  0  0
  142.9705  135.9144  152.7431 C   0  0  0  0  0  0  0  0  0  0  0  0
  143.7628  134.7794  153.0861 O   0  0  0  0  0  0  0  0  0  0  0  0
  144.9444  134.6001  152.3035 C   0  0  1  0  0  0  0  0  0  0  0  0
  144.6226  134.1724  150.8777 C   0  0  0  0  0  0  0  0  0  0  0  0
  143.9167  132.8641  150.6105 C   0  0  0  0  0  0  0  0  0  0  0  0
  145.3675  133.0311  150.2259 C   0  0  0  0  0  0  0  0  0  0  0  0
  145.8373  135.8541  152.3774 C   0  0  0  0  0  0  0  0  0  0  0  0
  146.1520  142.1068  154.2145 H   0  0  0  0  0  0  0  0  0  0  0  0
  147.1379  142.6377  152.8458 H   0  0  0  0  0  0  0  0  0  0  0  0
  147.1764  143.5354  154.3646 H   0  0  0  0  0  0  0  0  0  0  0  0
  151.2954  144.1720  155.7750 H   0  0  0  0  0  0  0  0  0  0  0  0
  149.9816  143.9446  156.9370 H   0  0  0  0  0  0  0  0  0  0  0  0
  152.8852  144.4534  157.4617 H   0  0  0  0  0  0  0  0  0  0  0  0
  151.5015  144.8458  158.4753 H   0  0  0  0  0  0  0  0  0  0  0  0
  153.2612  142.5368  158.6296 H   0  0  0  0  0  0  0  0  0  0  0  0
  151.8857  142.8555  159.6797 H   0  0  0  0  0  0  0  0  0  0  0  0
  150.4694  141.4754  158.4229 H   0  0  0  0  0  0  0  0  0  0  0  0
  151.9792  140.7596  157.8405 H   0  0  0  0  0  0  0  0  0  0  0  0
  151.2341  139.6022  155.7639 H   0  0  0  0  0  0  0  0  0  0  0  0
  149.6141  138.5107  154.2984 H   0  0  0  0  0  0  0  0  0  0  0  0
  147.1295  140.3150  152.3779 H   0  0  0  0  0  0  0  0  0  0  0  0
  145.7460  139.0830  151.6000 H   0  0  0  0  0  0  0  0  0  0  0  0
  144.7503  137.1050  150.9790 H   0  0  0  0  0  0  0  0  0  0  0  0
  144.0598  137.3446  153.9346 H   0  0  0  0  0  0  0  0  0  0  0  0
  143.1854  138.0647  152.6005 H   0  0  0  0  0  0  0  0  0  0  0  0
  142.1091  135.9481  153.4101 H   0  0  0  0  0  0  0  0  0  0  0  0
  142.5738  135.8159  151.7326 H   0  0  0  0  0  0  0  0  0  0  0  0
  145.4907  133.7785  152.7686 H   0  0  0  0  0  0  0  0  0  0  0  0
  144.3563  134.9901  150.2119 H   0  0  0  0  0  0  0  0  0  0  0  0
  143.6933  132.2249  151.4624 H   0  0  0  0  0  0  0  0  0  0  0  0
  143.1810  132.8461  149.8090 H   0  0  0  0  0  0  0  0  0  0  0  0
  145.5990  133.1224  149.1667 H   0  0  0  0  0  0  0  0  0  0  0  0
  146.1093  132.5026  150.8214 H   0  0  0  0  0  0  0  0  0  0  0  0
  146.7041  135.7323  151.7272 H   0  0  0  0  0  0  0  0  0  0  0  0
  146.2292  135.9427  153.3916 H   0  0  0  0  0  0  0  0  0  0  0  0
  149.0524  143.1865  155.4841 H   0  0  0  0  0  0  0  0  0  0  0  0
  1  2  1  0  0  0  0
  1 26  1  0  0  0  0
  1 27  1  0  0  0  0
  1 28  1  0  0  0  0
  2 12  1  0  0  0  0
  2  3  2  0  0  0  0
  3  4  1  0  0  0  0
  3 54  1  0  0  0  0
  4  5  1  0  0  0  0
  4 10  2  0  0  0  0
  5  9  1  0  0  0  0
  5  6  1  0  0  0  0
  6  7  1  0  0  0  0
  6 29  1  0  0  0  0
  6 30  1  0  0  0  0
  7  8  1  0  0  0  0
  7 31  1  0  0  0  0
  7 32  1  0  0  0  0
  8  9  1  0  0  0  0
  8 33  1  0  0  0  0
  8 34  1  0  0  0  0
  9 35  1  0  0  0  0
  9 36  1  0  0  0  0
 10 11  1  0  0  0  0
 10 37  1  0  0  0  0
 11 12  2  0  0  0  0
 11 38  1  0  0  0  0
 12 13  1  0  0  0  0
 13 14  1  0  0  0  0
 13 39  1  0  0  0  0
 14 15  2  0  0  0  0
 14 16  1  0  0  0  0
 16 17  1  0  0  0  0
 16 40  1  0  0  0  0
 17 25  1  0  0  0  0
 17 18  1  0  0  0  0
 17 41  1  0  0  0  0
 18 19  1  0  0  0  0
 18 42  1  0  0  0  0
 18 43  1  0  0  0  0
 19 20  1  0  0  0  0
 19 44  1  0  0  0  0
 19 45  1  0  0  0  0
 20 21  1  0  0  0  0
 21 22  1  0  0  0  0
 21 25  1  0  0  0  0
 21 46  1  0  0  0  0
 22 24  1  0  0  0  0
 22 23  1  0  0  0  0
 22 47  1  0  0  0  0
 23 24  1  0  0  0  0
 23 48  1  0  0  0  0
 23 49  1  0  0  0  0
 24 50  1  0  0  0  0
 24 51  1  0  0  0  0
 25 52  1  0  0  0  0
 25 53  1  0  0  0  0
M  CHG  1   3   1
M  END
> <s_m_source_file>
AV-unprocessed.smi

> <i_m_source_file_index>
2356

> <i_lp_mmshare_version>
43012

> <i_f3d_flags>
0

> <s_epik_input>
W0NIMl0xW0NIMl1bQ0gyXVtDSDJdTjFjKG5jMltDSDNdKVtjSF1bY0hdYzJbTkhdQyg9TylbTkhdW0NAQEhdM1tDSDJdW0NIMl1PW0NASF0oW0NIMl0zKVtDSF00W0NIMl1bQ0gyXTQ=

> <s_epik_cmdline>
J2VwaWtfcHl0aG9uJywgJy1waCcsICc3LjAnLCAnLXRuJywgJzgnLCAnLW1hJywgJzIwMCcsICctbWV0YWxfYmluZGluZycsICctaW1hZScsICc8aW5maWxlLm1hZT4nLCAnLW9tYWUnLCAnPG91dGZpbGUubWFlPic=

> <r_lp_tautomer_probability>
0.999994

> <r_epik_Ionization_Penalty>
0.534681

> <r_epik_Ionization_Penalty_Charging>
0.534661

> <r_epik_Ionization_Penalty_Neutral>
1.99132e-05

> <r_epik_State_Penalty>
0.543738

> <r_epik_Charging_Adjusted_Penalty>
1.0784

> <i_epik_Tot_Q>
1

> <i_epik_Tot_abs_Q>
1

> <r_epik_Metal_State_Penalty>
0.74699

> <b_epik_Metal_Only>
0

> <s_lp_Force_Field>
OPLS_2005

> <r_lp_Energy>
60.0457

> <b_lp_Chiralities_Consistent>
1

> <s_lp_Variant>
AV-unprocessed.smi:2356-5

> <Gold.Version>
5.8.1

> <Gold.Id.Protein>
6NUR|6NUR_protein|mol2

> <Gold.PLP.Fitness>
49.2550

> <Gold.PLP.PLP>
-44.8052

> <Gold.PLP.part.hbond>
-3.2599

> <Gold.PLP.part.metal>
0.0000

> <Gold.PLP.part.buried>
0.6458

> <Gold.PLP.part.nonpolar>
-42.6534

> <Gold.PLP.part.repulsive>
0.5688

> <Gold.PLP.ligand.clash>
0.0000

> <Gold.PLP.ligand.torsion>
1.4462

> <Gold.PLP.Chemscore.Hbond>
2.0000

> <Gold.PLP.Chemscore.CHOScore>
0.0000

> <Gold.PLP.Chemscore.Metal>
0.0000

> <Gold.Chemscore.Hbonds>
donor molecule, donor type, donor heavy atom, donor atom, acceptor molecule, acceptor atom, score
      L1  H     3    54       P1  8028  2.00

> <Gold.PLP.Chemscore.Internal.Correction>
1.3423

> <Gold.Rescore>
     Score         DG    S(hbond)    S(metal)    S(lipo)     H(rot)  DE(clash)    DE(int)     intcor
     15.63     -18.73       0.99        0.00     113.62       1.31       0.26       2.84       ----

> <Gold.Chemscore.Fitness>
15.6278

> <Gold.Chemscore.DG>
-18.7302

> <Gold.Chemscore.ZeroCoef>
-5.4800

> <Gold.Chemscore.Hbond>
0.9882

> <Gold.Chemscore.Metal>
0.0000

> <Gold.Chemscore.Lipo>
113.6162

> <Gold.Chemscore.Internal_Hbond>
0.0000

> <Gold.Chemscore.DEClash>
0.2628

> <Gold.Chemscore.DEInternal>
2.8397

> <Gold.Chemscore.Rot>
1.3060

> <Gold.Chemscore.Internal.Correction>
   9.000000E+99

> <Gold.Chemscore.Hbonds>
donor molecule, donor type, donor heavy atom, donor atom, acceptor molecule, acceptor atom, score
      L1  H     3    54       P1  8028  0.95

> <Gold.Chemscore.Hbond.Weighted>
-3.3004

> <Gold.Chemscore.Metal.Weighted>
-0.0000

> <Gold.Chemscore.Lipo.Weighted>
-13.2931

> <Gold.Chemscore.Internal_Hbond.Weighted>
0.0000

> <Gold.Chemscore.DEClash.Weighted>
0.2628

> <Gold.Chemscore.DEInternal.Weighted>
2.8397

> <Gold.Chemscore.Rot.Weighted>
3.3433

> <Gold.Chemscore.Internal.Correction.Weighted>
   9.000000E+99

> <Gold.Protein.RotatedTorsions>
[ 6907 6896 6895 6894 ] final  -72.04 input  -60.11 | X-H torsion
[ 7974 7965 7964 7962 ] final   72.10 input  175.53 | X-H torsion
[ 8008 7997 7996 7995 ] final  -59.60 input   59.86 | X-H torsion
[ 10167 10162 10161 10158 ] final   -5.53 input  -65.29 | X-H torsion
[ 10718 10713 10712 10709 ] final   55.17 input   66.30 | X-H torsion
[ 10763 10752 10751 10750 ] final -158.86 input  -60.55 | X-H torsion
[ 11005 11000 10999 10996 ] final -152.73 input  -57.11 | X-H torsion

> <Gold.Protein.ActiveResidues>
 VAL166  LYS551  ARG553  GLY616  TRP617  ASP618  TYR619  PRO620  LYS621  CYS622 
 ASP623  PHE694  ASN695  SER759  ASP760  ASP761  ALA762  ILE779  LEU786  VAL792 
 PHE793  MET794  SER795  GLU796  ALA797  LYS798  CYS799  TRP800  GLU811  SER814 

> <Gold.Protein.RotatedAtoms>
  150.7187  134.5221  159.5658 H   0  0  0  0  0  0  0  0  0  0  0  0  # atno 6907 bound_to 6896
  152.2774  134.7864  160.0412 H   0  0  0  0  0  0  0  0  0  0  0  0  # atno 6908 bound_to 6896
  151.8522  133.3406  159.3713 H   0  0  0  0  0  0  0  0  0  0  0  0  # atno 6909 bound_to 6896
  145.7576  139.2786  143.1395 H   0  0  0  0  0  0  0  0  0  0  0  0  # atno 7974 bound_to 7965
  154.4359  140.1058  156.6140 H   0  0  0  0  0  0  0  0  0  0  0  0  # atno 8008 bound_to 7997
  155.5778  140.3490  155.4513 H   0  0  0  0  0  0  0  0  0  0  0  0  # atno 8009 bound_to 7997
  156.0341  140.1267  157.0216 H   0  0  0  0  0  0  0  0  0  0  0  0  # atno 8010 bound_to 7997
  140.6966  143.6297  150.8534 H   0  0  0  0  0  0  0  0  0  0  0  0  # atno 10167 bound_to 10162
  157.5321  130.8638  149.8702 H   0  0  0  0  0  0  0  0  0  0  0  0  # atno 10718 bound_to 10713
  154.7522  135.3095  154.8535 H   0  0  0  0  0  0  0  0  0  0  0  0  # atno 10763 bound_to 10752
  153.9319  135.6784  153.4749 H   0  0  0  0  0  0  0  0  0  0  0  0  # atno 10764 bound_to 10752
  153.1119  135.4862  154.8978 H   0  0  0  0  0  0  0  0  0  0  0  0  # atno 10765 bound_to 10752
  140.7158  134.3782  157.5191 H   0  0  0  0  0  0  0  0  0  0  0  0  # atno 11005 bound_to 11000
  146.0295  140.8271  142.9883 LP  0  0  0  0  0  0  0  0  0  0  0  0  # atno 17320 bound_to 7965
  144.6837  140.2748  143.7300 LP  0  0  0  0  0  0  0  0  0  0  0  0  # atno 17321 bound_to 7965
  140.0016  143.5738  152.2873 LP  0  0  0  0  0  0  0  0  0  0  0  0  # atno 17342 bound_to 10162
  139.6430  144.7656  151.2301 LP  0  0  0  0  0  0  0  0  0  0  0  0  # atno 17343 bound_to 10162
  156.0430  130.3734  150.1387 LP  0  0  0  0  0  0  0  0  0  0  0  0  # atno 17370 bound_to 10713
  156.9571  130.9793  151.3487 LP  0  0  0  0  0  0  0  0  0  0  0  0  # atno 17371 bound_to 10713
  139.8860  134.8921  156.2609 LP  0  0  0  0  0  0  0  0  0  0  0  0  # atno 17394 bound_to 11000
  141.0046  133.7131  156.1014 LP  0  0  0  0  0  0  0  0  0  0  0  0  # atno 17395 bound_to 11000

$$$$
