AV-unprocessed.smi:2175|AV-procd|sdf|8845|dock6
  -GOLD-   2272012 33D 1   1.00000     0.00000
 Structure written by MMmdl.
 33 34  0  0  0  0  0  0  0  0  2 V2000
  151.4670  136.0047  154.5447 C   0  0  0  0  0  0  0  0  0  0  0  0
  151.2276  137.4756  154.8097 C   0  0  0  0  0  0  0  0  0  0  0  0
  150.1613  138.0243  154.3668 N   0  0  0  0  0  0  0  0  0  0  0  0
  149.9328  139.3888  154.6116 C   0  0  0  0  0  0  0  0  0  0  0  0
  148.6377  139.9539  154.0546 C   0  0  0  0  0  0  0  0  0  0  0  0
  150.8306  140.1408  155.3110 C   0  0  0  0  0  0  0  0  0  0  0  0
  150.6214  141.6250  155.6104 C   0  0  0  0  0  0  0  0  0  0  0  0
  150.6762  142.0202  157.0882 C   0  0  0  0  0  0  0  0  0  0  0  0
  151.2827  141.3195  157.8984 O   0  0  0  0  0  0  0  0  0  0  0  0
  150.0398  143.1523  157.4246 N   0  0  0  0  0  0  0  0  0  0  0  0
  149.9817  143.7130  158.7680 C   0  0  0  0  0  0  0  0  0  0  0  0
  150.7509  145.0067  158.9561 C   0  0  0  0  0  0  0  0  0  0  0  0
  152.2537  145.0489  158.8086 C   0  0  0  0  0  0  0  0  0  0  0  0
  151.6247  145.2059  160.1723 C   0  0  0  0  0  0  0  0  0  0  0  0
  152.0502  139.4715  155.7989 C   0  0  0  0  0  0  0  0  0  0  0  0
  152.8996  140.1055  156.4238 O   0  0  0  0  0  0  0  0  0  0  0  0
  152.1937  138.1425  155.5287 N   0  5  0  0  0  0  0  0  0  0  0  0
  150.7343  135.6082  153.8404 H   0  0  0  0  0  0  0  0  0  0  0  0
  151.3919  135.4386  155.4734 H   0  0  0  0  0  0  0  0  0  0  0  0
  152.4610  135.8506  154.1236 H   0  0  0  0  0  0  0  0  0  0  0  0
  147.9942  140.3032  154.8622 H   0  0  0  0  0  0  0  0  0  0  0  0
  148.0877  139.1986  153.4917 H   0  0  0  0  0  0  0  0  0  0  0  0
  148.8391  140.7887  153.3832 H   0  0  0  0  0  0  0  0  0  0  0  0
  151.3786  142.1891  155.0646 H   0  0  0  0  0  0  0  0  0  0  0  0
  149.6731  141.9743  155.2012 H   0  0  0  0  0  0  0  0  0  0  0  0
  149.5658  143.6640  156.6946 H   0  0  0  0  0  0  0  0  0  0  0  0
  148.9409  143.8822  159.0483 H   0  0  0  0  0  0  0  0  0  0  0  0
  150.3651  142.9641  159.4618 H   0  0  0  0  0  0  0  0  0  0  0  0
  150.2112  145.8910  158.6220 H   0  0  0  0  0  0  0  0  0  0  0  0
  152.7696  144.1140  158.5979 H   0  0  0  0  0  0  0  0  0  0  0  0
  152.6875  145.9345  158.3489 H   0  0  0  0  0  0  0  0  0  0  0  0
  151.6411  146.1962  160.6229 H   0  0  0  0  0  0  0  0  0  0  0  0
  151.7241  144.3754  160.8683 H   0  0  0  0  0  0  0  0  0  0  0  0
  1  2  1  0  0  0  0
  1 18  1  0  0  0  0
  1 19  1  0  0  0  0
  1 20  1  0  0  0  0
  2 17  1  0  0  0  0
  2  3  2  0  0  0  0
  3  4  1  0  0  0  0
  4  5  1  0  0  0  0
  4  6  2  0  0  0  0
  5 21  1  0  0  0  0
  5 22  1  0  0  0  0
  5 23  1  0  0  0  0
  6  7  1  0  0  0  0
  6 15  1  0  0  0  0
  7  8  1  0  0  0  0
  7 24  1  0  0  0  0
  7 25  1  0  0  0  0
  8  9  2  0  0  0  0
  8 10  1  0  0  0  0
 10 11  1  0  0  0  0
 10 26  1  0  0  0  0
 11 12  1  0  0  0  0
 11 27  1  0  0  0  0
 11 28  1  0  0  0  0
 12 14  1  0  0  0  0
 12 13  1  0  0  0  0
 12 29  1  0  0  0  0
 13 14  1  0  0  0  0
 13 30  1  0  0  0  0
 13 31  1  0  0  0  0
 14 32  1  0  0  0  0
 14 33  1  0  0  0  0
 15 16  2  0  0  0  0
 15 17  1  0  0  0  0
M  CHG  1  17  -1
M  END
> <s_m_source_file>
AV-unprocessed.smi

> <i_m_source_file_index>
2175

> <i_lp_mmshare_version>
43012

> <i_f3d_flags>
0

> <s_epik_input>
W0NIM11jMW5jKFtDSDNdKWMoYyg9TylbbkhdMSlbQ0gyXUMoPU8pW05IXVtDSDJdW0NIXTJbQ0gyXVtDSDJdMg==

> <s_epik_cmdline>
J2VwaWtfcHl0aG9uJywgJy1waCcsICc3LjAnLCAnLXRuJywgJzgnLCAnLW1hJywgJzIwMCcsICctbWV0YWxfYmluZGluZycsICctaW1hZScsICc8aW5maWxlLm1hZT4nLCAnLW9tYWUnLCAnPG91dGZpbGUubWFlPic=

> <r_lp_tautomer_probability>
0.839158

> <r_epik_Ionization_Penalty>
6.60351

> <r_epik_Ionization_Penalty_Charging>
6.70818e-08

> <r_epik_Ionization_Penalty_Neutral>
6.60351

> <r_epik_State_Penalty>
4.42903

> <r_epik_Charging_Adjusted_Penalty>
4.42903

> <i_epik_Tot_Q>
-1

> <i_epik_Tot_abs_Q>
1

> <r_epik_Metal_State_Penalty>
0.797668

> <b_epik_Metal_Only>
1

> <s_lp_Force_Field>
OPLS_2005

> <r_lp_Energy>
17.43

> <b_lp_Chiralities_Consistent>
1

> <s_lp_Variant>
AV-unprocessed.smi:2175-3

> <Gold.Version>
5.8.1

> <Gold.Id.Protein>
6NUR|6NUR_protein|mol2

> <Gold.PLP.Fitness>
40.4204

> <Gold.PLP.PLP>
-35.3015

> <Gold.PLP.part.hbond>
-2.0000

> <Gold.PLP.part.metal>
0.0000

> <Gold.PLP.part.buried>
-2.5459

> <Gold.PLP.part.nonpolar>
-29.5830

> <Gold.PLP.part.repulsive>
0.2579

> <Gold.PLP.ligand.clash>
0.0000

> <Gold.PLP.ligand.torsion>
0.7117

> <Gold.PLP.Chemscore.Hbond>
2.0000

> <Gold.PLP.Chemscore.CHOScore>
0.0000

> <Gold.PLP.Chemscore.Metal>
0.0000

> <Gold.Chemscore.Hbonds>
donor molecule, donor type, donor heavy atom, donor atom, acceptor molecule, acceptor atom, score
      L1  H    10    26       P1  8028  1.00
      P1  H  7997  8010       L1    16  0.81

> <Gold.PLP.Chemscore.Internal.Correction>
0.5423

> <Gold.Rescore>
     Score         DG    S(hbond)    S(metal)    S(lipo)     H(rot)  DE(clash)    DE(int)     intcor
     14.52     -16.50       1.98        0.00      74.91       1.70       0.08       1.91       ----

> <Gold.Chemscore.Fitness>
14.5153

> <Gold.Chemscore.DG>
-16.5032

> <Gold.Chemscore.ZeroCoef>
-5.4800

> <Gold.Chemscore.Hbond>
1.9800

> <Gold.Chemscore.Metal>
0.0000

> <Gold.Chemscore.Lipo>
74.9086

> <Gold.Chemscore.Internal_Hbond>
0.0000

> <Gold.Chemscore.DEClash>
0.0813

> <Gold.Chemscore.DEInternal>
1.9067

> <Gold.Chemscore.Rot>
1.7009

> <Gold.Chemscore.Internal.Correction>
   9.000000E+99

> <Gold.Chemscore.Hbonds>
donor molecule, donor type, donor heavy atom, donor atom, acceptor molecule, acceptor atom, score
      L1  H    10    26       P1  8028  0.98
      P1  H  7997  8010       L1    16  0.77

> <Gold.Chemscore.Hbond.Weighted>
-6.6132

> <Gold.Chemscore.Metal.Weighted>
-0.0000

> <Gold.Chemscore.Lipo.Weighted>
-8.7643

> <Gold.Chemscore.Internal_Hbond.Weighted>
0.0000

> <Gold.Chemscore.DEClash.Weighted>
0.0813

> <Gold.Chemscore.DEInternal.Weighted>
1.9067

> <Gold.Chemscore.Rot.Weighted>
4.3543

> <Gold.Chemscore.Internal.Correction.Weighted>
   9.000000E+99

> <Gold.Protein.RotatedTorsions>
[ 6907 6896 6895 6894 ] final  161.83 input  -60.11 | X-H torsion
[ 7974 7965 7964 7962 ] final -120.91 input  175.53 | X-H torsion
[ 8008 7997 7996 7995 ] final   84.09 input   59.86 | X-H torsion
[ 10167 10162 10161 10158 ] final   10.18 input  -65.29 | X-H torsion
[ 10718 10713 10712 10709 ] final  152.09 input   66.30 | X-H torsion
[ 10763 10752 10751 10750 ] final  -37.43 input  -60.55 | X-H torsion
[ 11005 11000 10999 10996 ] final  -60.67 input  -57.11 | X-H torsion

> <Gold.Protein.ActiveResidues>
 VAL166  LYS551  ARG553  GLY616  TRP617  ASP618  TYR619  PRO620  LYS621  CYS622 
 ASP623  PHE694  ASN695  SER759  ASP760  ASP761  ALA762  ILE779  LEU786  VAL792 
 PHE793  MET794  SER795  GLU796  ALA797  LYS798  CYS799  TRP800  GLU811  SER814 

> <Gold.Protein.RotatedAtoms>
  151.9497  133.3662  159.3995 H   0  0  0  0  0  0  0  0  0  0  0  0  # atno 6907 bound_to 6896
  150.6983  134.4353  159.5276 H   0  0  0  0  0  0  0  0  0  0  0  0  # atno 6908 bound_to 6896
  152.2024  134.8576  160.0557 H   0  0  0  0  0  0  0  0  0  0  0  0  # atno 6909 bound_to 6896
  145.0462  140.8183  143.4237 H   0  0  0  0  0  0  0  0  0  0  0  0  # atno 7974 bound_to 7965
  155.9324  140.3414  155.6260 H   0  0  0  0  0  0  0  0  0  0  0  0  # atno 8008 bound_to 7997
  155.7140  140.0775  157.2377 H   0  0  0  0  0  0  0  0  0  0  0  0  # atno 8009 bound_to 7997
  154.4087  140.1617  156.2316 H   0  0  0  0  0  0  0  0  0  0  0  0  # atno 8010 bound_to 7997
  140.6210  143.8205  150.7175 H   0  0  0  0  0  0  0  0  0  0  0  0  # atno 10167 bound_to 10162
  157.2622  131.0800  151.1657 H   0  0  0  0  0  0  0  0  0  0  0  0  # atno 10718 bound_to 10713
  153.8962  135.6807  153.4758 H   0  0  0  0  0  0  0  0  0  0  0  0  # atno 10763 bound_to 10752
  153.1154  135.4764  154.9104 H   0  0  0  0  0  0  0  0  0  0  0  0  # atno 10764 bound_to 10752
  154.7598  135.3207  154.8354 H   0  0  0  0  0  0  0  0  0  0  0  0  # atno 10765 bound_to 10752
  141.1296  133.6624  156.5259 H   0  0  0  0  0  0  0  0  0  0  0  0  # atno 11005 bound_to 11000
  145.1585  139.2472  143.5404 LP  0  0  0  0  0  0  0  0  0  0  0  0  # atno 17320 bound_to 7965
  146.3514  140.1306  142.8597 LP  0  0  0  0  0  0  0  0  0  0  0  0  # atno 17321 bound_to 7965
  140.1795  143.4127  152.1943 LP  0  0  0  0  0  0  0  0  0  0  0  0  # atno 17342 bound_to 10162
  139.5438  144.7281  151.4647 LP  0  0  0  0  0  0  0  0  0  0  0  0  # atno 17343 bound_to 10162
  157.3162  130.6914  149.6243 LP  0  0  0  0  0  0  0  0  0  0  0  0  # atno 17370 bound_to 10713
  155.9664  130.4349  150.5067 LP  0  0  0  0  0  0  0  0  0  0  0  0  # atno 17371 bound_to 10713
  140.4255  134.7149  157.4913 LP  0  0  0  0  0  0  0  0  0  0  0  0  # atno 17394 bound_to 11000
  140.0330  134.6378  155.9081 LP  0  0  0  0  0  0  0  0  0  0  0  0  # atno 17395 bound_to 11000

$$$$
