AV-unprocessed.smi:3045|AV-procd|sdf|11610|dock6
  -GOLD-   2272016593D 1   1.00000     0.00000
 Structure written by MMmdl.
 35 36  0  0  0  0  0  0  0  0  1 V2000
  151.9020  145.0401  161.3456 C   0  0  0  0  0  0  0  0  0  0  0  0
  152.4310  143.7953  160.8053 N   0  0  0  0  0  0  0  0  0  0  0  0
  152.5625  143.5944  159.3721 C   0  0  0  0  0  0  0  0  0  0  0  0
  152.9909  142.1201  159.1995 C   0  0  2  0  0  0  0  0  0  0  0  0
  151.8817  141.2470  158.5936 C   0  0  0  0  0  0  0  0  0  0  0  0
  151.4487  140.2763  159.2155 O   0  0  0  0  0  0  0  0  0  0  0  0
  151.4493  141.5932  157.3704 N   0  0  0  0  0  0  0  0  0  0  0  0
  150.4654  140.8585  156.5790 C   0  0  0  0  0  0  0  0  0  0  0  0
  150.0512  141.6248  155.3073 C   0  0  0  0  0  0  0  0  0  0  0  0
  148.8725  141.0038  154.5772 C   0  0  0  0  0  0  0  0  0  0  0  0
  148.8902  139.6484  154.1873 C   0  0  0  0  0  0  0  0  0  0  0  0
  147.7599  139.1138  153.5402 C   0  0  0  0  0  0  0  0  0  0  0  0
  146.6580  139.9605  153.3069 C   0  0  0  0  0  0  0  0  0  0  0  0
  146.6318  141.2607  153.6702 N   0  0  0  0  0  0  0  0  0  0  0  0
  147.7192  141.7650  154.2917 C   0  0  0  0  0  0  0  0  0  0  0  0
  153.3597  141.6395  160.6179 C   0  0  0  0  0  0  0  0  0  0  0  0
  152.8880  142.7650  161.5225 C   0  0  0  0  0  0  0  0  0  0  0  0
  152.9304  142.6974  162.7499 O   0  0  0  0  0  0  0  0  0  0  0  0
  152.6985  145.6183  161.8154 H   0  0  0  0  0  0  0  0  0  0  0  0
  151.1343  144.8406  162.0943 H   0  0  0  0  0  0  0  0  0  0  0  0
  151.4559  145.6517  160.5607 H   0  0  0  0  0  0  0  0  0  0  0  0
  151.6267  143.8322  158.8630 H   0  0  0  0  0  0  0  0  0  0  0  0
  153.3274  144.2677  158.9828 H   0  0  0  0  0  0  0  0  0  0  0  0
  153.8703  142.0733  158.5547 H   0  0  0  0  0  0  0  0  0  0  0  0
  151.8608  142.4078  156.9385 H   0  0  0  0  0  0  0  0  0  0  0  0
  150.8446  139.8699  156.3147 H   0  0  0  0  0  0  0  0  0  0  0  0
  149.5878  140.6871  157.2026 H   0  0  0  0  0  0  0  0  0  0  0  0
  149.7963  142.6528  155.5667 H   0  0  0  0  0  0  0  0  0  0  0  0
  150.8999  141.6870  154.6250 H   0  0  0  0  0  0  0  0  0  0  0  0
  149.7487  139.0247  154.3892 H   0  0  0  0  0  0  0  0  0  0  0  0
  147.7358  138.0787  153.2331 H   0  0  0  0  0  0  0  0  0  0  0  0
  145.7741  139.5830  152.8144 H   0  0  0  0  0  0  0  0  0  0  0  0
  147.6634  142.8046  154.5796 H   0  0  0  0  0  0  0  0  0  0  0  0
  152.8826  140.6999  160.9016 H   0  0  0  0  0  0  0  0  0  0  0  0
  154.4378  141.5145  160.7230 H   0  0  0  0  0  0  0  0  0  0  0  0
  1  2  1  0  0  0  0
  1 19  1  0  0  0  0
  1 20  1  0  0  0  0
  1 21  1  0  0  0  0
  2 17  1  0  0  0  0
  2  3  1  0  0  0  0
  3  4  1  0  0  0  0
  3 22  1  0  0  0  0
  3 23  1  0  0  0  0
  4  5  1  0  0  0  0
  4 16  1  0  0  0  0
  4 24  1  0  0  0  0
  5  6  2  0  0  0  0
  5  7  1  0  0  0  0
  7  8  1  0  0  0  0
  7 25  1  0  0  0  0
  8  9  1  0  0  0  0
  8 26  1  0  0  0  0
  8 27  1  0  0  0  0
  9 10  1  0  0  0  0
  9 28  1  0  0  0  0
  9 29  1  0  0  0  0
 10 15  1  0  0  0  0
 10 11  2  0  0  0  0
 11 12  1  0  0  0  0
 11 30  1  0  0  0  0
 12 13  2  0  0  0  0
 12 31  1  0  0  0  0
 13 14  1  0  0  0  0
 13 32  1  0  0  0  0
 14 15  2  0  0  0  0
 15 33  1  0  0  0  0
 16 17  1  0  0  0  0
 16 34  1  0  0  0  0
 16 35  1  0  0  0  0
 17 18  2  0  0  0  0
M  END
> <s_m_source_file>
AV-unprocessed.smi

> <i_m_source_file_index>
3045

> <i_lp_mmshare_version>
43012

> <i_f3d_flags>
0

> <s_epik_input>
W0NIM11OMVtDSDJdW0NASF0oW0NIMl1DMT1PKUMoPU8pW05IXVtDSDJdW0NIMl1jMltjSF1bY0hdW2NIXW5bY0hdMg==

> <s_epik_cmdline>
J2VwaWtfcHl0aG9uJywgJy1waCcsICc3LjAnLCAnLXRuJywgJzgnLCAnLW1hJywgJzIwMCcsICctbWV0YWxfYmluZGluZycsICctaW1hZScsICc8aW5maWxlLm1hZT4nLCAnLW9tYWUnLCAnPG91dGZpbGUubWFlPic=

> <r_epik_Ionization_Penalty>
0.0130932

> <r_epik_Ionization_Penalty_Charging>
0

> <r_epik_Ionization_Penalty_Neutral>
0.0130932

> <r_epik_State_Penalty>
0.0101714

> <r_epik_Charging_Adjusted_Penalty>
0.0101714

> <i_epik_Tot_Q>
0

> <i_epik_Tot_abs_Q>
0

> <r_epik_Metal_State_Penalty>
0.00995082

> <b_epik_Metal_Only>
0

> <s_lp_Force_Field>
OPLS_2005

> <r_lp_Energy>
10.4335

> <b_lp_Chiralities_Consistent>
1

> <s_lp_Variant>
AV-unprocessed.smi:3045-2

> <Gold.Version>
5.8.1

> <Gold.Id.Protein>
6NUR|6NUR_protein|mol2

> <Gold.PLP.Fitness>
42.9536

> <Gold.PLP.PLP>
-37.1375

> <Gold.PLP.part.hbond>
0.0000

> <Gold.PLP.part.metal>
0.0000

> <Gold.PLP.part.buried>
0.5467

> <Gold.PLP.part.nonpolar>
-36.8502

> <Gold.PLP.part.repulsive>
0.4024

> <Gold.PLP.ligand.clash>
0.0000

> <Gold.PLP.ligand.torsion>
0.0856

> <Gold.PLP.Chemscore.Hbond>
0.0000

> <Gold.PLP.Chemscore.CHOScore>
1.9910

> <Gold.PLP.Chemscore.Metal>
0.0000

> <Gold.Chemscore.Hbonds>
donor molecule, donor type, donor heavy atom, donor atom, acceptor molecule, acceptor atom, score
      L1  C    13    32       P1 10175  1.00
      L1  C    15    33       P1  8028  1.00

> <Gold.PLP.Chemscore.Internal.Correction>
0.0144

> <Gold.Rescore>
     Score         DG    S(hbond)    S(metal)    S(lipo)     H(rot)  DE(clash)    DE(int)     intcor
     11.87     -12.38       0.00        0.00      94.45       1.62       0.40       0.12       ----

> <Gold.Chemscore.Fitness>
11.8670

> <Gold.Chemscore.DG>
-12.3811

> <Gold.Chemscore.ZeroCoef>
-5.4800

> <Gold.Chemscore.Hbond>
0.0000

> <Gold.Chemscore.Metal>
0.0000

> <Gold.Chemscore.Lipo>
94.4516

> <Gold.Chemscore.Internal_Hbond>
0.0000

> <Gold.Chemscore.DEClash>
0.3969

> <Gold.Chemscore.DEInternal>
0.1171

> <Gold.Chemscore.Rot>
1.6210

> <Gold.Chemscore.Internal.Correction>
   9.000000E+99

> <Gold.Chemscore.Hbond.Weighted>
-0.0000

> <Gold.Chemscore.Metal.Weighted>
-0.0000

> <Gold.Chemscore.Lipo.Weighted>
-11.0508

> <Gold.Chemscore.Internal_Hbond.Weighted>
0.0000

> <Gold.Chemscore.DEClash.Weighted>
0.3969

> <Gold.Chemscore.DEInternal.Weighted>
0.1171

> <Gold.Chemscore.Rot.Weighted>
4.1498

> <Gold.Chemscore.Internal.Correction.Weighted>
   9.000000E+99

> <Gold.Protein.RotatedTorsions>
[ 6907 6896 6895 6894 ] final   12.03 input  -60.11 | X-H torsion
[ 7974 7965 7964 7962 ] final  106.22 input  175.53 | X-H torsion
[ 8008 7997 7996 7995 ] final   63.47 input   59.86 | X-H torsion
[ 10167 10162 10161 10158 ] final -151.35 input  -65.29 | X-H torsion
[ 10718 10713 10712 10709 ] final   73.91 input   66.30 | X-H torsion
[ 10763 10752 10751 10750 ] final  152.58 input  -60.55 | X-H torsion
[ 11005 11000 10999 10996 ] final -104.61 input  -57.11 | X-H torsion

> <Gold.Protein.ActiveResidues>
 VAL166  LYS551  ARG553  GLY616  TRP617  ASP618  TYR619  PRO620  LYS621  CYS622 
 ASP623  PHE694  ASN695  SER759  ASP760  ASP761  ALA762  ILE779  LEU786  VAL792 
 PHE793  MET794  SER795  GLU796  ALA797  LYS798  CYS799  TRP800  GLU811  SER814 

> <Gold.Protein.RotatedAtoms>
  151.7638  135.0803  160.0349 H   0  0  0  0  0  0  0  0  0  0  0  0  # atno 6907 bound_to 6896
  152.3335  133.5981  159.5835 H   0  0  0  0  0  0  0  0  0  0  0  0  # atno 6908 bound_to 6896
  150.7436  133.9747  159.3599 H   0  0  0  0  0  0  0  0  0  0  0  0  # atno 6909 bound_to 6896
  145.3095  139.2545  143.3771 H   0  0  0  0  0  0  0  0  0  0  0  0  # atno 7974 bound_to 7965
  155.6307  140.3496  155.4682 H   0  0  0  0  0  0  0  0  0  0  0  0  # atno 8008 bound_to 7997
  156.0005  140.1212  157.0575 H   0  0  0  0  0  0  0  0  0  0  0  0  # atno 8009 bound_to 7997
  154.4247  140.1101  156.5677 H   0  0  0  0  0  0  0  0  0  0  0  0  # atno 8010 bound_to 7997
  139.7275  143.8860  152.2524 H   0  0  0  0  0  0  0  0  0  0  0  0  # atno 10167 bound_to 10162
  157.6569  130.9652  150.1136 H   0  0  0  0  0  0  0  0  0  0  0  0  # atno 10718 bound_to 10713
  154.1223  135.2832  155.3205 H   0  0  0  0  0  0  0  0  0  0  0  0  # atno 10763 bound_to 10752
  154.6414  135.5401  153.7797 H   0  0  0  0  0  0  0  0  0  0  0  0  # atno 10764 bound_to 10752
  153.0308  135.6487  154.1377 H   0  0  0  0  0  0  0  0  0  0  0  0  # atno 10765 bound_to 10752
  141.1092  133.8738  157.1632 H   0  0  0  0  0  0  0  0  0  0  0  0  # atno 11005 bound_to 11000
  146.3123  140.3628  142.8666 LP  0  0  0  0  0  0  0  0  0  0  0  0  # atno 17320 bound_to 7965
  144.9027  140.7663  143.5856 LP  0  0  0  0  0  0  0  0  0  0  0  0  # atno 17321 bound_to 7965
  139.8773  144.7036  150.8918 LP  0  0  0  0  0  0  0  0  0  0  0  0  # atno 17342 bound_to 10162
  140.7765  143.3689  151.1686 LP  0  0  0  0  0  0  0  0  0  0  0  0  # atno 17343 bound_to 10162
  156.2026  130.3661  149.8769 LP  0  0  0  0  0  0  0  0  0  0  0  0  # atno 17370 bound_to 10713
  156.6669  130.8804  151.3556 LP  0  0  0  0  0  0  0  0  0  0  0  0  # atno 17371 bound_to 10713
  139.9977  135.0040  157.0120 LP  0  0  0  0  0  0  0  0  0  0  0  0  # atno 17394 bound_to 11000
  140.4820  134.1279  155.7218 LP  0  0  0  0  0  0  0  0  0  0  0  0  # atno 17395 bound_to 11000

$$$$
