AV-unprocessed.smi:418|AV-procd|sdf|2528|dock4
  -GOLD-   2262022483D 1   1.00000     0.00000
 Structure written by MMmdl.
 40 42  0  0  0  0  0  0  0  0  1 V2000
  154.3711  140.6569  160.9957 C   0  0  0  0  0  0  0  0  0  0  0  0
  153.2820  140.5300  160.0347 N   0  0  0  0  0  0  0  0  0  0  0  0
  152.7165  139.3839  159.5886 C   0  0  0  0  0  0  0  0  0  0  0  0
  153.0324  138.2418  159.9215 O   0  0  0  0  0  0  0  0  0  0  0  0
  151.7444  139.7129  158.7047 N   0  0  0  0  0  0  0  0  0  0  0  0
  150.8800  138.7848  157.9783 C   0  0  0  0  0  0  0  0  0  0  0  0
  150.2062  137.7718  158.9261 C   0  0  2  0  0  0  0  0  0  0  0  0
  151.0593  136.6547  159.0739 O   0  0  0  0  0  0  0  0  0  0  0  0
  148.8718  137.2559  158.3666 C   0  0  0  0  0  0  0  0  0  0  0  0
  148.6849  135.9139  158.7966 O   0  0  0  0  0  0  0  0  0  0  0  0
  148.2837  135.6913  160.0964 C   0  0  0  0  0  0  0  0  0  0  0  0
  148.1841  136.7057  161.0828 C   0  0  0  0  0  0  0  0  0  0  0  0
  147.7698  136.3898  162.3915 C   0  0  0  0  0  0  0  0  0  0  0  0
  147.4492  135.0626  162.7306 C   0  0  0  0  0  0  0  0  0  0  0  0
  147.5417  134.0503  161.7580 C   0  0  0  0  0  0  0  0  0  0  0  0
  147.9559  134.3646  160.4491 C   0  0  0  0  0  0  0  0  0  0  0  0
  148.0416  133.3802  159.5224 F   0  0  0  0  0  0  0  0  0  0  0  0
  151.6923  141.1084  158.5769 C   0  0  0  0  0  0  0  0  0  0  0  0
  150.8762  141.9382  157.7881 C   0  0  0  0  0  0  0  0  0  0  0  0
  151.0829  143.3339  157.8907 C   0  0  0  0  0  0  0  0  0  0  0  0
  152.0755  143.8606  158.7576 C   0  0  0  0  0  0  0  0  0  0  0  0
  152.8847  143.0026  159.5389 C   0  0  0  0  0  0  0  0  0  0  0  0
  152.6591  141.6211  159.4160 C   0  0  0  0  0  0  0  0  0  0  0  0
  154.7296  139.6864  161.3411 H   0  0  0  0  0  0  0  0  0  0  0  0
  154.0400  141.2235  161.8662 H   0  0  0  0  0  0  0  0  0  0  0  0
  155.2119  141.1840  160.5443 H   0  0  0  0  0  0  0  0  0  0  0  0
  150.1173  139.3775  157.4707 H   0  0  0  0  0  0  0  0  0  0  0  0
  151.4275  138.2779  157.1827 H   0  0  0  0  0  0  0  0  0  0  0  0
  150.0320  138.2110  159.9094 H   0  0  0  0  0  0  0  0  0  0  0  0
  151.8765  136.8429  158.6383 H   0  0  0  0  0  0  0  0  0  0  0  0
  148.0532  137.8924  158.7077 H   0  0  0  0  0  0  0  0  0  0  0  0
  148.8923  137.2836  157.2756 H   0  0  0  0  0  0  0  0  0  0  0  0
  148.4194  137.7352  160.8607 H   0  0  0  0  0  0  0  0  0  0  0  0
  147.6985  137.1687  163.1364 H   0  0  0  0  0  0  0  0  0  0  0  0
  147.1324  134.8213  163.7346 H   0  0  0  0  0  0  0  0  0  0  0  0
  147.2962  133.0305  162.0157 H   0  0  0  0  0  0  0  0  0  0  0  0
  150.1230  141.5332  157.1285 H   0  0  0  0  0  0  0  0  0  0  0  0
  150.4775  144.0069  157.3016 H   0  0  0  0  0  0  0  0  0  0  0  0
  152.2158  144.9296  158.8210 H   0  0  0  0  0  0  0  0  0  0  0  0
  153.6434  143.3952  160.1999 H   0  0  0  0  0  0  0  0  0  0  0  0
  1  2  1  0  0  0  0
  1 24  1  0  0  0  0
  1 25  1  0  0  0  0
  1 26  1  0  0  0  0
  2 23  1  0  0  0  0
  2  3  1  0  0  0  0
  3  4  2  0  0  0  0
  3  5  1  0  0  0  0
  5  6  1  0  0  0  0
  5 18  1  0  0  0  0
  6  7  1  0  0  0  0
  6 27  1  0  0  0  0
  6 28  1  0  0  0  0
  7  8  1  0  0  0  0
  7  9  1  0  0  0  0
  7 29  1  0  0  0  0
  8 30  1  0  0  0  0
  9 10  1  0  0  0  0
  9 31  1  0  0  0  0
  9 32  1  0  0  0  0
 10 11  1  0  0  0  0
 11 16  1  0  0  0  0
 11 12  2  0  0  0  0
 12 13  1  0  0  0  0
 12 33  1  0  0  0  0
 13 14  2  0  0  0  0
 13 34  1  0  0  0  0
 14 15  1  0  0  0  0
 14 35  1  0  0  0  0
 15 16  2  0  0  0  0
 15 36  1  0  0  0  0
 16 17  1  0  0  0  0
 18 23  2  0  0  0  0
 18 19  1  0  0  0  0
 19 20  2  0  0  0  0
 19 37  1  0  0  0  0
 20 21  1  0  0  0  0
 20 38  1  0  0  0  0
 21 22  2  0  0  0  0
 21 39  1  0  0  0  0
 22 23  1  0  0  0  0
 22 40  1  0  0  0  0
M  END
> <s_m_source_file>
AV-unprocessed.smi

> <i_m_source_file_index>
418

> <i_lp_mmshare_version>
43012

> <i_f3d_flags>
0

> <s_epik_input>
W2NIXTFbY0hdW2NIXVtjSF1jKGMxMiluKFtDSDNdKWMoPU8pbjJbQ0gyXVtDQEhdKFtPSF0pW0NIMl1PYzNbY0hdW2NIXVtjSF1bY0hdYzNG

> <s_epik_cmdline>
J2VwaWtfcHl0aG9uJywgJy1waCcsICc3LjAnLCAnLXRuJywgJzgnLCAnLW1hJywgJzIwMCcsICctbWV0YWxfYmluZGluZycsICctaW1hZScsICc8aW5maWxlLm1hZT4nLCAnLW9tYWUnLCAnPG91dGZpbGUubWFlPic=

> <r_lp_tautomer_probability>
1

> <r_epik_Ionization_Penalty>
2.40171e-06

> <r_epik_Ionization_Penalty_Charging>
2.41238e-09

> <r_epik_Ionization_Penalty_Neutral>
2.3993e-06

> <r_epik_State_Penalty>
-0

> <r_epik_Charging_Adjusted_Penalty>
2.41238e-09

> <i_epik_Tot_Q>
0

> <i_epik_Tot_abs_Q>
0

> <r_epik_Metal_State_Penalty>
-0

> <b_epik_Metal_Only>
0

> <s_lp_Force_Field>
OPLS_2005

> <r_lp_Energy>
46.4637

> <b_lp_Chiralities_Consistent>
1

> <s_lp_Variant>
AV-unprocessed.smi:418-1

> <Gold.Version>
5.8.1

> <Gold.Id.Protein>
6NUR|6NUR_protein|mol2

> <Gold.PLP.Fitness>
49.2053

> <Gold.PLP.PLP>
-48.0365

> <Gold.PLP.part.hbond>
-1.0000

> <Gold.PLP.part.metal>
0.0000

> <Gold.PLP.part.buried>
-2.9689

> <Gold.PLP.part.nonpolar>
-44.0595

> <Gold.PLP.part.repulsive>
0.0000

> <Gold.PLP.ligand.clash>
0.0000

> <Gold.PLP.ligand.torsion>
0.9330

> <Gold.PLP.Chemscore.Hbond>
1.0000

> <Gold.PLP.Chemscore.CHOScore>
0.0000

> <Gold.PLP.Chemscore.Metal>
0.0000

> <Gold.Chemscore.Hbonds>
donor molecule, donor type, donor heavy atom, donor atom, acceptor molecule, acceptor atom, score
      P1  H  6896  6907       L1     8  1.00

> <Gold.PLP.Chemscore.Internal.Correction>
0.0348

> <Gold.Rescore>
     Score         DG    S(hbond)    S(metal)    S(lipo)     H(rot)  DE(clash)    DE(int)     intcor
     15.45     -16.26       0.83        0.00     118.13       2.27       0.06       0.75       ----

> <Gold.Chemscore.Fitness>
15.4547

> <Gold.Chemscore.DG>
-16.2608

> <Gold.Chemscore.ZeroCoef>
-5.4800

> <Gold.Chemscore.Hbond>
0.8299

> <Gold.Chemscore.Metal>
0.0000

> <Gold.Chemscore.Lipo>
118.1345

> <Gold.Chemscore.Internal_Hbond>
0.0000

> <Gold.Chemscore.DEClash>
0.0558

> <Gold.Chemscore.DEInternal>
0.7502

> <Gold.Chemscore.Rot>
2.2706

> <Gold.Chemscore.Internal.Correction>
   9.000000E+99

> <Gold.Chemscore.Hbonds>
donor molecule, donor type, donor heavy atom, donor atom, acceptor molecule, acceptor atom, score
      P1  H  6896  6907       L1     8  0.68

> <Gold.Chemscore.Hbond.Weighted>
-2.7719

> <Gold.Chemscore.Metal.Weighted>
-0.0000

> <Gold.Chemscore.Lipo.Weighted>
-13.8217

> <Gold.Chemscore.Internal_Hbond.Weighted>
0.0000

> <Gold.Chemscore.DEClash.Weighted>
0.0558

> <Gold.Chemscore.DEInternal.Weighted>
0.7502

> <Gold.Chemscore.Rot.Weighted>
5.8128

> <Gold.Chemscore.Internal.Correction.Weighted>
   9.000000E+99

> <Gold.Protein.RotatedTorsions>
[ 6907 6896 6895 6894 ] final  -26.27 input  -60.11 | X-H torsion
[ 7974 7965 7964 7962 ] final   11.77 input  175.53 | X-H torsion
[ 8008 7997 7996 7995 ] final  -96.06 input   59.86 | X-H torsion
[ 10167 10162 10161 10158 ] final  -11.67 input  -65.29 | X-H torsion
[ 10718 10713 10712 10709 ] final -133.68 input   66.30 | X-H torsion
[ 10763 10752 10751 10750 ] final  126.13 input  -60.55 | X-H torsion
[ 11005 11000 10999 10996 ] final   75.14 input  -57.11 | X-H torsion

> <Gold.Protein.ActiveResidues>
 VAL166  LYS551  ARG553  GLY616  TRP617  ASP618  TYR619  PRO620  LYS621  CYS622 
 ASP623  PHE694  ASN695  SER759  ASP760  ASP761  ALA762  ILE779  LEU786  VAL792 
 PHE793  MET794  SER795  GLU796  ALA797  LYS798  CYS799  TRP800  GLU811  SER814 

> <Gold.Protein.RotatedAtoms>
  151.1634  135.0284  159.8719 H   0  0  0  0  0  0  0  0  0  0  0  0  # atno 6907 bound_to 6896
  152.5451  134.1253  159.8426 H   0  0  0  0  0  0  0  0  0  0  0  0  # atno 6908 bound_to 6896
  151.1351  133.4964  159.2630 H   0  0  0  0  0  0  0  0  0  0  0  0  # atno 6909 bound_to 6896
  146.2364  139.9435  142.8480 H   0  0  0  0  0  0  0  0  0  0  0  0  # atno 7974 bound_to 7965
  154.7695  140.0474  157.1039 H   0  0  0  0  0  0  0  0  0  0  0  0  # atno 8008 bound_to 7997
  154.9838  140.3105  155.4915 H   0  0  0  0  0  0  0  0  0  0  0  0  # atno 8009 bound_to 7997
  156.2918  140.2231  156.4939 H   0  0  0  0  0  0  0  0  0  0  0  0  # atno 8010 bound_to 7997
  140.7144  143.5614  150.9191 H   0  0  0  0  0  0  0  0  0  0  0  0  # atno 10167 bound_to 10162
  156.2475  130.7133  151.1018 H   0  0  0  0  0  0  0  0  0  0  0  0  # atno 10718 bound_to 10713
  153.6884  135.3303  155.3196 H   0  0  0  0  0  0  0  0  0  0  0  0  # atno 10763 bound_to 10752
  154.8446  135.4426  154.1533 H   0  0  0  0  0  0  0  0  0  0  0  0  # atno 10764 bound_to 10752
  153.2568  135.6987  153.7697 H   0  0  0  0  0  0  0  0  0  0  0  0  # atno 10765 bound_to 10752
  139.9357  134.7493  156.1235 H   0  0  0  0  0  0  0  0  0  0  0  0  # atno 11005 bound_to 11000
  145.1929  140.9820  143.4200 LP  0  0  0  0  0  0  0  0  0  0  0  0  # atno 17320 bound_to 7965
  144.9841  139.3754  143.6247 LP  0  0  0  0  0  0  0  0  0  0  0  0  # atno 17321 bound_to 7965
  139.9340  143.6460  152.3070 LP  0  0  0  0  0  0  0  0  0  0  0  0  # atno 17342 bound_to 10162
  139.6921  144.7645  151.1421 LP  0  0  0  0  0  0  0  0  0  0  0  0  # atno 17343 bound_to 10162
  157.7201  131.0687  150.6171 LP  0  0  0  0  0  0  0  0  0  0  0  0  # atno 17370 bound_to 10713
  156.6249  130.4416  149.5808 LP  0  0  0  0  0  0  0  0  0  0  0  0  # atno 17371 bound_to 10713
  141.0970  133.6692  156.2667 LP  0  0  0  0  0  0  0  0  0  0  0  0  # atno 17394 bound_to 11000
  140.6081  134.5486  157.5529 LP  0  0  0  0  0  0  0  0  0  0  0  0  # atno 17395 bound_to 11000

$$$$
