AV-unprocessed.smi:3318|AV-procd|sdf|12765|dock9
  -GOLD-   2272019103D 1   1.00000     0.00000
 Structure written by MMmdl.
 44 45  0  0  0  0  0  0  0  0  2 V2000
  145.2999  136.7576  152.2804 C   0  0  0  0  0  0  0  0  0  0  0  0
  146.1099  137.8047  153.0527 C   0  0  0  0  0  0  0  0  0  0  0  0
  146.7921  138.8207  152.1205 C   0  0  0  0  0  0  0  0  0  0  0  0
  147.7149  139.7302  152.8465 N   0  3  2  0  0  0  0  0  0  0  0  0
  148.7430  139.0112  153.6451 C   0  0  0  0  0  0  0  0  0  0  0  0
  149.7470  139.9914  154.2751 C   0  0  0  0  0  0  0  0  0  0  0  0
  149.0271  141.0423  155.1426 C   0  0  1  0  0  0  0  0  0  0  0  0
  149.9574  142.0511  155.6343 N   0  0  0  0  0  0  0  0  0  0  0  0
  151.1331  141.4561  156.2533 C   0  0  0  0  0  0  0  0  0  0  0  0
  150.8349  141.1218  157.7211 C   0  0  0  0  0  0  0  0  0  0  0  0
  151.4758  142.1180  158.6687 C   0  0  0  0  0  0  0  0  0  0  0  0
  151.2797  143.5050  158.4974 C   0  0  0  0  0  0  0  0  0  0  0  0
  151.8847  144.3863  159.4142 C   0  0  0  0  0  0  0  0  0  0  0  0
  152.6579  143.8498  160.4618 C   0  0  0  0  0  0  0  0  0  0  0  0
  152.7924  142.4496  160.5460 C   0  0  0  0  0  0  0  0  0  0  0  0
  152.2160  141.5957  159.6728 N   0  0  0  0  0  0  0  0  0  0  0  0
  147.9525  141.7447  154.2975 C   0  0  0  0  0  0  0  0  0  0  0  0
  146.9855  140.7256  153.6736 C   0  0  0  0  0  0  0  0  0  0  0  0
  144.8255  136.0528  152.9636 H   0  0  0  0  0  0  0  0  0  0  0  0
  145.9359  136.1863  151.6040 H   0  0  0  0  0  0  0  0  0  0  0  0
  144.5139  137.2259  151.6872 H   0  0  0  0  0  0  0  0  0  0  0  0
  145.4438  138.3110  153.7504 H   0  0  0  0  0  0  0  0  0  0  0  0
  146.8638  137.2979  153.6558 H   0  0  0  0  0  0  0  0  0  0  0  0
  147.3588  138.2610  151.3751 H   0  0  0  0  0  0  0  0  0  0  0  0
  146.0510  139.4023  151.5701 H   0  0  0  0  0  0  0  0  0  0  0  0
  148.2551  138.4242  154.4249 H   0  0  0  0  0  0  0  0  0  0  0  0
  149.2891  138.3079  153.0179 H   0  0  0  0  0  0  0  0  0  0  0  0
  150.4672  139.4273  154.8677 H   0  0  0  0  0  0  0  0  0  0  0  0
  150.3154  140.4849  153.4850 H   0  0  0  0  0  0  0  0  0  0  0  0
  148.5388  140.5557  155.9887 H   0  0  0  0  0  0  0  0  0  0  0  0
  150.2310  142.6729  154.8865 H   0  0  0  0  0  0  0  0  0  0  0  0
  151.4120  140.5492  155.7150 H   0  0  0  0  0  0  0  0  0  0  0  0
  151.9775  142.1429  156.1993 H   0  0  0  0  0  0  0  0  0  0  0  0
  149.7576  141.1131  157.8949 H   0  0  0  0  0  0  0  0  0  0  0  0
  151.1934  140.1190  157.9587 H   0  0  0  0  0  0  0  0  0  0  0  0
  150.6776  143.8867  157.6858 H   0  0  0  0  0  0  0  0  0  0  0  0
  151.7566  145.4541  159.3166 H   0  0  0  0  0  0  0  0  0  0  0  0
  153.1355  144.4953  161.1838 H   0  0  0  0  0  0  0  0  0  0  0  0
  153.3771  142.0035  161.3368 H   0  0  0  0  0  0  0  0  0  0  0  0
  147.3932  142.4502  154.9137 H   0  0  0  0  0  0  0  0  0  0  0  0
  148.4206  142.3300  153.5041 H   0  0  0  0  0  0  0  0  0  0  0  0
  146.2592  141.2570  153.0576 H   0  0  0  0  0  0  0  0  0  0  0  0
  146.4236  140.2111  154.4550 H   0  0  0  0  0  0  0  0  0  0  0  0
  148.2067  140.2597  152.1408 H   0  0  0  0  0  0  0  0  0  0  0  0
  1  2  1  0  0  0  0
  1 19  1  0  0  0  0
  1 20  1  0  0  0  0
  1 21  1  0  0  0  0
  2  3  1  0  0  0  0
  2 22  1  0  0  0  0
  2 23  1  0  0  0  0
  3  4  1  0  0  0  0
  3 24  1  0  0  0  0
  3 25  1  0  0  0  0
  4 18  1  0  0  0  0
  4  5  1  0  0  0  0
  4 44  1  0  0  0  0
  5  6  1  0  0  0  0
  5 26  1  0  0  0  0
  5 27  1  0  0  0  0
  6  7  1  0  0  0  0
  6 28  1  0  0  0  0
  6 29  1  0  0  0  0
  7  8  1  0  0  0  0
  7 17  1  0  0  0  0
  7 30  1  0  0  0  0
  8  9  1  0  0  0  0
  8 31  1  0  0  0  0
  9 10  1  0  0  0  0
  9 32  1  0  0  0  0
  9 33  1  0  0  0  0
 10 11  1  0  0  0  0
 10 34  1  0  0  0  0
 10 35  1  0  0  0  0
 11 16  1  0  0  0  0
 11 12  2  0  0  0  0
 12 13  1  0  0  0  0
 12 36  1  0  0  0  0
 13 14  2  0  0  0  0
 13 37  1  0  0  0  0
 14 15  1  0  0  0  0
 14 38  1  0  0  0  0
 15 16  2  0  0  0  0
 15 39  1  0  0  0  0
 17 18  1  0  0  0  0
 17 40  1  0  0  0  0
 17 41  1  0  0  0  0
 18 42  1  0  0  0  0
 18 43  1  0  0  0  0
M  CHG  1   4   1
M  END
> <s_m_source_file>
AV-unprocessed.smi

> <i_m_source_file_index>
3318

> <i_lp_mmshare_version>
43012

> <i_f3d_flags>
0

> <s_epik_input>
W0NIM11bQ0gyXVtDSDJdTjFbQ0gyXVtDSDJdW0NIXShbQ0gyXVtDSDJdMSlbTkhdW0NIMl1bQ0gyXWMyW2NIXVtjSF1bY0hdW2NIXW4y

> <s_epik_cmdline>
J2VwaWtfcHl0aG9uJywgJy1waCcsICc3LjAnLCAnLXRuJywgJzgnLCAnLW1hJywgJzIwMCcsICctbWV0YWxfYmluZGluZycsICctaW1hZScsICc8aW5maWxlLm1hZT4nLCAnLW9tYWUnLCAnPG91dGZpbGUubWFlPic=

> <r_epik_Ionization_Penalty>
2.30703

> <r_epik_Ionization_Penalty_Charging>
0.000286176

> <r_epik_Ionization_Penalty_Neutral>
2.30674

> <r_epik_State_Penalty>
2.39905

> <r_epik_Charging_Adjusted_Penalty>
2.39933

> <i_epik_Tot_Q>
1

> <i_epik_Tot_abs_Q>
1

> <r_epik_Metal_State_Penalty>
2.30906

> <b_epik_Metal_Only>
0

> <s_lp_Force_Field>
OPLS_2005

> <r_lp_Energy>
18.8506

> <b_lp_Chiralities_Consistent>
1

> <s_lp_Variant>
AV-unprocessed.smi:3318-4

> <Gold.Version>
5.8.1

> <Gold.Id.Protein>
6NUR|6NUR_protein|mol2

> <Gold.PLP.Fitness>
44.9201

> <Gold.PLP.PLP>
-43.1261

> <Gold.PLP.part.hbond>
-2.6342

> <Gold.PLP.part.metal>
0.0000

> <Gold.PLP.part.buried>
-3.7618

> <Gold.PLP.part.nonpolar>
-36.9009

> <Gold.PLP.part.repulsive>
0.0845

> <Gold.PLP.ligand.clash>
0.0000

> <Gold.PLP.ligand.torsion>
0.6289

> <Gold.PLP.Chemscore.Hbond>
1.0000

> <Gold.PLP.Chemscore.CHOScore>
0.0000

> <Gold.PLP.Chemscore.Metal>
0.0000

> <Gold.Chemscore.Hbonds>
donor molecule, donor type, donor heavy atom, donor atom, acceptor molecule, acceptor atom, score
      L1  H     4    44       P1  7957  0.75

> <Gold.PLP.Chemscore.Internal.Correction>
0.0517

> <Gold.Rescore>
     Score         DG    S(hbond)    S(metal)    S(lipo)     H(rot)  DE(clash)    DE(int)     intcor
     18.21     -19.08       0.98        0.00     120.82       1.48       0.03       0.85       ----

> <Gold.Chemscore.Fitness>
18.2060

> <Gold.Chemscore.DG>
-19.0825

> <Gold.Chemscore.ZeroCoef>
-5.4800

> <Gold.Chemscore.Hbond>
0.9755

> <Gold.Chemscore.Metal>
0.0000

> <Gold.Chemscore.Lipo>
120.8211

> <Gold.Chemscore.Internal_Hbond>
0.0000

> <Gold.Chemscore.DEClash>
0.0270

> <Gold.Chemscore.DEInternal>
0.8494

> <Gold.Chemscore.Rot>
1.4811

> <Gold.Chemscore.Internal.Correction>
   9.000000E+99

> <Gold.Chemscore.Hbonds>
donor molecule, donor type, donor heavy atom, donor atom, acceptor molecule, acceptor atom, score
      L1  H     4    44       P1  7957  0.74

> <Gold.Chemscore.Hbond.Weighted>
-3.2581

> <Gold.Chemscore.Metal.Weighted>
-0.0000

> <Gold.Chemscore.Lipo.Weighted>
-14.1361

> <Gold.Chemscore.Internal_Hbond.Weighted>
0.0000

> <Gold.Chemscore.DEClash.Weighted>
0.0270

> <Gold.Chemscore.DEInternal.Weighted>
0.8494

> <Gold.Chemscore.Rot.Weighted>
3.7917

> <Gold.Chemscore.Internal.Correction.Weighted>
   9.000000E+99

> <Gold.Protein.RotatedTorsions>
[ 6907 6896 6895 6894 ] final  -10.44 input  -60.11 | X-H torsion
[ 7974 7965 7964 7962 ] final -151.63 input  175.53 | X-H torsion
[ 8008 7997 7996 7995 ] final  114.11 input   59.86 | X-H torsion
[ 10167 10162 10161 10158 ] final   82.87 input  -65.29 | X-H torsion
[ 10718 10713 10712 10709 ] final   91.83 input   66.30 | X-H torsion
[ 10763 10752 10751 10750 ] final   68.20 input  -60.55 | X-H torsion
[ 11005 11000 10999 10996 ] final   89.55 input  -57.11 | X-H torsion

> <Gold.Protein.ActiveResidues>
 VAL166  LYS551  ARG553  GLY616  TRP617  ASP618  TYR619  PRO620  LYS621  CYS622 
 ASP623  PHE694  ASN695  SER759  ASP760  ASP761  ALA762  ILE779  LEU786  VAL792 
 PHE793  MET794  SER795  GLU796  ALA797  LYS798  CYS799  TRP800  GLU811  SER814 

> <Gold.Protein.RotatedAtoms>
  151.4019  135.0972  159.9558 H   0  0  0  0  0  0  0  0  0  0  0  0  # atno 6907 bound_to 6896
  152.5047  133.8880  159.7390 H   0  0  0  0  0  0  0  0  0  0  0  0  # atno 6908 bound_to 6896
  150.9356  133.6660  159.2830 H   0  0  0  0  0  0  0  0  0  0  0  0  # atno 6909 bound_to 6896
  144.7839  140.4771  143.5820 H   0  0  0  0  0  0  0  0  0  0  0  0  # atno 7974 bound_to 7965
  156.2300  140.2966  156.0165 H   0  0  0  0  0  0  0  0  0  0  0  0  # atno 8008 bound_to 7997
  155.2250  140.0417  157.2971 H   0  0  0  0  0  0  0  0  0  0  0  0  # atno 8009 bound_to 7997
  154.5980  140.2419  155.7838 H   0  0  0  0  0  0  0  0  0  0  0  0  # atno 8010 bound_to 7997
  139.9243  144.6193  150.8408 H   0  0  0  0  0  0  0  0  0  0  0  0  # atno 10167 bound_to 10162
  157.6960  131.0421  150.3789 H   0  0  0  0  0  0  0  0  0  0  0  0  # atno 10718 bound_to 10713
  153.0223  135.5256  154.7097 H   0  0  0  0  0  0  0  0  0  0  0  0  # atno 10763 bound_to 10752
  154.6183  135.2886  155.0357 H   0  0  0  0  0  0  0  0  0  0  0  0  # atno 10764 bound_to 10752
  154.1353  135.6586  153.4983 H   0  0  0  0  0  0  0  0  0  0  0  0  # atno 10765 bound_to 10752
  139.8873  134.8558  156.3158 H   0  0  0  0  0  0  0  0  0  0  0  0  # atno 11005 bound_to 11000
  145.5975  139.1501  143.3147 LP  0  0  0  0  0  0  0  0  0  0  0  0  # atno 17320 bound_to 7965
  146.2061  140.6098  142.9080 LP  0  0  0  0  0  0  0  0  0  0  0  0  # atno 17321 bound_to 7965
  140.7654  143.3275  151.2484 LP  0  0  0  0  0  0  0  0  0  0  0  0  # atno 17342 bound_to 10162
  139.6835  143.9813  152.2821 LP  0  0  0  0  0  0  0  0  0  0  0  0  # atno 17343 bound_to 10162
  156.4205  130.3952  149.6828 LP  0  0  0  0  0  0  0  0  0  0  0  0  # atno 17370 bound_to 10713
  156.4081  130.7708  151.2720 LP  0  0  0  0  0  0  0  0  0  0  0  0  # atno 17371 bound_to 10713
  140.9820  133.7262  156.0685 LP  0  0  0  0  0  0  0  0  0  0  0  0  # atno 17394 bound_to 11000
  140.7737  134.3803  157.5502 LP  0  0  0  0  0  0  0  0  0  0  0  0  # atno 17395 bound_to 11000

$$$$
