#       Name:                AV-unprocessed.smi:2159
#       Creating user name   scv26
#       Creation time:       Fri Mar 27 11:57:19 2020


#       File generated by GOLD software.
#

@<TRIPOS>MOLECULE
AV-unprocessed.smi:2159
    54    56     1
SMALL
NO_CHARGES


@<TRIPOS>ATOM
      1 ****        -2.2315   0.8296  -0.9261 O.2            1 S1                 0.0000
      2 ****        -1.5353  -0.1856  -0.9526 C.2            1 S1                 0.0000
      3 ****        -0.0075  -0.0841  -0.9903 C.3            1 S1                 0.0000
      4 ****         0.5384   1.1394  -0.2272 C.3            1 S1                 0.0000
      5 ****         2.0053   1.1504  -0.2229 N.am           1 S1                 0.0000
      6 ****         2.7528   1.7248  -1.1759 C.2            1 S1                 0.0000
      7 ****         2.3324   2.3252  -2.1649 O.2            1 S1                 0.0000
      8 ****         4.2419   1.5366  -0.8969 C.3            1 S1                 0.0000
      9 ****         4.9901   2.8830  -0.8019 C.3            1 S1                 0.0000
     10 ****         6.3922   2.7038  -0.1938 C.3            1 S1                 0.0000
     11 ****         6.3955   1.9023   1.1273 C.3            1 S1                 0.0000
     12 ****         4.9963   1.4408   1.5711 C.3            1 S1                 0.0000
     13 ****         4.2452   0.7351   0.4225 C.3            1 S1                 0.0000
     14 ****         2.7575   0.5721   0.7240 C.2            1 S1                 0.0000
     15 ****         2.3418  -0.0281   1.7152 O.2            1 S1                 0.0000
     16 ****        -2.0447  -1.4268  -0.9585 N.am           1 S1                 0.0000
     17 ****        -3.4660  -1.7543  -0.9465 C.3            1 S1                 0.0000
     18 ****        -4.0689  -1.6352   0.4631 C.3            1 S1                 0.0000
     19 ****        -5.5227  -2.0683   0.5024 C.ar           1 S1                 0.0000
     20 ****        -5.8794  -3.3448   0.9874 C.ar           1 S1                 0.0000
     21 ****        -7.2410  -3.7043   0.9933 C.ar           1 S1                 0.0000
     22 ****        -8.1889  -2.7788   0.5158 C.ar           1 S1                 0.0000
     23 ****        -7.7309  -1.5293   0.0520 C.ar           1 S1                 0.0000
     24 ****        -6.4275  -1.1750   0.0419 N.ar           1 S1                 0.0000
     25 ****         0.4190  -0.9961  -0.5696 H              1 S1                 0.0000
     26 ****         0.3065  -0.0447  -2.0338 H              1 S1                 0.0000
     27 ****         0.1647   2.0623  -0.6746 H              1 S1                 0.0000
     28 ****         0.1630   1.1401   0.7980 H              1 S1                 0.0000
     29 ****         4.6750   0.9317  -1.6949 H              1 S1                 0.0000
     30 ****         5.0739   3.3359  -1.7907 H              1 S1                 0.0000
     31 ****         4.4222   3.5888  -0.1930 H              1 S1                 0.0000
     32 ****         7.0289   2.1928  -0.9172 H              1 S1                 0.0000
     33 ****         6.8478   3.6818  -0.0356 H              1 S1                 0.0000
     34 ****         7.0350   1.0271   1.0067 H              1 S1                 0.0000
     35 ****         6.8509   2.4961   1.9205 H              1 S1                 0.0000
     36 ****         5.0852   0.7714   2.4277 H              1 S1                 0.0000
     37 ****         4.4273   2.3046   1.9199 H              1 S1                 0.0000
     38 ****         4.6798  -0.2508   0.2513 H              1 S1                 0.0000
     39 ****        -1.3992  -2.2030  -0.9834 H              1 S1                 0.0000
     40 ****        -4.0036  -1.1163  -1.6503 H              1 S1                 0.0000
     41 ****        -3.5756  -2.7770  -1.3083 H              1 S1                 0.0000
     42 ****        -3.4964  -2.2427   1.1654 H              1 S1                 0.0000
     43 ****        -3.9980  -0.6065   0.8197 H              1 S1                 0.0000
     44 ****        -5.1282  -4.0335   1.3455 H              1 S1                 0.0000
     45 ****        -7.5519  -4.6728   1.3562 H              1 S1                 0.0000
     46 ****        -9.2413  -3.0204   0.5053 H              1 S1                 0.0000
     47 ****        -8.4297  -0.7953  -0.3214 H              1 S1                 0.0000
     48 ****        -1.8003   1.7318  -0.9291 LP             1 S1                 0.0000
     49 ****        -3.2282   0.7518  -0.9016 LP             1 S1                 0.0000
     50 ****         1.3477   2.4180  -2.3124 LP             1 S1                 0.0000
     51 ****         2.9756   2.7201  -2.8209 LP             1 S1                 0.0000
     52 ****         1.3578  -0.1176   1.8693 LP             1 S1                 0.0000
     53 ****         2.9881  -0.4263   2.3661 LP             1 S1                 0.0000
     54 ****        -6.1402  -0.2788  -0.2961 LP             1 S1                 0.0000
@<TRIPOS>BOND
    1    1    2 2     
    2    2    3 1     
    3    2   16 am    
    4    3    4 1     
    5    3   25 1     
    6    3   26 1     
    7    4    5 1     
    8    4   27 1     
    9    4   28 1     
   10    5   14 am    
   11    5    6 am    
   12    6    7 2     
   13    6    8 1     
   14    8   13 1     
   15    8    9 1     
   16    8   29 1     
   17    9   10 1     
   18    9   30 1     
   19    9   31 1     
   20   10   11 1     
   21   10   32 1     
   22   10   33 1     
   23   11   12 1     
   24   11   34 1     
   25   11   35 1     
   26   12   13 1     
   27   12   36 1     
   28   12   37 1     
   29   13   14 1     
   30   13   38 1     
   31   14   15 2     
   32   16   17 1     
   33   16   39 1     
   34   17   18 1     
   35   17   40 1     
   36   17   41 1     
   37   18   19 1     
   38   18   42 1     
   39   18   43 1     
   40   19   24 ar    
   41   19   20 ar    
   42   20   21 ar    
   43   20   44 1     
   44   21   22 ar    
   45   21   45 1     
   46   22   23 ar    
   47   22   46 1     
   48   23   24 ar    
   49   23   47 1     
   50    1   48 1     
   51    1   49 1     
   52    7   50 1     
   53    7   51 1     
   54   15   52 1     
   55   15   53 1     
   56   24   54 1     
@<TRIPOS>SUBSTRUCTURE
      1 S1             1
@<TRIPOS>SET
LONE_PAIRS      STATIC     ATOMS    <user>   **** ""
7 48 49 50 51 52 53 54
DONOR_HYDROGENS      STATIC     ATOMS    <user>   **** ""
1 39
ATOM$BLUE        STATIC     ATOMS    COLORGROUP SYSTEM
7 48 49 50 51 52 53 54
ATOM$RED        STATIC     ATOMS    COLORGROUP SYSTEM
1 39
