AV-unprocessed.smi:769|AV-procd|sdf|3674|dock3
  -GOLD-   22720 1 83D 1   1.00000     0.00000
 Structure written by MMmdl.
 49 51  0  0  0  0  0  0  0  0  1 V2000
  144.7031  136.7988  152.3948 O   0  0  0  0  0  0  0  0  0  0  0  0
  145.9084  136.5748  152.2835 C   0  0  0  0  0  0  0  0  0  0  0  0
  146.8564  137.4624  152.6166 N   0  0  0  0  0  0  0  0  0  0  0  0
  146.6010  138.7952  153.1490 C   0  0  0  0  0  0  0  0  0  0  0  0
  147.1474  138.9344  154.5833 C   0  0  0  0  0  0  0  0  0  0  0  0
  148.3561  139.7546  154.6386 N   0  0  0  0  0  0  0  0  0  0  0  0
  149.5647  138.9325  154.4923 C   0  0  0  0  0  0  0  0  0  0  0  0
  150.8239  139.8153  154.5871 C   0  0  0  0  0  0  0  0  0  0  0  0
  150.8295  140.4904  155.8885 N   0  0  0  0  0  0  0  0  0  0  0  0
  151.7234  140.2982  156.8883 C   0  0  0  0  0  0  0  0  0  0  0  0
  152.6677  139.5149  156.7777 O   0  0  0  0  0  0  0  0  0  0  0  0
  151.5778  141.1186  158.1854 C   0  0  0  0  0  0  0  0  0  0  0  0
  151.7922  142.6411  158.0567 C   0  0  0  0  0  0  0  0  0  0  0  0
  152.6166  142.5868  159.3456 C   0  0  0  0  0  0  0  0  0  0  0  0
  152.8242  141.0920  159.0866 C   0  0  0  0  0  0  0  0  0  0  0  0
  149.6481  141.3479  156.0175 C   0  0  0  0  0  0  0  0  0  0  0  0
  148.3876  140.4666  155.9209 C   0  0  0  0  0  0  0  0  0  0  0  0
  146.4511  135.4421  151.8037 N   0  0  0  0  0  0  0  0  0  0  0  0
  145.7973  134.2635  151.3511 C   0  0  0  0  0  0  0  0  0  0  0  0
  146.6033  133.1613  150.9983 C   0  0  0  0  0  0  0  0  0  0  0  0
  145.9800  131.9754  150.5613 C   0  0  0  0  0  0  0  0  0  0  0  0
  144.6412  131.8316  150.4701 N   0  0  0  0  0  0  0  0  0  0  0  0
  143.8705  132.8826  150.8217 C   0  0  0  0  0  0  0  0  0  0  0  0
  144.3919  134.1128  151.2701 C   0  0  0  0  0  0  0  0  0  0  0  0
  147.8231  137.2001  152.4902 H   0  0  0  0  0  0  0  0  0  0  0  0
  147.0339  139.5360  152.4761 H   0  0  0  0  0  0  0  0  0  0  0  0
  145.5233  138.9602  153.1437 H   0  0  0  0  0  0  0  0  0  0  0  0
  146.3747  139.4070  155.1917 H   0  0  0  0  0  0  0  0  0  0  0  0
  147.3379  137.9558  155.0269 H   0  0  0  0  0  0  0  0  0  0  0  0
  149.5901  138.1579  155.2607 H   0  0  0  0  0  0  0  0  0  0  0  0
  149.5651  138.4271  153.5275 H   0  0  0  0  0  0  0  0  0  0  0  0
  151.7093  139.2098  154.4040 H   0  0  0  0  0  0  0  0  0  0  0  0
  150.8174  140.5648  153.7940 H   0  0  0  0  0  0  0  0  0  0  0  0
  150.6553  140.9064  158.7287 H   0  0  0  0  0  0  0  0  0  0  0  0
  152.3924  142.9550  157.2011 H   0  0  0  0  0  0  0  0  0  0  0  0
  150.8804  143.2331  158.1391 H   0  0  0  0  0  0  0  0  0  0  0  0
  153.5288  143.1840  159.3297 H   0  0  0  0  0  0  0  0  0  0  0  0
  152.0190  142.7818  160.2373 H   0  0  0  0  0  0  0  0  0  0  0  0
  152.7274  140.4694  159.9764 H   0  0  0  0  0  0  0  0  0  0  0  0
  153.7509  140.8797  158.5498 H   0  0  0  0  0  0  0  0  0  0  0  0
  149.6307  141.9061  156.9542 H   0  0  0  0  0  0  0  0  0  0  0  0
  149.6511  142.0965  155.2236 H   0  0  0  0  0  0  0  0  0  0  0  0
  147.5000  141.0938  156.0128 H   0  0  0  0  0  0  0  0  0  0  0  0
  148.3640  139.7535  156.7469 H   0  0  0  0  0  0  0  0  0  0  0  0
  147.4551  135.4430  151.7005 H   0  0  0  0  0  0  0  0  0  0  0  0
  147.6805  133.2197  151.0545 H   0  0  0  0  0  0  0  0  0  0  0  0
  146.5738  131.1183  150.2801 H   0  0  0  0  0  0  0  0  0  0  0  0
  142.8028  132.7370  150.7504 H   0  0  0  0  0  0  0  0  0  0  0  0
  143.7093  134.8996  151.5511 H   0  0  0  0  0  0  0  0  0  0  0  0
  1  2  2  0  0  0  0
  2  3  1  0  0  0  0
  2 18  1  0  0  0  0
  3  4  1  0  0  0  0
  3 25  1  0  0  0  0
  4  5  1  0  0  0  0
  4 26  1  0  0  0  0
  4 27  1  0  0  0  0
  5  6  1  0  0  0  0
  5 28  1  0  0  0  0
  5 29  1  0  0  0  0
  6 17  1  0  0  0  0
  6  7  1  0  0  0  0
  7  8  1  0  0  0  0
  7 30  1  0  0  0  0
  7 31  1  0  0  0  0
  8  9  1  0  0  0  0
  8 32  1  0  0  0  0
  8 33  1  0  0  0  0
  9 10  1  0  0  0  0
  9 16  1  0  0  0  0
 10 11  2  0  0  0  0
 10 12  1  0  0  0  0
 12 15  1  0  0  0  0
 12 13  1  0  0  0  0
 12 34  1  0  0  0  0
 13 14  1  0  0  0  0
 13 35  1  0  0  0  0
 13 36  1  0  0  0  0
 14 15  1  0  0  0  0
 14 37  1  0  0  0  0
 14 38  1  0  0  0  0
 15 39  1  0  0  0  0
 15 40  1  0  0  0  0
 16 17  1  0  0  0  0
 16 41  1  0  0  0  0
 16 42  1  0  0  0  0
 17 43  1  0  0  0  0
 17 44  1  0  0  0  0
 18 19  1  0  0  0  0
 18 45  1  0  0  0  0
 19 24  1  0  0  0  0
 19 20  2  0  0  0  0
 20 21  1  0  0  0  0
 20 46  1  0  0  0  0
 21 22  2  0  0  0  0
 21 47  1  0  0  0  0
 22 23  1  0  0  0  0
 23 24  2  0  0  0  0
 23 48  1  0  0  0  0
 24 49  1  0  0  0  0
M  END
> <s_m_source_file>
AV-unprocessed.smi

> <i_m_source_file_index>
769

> <i_lp_mmshare_version>
43012

> <i_f3d_flags>
0

> <s_epik_input>
W2NIXTFbY0hdbltjSF1bY0hdYzFbTkhdQyg9TylbTkhdW0NIMl1bQ0gyXU4yW0NIMl1bQ0gyXU4oW0NIMl1bQ0gyXTIpQyg9TylbQ0hdM1tDSDJdW0NIMl1bQ0gyXTM=

> <s_epik_cmdline>
J2VwaWtfcHl0aG9uJywgJy1waCcsICc3LjAnLCAnLXRuJywgJzgnLCAnLW1hJywgJzIwMCcsICctbWV0YWxfYmluZGluZycsICctaW1hZScsICc8aW5maWxlLm1hZT4nLCAnLW9tYWUnLCAnPG91dGZpbGUubWFlPic=

> <r_epik_Ionization_Penalty>
0.401104

> <r_epik_Ionization_Penalty_Charging>
0

> <r_epik_Ionization_Penalty_Neutral>
0.401104

> <r_epik_State_Penalty>
0.379367

> <r_epik_Charging_Adjusted_Penalty>
0.379367

> <i_epik_Tot_Q>
0

> <i_epik_Tot_abs_Q>
0

> <r_epik_Metal_State_Penalty>
0.353808

> <b_epik_Metal_Only>
0

> <s_lp_Force_Field>
OPLS_2005

> <r_lp_Energy>
47.3936

> <b_lp_Chiralities_Consistent>
1

> <s_lp_Variant>
AV-unprocessed.smi:769-1

> <Gold.Version>
5.8.1

> <Gold.Id.Protein>
6NUR|6NUR_protein|mol2

> <Gold.PLP.Fitness>
53.9825

> <Gold.PLP.PLP>
-40.4556

> <Gold.PLP.part.hbond>
-3.0000

> <Gold.PLP.part.metal>
0.0000

> <Gold.PLP.part.buried>
-4.0204

> <Gold.PLP.part.nonpolar>
-35.3686

> <Gold.PLP.part.repulsive>
0.9771

> <Gold.PLP.ligand.clash>
0.0000

> <Gold.PLP.ligand.torsion>
0.9609

> <Gold.PLP.Chemscore.Hbond>
3.0000

> <Gold.PLP.Chemscore.CHOScore>
1.9894

> <Gold.PLP.Chemscore.Metal>
0.0000

> <Gold.Chemscore.Hbonds>
donor molecule, donor type, donor heavy atom, donor atom, acceptor molecule, acceptor atom, score
      L1  H     3    25       P1  7948  1.00
      L1  H    18    45       P1  7948  1.00
      P1  H  7997  8008       L1    11  1.00
      L1  C    21    47       P1 10747  1.00
      L1  C    23    48       P1 10186  0.46

> <Gold.PLP.Chemscore.Internal.Correction>
0.4806

> <Gold.Rescore>
     Score         DG    S(hbond)    S(metal)    S(lipo)     H(rot)  DE(clash)    DE(int)     intcor
     19.61     -23.21       2.93        0.00     104.56       1.68       1.36       2.24       ----

> <Gold.Chemscore.Fitness>
19.6105

> <Gold.Chemscore.DG>
-23.2124

> <Gold.Chemscore.ZeroCoef>
-5.4800

> <Gold.Chemscore.Hbond>
2.9347

> <Gold.Chemscore.Metal>
0.0000

> <Gold.Chemscore.Lipo>
104.5649

> <Gold.Chemscore.Internal_Hbond>
0.0000

> <Gold.Chemscore.DEClash>
1.3642

> <Gold.Chemscore.DEInternal>
2.2377

> <Gold.Chemscore.Rot>
1.6811

> <Gold.Chemscore.Internal.Correction>
   9.000000E+99

> <Gold.Chemscore.Hbonds>
donor molecule, donor type, donor heavy atom, donor atom, acceptor molecule, acceptor atom, score
      L1  H     3    25       P1  7948  0.94
      L1  H    18    45       P1  7948  0.94
      P1  H  7997  8008       L1    11  0.99

> <Gold.Chemscore.Hbond.Weighted>
-9.8019

> <Gold.Chemscore.Metal.Weighted>
-0.0000

> <Gold.Chemscore.Lipo.Weighted>
-12.2341

> <Gold.Chemscore.Internal_Hbond.Weighted>
0.0000

> <Gold.Chemscore.DEClash.Weighted>
1.3642

> <Gold.Chemscore.DEInternal.Weighted>
2.2377

> <Gold.Chemscore.Rot.Weighted>
4.3036

> <Gold.Chemscore.Internal.Correction.Weighted>
   9.000000E+99

> <Gold.Protein.RotatedTorsions>
[ 6907 6896 6895 6894 ] final  169.03 input  -60.11 | X-H torsion
[ 7974 7965 7964 7962 ] final    1.62 input  175.53 | X-H torsion
[ 8008 7997 7996 7995 ] final  -54.69 input   59.86 | X-H torsion
[ 10167 10162 10161 10158 ] final -172.66 input  -65.29 | X-H torsion
[ 10718 10713 10712 10709 ] final   34.70 input   66.30 | X-H torsion
[ 10763 10752 10751 10750 ] final  -98.85 input  -60.55 | X-H torsion
[ 11005 11000 10999 10996 ] final   60.02 input  -57.11 | X-H torsion

> <Gold.Protein.ActiveResidues>
 VAL166  LYS551  ARG553  GLY616  TRP617  ASP618  TYR619  PRO620  LYS621  CYS622 
 ASP623  PHE694  ASN695  SER759  ASP760  ASP761  ALA762  ILE779  LEU786  VAL792 
 PHE793  MET794  SER795  GLU796  ALA797  LYS798  CYS799  TRP800  GLU811  SER814 

> <Gold.Protein.RotatedAtoms>
  151.8383  133.3419  159.3634 H   0  0  0  0  0  0  0  0  0  0  0  0  # atno 6907 bound_to 6896
  150.7243  134.5416  159.5759 H   0  0  0  0  0  0  0  0  0  0  0  0  # atno 6908 bound_to 6896
  152.2884  134.7750  160.0434 H   0  0  0  0  0  0  0  0  0  0  0  0  # atno 6909 bound_to 6896
  146.2441  140.0959  142.8350 H   0  0  0  0  0  0  0  0  0  0  0  0  # atno 7974 bound_to 7965
  154.4171  140.1170  156.5356 H   0  0  0  0  0  0  0  0  0  0  0  0  # atno 8008 bound_to 7997
  155.6560  140.3496  155.4746 H   0  0  0  0  0  0  0  0  0  0  0  0  # atno 8009 bound_to 7997
  155.9753  140.1149  157.0766 H   0  0  0  0  0  0  0  0  0  0  0  0  # atno 8010 bound_to 7997
  139.5732  144.1593  152.1414 H   0  0  0  0  0  0  0  0  0  0  0  0  # atno 10167 bound_to 10162
  157.3135  130.7411  149.6740 H   0  0  0  0  0  0  0  0  0  0  0  0  # atno 10718 bound_to 10713
  154.7449  135.4994  153.9186 H   0  0  0  0  0  0  0  0  0  0  0  0  # atno 10763 bound_to 10752
  153.1081  135.6702  153.9557 H   0  0  0  0  0  0  0  0  0  0  0  0  # atno 10764 bound_to 10752
  153.9324  135.3076  155.3424 H   0  0  0  0  0  0  0  0  0  0  0  0  # atno 10765 bound_to 10752
  140.0262  134.6079  155.9570 H   0  0  0  0  0  0  0  0  0  0  0  0  # atno 11005 bound_to 11000
  145.0610  140.9087  143.4939 LP  0  0  0  0  0  0  0  0  0  0  0  0  # atno 17320 bound_to 7965
  145.1075  139.2780  143.5655 LP  0  0  0  0  0  0  0  0  0  0  0  0  # atno 17321 bound_to 7965
  140.1130  144.5440  150.6912 LP  0  0  0  0  0  0  0  0  0  0  0  0  # atno 17342 bound_to 10162
  140.7016  143.2439  151.4848 LP  0  0  0  0  0  0  0  0  0  0  0  0  # atno 17343 bound_to 10162
  155.9679  130.4244  150.4607 LP  0  0  0  0  0  0  0  0  0  0  0  0  # atno 17370 bound_to 10713
  157.2610  131.0567  151.2320 LP  0  0  0  0  0  0  0  0  0  0  0  0  # atno 17371 bound_to 10713
  141.1804  133.6545  156.4996 LP  0  0  0  0  0  0  0  0  0  0  0  0  # atno 17394 bound_to 11000
  140.4303  134.7108  157.4938 LP  0  0  0  0  0  0  0  0  0  0  0  0  # atno 17395 bound_to 11000

$$$$
