AV-unprocessed.smi:1657|AV-procd|sdf|6647|dock8
  -GOLD-   22720 7353D 1   1.00000     0.00000
 Structure written by MMmdl.
 52 54  0  0  0  0  0  0  0  0  2 V2000
  147.1404  139.9306  153.9865 O   0  0  0  0  0  0  0  0  0  0  0  0
  147.9573  139.1422  153.5106 C   0  0  0  0  0  0  0  0  0  0  0  0
  147.6430  138.2282  152.5816 N   0  0  0  0  0  0  0  0  0  0  0  0
  146.3144  138.0461  152.0085 C   0  0  0  0  0  0  0  0  0  0  0  0
  145.6368  136.7729  152.5503 C   0  0  0  0  0  0  0  0  0  0  0  0
  146.4040  135.5437  152.2273 N   0  3  0  0  0  0  0  0  0  0  0  0
  146.6209  134.6865  153.4224 C   0  0  0  0  0  0  0  0  0  0  0  0
  147.5333  133.4928  153.0938 C   0  0  0  0  0  0  0  0  0  0  0  0
  146.9640  132.6696  151.9314 C   0  0  0  0  0  0  0  0  0  0  0  0
  146.7126  133.5767  150.7202 C   0  0  0  0  0  0  0  0  0  0  0  0
  145.8180  134.7690  151.0999 C   0  0  0  0  0  0  0  0  0  0  0  0
  149.2529  139.0600  153.8575 N   0  0  0  0  0  0  0  0  0  0  0  0
  149.9639  139.8547  154.7962 C   0  0  0  0  0  0  0  0  0  0  0  0
  151.3189  139.6514  155.1442 C   0  0  0  0  0  0  0  0  0  0  0  0
  151.9100  140.4934  156.1053 C   0  0  0  0  0  0  0  0  0  0  0  0
  151.1364  141.5177  156.7016 C   0  0  0  0  0  0  0  0  0  0  0  0
  151.7100  142.3782  157.6644 N   0  0  0  0  0  0  0  0  0  0  0  0
  151.5821  142.0126  159.0745 C   0  0  0  0  0  0  0  0  0  0  0  0
  152.5021  142.8866  159.9434 C   0  0  0  0  0  0  0  0  0  0  0  0
  152.2235  144.2620  159.7047 O   0  0  0  0  0  0  0  0  0  0  0  0
  152.4651  144.6220  158.3489 C   0  0  0  0  0  0  0  0  0  0  0  0
  151.5451  143.8098  157.4211 C   0  0  0  0  0  0  0  0  0  0  0  0
  149.8310  141.6943  156.3794 N   0  0  0  0  0  0  0  0  0  0  0  0
  149.2676  140.8840  155.4594 C   0  0  0  0  0  0  0  0  0  0  0  0
  148.3749  137.6188  152.2458 H   0  0  0  0  0  0  0  0  0  0  0  0
  145.7147  138.9352  152.2054 H   0  0  0  0  0  0  0  0  0  0  0  0
  146.4200  137.9778  150.9255 H   0  0  0  0  0  0  0  0  0  0  0  0
  145.5542  136.8736  153.6336 H   0  0  0  0  0  0  0  0  0  0  0  0
  144.6172  136.6764  152.1736 H   0  0  0  0  0  0  0  0  0  0  0  0
  147.0775  135.2729  154.2208 H   0  0  0  0  0  0  0  0  0  0  0  0
  145.6589  134.3338  153.7977 H   0  0  0  0  0  0  0  0  0  0  0  0
  148.5302  133.8532  152.8358 H   0  0  0  0  0  0  0  0  0  0  0  0
  147.6514  132.8605  153.9743 H   0  0  0  0  0  0  0  0  0  0  0  0
  147.6506  131.8652  151.6656 H   0  0  0  0  0  0  0  0  0  0  0  0
  146.0301  132.1960  152.2379 H   0  0  0  0  0  0  0  0  0  0  0  0
  147.6640  133.9411  150.3297 H   0  0  0  0  0  0  0  0  0  0  0  0
  146.2482  133.0037  149.9170 H   0  0  0  0  0  0  0  0  0  0  0  0
  144.8237  134.4157  151.3781 H   0  0  0  0  0  0  0  0  0  0  0  0
  145.6904  135.4058  150.2255 H   0  0  0  0  0  0  0  0  0  0  0  0
  149.7785  138.3020  153.4467 H   0  0  0  0  0  0  0  0  0  0  0  0
  151.9085  138.8591  154.7094 H   0  0  0  0  0  0  0  0  0  0  0  0
  152.9397  140.3293  156.3852 H   0  0  0  0  0  0  0  0  0  0  0  0
  150.5443  142.1379  159.3866 H   0  0  0  0  0  0  0  0  0  0  0  0
  151.8426  140.9634  159.2196 H   0  0  0  0  0  0  0  0  0  0  0  0
  152.3384  142.6690  160.9989 H   0  0  0  0  0  0  0  0  0  0  0  0
  153.5518  142.6746  159.7338 H   0  0  0  0  0  0  0  0  0  0  0  0
  152.2742  145.6882  158.2259 H   0  0  0  0  0  0  0  0  0  0  0  0
  153.5143  144.4562  158.0984 H   0  0  0  0  0  0  0  0  0  0  0  0
  151.7658  144.0749  156.3884 H   0  0  0  0  0  0  0  0  0  0  0  0
  150.5034  144.0787  157.6010 H   0  0  0  0  0  0  0  0  0  0  0  0
  148.2260  141.0703  155.2421 H   0  0  0  0  0  0  0  0  0  0  0  0
  147.3208  135.8477  151.9322 H   0  0  0  0  0  0  0  0  0  0  0  0
  1  2  2  0  0  0  0
  2  3  1  0  0  0  0
  2 12  1  0  0  0  0
  3  4  1  0  0  0  0
  3 25  1  0  0  0  0
  4  5  1  0  0  0  0
  4 26  1  0  0  0  0
  4 27  1  0  0  0  0
  5  6  1  0  0  0  0
  5 28  1  0  0  0  0
  5 29  1  0  0  0  0
  6 11  1  0  0  0  0
  6  7  1  0  0  0  0
  6 52  1  0  0  0  0
  7  8  1  0  0  0  0
  7 30  1  0  0  0  0
  7 31  1  0  0  0  0
  8  9  1  0  0  0  0
  8 32  1  0  0  0  0
  8 33  1  0  0  0  0
  9 10  1  0  0  0  0
  9 34  1  0  0  0  0
  9 35  1  0  0  0  0
 10 11  1  0  0  0  0
 10 36  1  0  0  0  0
 10 37  1  0  0  0  0
 11 38  1  0  0  0  0
 11 39  1  0  0  0  0
 12 13  1  0  0  0  0
 12 40  1  0  0  0  0
 13 24  1  0  0  0  0
 13 14  2  0  0  0  0
 14 15  1  0  0  0  0
 14 41  1  0  0  0  0
 15 16  2  0  0  0  0
 15 42  1  0  0  0  0
 16 17  1  0  0  0  0
 16 23  1  0  0  0  0
 17 22  1  0  0  0  0
 17 18  1  0  0  0  0
 18 19  1  0  0  0  0
 18 43  1  0  0  0  0
 18 44  1  0  0  0  0
 19 20  1  0  0  0  0
 19 45  1  0  0  0  0
 19 46  1  0  0  0  0
 20 21  1  0  0  0  0
 21 22  1  0  0  0  0
 21 47  1  0  0  0  0
 21 48  1  0  0  0  0
 22 49  1  0  0  0  0
 22 50  1  0  0  0  0
 23 24  2  0  0  0  0
 24 51  1  0  0  0  0
M  CHG  1   6   1
M  END
> <s_m_source_file>
AV-unprocessed.smi

> <i_m_source_file_index>
1657

> <i_lp_mmshare_version>
43012

> <i_f3d_flags>
0

> <s_epik_input>
W0NIMl0xW0NIMl1bQ0gyXVtDSDJdW0NIMl1OMVtDSDJdW0NIMl1bTkhdQyg9TylbTkhdYzJbY0hdW2NIXWMobltjSF0yKU4zW0NIMl1bQ0gyXU9bQ0gyXVtDSDJdMw==

> <s_epik_cmdline>
J2VwaWtfcHl0aG9uJywgJy1waCcsICc3LjAnLCAnLXRuJywgJzgnLCAnLW1hJywgJzIwMCcsICctbWV0YWxfYmluZGluZycsICctaW1hZScsICc8aW5maWxlLm1hZT4nLCAnLW9tYWUnLCAnPG91dGZpbGUubWFlPic=

> <r_lp_tautomer_probability>
1

> <r_epik_Ionization_Penalty>
0.00380107

> <r_epik_Ionization_Penalty_Charging>
0.00211816

> <r_epik_Ionization_Penalty_Neutral>
0.00168291

> <r_epik_State_Penalty>
-0

> <r_epik_Charging_Adjusted_Penalty>
0.00211816

> <i_epik_Tot_Q>
1

> <i_epik_Tot_abs_Q>
1

> <r_epik_Metal_State_Penalty>
-0

> <b_epik_Metal_Only>
0

> <s_lp_Force_Field>
OPLS_2005

> <r_lp_Energy>
33.9821

> <b_lp_Chiralities_Consistent>
1

> <s_lp_Variant>
AV-unprocessed.smi:1657-1

> <Gold.Version>
5.8.1

> <Gold.Id.Protein>
6NUR|6NUR_protein|mol2

> <Gold.PLP.Fitness>
53.6246

> <Gold.PLP.PLP>
-46.5591

> <Gold.PLP.part.hbond>
-3.9410

> <Gold.PLP.part.metal>
0.0000

> <Gold.PLP.part.buried>
-4.0680

> <Gold.PLP.part.nonpolar>
-39.3840

> <Gold.PLP.part.repulsive>
0.4658

> <Gold.PLP.ligand.clash>
0.0000

> <Gold.PLP.ligand.torsion>
1.1596

> <Gold.PLP.Chemscore.Hbond>
3.0000

> <Gold.PLP.Chemscore.CHOScore>
0.0000

> <Gold.PLP.Chemscore.Metal>
0.0000

> <Gold.Chemscore.Hbonds>
donor molecule, donor type, donor heavy atom, donor atom, acceptor molecule, acceptor atom, score
      L1  H     3    25       P1  7948  0.99
      L1  H     6    52       P1  7948  2.00

> <Gold.PLP.Chemscore.Internal.Correction>
0.3847

> <Gold.Rescore>
     Score         DG    S(hbond)    S(metal)    S(lipo)     H(rot)  DE(clash)    DE(int)     intcor
     18.44     -21.14       1.99        0.00     112.47       1.62       0.22       2.47       ----

> <Gold.Chemscore.Fitness>
18.4424

> <Gold.Chemscore.DG>
-21.1374

> <Gold.Chemscore.ZeroCoef>
-5.4800

> <Gold.Chemscore.Hbond>
1.9896

> <Gold.Chemscore.Metal>
0.0000

> <Gold.Chemscore.Lipo>
112.4750

> <Gold.Chemscore.Internal_Hbond>
0.0000

> <Gold.Chemscore.DEClash>
0.2249

> <Gold.Chemscore.DEInternal>
2.4700

> <Gold.Chemscore.Rot>
1.6201

> <Gold.Chemscore.Internal.Correction>
   9.000000E+99

> <Gold.Chemscore.Hbonds>
donor molecule, donor type, donor heavy atom, donor atom, acceptor molecule, acceptor atom, score
      L1  H     3    25       P1  7948  0.91
      L1  H     6    52       P1  7948  1.00

> <Gold.Chemscore.Hbond.Weighted>
-6.6453

> <Gold.Chemscore.Metal.Weighted>
-0.0000

> <Gold.Chemscore.Lipo.Weighted>
-13.1596

> <Gold.Chemscore.Internal_Hbond.Weighted>
0.0000

> <Gold.Chemscore.DEClash.Weighted>
0.2249

> <Gold.Chemscore.DEInternal.Weighted>
2.4700

> <Gold.Chemscore.Rot.Weighted>
4.1475

> <Gold.Chemscore.Internal.Correction.Weighted>
   9.000000E+99

> <Gold.Protein.RotatedTorsions>
[ 6907 6896 6895 6894 ] final  -51.94 input  -60.11 | X-H torsion
[ 7974 7965 7964 7962 ] final -128.17 input  175.53 | X-H torsion
[ 8008 7997 7996 7995 ] final  -87.80 input   59.86 | X-H torsion
[ 10167 10162 10161 10158 ] final  -50.61 input  -65.29 | X-H torsion
[ 10718 10713 10712 10709 ] final -130.44 input   66.30 | X-H torsion
[ 10763 10752 10751 10750 ] final   42.89 input  -60.55 | X-H torsion
[ 11005 11000 10999 10996 ] final -119.20 input  -57.11 | X-H torsion

> <Gold.Protein.ActiveResidues>
 VAL166  LYS551  ARG553  GLY616  TRP617  ASP618  TYR619  PRO620  LYS621  CYS622 
 ASP623  PHE694  ASN695  SER759  ASP760  ASP761  ALA762  ILE779  LEU786  VAL792 
 PHE793  MET794  SER795  GLU796  ALA797  LYS798  CYS799  TRP800  GLU811  SER814 

> <Gold.Protein.RotatedAtoms>
  150.8564  134.7904  159.7048 H   0  0  0  0  0  0  0  0  0  0  0  0  # atno 6907 bound_to 6896
  152.4614  134.5171  159.9781 H   0  0  0  0  0  0  0  0  0  0  0  0  # atno 6908 bound_to 6896
  151.5283  133.3415  159.2949 H   0  0  0  0  0  0  0  0  0  0  0  0  # atno 6909 bound_to 6896
  144.9697  140.7532  143.4678 H   0  0  0  0  0  0  0  0  0  0  0  0  # atno 7974 bound_to 7965
  154.6675  140.0561  157.0129 H   0  0  0  0  0  0  0  0  0  0  0  0  # atno 8008 bound_to 7997
  155.1138  140.3241  155.4496 H   0  0  0  0  0  0  0  0  0  0  0  0  # atno 8009 bound_to 7997
  156.2644  140.2009  156.6262 H   0  0  0  0  0  0  0  0  0  0  0  0  # atno 8010 bound_to 7997
  140.6629  143.2651  151.4385 H   0  0  0  0  0  0  0  0  0  0  0  0  # atno 10167 bound_to 10162
  156.2144  130.6939  151.0686 H   0  0  0  0  0  0  0  0  0  0  0  0  # atno 10718 bound_to 10713
  152.9873  135.6118  154.3022 H   0  0  0  0  0  0  0  0  0  0  0  0  # atno 10763 bound_to 10752
  154.2742  135.2778  155.2727 H   0  0  0  0  0  0  0  0  0  0  0  0  # atno 10764 bound_to 10752
  154.5095  135.5845  153.6651 H   0  0  0  0  0  0  0  0  0  0  0  0  # atno 10765 bound_to 10752
  141.0232  134.0092  157.3252 H   0  0  0  0  0  0  0  0  0  0  0  0  # atno 11005 bound_to 11000
  145.2577  139.2005  143.4908 LP  0  0  0  0  0  0  0  0  0  0  0  0  # atno 17320 bound_to 7965
  146.3378  140.2502  142.8598 LP  0  0  0  0  0  0  0  0  0  0  0  0  # atno 17321 bound_to 7965
  139.5868  144.1586  152.2039 LP  0  0  0  0  0  0  0  0  0  0  0  0  # atno 17342 bound_to 10162
  140.0929  144.5605  150.7042 LP  0  0  0  0  0  0  0  0  0  0  0  0  # atno 17343 bound_to 10162
  157.7056  131.0758  150.6679 LP  0  0  0  0  0  0  0  0  0  0  0  0  # atno 17370 bound_to 10713
  156.6740  130.4547  149.5648 LP  0  0  0  0  0  0  0  0  0  0  0  0  # atno 17371 bound_to 10713
  139.9159  135.0196  156.7880 LP  0  0  0  0  0  0  0  0  0  0  0  0  # atno 17394 bound_to 11000
  140.6536  133.9709  155.7768 LP  0  0  0  0  0  0  0  0  0  0  0  0  # atno 17395 bound_to 11000

$$$$
