#       Name:                AV-unprocessed.smi:72
#       Creating user name   scv26
#       Creation time:       Thu Mar 26 17:04:54 2020


#       File generated by GOLD software.
#

@<TRIPOS>MOLECULE
AV-unprocessed.smi:72
    41    42     1
SMALL
NO_CHARGES


@<TRIPOS>ATOM
      1 ****         1.1555   4.6269   1.1876 N.2            1 S1                 0.0000
      2 ****         0.5739   3.5727   0.8140 C.2            1 S1                 0.0000
      3 ****         0.7725   3.0690  -0.5264 N.2            1 S1                 0.0000
      4 ****         0.2061   1.9442  -0.8384 C.2            1 S1                 0.0000
      5 ****        -0.5690   1.1710   0.1284 N.am           1 S1                 0.0000
      6 ****        -1.2511  -0.1378  -0.2562 C.3            1 S1                 0.0000
      7 ****        -0.7752  -0.5716  -1.5029 O.3            1 S1                 0.0000
      8 ****         0.1193  -1.6764  -1.3755 C.3            1 S1                 0.0000
      9 ****         1.5754  -1.1913  -1.1866 C.3            1 S1                 0.0000
     10 ****         2.0875  -0.7193  -2.4146 O.3            1 S1                 0.0000
     11 ****        -0.4825  -2.4114  -0.1740 C.3            1 S1                 0.0000
     12 ****         0.4367  -3.2662   0.4778 O.3            1 S1                 0.0000
     13 ****        -0.9514  -1.2861   0.7384 C.3            1 S1                 0.0000
     14 ****        -2.1124  -1.7034   1.4288 O.3            1 S1                 0.0000
     15 ****        -0.8428   1.7570   1.3963 C.2            1 S1                 0.0000
     16 ****        -1.6205   1.1770   2.1535 O.2            1 S1                 0.0000
     17 ****        -0.2483   2.9398   1.7181 N.pl3          1 S1                -1.0000
     18 ****        -2.3082   0.1208  -0.3365 H              1 S1                 0.0000
     19 ****         0.0617  -2.3074  -2.2635 H              1 S1                 0.0000
     20 ****        -1.3351  -2.9993  -0.5188 H              1 S1                 0.0000
     21 ****        -0.1604  -0.9927   1.4307 H              1 S1                 0.0000
     22 ****         0.9287   4.8731   2.1401 H              1 S1                 0.0000
     23 ****         0.2806   1.5162  -1.8378 H              1 S1                 0.0000
     24 ****         1.6672  -0.4312  -0.4125 H              1 S1                 0.0000
     25 ****         2.2185  -2.0183  -0.8864 H              1 S1                 0.0000
     26 ****         2.9765  -0.4296  -2.2768 H              1 S1                 0.0000
     27 ****         0.0069  -3.6423   1.2311 H              1 S1                 0.0000
     28 ****        -2.4126  -0.9814   1.9610 H              1 S1                 0.0000
     29 ****         1.7716   5.1588   0.6066 LP             1 S1                 0.0000
     30 ****         1.3274   3.5703  -1.1903 LP             1 S1                 0.0000
     31 ****        -0.2940   0.1846  -1.9463 LP             1 S1                 0.0000
     32 ****        -1.5528  -0.8486  -2.0673 LP             1 S1                 0.0000
     33 ****         1.5306   0.0443  -2.7413 LP             1 S1                 0.0000
     34 ****         2.0736  -1.4555  -3.0913 LP             1 S1                 0.0000
     35 ****         1.2368  -2.7427   0.7708 LP             1 S1                 0.0000
     36 ****         0.7241  -3.9931  -0.1460 LP             1 S1                 0.0000
     37 ****        -1.8972  -2.4874   2.0111 LP             1 S1                 0.0000
     38 ****        -2.8228  -1.9600   0.7735 LP             1 S1                 0.0000
     39 ****        -2.0429   0.3153   1.8723 LP             1 S1                 0.0000
     40 ****        -1.8299   1.5673   3.0500 LP             1 S1                 0.0000
     41 ****        -0.4101   3.3501   2.6156 LP             1 S1                 0.0000
@<TRIPOS>BOND
    1    1    2 2     
    2    1   22 1     
    3    2   17 1     
    4    2    3 1     
    5    3    4 2     
    6    4    5 1     
    7    4   23 1     
    8    5    6 1     
    9    5   15 am    
   10    6   18 1     
   11    6   13 1     
   12    6    7 1     
   13    7    8 1     
   14    8   19 1     
   15    8    9 1     
   16    8   11 1     
   17    9   10 1     
   18    9   24 1     
   19    9   25 1     
   20   10   26 1     
   21   11   20 1     
   22   11   12 1     
   23   11   13 1     
   24   12   27 1     
   25   13   21 1     
   26   13   14 1     
   27   14   28 1     
   28   15   16 2     
   29   15   17 1     
   30    1   29 1     
   31    3   30 1     
   32    7   31 1     
   33    7   32 1     
   34   10   33 1     
   35   10   34 1     
   36   12   35 1     
   37   12   36 1     
   38   14   37 1     
   39   14   38 1     
   40   16   39 1     
   41   16   40 1     
   42   17   41 1     
@<TRIPOS>SUBSTRUCTURE
      1 S1             1
@<TRIPOS>SET
LONE_PAIRS      STATIC     ATOMS    <user>   **** ""
13 29 30 31 32 33 34 35 36 37 38 39 40 41
DONOR_HYDROGENS      STATIC     ATOMS    <user>   **** ""
4 22 26 27 28
ATOM$BLUE        STATIC     ATOMS    COLORGROUP SYSTEM
13 29 30 31 32 33 34 35 36 37 38 39 40 41
ATOM$RED        STATIC     ATOMS    COLORGROUP SYSTEM
4 22 26 27 28
