#       Name:                AV-unprocessed.smi:400
#       Creating user name   scv26
#       Creation time:       Thu Mar 26 22:43:53 2020


#       File generated by GOLD software.
#

@<TRIPOS>MOLECULE
AV-unprocessed.smi:400
    46    47     1
SMALL
NO_CHARGES


@<TRIPOS>ATOM
      1 ****        -4.5258  -1.3281   2.2553 C.3            1 S1                 0.0000
      2 ****        -4.7725  -2.2560   1.0553 C.3            1 S1                 0.0000
      3 ****        -4.1628  -1.7529  -0.2722 C.3            1 S1                 0.0000
      4 ****        -4.6015  -2.6408  -1.4495 C.3            1 S1                 0.0000
      5 ****        -2.6289  -1.6804  -0.2084 C.2            1 S1                 0.0000
      6 ****        -1.9785  -2.7090  -0.0189 O.2            1 S1                 0.0000
      7 ****        -2.0919  -0.4556  -0.3669 N.am           1 S1                 0.0000
      8 ****        -0.7209  -0.0859  -0.3493 C.ar           1 S1                 0.0000
      9 ****        -0.4684   1.2892  -0.5381 C.ar           1 S1                 0.0000
     10 ****         0.8590   1.7586  -0.5345 C.ar           1 S1                 0.0000
     11 ****         1.9219   0.8449  -0.3380 C.ar           1 S1                 0.0000
     12 ****         3.2772   1.2406  -0.3222 N.3            1 S1                 0.0000
     13 ****         3.6101   2.5907  -0.7676 C.3            1 S1                 0.0000
     14 ****         5.1284   2.7277  -0.9748 C.3            1 S1                 0.0000
     15 ****         5.8108   2.3571   0.2184 O.3            1 S1                 0.0000
     16 ****         5.5608   1.0003   0.5703 C.3            1 S1                 0.0000
     17 ****         4.0579   0.7967   0.8303 C.3            1 S1                 0.0000
     18 ****         1.5651  -0.5122  -0.1635 C.ar           1 S1                 0.0000
     19 ****         0.2938  -0.9640  -0.1678 N.ar           1 S1                 0.0000
     20 ****        -5.0306  -1.7062   3.1444 H              1 S1                 0.0000
     21 ****        -4.9052  -0.3247   2.0609 H              1 S1                 0.0000
     22 ****        -3.4648  -1.2468   2.4922 H              1 S1                 0.0000
     23 ****        -4.3952  -3.2531   1.2873 H              1 S1                 0.0000
     24 ****        -5.8497  -2.3696   0.9283 H              1 S1                 0.0000
     25 ****        -4.5483  -0.7492  -0.4605 H              1 S1                 0.0000
     26 ****        -4.1610  -2.3032  -2.3885 H              1 S1                 0.0000
     27 ****        -5.6847  -2.6180  -1.5722 H              1 S1                 0.0000
     28 ****        -4.3090  -3.6809  -1.2990 H              1 S1                 0.0000
     29 ****        -2.7441   0.3005  -0.5143 H              1 S1                 0.0000
     30 ****        -1.2823   1.9847  -0.6830 H              1 S1                 0.0000
     31 ****         1.0343   2.8147  -0.6731 H              1 S1                 0.0000
     32 ****         3.0984   2.8165  -1.7039 H              1 S1                 0.0000
     33 ****         3.2704   3.3120  -0.0231 H              1 S1                 0.0000
     34 ****         5.4650   2.1072  -1.8069 H              1 S1                 0.0000
     35 ****         5.3818   3.7582  -1.2238 H              1 S1                 0.0000
     36 ****         5.9112   0.3371  -0.2224 H              1 S1                 0.0000
     37 ****         6.1327   0.7549   1.4652 H              1 S1                 0.0000
     38 ****         3.7508   1.3715   1.7049 H              1 S1                 0.0000
     39 ****         3.8783  -0.2521   1.0623 H              1 S1                 0.0000
     40 ****         2.3186  -1.2745  -0.0330 H              1 S1                 0.0000
     41 ****        -2.4487  -3.5845   0.0924 LP             1 S1                 0.0000
     42 ****        -0.9802  -2.6686   0.0237 LP             1 S1                 0.0000
     43 ****         3.5984   0.6869  -1.0905 LP             1 S1                 0.0000
     44 ****         5.5022   2.9472   0.9644 LP             1 S1                 0.0000
     45 ****         6.7936   2.4801   0.0808 LP             1 S1                 0.0000
     46 ****         0.1029  -1.9370  -0.0383 LP             1 S1                 0.0000
@<TRIPOS>BOND
    1    1    2 1     
    2    1   20 1     
    3    1   21 1     
    4    1   22 1     
    5    2    3 1     
    6    2   23 1     
    7    2   24 1     
    8    3    4 1     
    9    3    5 1     
   10    3   25 1     
   11    4   26 1     
   12    4   27 1     
   13    4   28 1     
   14    5    6 2     
   15    5    7 am    
   16    7    8 1     
   17    7   29 1     
   18    8   19 ar    
   19    8    9 ar    
   20    9   10 ar    
   21    9   30 1     
   22   10   11 ar    
   23   10   31 1     
   24   11   12 1     
   25   11   18 ar    
   26   12   17 1     
   27   12   13 1     
   28   13   14 1     
   29   13   32 1     
   30   13   33 1     
   31   14   15 1     
   32   14   34 1     
   33   14   35 1     
   34   15   16 1     
   35   16   17 1     
   36   16   36 1     
   37   16   37 1     
   38   17   38 1     
   39   17   39 1     
   40   18   19 ar    
   41   18   40 1     
   42    6   41 1     
   43    6   42 1     
   44   12   43 1     
   45   15   44 1     
   46   15   45 1     
   47   19   46 1     
@<TRIPOS>SUBSTRUCTURE
      1 S1             1
@<TRIPOS>SET
LONE_PAIRS      STATIC     ATOMS    <user>   **** ""
6 41 42 43 44 45 46
DONOR_HYDROGENS      STATIC     ATOMS    <user>   **** ""
1 29
ATOM$BLUE        STATIC     ATOMS    COLORGROUP SYSTEM
6 41 42 43 44 45 46
ATOM$RED        STATIC     ATOMS    COLORGROUP SYSTEM
1 29
