#       Name:                AV-unprocessed.smi:1954
#       Creating user name   scv26
#       Creation time:       Fri Mar 27 10:05:09 2020


#       File generated by GOLD software.
#

@<TRIPOS>MOLECULE
AV-unprocessed.smi:1954
    50    52     1
SMALL
NO_CHARGES


@<TRIPOS>ATOM
      1 ****        -0.2955   3.0106   0.4250 O.2            1 S1                 0.0000
      2 ****        -0.7706   1.8985   0.1929 C.2            1 S1                 0.0000
      3 ****        -0.0229   0.8092  -0.0239 N.am           1 S1                 0.0000
      4 ****         1.4366   0.7854  -0.0064 C.3            1 S1                 0.0000
      5 ****         2.0064  -0.5612  -0.5577 C.3            1 S1                 0.0000
      6 ****         1.4023  -1.7177   0.1731 N.3            1 S1                 0.0000
      7 ****         1.7110  -3.0529  -0.3596 C.3            1 S1                 0.0000
      8 ****         0.9833  -4.1723   0.4047 C.3            1 S1                 0.0000
      9 ****         1.3064  -4.1016   1.7866 O.3            1 S1                 0.0000
     10 ****         0.9482  -2.8504   2.3568 C.3            1 S1                 0.0000
     11 ****         1.6773  -1.7171   1.6166 C.3            1 S1                 0.0000
     12 ****         1.7383  -0.5900  -2.0908 C.3            1 S1                 0.0000
     13 ****         2.6566   0.4223  -2.7849 C.3            1 S1                 0.0000
     14 ****         4.1938   0.4976  -1.8356 S.3            1 S1                 0.0000
     15 ****         3.5531  -0.5089  -0.4689 C.3            1 S1                 0.0000
     16 ****        -2.0822   1.6088   0.1278 N.am           1 S1                 0.0000
     17 ****        -3.1846   2.4905   0.2851 C.ar           1 S1                 0.0000
     18 ****        -4.4567   1.8805   0.1999 C.ar           1 S1                 0.0000
     19 ****        -5.6146   2.6698   0.3402 C.ar           1 S1                 0.0000
     20 ****        -5.4708   4.0512   0.5609 C.ar           1 S1                 0.0000
     21 ****        -4.1684   4.5788   0.6319 C.ar           1 S1                 0.0000
     22 ****        -3.0573   3.8240   0.4987 N.ar           1 S1                 0.0000
     23 ****        -0.4883  -0.0686  -0.2036 H              1 S1                 0.0000
     24 ****         1.8056   1.6375  -0.5769 H              1 S1                 0.0000
     25 ****         1.7786   0.9777   1.0102 H              1 S1                 0.0000
     26 ****         1.4047  -3.1410  -1.3990 H              1 S1                 0.0000
     27 ****         2.7827  -3.2442  -0.3219 H              1 S1                 0.0000
     28 ****        -0.0967  -4.0925   0.2718 H              1 S1                 0.0000
     29 ****         1.2808  -5.1478   0.0201 H              1 S1                 0.0000
     30 ****        -0.1330  -2.7126   2.3055 H              1 S1                 0.0000
     31 ****         1.2214  -2.8499   3.4118 H              1 S1                 0.0000
     32 ****         2.7496  -1.8115   1.7918 H              1 S1                 0.0000
     33 ****         1.3655  -0.7817   2.0758 H              1 S1                 0.0000
     34 ****         2.0031  -1.5532  -2.5207 H              1 S1                 0.0000
     35 ****         0.6908  -0.4193  -2.3405 H              1 S1                 0.0000
     36 ****         2.8568   0.1435  -3.8196 H              1 S1                 0.0000
     37 ****         2.2021   1.4131  -2.7997 H              1 S1                 0.0000
     38 ****         3.9052  -0.1166   0.4857 H              1 S1                 0.0000
     39 ****         3.9946  -1.4970  -0.5861 H              1 S1                 0.0000
     40 ****        -2.3198   0.6456  -0.0569 H              1 S1                 0.0000
     41 ****        -4.5492   0.8176   0.0294 H              1 S1                 0.0000
     42 ****        -6.5957   2.2221   0.2794 H              1 S1                 0.0000
     43 ****        -6.3347   4.6895   0.6727 H              1 S1                 0.0000
     44 ****        -4.0136   5.6343   0.8001 H              1 S1                 0.0000
     45 ****         0.6963   3.1335   0.4588 LP             1 S1                 0.0000
     46 ****        -0.9015   3.7909   0.5796 LP             1 S1                 0.0000
     47 ****         0.4287  -1.5544   0.0134 LP             1 S1                 0.0000
     48 ****         2.2916  -4.2347   1.8944 LP             1 S1                 0.0000
     49 ****         0.8171  -4.8278   2.2695 LP             1 S1                 0.0000
     50 ****        -2.1511   4.2429   0.5568 LP             1 S1                 0.0000
@<TRIPOS>BOND
    1    1    2 2     
    2    2    3 am    
    3    2   16 am    
    4    3    4 1     
    5    3   23 1     
    6    4    5 1     
    7    4   24 1     
    8    4   25 1     
    9    5   15 1     
   10    5    6 1     
   11    5   12 1     
   12    6   11 1     
   13    6    7 1     
   14    7    8 1     
   15    7   26 1     
   16    7   27 1     
   17    8    9 1     
   18    8   28 1     
   19    8   29 1     
   20    9   10 1     
   21   10   11 1     
   22   10   30 1     
   23   10   31 1     
   24   11   32 1     
   25   11   33 1     
   26   12   13 1     
   27   12   34 1     
   28   12   35 1     
   29   13   14 1     
   30   13   36 1     
   31   13   37 1     
   32   14   15 1     
   33   15   38 1     
   34   15   39 1     
   35   16   17 1     
   36   16   40 1     
   37   17   22 ar    
   38   17   18 ar    
   39   18   19 ar    
   40   18   41 1     
   41   19   20 ar    
   42   19   42 1     
   43   20   21 ar    
   44   20   43 1     
   45   21   22 ar    
   46   21   44 1     
   47    1   45 1     
   48    1   46 1     
   49    6   47 1     
   50    9   48 1     
   51    9   49 1     
   52   22   50 1     
@<TRIPOS>SUBSTRUCTURE
      1 S1             1
@<TRIPOS>SET
LONE_PAIRS      STATIC     ATOMS    <user>   **** ""
6 45 46 47 48 49 50
DONOR_HYDROGENS      STATIC     ATOMS    <user>   **** ""
2 23 40
ATOM$BLUE        STATIC     ATOMS    COLORGROUP SYSTEM
6 45 46 47 48 49 50
ATOM$RED        STATIC     ATOMS    COLORGROUP SYSTEM
2 23 40
