#       Name:                AV-unprocessed.smi:2825
#       Creating user name   scv26
#       Creation time:       Fri Mar 27 15:33:48 2020


#       File generated by GOLD software.
#

@<TRIPOS>MOLECULE
AV-unprocessed.smi:2825
    51    52     1
SMALL
NO_CHARGES


@<TRIPOS>ATOM
      1 ****        -5.1680  -0.8695   2.7798 C.3            1 S1                 0.0000
      2 ****        -3.8618  -0.5704   2.0370 C.3            1 S1                 0.0000
      3 ****        -4.1027   0.0807   0.6675 C.3            1 S1                 0.0000
      4 ****        -2.5176   0.4244  -0.2143 S.o2           1 S1                 0.0000
      5 ****        -2.8054   1.1876  -1.4382 O.2            1 S1                 0.0000
      6 ****        -1.5476   0.9419   0.7634 O.2            1 S1                 0.0000
      7 ****        -1.9978  -1.1590  -0.7012 N.pl3          1 S1                 0.0000
      8 ****        -2.6998  -1.8108  -1.8121 C.3            1 S1                 0.0000
      9 ****        -0.5716  -1.5001  -0.5904 C.3            1 S1                 0.0000
     10 ****        -0.2155  -1.9449   0.8463 C.3            1 S1                 0.0000
     11 ****        -0.4199  -3.3391   0.9448 O.3            1 S1                 0.0000
     12 ****         1.2499  -1.6707   1.2399 C.3            1 S1                 0.0000
     13 ****         1.5472  -0.2347   1.3407 N.pl3          1 S1                 0.0000
     14 ****         1.2389   0.6398   2.3366 C.2            1 S1                 0.0000
     15 ****         1.7094   1.8636   1.9707 N.pl3          1 S1                 1.0000
     16 ****         2.3327   1.7693   0.7251 C.ar           1 S1                 0.0000
     17 ****         2.9552   2.7368  -0.0545 C.ar           1 S1                 0.0000
     18 ****         3.4955   2.3190  -1.2914 C.ar           1 S1                 0.0000
     19 ****         4.1811   3.3522  -2.1694 C.3            1 S1                 0.0000
     20 ****         3.4010   0.9664  -1.7095 C.ar           1 S1                 0.0000
     21 ****         3.9814   0.5285  -3.0434 C.3            1 S1                 0.0000
     22 ****         2.7663  -0.0030  -0.9006 C.ar           1 S1                 0.0000
     23 ****         2.2374   0.4246   0.3156 C.ar           1 S1                 0.0000
     24 ****        -4.9684  -1.3310   3.7472 H              1 S1                 0.0000
     25 ****        -5.7971  -1.5531   2.2090 H              1 S1                 0.0000
     26 ****        -5.7378   0.0428   2.9581 H              1 S1                 0.0000
     27 ****        -3.2404   0.0799   2.6530 H              1 S1                 0.0000
     28 ****        -3.3057  -1.4990   1.9066 H              1 S1                 0.0000
     29 ****        -4.7322  -0.5429   0.0339 H              1 S1                 0.0000
     30 ****        -4.6170   1.0332   0.7959 H              1 S1                 0.0000
     31 ****        -2.5227  -2.8867  -1.7978 H              1 S1                 0.0000
     32 ****        -2.3517  -1.4091  -2.7642 H              1 S1                 0.0000
     33 ****        -3.7739  -1.6449  -1.7414 H              1 S1                 0.0000
     34 ****        -0.2924  -2.2702  -1.3117 H              1 S1                 0.0000
     35 ****        -0.0087  -0.6147  -0.8800 H              1 S1                 0.0000
     36 ****        -0.8644  -1.4605   1.5760 H              1 S1                 0.0000
     37 ****         0.1397  -3.7715   0.3181 H              1 S1                 0.0000
     38 ****         1.4550  -2.0992   2.2221 H              1 S1                 0.0000
     39 ****         1.9452  -2.1473   0.5495 H              1 S1                 0.0000
     40 ****         0.7050   0.4067   3.2467 H              1 S1                 0.0000
     41 ****         3.0214   3.7653   0.2697 H              1 S1                 0.0000
     42 ****         3.6667   3.4429  -3.1264 H              1 S1                 0.0000
     43 ****         5.2171   3.0690  -2.3573 H              1 S1                 0.0000
     44 ****         4.1855   4.3358  -1.6988 H              1 S1                 0.0000
     45 ****         3.8089  -0.5327  -3.2252 H              1 S1                 0.0000
     46 ****         5.0578   0.6994  -3.0668 H              1 S1                 0.0000
     47 ****         3.5237   1.0843  -3.8621 H              1 S1                 0.0000
     48 ****         2.6924  -1.0299  -1.2256 H              1 S1                 0.0000
     49 ****         1.6066   2.7006   2.5299 H              1 S1                 0.0000
     50 ****        -1.3763  -3.5540   0.7468 LP             1 S1                 0.0000
     51 ****        -0.1931  -3.6483   1.8683 LP             1 S1                 0.0000
@<TRIPOS>BOND
    1    1    2 1     
    2    1   24 1     
    3    1   25 1     
    4    1   26 1     
    5    2    3 1     
    6    2   27 1     
    7    2   28 1     
    8    3    4 1     
    9    3   29 1     
   10    3   30 1     
   11    4    5 2     
   12    4    6 2     
   13    4    7 1     
   14    7    8 1     
   15    7    9 1     
   16    8   31 1     
   17    8   32 1     
   18    8   33 1     
   19    9   10 1     
   20    9   34 1     
   21    9   35 1     
   22   10   11 1     
   23   10   12 1     
   24   10   36 1     
   25   11   37 1     
   26   12   13 1     
   27   12   38 1     
   28   12   39 1     
   29   13   23 1     
   30   13   14 1     
   31   14   15 2     
   32   14   40 1     
   33   15   16 1     
   34   15   49 1     
   35   16   23 ar    
   36   16   17 ar    
   37   17   18 ar    
   38   17   41 1     
   39   18   19 1     
   40   18   20 ar    
   41   19   42 1     
   42   19   43 1     
   43   19   44 1     
   44   20   21 1     
   45   20   22 ar    
   46   21   45 1     
   47   21   46 1     
   48   21   47 1     
   49   22   23 ar    
   50   22   48 1     
   51   11   50 1     
   52   11   51 1     
@<TRIPOS>SUBSTRUCTURE
      1 S1             1
@<TRIPOS>SET
LONE_PAIRS      STATIC     ATOMS    <user>   **** ""
4 5 6 50 51
DONOR_HYDROGENS      STATIC     ATOMS    <user>   **** ""
2 37 49
ATOM$BLUE        STATIC     ATOMS    COLORGROUP SYSTEM
4 5 6 50 51
ATOM$RED        STATIC     ATOMS    COLORGROUP SYSTEM
2 37 49
