#       Name:                AV-unprocessed.smi:1607
#       Creating user name   scv26
#       Creation time:       Fri Mar 27 07:12:23 2020


#       File generated by GOLD software.
#

@<TRIPOS>MOLECULE
AV-unprocessed.smi:1607
    44    45     1
SMALL
NO_CHARGES


@<TRIPOS>ATOM
      1 ****        -0.5064   2.4968  -4.0065 C.3            1 S1                 0.0000
      2 ****        -0.9427   2.3471  -2.5421 C.3            1 S1                 0.0000
      3 ****        -2.4686   2.4699  -2.3961 C.3            1 S1                 0.0000
      4 ****        -2.8775   2.2908  -0.9290 C.3            1 S1                 0.0000
      5 ****        -2.3425   0.9645  -0.3671 C.3            1 S1                 0.0000
      6 ****        -0.8669   0.8738  -0.5174 N.4            1 S1                 1.0000
      7 ****        -0.3118  -0.3377   0.1380 C.3            1 S1                 0.0000
      8 ****         1.1779  -0.1869   0.4878 C.3            1 S1                 0.0000
      9 ****         1.6628  -1.3748   1.1768 N.am           1 S1                 0.0000
     10 ****         2.8385  -1.4498   1.8198 C.2            1 S1                 0.0000
     11 ****         3.6395  -0.5171   1.8675 O.2            1 S1                 0.0000
     12 ****         3.1704  -2.7769   2.5076 C.3            1 S1                 0.0000
     13 ****         2.1756  -3.1315   3.5042 N.pl3          1 S1                 0.0000
     14 ****         1.1918  -4.0328   3.4781 C.2            1 S1                 0.0000
     15 ****         0.4965  -4.0312   4.6050 N.2            1 S1                 0.0000
     16 ****         1.1238  -3.0547   5.3603 N.2            1 S1                 0.0000
     17 ****         2.1223  -2.5188   4.7135 N.2            1 S1                 0.0000
     18 ****        -0.4536   1.0141  -1.9402 C.3            1 S1                 0.0000
     19 ****        -0.9306   1.7091  -4.6302 H              1 S1                 0.0000
     20 ****         0.5788   2.4479  -4.1007 H              1 S1                 0.0000
     21 ****        -0.8286   3.4547  -4.4161 H              1 S1                 0.0000
     22 ****        -0.4827   3.1602  -1.9783 H              1 S1                 0.0000
     23 ****        -2.8074   3.4408  -2.7595 H              1 S1                 0.0000
     24 ****        -2.9641   1.7162  -3.0099 H              1 S1                 0.0000
     25 ****        -2.4936   3.1223  -0.3363 H              1 S1                 0.0000
     26 ****        -3.9638   2.3225  -0.8391 H              1 S1                 0.0000
     27 ****        -2.6126   0.8917   0.6872 H              1 S1                 0.0000
     28 ****        -2.8141   0.1216  -0.8749 H              1 S1                 0.0000
     29 ****        -0.8558  -0.5233   1.0657 H              1 S1                 0.0000
     30 ****        -0.4777  -1.2104  -0.4958 H              1 S1                 0.0000
     31 ****         1.7834  -0.0419  -0.4067 H              1 S1                 0.0000
     32 ****         1.3206   0.6907   1.1208 H              1 S1                 0.0000
     33 ****         1.0633  -2.1876   1.1771 H              1 S1                 0.0000
     34 ****         3.2256  -3.5715   1.7624 H              1 S1                 0.0000
     35 ****         4.1472  -2.7180   2.9902 H              1 S1                 0.0000
     36 ****         0.9832  -4.6804   2.6394 H              1 S1                 0.0000
     37 ****        -0.8449   0.1736  -2.5161 H              1 S1                 0.0000
     38 ****         0.6319   0.9700  -2.0208 H              1 S1                 0.0000
     39 ****        -0.4865   1.6667  -0.0205 H              1 S1                 0.0000
     40 ****         3.4270   0.3481   1.4134 LP             1 S1                 0.0000
     41 ****         4.5029  -0.6243   2.3605 LP             1 S1                 0.0000
     42 ****        -0.2903  -4.5974   4.8509 LP             1 S1                 0.0000
     43 ****         0.8465  -2.7932   6.2849 LP             1 S1                 0.0000
     44 ****         2.7300  -1.7970   5.0447 LP             1 S1                 0.0000
@<TRIPOS>BOND
    1    1    2 1     
    2    1   19 1     
    3    1   20 1     
    4    1   21 1     
    5    2   18 1     
    6    2    3 1     
    7    2   22 1     
    8    3    4 1     
    9    3   23 1     
   10    3   24 1     
   11    4    5 1     
   12    4   25 1     
   13    4   26 1     
   14    5    6 1     
   15    5   27 1     
   16    5   28 1     
   17    6    7 1     
   18    6   18 1     
   19    6   39 1     
   20    7    8 1     
   21    7   29 1     
   22    7   30 1     
   23    8    9 1     
   24    8   31 1     
   25    8   32 1     
   26    9   10 am    
   27    9   33 1     
   28   10   11 2     
   29   10   12 1     
   30   12   13 1     
   31   12   34 1     
   32   12   35 1     
   33   13   17 1     
   34   13   14 1     
   35   14   15 2     
   36   14   36 1     
   37   15   16 1     
   38   16   17 2     
   39   18   37 1     
   40   18   38 1     
   41   11   40 1     
   42   11   41 1     
   43   15   42 1     
   44   16   43 1     
   45   17   44 1     
@<TRIPOS>SUBSTRUCTURE
      1 S1             1
@<TRIPOS>SET
LONE_PAIRS      STATIC     ATOMS    <user>   **** ""
5 40 41 42 43 44
DONOR_HYDROGENS      STATIC     ATOMS    <user>   **** ""
2 39 33
ATOM$BLUE        STATIC     ATOMS    COLORGROUP SYSTEM
5 40 41 42 43 44
ATOM$RED        STATIC     ATOMS    COLORGROUP SYSTEM
2 39 33
